MODEL        1
REMARK 921   NORMALIZED FREE ENERGY PREDICTED BY IDOCK:   -7.13 KCAL/MOL
REMARK 922        TOTAL FREE ENERGY PREDICTED BY IDOCK:   -8.47 KCAL/MOL
REMARK 923 INTER-LIGAND FREE ENERGY PREDICTED BY IDOCK:   -7.97 KCAL/MOL
REMARK 924 INTRA-LIGAND FREE ENERGY PREDICTED BY IDOCK:   -0.51 KCAL/MOL
REMARK 927      BINDING AFFINITY PREDICTED BY RF-SCORE:    0.00 PKD
ROOT
HETATM    1  C   UNL     1      -7.145  18.400  65.873  1.00  0.00    -0.255 C  
HETATM    2  N   UNL     1      -8.164  18.839  66.791  1.00  0.00    -0.269 NA 
HETATM    3  C   UNL     1      -8.214  18.220  68.123  1.00  0.00    -0.283 C  
HETATM    4  C   UNL     1      -8.638  16.737  68.051  1.00  0.00    -0.210 C  
HETATM    5  C   UNL     1     -10.022  16.549  67.407  1.00  0.00    -0.267 C  
HETATM    6  C   UNL     1     -10.179  17.442  66.157  1.00  0.00    -0.334 C  
HETATM    7  O   UNL     1     -10.640  18.939  68.643  1.00  0.00    -0.159 OA 
HETATM    8  C   UNL     1      -9.560  18.859  66.331  1.00  0.00    -0.351 C  
HETATM    9  C   UNL     1      -9.237  19.185  68.710  1.00  0.00    -0.359 C  
HETATM   10  C   UNL     1     -10.085  19.631  67.534  1.00  0.00    -0.409 C  
ENDROOT
BRANCH   5  11
HETATM   11  O   UNL     1     -10.476  15.173  67.263  1.00  0.00    -0.262 OA 
BRANCH  11  12
HETATM   12  C   UNL     1     -11.480  14.660  68.001  1.00  0.00    -0.324 C  
HETATM   13  C   UNL     1     -11.676  12.902  66.070  1.00  0.00    -0.456 A  
HETATM   14  C   UNL     1     -11.980  13.296  67.519  1.00  0.00    -0.371 C  
HETATM   15  C   UNL     1     -11.584  12.265  68.589  1.00  0.00    -0.323 C  
HETATM   16  C   UNL     1     -12.447  13.457  65.030  1.00  0.00    -0.479 A  
HETATM   17  O   UNL     1     -12.370  11.076  68.494  1.00  0.00    -0.762 OA 
HETATM   18  O   UNL     1     -11.940  15.218  68.997  1.00  0.00    -0.323 OA 
HETATM   19  C   UNL     1     -12.259  13.077  63.694  1.00  0.00    -0.568 A  
HETATM   20  H   UNL     1     -12.126  10.438  69.154  1.00  0.00     0.000 HD 
HETATM   21  C   UNL     1     -11.297  12.128  63.365  1.00  0.00    -0.495 A  
HETATM   22  C   UNL     1     -10.531  11.556  64.376  1.00  0.00    -0.380 A  
HETATM   23  C   UNL     1     -10.720  11.934  65.714  1.00  0.00    -0.327 A  
ENDBRANCH  11  12
ENDBRANCH   5  11
TORSDOF 2
ENDMDL
MODEL        2
REMARK 921   NORMALIZED FREE ENERGY PREDICTED BY IDOCK:   -7.10 KCAL/MOL
REMARK 922        TOTAL FREE ENERGY PREDICTED BY IDOCK:   -8.44 KCAL/MOL
REMARK 923 INTER-LIGAND FREE ENERGY PREDICTED BY IDOCK:   -7.93 KCAL/MOL
REMARK 924 INTRA-LIGAND FREE ENERGY PREDICTED BY IDOCK:   -0.51 KCAL/MOL
REMARK 927      BINDING AFFINITY PREDICTED BY RF-SCORE:    0.00 PKD
ROOT
HETATM    1  C   UNL     1      -7.175  17.724  67.331  1.00  0.00    -0.186 C  
HETATM    2  N   UNL     1      -8.354  18.547  67.237  1.00  0.00    -0.251 NA 
HETATM    3  C   UNL     1      -9.128  18.794  68.460  1.00  0.00    -0.342 C  
HETATM    4  C   UNL     1      -9.822  17.512  68.970  1.00  0.00    -0.225 C  
HETATM    5  C   UNL     1     -10.785  16.910  67.933  1.00  0.00    -0.344 C  
HETATM    6  C   UNL     1     -10.159  16.921  66.521  1.00  0.00    -0.320 C  
HETATM    7  O   UNL     1     -11.284  19.537  67.247  1.00  0.00    -0.353 OA 
HETATM    8  C   UNL     1      -9.357  18.219  66.214  1.00  0.00    -0.213 C  
HETATM    9  C   UNL     1     -10.038  19.860  67.861  1.00  0.00    -0.436 C  
HETATM   10  C   UNL     1     -10.152  19.506  66.391  1.00  0.00    -0.455 C  
ENDROOT
BRANCH   5  11
HETATM   11  O   UNL     1     -11.448  15.673  68.321  1.00  0.00    -0.353 OA 
BRANCH  11  12
HETATM   12  C   UNL     1     -10.769  14.545  68.604  1.00  0.00    -0.253 C  
HETATM   13  C   UNL     1     -12.133  14.572  70.839  1.00  0.00    -0.404 A  
HETATM   14  C   UNL     1     -11.290  13.788  69.829  1.00  0.00    -0.200 C  
HETATM   15  C   UNL     1     -11.907  12.474  69.321  1.00  0.00    -0.304 C  
HETATM   16  C   UNL     1     -11.491  15.433  71.750  1.00  0.00    -0.497 A  
HETATM   17  O   UNL     1     -12.003  11.499  70.361  1.00  0.00    -0.349 OA 
HETATM   18  O   UNL     1      -9.829  14.132  67.923  1.00  0.00    -0.215 OA 
HETATM   19  C   UNL     1     -12.207  16.119  72.742  1.00  0.00    -0.628 A  
HETATM   20  H   UNL     1     -12.384  10.687  70.048  1.00  0.00     0.000 HD 
HETATM   21  C   UNL     1     -13.584  15.957  72.849  1.00  0.00    -0.620 A  
HETATM   22  C   UNL     1     -14.239  15.102  71.968  1.00  0.00    -0.673 A  
HETATM   23  C   UNL     1     -13.524  14.414  70.978  1.00  0.00    -0.309 A  
ENDBRANCH  11  12
ENDBRANCH   5  11
TORSDOF 2
ENDMDL
MODEL        3
REMARK 921   NORMALIZED FREE ENERGY PREDICTED BY IDOCK:   -6.88 KCAL/MOL
REMARK 922        TOTAL FREE ENERGY PREDICTED BY IDOCK:   -8.19 KCAL/MOL
REMARK 923 INTER-LIGAND FREE ENERGY PREDICTED BY IDOCK:   -7.74 KCAL/MOL
REMARK 924 INTRA-LIGAND FREE ENERGY PREDICTED BY IDOCK:   -0.45 KCAL/MOL
REMARK 927      BINDING AFFINITY PREDICTED BY RF-SCORE:    0.00 PKD
ROOT
HETATM    1  C   UNL     1      -7.511  18.756  69.107  1.00  0.00    -0.172 C  
HETATM    2  N   UNL     1      -8.355  19.392  68.127  1.00  0.00    -0.318 NA 
HETATM    3  C   UNL     1      -9.808  19.360  68.336  1.00  0.00    -0.428 C  
HETATM    4  C   UNL     1     -10.378  17.932  68.190  1.00  0.00    -0.395 C  
HETATM    5  C   UNL     1     -10.100  17.324  66.804  1.00  0.00    -0.302 C  
HETATM    6  C   UNL     1      -8.652  17.611  66.352  1.00  0.00    -0.269 C  
HETATM    7  O   UNL     1     -10.425  19.908  65.888  1.00  0.00    -0.503 OA 
HETATM    8  C   UNL     1      -8.168  19.045  66.711  1.00  0.00    -0.279 C  
HETATM    9  C   UNL     1     -10.152  20.339  67.220  1.00  0.00    -0.405 C  
HETATM   10  C   UNL     1      -9.059  20.161  66.183  1.00  0.00    -0.220 C  
ENDROOT
BRANCH   5  11
HETATM   11  O   UNL     1     -10.569  15.961  66.601  1.00  0.00    -0.314 OA 
BRANCH  11  12
HETATM   12  C   UNL     1     -10.993  15.510  65.405  1.00  0.00    -0.357 C  
HETATM   13  C   UNL     1     -10.759  13.137  66.487  1.00  0.00    -0.288 A  
HETATM   14  C   UNL     1     -11.349  14.022  65.384  1.00  0.00    -0.315 C  
HETATM   15  C   UNL     1     -12.872  13.923  65.191  1.00  0.00    -0.342 C  
HETATM   16  C   UNL     1      -9.413  12.731  66.396  1.00  0.00    -0.229 A  
HETATM   17  O   UNL     1     -13.260  12.638  64.702  1.00  0.00    -0.828 OA 
HETATM   18  O   UNL     1     -11.118  16.233  64.416  1.00  0.00    -0.735 OA 
HETATM   19  C   UNL     1      -8.843  11.863  67.339  1.00  0.00    -0.171 A  
HETATM   20  H   UNL     1     -14.200  12.576  64.583  1.00  0.00     0.000 HD 
HETATM   21  C   UNL     1      -9.607  11.378  68.395  1.00  0.00    -0.197 A  
HETATM   22  C   UNL     1     -10.943  11.756  68.499  1.00  0.00    -0.270 A  
HETATM   23  C   UNL     1     -11.514  12.622  67.555  1.00  0.00    -0.397 A  
ENDBRANCH  11  12
ENDBRANCH   5  11
TORSDOF 2
ENDMDL
MODEL        4
REMARK 921   NORMALIZED FREE ENERGY PREDICTED BY IDOCK:   -6.67 KCAL/MOL
REMARK 922        TOTAL FREE ENERGY PREDICTED BY IDOCK:   -7.95 KCAL/MOL
REMARK 923 INTER-LIGAND FREE ENERGY PREDICTED BY IDOCK:   -7.31 KCAL/MOL
REMARK 924 INTRA-LIGAND FREE ENERGY PREDICTED BY IDOCK:   -0.64 KCAL/MOL
REMARK 927      BINDING AFFINITY PREDICTED BY RF-SCORE:    0.00 PKD
ROOT
HETATM    1  C   UNL     1      -8.947  15.740  69.280  1.00  0.00    -0.266 C  
HETATM    2  N   UNL     1      -9.290  16.740  68.301  1.00  0.00    -0.224 NA 
HETATM    3  C   UNL     1     -10.708  16.924  67.963  1.00  0.00    -0.364 C  
HETATM    4  C   UNL     1     -11.282  15.705  67.209  1.00  0.00    -0.184 C  
HETATM    5  C   UNL     1     -10.532  15.416  65.898  1.00  0.00    -0.340 C  
HETATM    6  C   UNL     1      -9.005  15.535  66.093  1.00  0.00    -0.329 C  
HETATM    7  O   UNL     1     -10.277  18.160  65.737  1.00  0.00    -0.580 OA 
HETATM    8  C   UNL     1      -8.592  16.723  67.008  1.00  0.00    -0.209 C  
HETATM    9  C   UNL     1     -10.513  18.193  67.143  1.00  0.00    -0.378 C  
HETATM   10  C   UNL     1      -9.119  18.078  66.556  1.00  0.00    -0.269 C  
ENDROOT
BRANCH   5  11
HETATM   11  O   UNL     1     -10.987  14.254  65.148  1.00  0.00    -0.324 OA 
BRANCH  11  12
HETATM   12  C   UNL     1     -12.011  13.481  65.558  1.00  0.00    -0.390 C  
HETATM   13  C   UNL     1     -10.211  11.582  65.681  1.00  0.00    -0.292 A  
HETATM   14  C   UNL     1     -11.589  12.111  66.094  1.00  0.00    -0.418 C  
HETATM   15  C   UNL     1     -11.880  12.107  67.605  1.00  0.00    -0.246 C  
HETATM   16  C   UNL     1     -10.043  11.036  64.394  1.00  0.00    -0.393 A  
HETATM   17  O   UNL     1     -11.967  10.778  68.123  1.00  0.00    -0.775 OA 
HETATM   18  O   UNL     1     -13.186  13.849  65.537  1.00  0.00    -0.698 OA 
HETATM   19  C   UNL     1      -8.824  10.473  63.989  1.00  0.00    -0.206 A  
HETATM   20  H   UNL     1     -12.147  10.775  69.055  1.00  0.00     0.000 HD 
HETATM   21  C   UNL     1      -7.744  10.440  64.865  1.00  0.00    -0.084 A  
HETATM   22  C   UNL     1      -7.890  10.962  66.146  1.00  0.00    -0.144 A  
HETATM   23  C   UNL     1      -9.109  11.523  66.553  1.00  0.00    -0.199 A  
ENDBRANCH  11  12
ENDBRANCH   5  11
TORSDOF 2
ENDMDL
MODEL        5
REMARK 921   NORMALIZED FREE ENERGY PREDICTED BY IDOCK:   -6.64 KCAL/MOL
REMARK 922        TOTAL FREE ENERGY PREDICTED BY IDOCK:   -7.92 KCAL/MOL
REMARK 923 INTER-LIGAND FREE ENERGY PREDICTED BY IDOCK:   -7.07 KCAL/MOL
REMARK 924 INTRA-LIGAND FREE ENERGY PREDICTED BY IDOCK:   -0.85 KCAL/MOL
REMARK 927      BINDING AFFINITY PREDICTED BY RF-SCORE:    0.00 PKD
ROOT
HETATM    1  C   UNL     1     -11.723  12.429  67.979  1.00  0.00    -0.356 C  
HETATM    2  N   UNL     1     -11.710  12.149  66.566  1.00  0.00    -0.564 NA 
HETATM    3  C   UNL     1     -10.410  12.035  65.891  1.00  0.00    -0.244 C  
HETATM    4  C   UNL     1      -9.674  13.391  65.830  1.00  0.00    -0.147 C  
HETATM    5  C   UNL     1     -10.483  14.468  65.087  1.00  0.00    -0.416 C  
HETATM    6  C   UNL     1     -11.970  14.432  65.503  1.00  0.00    -0.358 C  
HETATM    7  O   UNL     1     -11.336  12.373  63.504  1.00  0.00    -0.438 OA 
HETATM    8  C   UNL     1     -12.525  12.989  65.678  1.00  0.00    -0.390 C  
HETATM    9  C   UNL     1     -10.960  11.506  64.572  1.00  0.00    -0.302 C  
HETATM   10  C   UNL     1     -12.352  12.096  64.456  1.00  0.00    -0.307 C  
ENDROOT
BRANCH   5  11
HETATM   11  O   UNL     1      -9.875  15.790  65.023  1.00  0.00    -0.336 OA 
BRANCH  11  12
HETATM   12  C   UNL     1     -10.583  16.922  65.198  1.00  0.00    -0.069 C  
HETATM   13  C   UNL     1      -9.583  16.884  67.618  1.00  0.00    -0.248 A  
HETATM   14  C   UNL     1     -10.254  17.674  66.490  1.00  0.00    -0.355 C  
HETATM   15  C   UNL     1      -9.557  18.985  66.087  1.00  0.00    -0.259 C  
HETATM   16  C   UNL     1     -10.365  16.027  68.416  1.00  0.00    -0.251 A  
HETATM   17  O   UNL     1      -9.617  19.958  67.130  1.00  0.00    -0.335 OA 
HETATM   18  O   UNL     1     -11.402  17.341  64.380  1.00  0.00    -1.052 OA 
HETATM   19  C   UNL     1      -9.816  15.335  69.506  1.00  0.00    -0.230 A  
HETATM   20  H   UNL     1      -9.187  20.768  66.882  1.00  0.00     0.000 HD 
HETATM   21  C   UNL     1      -8.472  15.489  69.827  1.00  0.00     0.020 A  
HETATM   22  C   UNL     1      -7.682  16.340  69.061  1.00  0.00    -0.224 A  
HETATM   23  C   UNL     1      -8.230  17.034  67.972  1.00  0.00    -0.206 A  
ENDBRANCH  11  12
ENDBRANCH   5  11
TORSDOF 2
ENDMDL
MODEL        6
REMARK 921   NORMALIZED FREE ENERGY PREDICTED BY IDOCK:   -6.63 KCAL/MOL
REMARK 922        TOTAL FREE ENERGY PREDICTED BY IDOCK:   -7.91 KCAL/MOL
REMARK 923 INTER-LIGAND FREE ENERGY PREDICTED BY IDOCK:   -7.52 KCAL/MOL
REMARK 924 INTRA-LIGAND FREE ENERGY PREDICTED BY IDOCK:   -0.39 KCAL/MOL
REMARK 927      BINDING AFFINITY PREDICTED BY RF-SCORE:    0.00 PKD
ROOT
HETATM    1  C   UNL     1     -11.168  16.156  64.744  1.00  0.00    -0.304 C  
HETATM    2  N   UNL     1     -11.139  14.744  64.460  1.00  0.00    -0.299 NA 
HETATM    3  C   UNL     1     -12.387  13.982  64.598  1.00  0.00    -0.397 C  
HETATM    4  C   UNL     1     -12.837  13.878  66.072  1.00  0.00    -0.302 C  
HETATM    5  C   UNL     1     -11.784  13.198  66.963  1.00  0.00    -0.377 C  
HETATM    6  C   UNL     1     -10.365  13.714  66.640  1.00  0.00    -0.275 C  
HETATM    7  O   UNL     1     -11.253  11.665  64.730  1.00  0.00    -0.297 OA 
HETATM    8  C   UNL     1     -10.117  13.918  65.117  1.00  0.00    -0.303 C  
HETATM    9  C   UNL     1     -11.863  12.700  63.962  1.00  0.00    -0.431 C  
HETATM   10  C   UNL     1     -10.377  12.683  64.267  1.00  0.00    -0.374 C  
ENDROOT
BRANCH   5  11
HETATM   11  O   UNL     1     -12.115  13.100  68.378  1.00  0.00    -0.318 OA 
BRANCH  11  12
HETATM   12  C   UNL     1     -11.622  12.130  69.172  1.00  0.00    -0.319 C  
HETATM   13  C   UNL     1     -12.583  13.580  71.130  1.00  0.00    -0.438 A  
HETATM   14  C   UNL     1     -12.073  12.224  70.632  1.00  0.00    -0.330 C  
HETATM   15  C   UNL     1     -12.997  11.024  70.899  1.00  0.00    -0.224 C  
HETATM   16  C   UNL     1     -11.654  14.592  71.440  1.00  0.00    -0.226 A  
HETATM   17  O   UNL     1     -13.107  10.742  72.295  1.00  0.00    -0.547 OA 
HETATM   18  O   UNL     1     -10.897  11.223  68.762  1.00  0.00    -0.185 OA 
HETATM   19  C   UNL     1     -12.062  15.827  71.967  1.00  0.00    -0.562 A  
HETATM   20  H   UNL     1     -13.678  10.001  72.460  1.00  0.00     0.000 HD 
HETATM   21  C   UNL     1     -13.410  16.076  72.200  1.00  0.00    -0.196 A  
HETATM   22  C   UNL     1     -14.346  15.087  71.913  1.00  0.00    -0.677 A  
HETATM   23  C   UNL     1     -13.939  13.852  71.388  1.00  0.00    -0.136 A  
ENDBRANCH  11  12
ENDBRANCH   5  11
TORSDOF 2
ENDMDL
MODEL        7
REMARK 921   NORMALIZED FREE ENERGY PREDICTED BY IDOCK:   -6.61 KCAL/MOL
REMARK 922        TOTAL FREE ENERGY PREDICTED BY IDOCK:   -7.89 KCAL/MOL
REMARK 923 INTER-LIGAND FREE ENERGY PREDICTED BY IDOCK:   -7.33 KCAL/MOL
REMARK 924 INTRA-LIGAND FREE ENERGY PREDICTED BY IDOCK:   -0.56 KCAL/MOL
REMARK 927      BINDING AFFINITY PREDICTED BY RF-SCORE:    0.00 PKD
ROOT
HETATM    1  C   UNL     1      -7.046  18.314  68.650  1.00  0.00    -0.275 C  
HETATM    2  N   UNL     1      -7.965  19.088  67.854  1.00  0.00    -0.271 NA 
HETATM    3  C   UNL     1      -9.164  19.630  68.507  1.00  0.00    -0.316 C  
HETATM    4  C   UNL     1     -10.149  18.514  68.916  1.00  0.00    -0.348 C  
HETATM    5  C   UNL     1     -10.621  17.675  67.717  1.00  0.00    -0.378 C  
HETATM    6  C   UNL     1      -9.443  17.337  66.778  1.00  0.00    -0.274 C  
HETATM    7  O   UNL     1     -10.471  20.051  66.320  1.00  0.00    -0.454 OA 
HETATM    8  C   UNL     1      -8.448  18.518  66.589  1.00  0.00    -0.278 C  
HETATM    9  C   UNL     1      -9.593  20.515  67.343  1.00  0.00    -0.438 C  
HETATM   10  C   UNL     1      -9.090  19.808  66.098  1.00  0.00    -0.343 C  
ENDROOT
BRANCH   5  11
HETATM   11  O   UNL     1     -11.521  16.573  68.026  1.00  0.00    -0.203 OA 
BRANCH  11  12
HETATM   12  C   UNL     1     -11.218  15.621  68.929  1.00  0.00    -0.311 C  
HETATM   13  C   UNL     1     -11.073  14.036  66.849  1.00  0.00    -0.310 A  
HETATM   14  C   UNL     1     -10.725  14.308  68.316  1.00  0.00    -0.253 C  
HETATM   15  C   UNL     1      -9.239  14.165  68.687  1.00  0.00    -0.146 C  
HETATM   16  C   UNL     1     -12.372  13.602  66.520  1.00  0.00    -0.412 A  
HETATM   17  O   UNL     1      -8.795  12.811  68.582  1.00  0.00    -0.362 OA 
HETATM   18  O   UNL     1     -11.298  15.793  70.145  1.00  0.00    -0.294 OA 
HETATM   19  C   UNL     1     -12.724  13.271  65.204  1.00  0.00    -0.464 A  
HETATM   20  H   UNL     1      -7.878  12.723  68.811  1.00  0.00     0.000 HD 
HETATM   21  C   UNL     1     -11.782  13.361  64.184  1.00  0.00    -0.466 A  
HETATM   22  C   UNL     1     -10.489  13.774  64.487  1.00  0.00    -0.378 A  
HETATM   23  C   UNL     1     -10.135  14.104  65.803  1.00  0.00    -0.352 A  
ENDBRANCH  11  12
ENDBRANCH   5  11
TORSDOF 2
ENDMDL
MODEL        8
REMARK 921   NORMALIZED FREE ENERGY PREDICTED BY IDOCK:   -6.60 KCAL/MOL
REMARK 922        TOTAL FREE ENERGY PREDICTED BY IDOCK:   -7.88 KCAL/MOL
REMARK 923 INTER-LIGAND FREE ENERGY PREDICTED BY IDOCK:   -7.07 KCAL/MOL
REMARK 924 INTRA-LIGAND FREE ENERGY PREDICTED BY IDOCK:   -0.81 KCAL/MOL
REMARK 927      BINDING AFFINITY PREDICTED BY RF-SCORE:    0.00 PKD
ROOT
HETATM    1  C   UNL     1     -10.748  15.932  65.002  1.00  0.00    -0.404 C  
HETATM    2  N   UNL     1      -9.784  16.800  65.628  1.00  0.00    -0.553 NA 
HETATM    3  C   UNL     1      -8.586  16.194  66.224  1.00  0.00    -0.338 C  
HETATM    4  C   UNL     1      -8.930  15.349  67.471  1.00  0.00    -0.191 C  
HETATM    5  C   UNL     1      -9.621  16.173  68.570  1.00  0.00    -0.215 C  
HETATM    6  C   UNL     1     -10.694  17.109  67.971  1.00  0.00    -0.372 C  
HETATM    7  O   UNL     1      -7.988  18.224  67.705  1.00  0.00    -0.238 OA 
HETATM    8  C   UNL     1     -10.258  17.766  66.630  1.00  0.00    -0.361 C  
HETATM    9  C   UNL     1      -7.854  17.505  66.481  1.00  0.00    -0.276 C  
HETATM   10  C   UNL     1      -8.945  18.534  66.704  1.00  0.00    -0.295 C  
ENDROOT
BRANCH   5  11
HETATM   11  O   UNL     1     -10.016  15.438  69.763  1.00  0.00    -0.266 OA 
BRANCH  11  12
HETATM   12  C   UNL     1     -11.230  15.576  70.331  1.00  0.00    -0.337 C  
HETATM   13  C   UNL     1     -11.832  13.402  69.001  1.00  0.00    -0.378 A  
HETATM   14  C   UNL     1     -12.151  14.368  70.147  1.00  0.00    -0.397 C  
HETATM   15  C   UNL     1     -12.335  13.723  71.532  1.00  0.00    -0.194 C  
HETATM   16  C   UNL     1     -12.179  13.760  67.684  1.00  0.00    -0.229 A  
HETATM   17  O   UNL     1     -13.501  12.899  71.580  1.00  0.00    -0.336 OA 
HETATM   18  O   UNL     1     -11.566  16.572  70.972  1.00  0.00    -0.302 OA 
HETATM   19  C   UNL     1     -11.975  12.885  66.607  1.00  0.00    -0.436 A  
HETATM   20  H   UNL     1     -13.615  12.501  72.435  1.00  0.00     0.000 HD 
HETATM   21  C   UNL     1     -11.423  11.627  66.824  1.00  0.00    -0.299 A  
HETATM   22  C   UNL     1     -11.084  11.245  68.118  1.00  0.00    -0.319 A  
HETATM   23  C   UNL     1     -11.289  12.120  69.196  1.00  0.00    -0.333 A  
ENDBRANCH  11  12
ENDBRANCH   5  11
TORSDOF 2
ENDMDL
MODEL        9
REMARK 921   NORMALIZED FREE ENERGY PREDICTED BY IDOCK:   -6.59 KCAL/MOL
REMARK 922        TOTAL FREE ENERGY PREDICTED BY IDOCK:   -7.86 KCAL/MOL
REMARK 923 INTER-LIGAND FREE ENERGY PREDICTED BY IDOCK:   -7.31 KCAL/MOL
REMARK 924 INTRA-LIGAND FREE ENERGY PREDICTED BY IDOCK:   -0.55 KCAL/MOL
REMARK 927      BINDING AFFINITY PREDICTED BY RF-SCORE:    0.00 PKD
ROOT
HETATM    1  C   UNL     1      -8.575   9.829  69.915  1.00  0.00    -0.218 C  
HETATM    2  N   UNL     1      -9.050   9.887  68.556  1.00  0.00    -0.123 NA 
HETATM    3  C   UNL     1      -8.737  11.082  67.760  1.00  0.00    -0.130 C  
HETATM    4  C   UNL     1      -9.482  12.330  68.282  1.00  0.00    -0.209 C  
HETATM    5  C   UNL     1     -11.010  12.156  68.266  1.00  0.00    -0.234 C  
HETATM    6  C   UNL     1     -11.415  10.760  68.787  1.00  0.00    -0.364 C  
HETATM    7  O   UNL     1     -10.562  10.680  65.977  1.00  0.00    -0.210 OA 
HETATM    8  C   UNL     1     -10.473   9.623  68.299  1.00  0.00    -0.219 C  
HETATM    9  C   UNL     1      -9.219  10.518  66.429  1.00  0.00    -0.166 C  
HETATM   10  C   UNL     1     -10.321   9.539  66.786  1.00  0.00    -0.228 C  
ENDROOT
BRANCH   5  11
HETATM   11  O   UNL     1     -11.784  13.275  68.784  1.00  0.00    -0.287 OA 
BRANCH  11  12
HETATM   12  C   UNL     1     -11.885  14.450  68.133  1.00  0.00    -0.327 C  
HETATM   13  C   UNL     1     -12.233  15.466  70.521  1.00  0.00    -0.436 A  
HETATM   14  C   UNL     1     -11.874  15.677  69.047  1.00  0.00    -0.379 C  
HETATM   15  C   UNL     1     -10.557  16.428  68.782  1.00  0.00    -0.310 C  
HETATM   16  C   UNL     1     -13.586  15.314  70.884  1.00  0.00    -0.402 A  
HETATM   17  O   UNL     1     -10.629  17.789  69.209  1.00  0.00    -0.416 OA 
HETATM   18  O   UNL     1     -11.949  14.540  66.907  1.00  0.00    -0.403 OA 
HETATM   19  C   UNL     1     -13.977  15.190  72.225  1.00  0.00    -0.631 A  
HETATM   20  H   UNL     1      -9.817  18.253  69.046  1.00  0.00     0.000 HD 
HETATM   21  C   UNL     1     -13.024  15.219  73.237  1.00  0.00    -0.645 A  
HETATM   22  C   UNL     1     -11.682  15.381  72.905  1.00  0.00    -0.508 A  
HETATM   23  C   UNL     1     -11.291  15.508  71.564  1.00  0.00    -0.466 A  
ENDBRANCH  11  12
ENDBRANCH   5  11
TORSDOF 2
ENDMDL
MODEL       10
REMARK 921   NORMALIZED FREE ENERGY PREDICTED BY IDOCK:   -6.58 KCAL/MOL
REMARK 922        TOTAL FREE ENERGY PREDICTED BY IDOCK:   -7.86 KCAL/MOL
REMARK 923 INTER-LIGAND FREE ENERGY PREDICTED BY IDOCK:   -7.33 KCAL/MOL
REMARK 924 INTRA-LIGAND FREE ENERGY PREDICTED BY IDOCK:   -0.52 KCAL/MOL
REMARK 927      BINDING AFFINITY PREDICTED BY RF-SCORE:    0.00 PKD
ROOT
HETATM    1  C   UNL     1      -9.189   8.066  73.405  1.00  0.00    -0.263 C  
HETATM    2  N   UNL     1      -9.783   7.558  72.196  1.00  0.00    -0.160 NA 
HETATM    3  C   UNL     1      -9.166   7.920  70.912  1.00  0.00    -0.152 C  
HETATM    4  C   UNL     1      -9.333   9.422  70.598  1.00  0.00    -0.314 C  
HETATM    5  C   UNL     1     -10.809   9.851  70.534  1.00  0.00    -0.326 C  
HETATM    6  C   UNL     1     -11.620   9.225  71.688  1.00  0.00    -0.463 C  
HETATM    7  O   UNL     1     -11.228   7.339  69.470  1.00  0.00    -0.160 OA 
HETATM    8  C   UNL     1     -11.225   7.750  71.989  1.00  0.00    -0.278 C  
HETATM    9  C   UNL     1      -9.988   6.958  70.063  1.00  0.00    -0.180 C  
HETATM   10  C   UNL     1     -11.313   6.818  70.788  1.00  0.00    -0.325 C  
ENDROOT
BRANCH   5  11
HETATM   11  O   UNL     1     -11.051  11.265  70.283  1.00  0.00    -0.108 OA 
BRANCH  11  12
HETATM   12  C   UNL     1     -11.724  11.705  69.203  1.00  0.00    -0.326 C  
HETATM   13  C   UNL     1     -12.235  13.807  70.679  1.00  0.00    -0.434 A  
HETATM   14  C   UNL     1     -12.158  13.170  69.288  1.00  0.00    -0.270 C  
HETATM   15  C   UNL     1     -11.340  13.947  68.242  1.00  0.00    -0.294 C  
HETATM   16  C   UNL     1     -13.339  13.520  71.506  1.00  0.00    -0.363 A  
HETATM   17  O   UNL     1     -11.958  15.190  67.904  1.00  0.00    -0.473 OA 
HETATM   18  O   UNL     1     -11.946  11.006  68.214  1.00  0.00    -0.593 OA 
HETATM   19  C   UNL     1     -13.495  14.130  72.760  1.00  0.00    -0.592 A  
HETATM   20  H   UNL     1     -11.453  15.670  67.259  1.00  0.00     0.000 HD 
HETATM   21  C   UNL     1     -12.552  15.047  73.213  1.00  0.00    -0.600 A  
HETATM   22  C   UNL     1     -11.460  15.356  72.409  1.00  0.00    -0.475 A  
HETATM   23  C   UNL     1     -11.304  14.748  71.155  1.00  0.00    -0.185 A  
ENDBRANCH  11  12
ENDBRANCH   5  11
TORSDOF 2
ENDMDL
MODEL       11
REMARK 921   NORMALIZED FREE ENERGY PREDICTED BY IDOCK:   -6.51 KCAL/MOL
REMARK 922        TOTAL FREE ENERGY PREDICTED BY IDOCK:   -7.78 KCAL/MOL
REMARK 923 INTER-LIGAND FREE ENERGY PREDICTED BY IDOCK:   -7.12 KCAL/MOL
REMARK 924 INTRA-LIGAND FREE ENERGY PREDICTED BY IDOCK:   -0.65 KCAL/MOL
REMARK 927      BINDING AFFINITY PREDICTED BY RF-SCORE:    0.00 PKD
ROOT
HETATM    1  C   UNL     1      -9.326  11.354  65.761  1.00  0.00    -0.228 C  
HETATM    2  N   UNL     1     -10.437  11.765  64.941  1.00  0.00    -0.273 NA 
HETATM    3  C   UNL     1     -10.305  13.003  64.161  1.00  0.00    -0.321 C  
HETATM    4  C   UNL     1     -10.257  14.251  65.070  1.00  0.00    -0.402 C  
HETATM    5  C   UNL     1     -11.514  14.393  65.945  1.00  0.00    -0.341 C  
HETATM    6  C   UNL     1     -11.927  13.033  66.549  1.00  0.00    -0.457 C  
HETATM    7  O   UNL     1     -12.837  13.325  63.770  1.00  0.00    -0.625 OA 
HETATM    8  C   UNL     1     -11.770  11.846  65.556  1.00  0.00    -0.157 C  
HETATM    9  C   UNL     1     -11.576  12.814  63.343  1.00  0.00    -0.443 C  
HETATM   10  C   UNL     1     -12.513  12.025  64.239  1.00  0.00    -0.286 C  
ENDROOT
BRANCH   5  11
HETATM   11  O   UNL     1     -11.527  15.524  66.862  1.00  0.00    -0.176 OA 
BRANCH  11  12
HETATM   12  C   UNL     1     -10.400  16.064  67.364  1.00  0.00    -0.294 C  
HETATM   13  C   UNL     1     -11.194  15.016  69.629  1.00  0.00    -0.296 A  
HETATM   14  C   UNL     1     -10.059  15.601  68.782  1.00  0.00    -0.211 C  
HETATM   15  C   UNL     1      -8.787  14.741  68.685  1.00  0.00    -0.180 C  
HETATM   16  C   UNL     1     -12.125  15.889  70.227  1.00  0.00    -0.294 A  
HETATM   17  O   UNL     1      -8.121  14.640  69.945  1.00  0.00    -0.398 OA 
HETATM   18  O   UNL     1      -9.681  16.838  66.731  1.00  0.00    -0.243 OA 
HETATM   19  C   UNL     1     -13.140  15.412  71.069  1.00  0.00    -0.565 A  
HETATM   20  H   UNL     1      -7.335  14.109  69.886  1.00  0.00     0.000 HD 
HETATM   21  C   UNL     1     -13.247  14.052  71.336  1.00  0.00    -0.404 A  
HETATM   22  C   UNL     1     -12.332  13.172  70.766  1.00  0.00    -0.404 A  
HETATM   23  C   UNL     1     -11.315  13.647  69.926  1.00  0.00    -0.124 A  
ENDBRANCH  11  12
ENDBRANCH   5  11
TORSDOF 2
ENDMDL
MODEL       12
REMARK 921   NORMALIZED FREE ENERGY PREDICTED BY IDOCK:   -6.49 KCAL/MOL
REMARK 922        TOTAL FREE ENERGY PREDICTED BY IDOCK:   -7.75 KCAL/MOL
REMARK 923 INTER-LIGAND FREE ENERGY PREDICTED BY IDOCK:   -7.61 KCAL/MOL
REMARK 924 INTRA-LIGAND FREE ENERGY PREDICTED BY IDOCK:   -0.14 KCAL/MOL
REMARK 927      BINDING AFFINITY PREDICTED BY RF-SCORE:    0.00 PKD
ROOT
HETATM    1  C   UNL     1     -10.234  19.879  68.793  1.00  0.00    -0.339 C  
HETATM    2  N   UNL     1      -9.192  19.601  67.837  1.00  0.00    -0.324 NA 
HETATM    3  C   UNL     1      -9.577  19.364  66.440  1.00  0.00    -0.377 C  
HETATM    4  C   UNL     1     -10.354  18.039  66.275  1.00  0.00    -0.384 C  
HETATM    5  C   UNL     1      -9.544  16.818  66.741  1.00  0.00    -0.249 C  
HETATM    6  C   UNL     1      -8.817  17.108  68.072  1.00  0.00    -0.229 C  
HETATM    7  O   UNL     1      -7.368  18.208  65.765  1.00  0.00    -0.484 OA 
HETATM    8  C   UNL     1      -8.221  18.543  68.148  1.00  0.00    -0.295 C  
HETATM    9  C   UNL     1      -8.160  19.388  65.878  1.00  0.00    -0.153 C  
HETATM   10  C   UNL     1      -7.276  18.892  67.006  1.00  0.00    -0.209 C  
ENDROOT
BRANCH   5  11
HETATM   11  O   UNL     1     -10.224  15.533  66.658  1.00  0.00    -0.261 OA 
BRANCH  11  12
HETATM   12  C   UNL     1     -11.251  15.203  67.464  1.00  0.00    -0.330 C  
HETATM   13  C   UNL     1     -11.558  13.173  65.838  1.00  0.00    -0.391 A  
HETATM   14  C   UNL     1     -11.831  13.811  67.205  1.00  0.00    -0.441 C  
HETATM   15  C   UNL     1     -11.489  12.942  68.427  1.00  0.00    -0.312 C  
HETATM   16  C   UNL     1     -12.302  13.599  64.720  1.00  0.00    -0.429 A  
HETATM   17  O   UNL     1     -12.343  11.800  68.520  1.00  0.00    -0.348 OA 
HETATM   18  O   UNL     1     -11.673  15.939  68.357  1.00  0.00    -0.358 OA 
HETATM   19  C   UNL     1     -12.144  13.000  63.462  1.00  0.00    -0.617 A  
HETATM   20  H   UNL     1     -12.132  11.264  69.275  1.00  0.00     0.000 HD 
HETATM   21  C   UNL     1     -11.239  11.957  63.293  1.00  0.00    -0.382 A  
HETATM   22  C   UNL     1     -10.502  11.511  64.386  1.00  0.00    -0.380 A  
HETATM   23  C   UNL     1     -10.662  12.108  65.645  1.00  0.00    -0.312 A  
ENDBRANCH  11  12
ENDBRANCH   5  11
TORSDOF 2
ENDMDL
MODEL       13
REMARK 921   NORMALIZED FREE ENERGY PREDICTED BY IDOCK:   -6.42 KCAL/MOL
REMARK 922        TOTAL FREE ENERGY PREDICTED BY IDOCK:   -7.68 KCAL/MOL
REMARK 923 INTER-LIGAND FREE ENERGY PREDICTED BY IDOCK:   -6.91 KCAL/MOL
REMARK 924 INTRA-LIGAND FREE ENERGY PREDICTED BY IDOCK:   -0.77 KCAL/MOL
REMARK 927      BINDING AFFINITY PREDICTED BY RF-SCORE:    0.00 PKD
ROOT
HETATM    1  C   UNL     1      -9.614  11.212  65.062  1.00  0.00    -0.239 C  
HETATM    2  N   UNL     1     -10.751  12.072  64.856  1.00  0.00    -0.289 NA 
HETATM    3  C   UNL     1     -10.507  13.464  64.456  1.00  0.00    -0.413 C  
HETATM    4  C   UNL     1      -9.845  14.279  65.589  1.00  0.00    -0.301 C  
HETATM    5  C   UNL     1     -10.700  14.313  66.867  1.00  0.00    -0.290 C  
HETATM    6  C   UNL     1     -11.286  12.920  67.181  1.00  0.00    -0.352 C  
HETATM    7  O   UNL     1     -12.844  14.333  65.129  1.00  0.00    -0.659 OA 
HETATM    8  C   UNL     1     -11.768  12.155  65.915  1.00  0.00    -0.328 C  
HETATM    9  C   UNL     1     -11.960  13.799  64.145  1.00  0.00    -0.432 C  
HETATM   10  C   UNL     1     -12.779  12.916  65.068  1.00  0.00    -0.404 C  
ENDROOT
BRANCH   5  11
HETATM   11  O   UNL     1     -10.125  15.028  67.999  1.00  0.00    -0.221 OA 
BRANCH  11  12
HETATM   12  C   UNL     1     -10.655  16.168  68.481  1.00  0.00    -0.284 C  
HETATM   13  C   UNL     1      -8.354  17.231  67.822  1.00  0.00    -0.212 A  
HETATM   14  C   UNL     1      -9.833  17.422  68.174  1.00  0.00    -0.301 C  
HETATM   15  C   UNL     1     -10.651  18.269  67.184  1.00  0.00    -0.367 C  
HETATM   16  C   UNL     1      -7.429  16.981  68.855  1.00  0.00    -0.237 A  
HETATM   17  O   UNL     1     -10.227  19.633  67.179  1.00  0.00    -0.377 OA 
HETATM   18  O   UNL     1     -11.724  16.211  69.090  1.00  0.00    -0.327 OA 
HETATM   19  C   UNL     1      -6.055  16.870  68.598  1.00  0.00    -0.148 A  
HETATM   20  H   UNL     1     -10.732  20.156  66.567  1.00  0.00     0.000 HD 
HETATM   21  C   UNL     1      -5.572  17.010  67.301  1.00  0.00    -0.176 A  
HETATM   22  C   UNL     1      -6.465  17.271  66.266  1.00  0.00    -0.232 A  
HETATM   23  C   UNL     1      -7.840  17.384  66.523  1.00  0.00    -0.320 A  
ENDBRANCH  11  12
ENDBRANCH   5  11
TORSDOF 2
ENDMDL
MODEL       14
REMARK 921   NORMALIZED FREE ENERGY PREDICTED BY IDOCK:   -6.41 KCAL/MOL
REMARK 922        TOTAL FREE ENERGY PREDICTED BY IDOCK:   -7.66 KCAL/MOL
REMARK 923 INTER-LIGAND FREE ENERGY PREDICTED BY IDOCK:   -6.96 KCAL/MOL
REMARK 924 INTRA-LIGAND FREE ENERGY PREDICTED BY IDOCK:   -0.70 KCAL/MOL
REMARK 927      BINDING AFFINITY PREDICTED BY RF-SCORE:    0.00 PKD
ROOT
HETATM    1  C   UNL     1      -8.311  19.002  66.215  1.00  0.00    -0.283 C  
HETATM    2  N   UNL     1      -7.809  17.980  67.097  1.00  0.00    -0.213 NA 
HETATM    3  C   UNL     1      -7.592  16.634  66.549  1.00  0.00    -0.292 C  
HETATM    4  C   UNL     1      -8.922  15.942  66.181  1.00  0.00    -0.376 C  
HETATM    5  C   UNL     1      -9.866  15.798  67.387  1.00  0.00    -0.233 C  
HETATM    6  C   UNL     1      -9.894  17.093  68.228  1.00  0.00    -0.288 C  
HETATM    7  O   UNL     1      -7.544  15.436  68.836  1.00  0.00    -0.138 OA 
HETATM    8  C   UNL     1      -8.496  17.760  68.377  1.00  0.00    -0.295 C  
HETATM    9  C   UNL     1      -6.859  16.082  67.765  1.00  0.00    -0.147 C  
HETATM   10  C   UNL     1      -7.421  16.847  68.949  1.00  0.00    -0.238 C  
ENDROOT
BRANCH   5  11
HETATM   11  O   UNL     1     -11.161  15.192  67.114  1.00  0.00    -0.335 OA 
BRANCH  11  12
HETATM   12  C   UNL     1     -11.749  14.325  67.960  1.00  0.00    -0.351 C  
HETATM   13  C   UNL     1     -11.452  12.599  66.013  1.00  0.00    -0.414 A  
HETATM   14  C   UNL     1     -11.694  12.866  67.502  1.00  0.00    -0.422 C  
HETATM   15  C   UNL     1     -10.762  12.121  68.473  1.00  0.00    -0.232 C  
HETATM   16  C   UNL     1     -12.517  12.756  65.104  1.00  0.00    -0.565 A  
HETATM   17  O   UNL     1     -10.985  10.710  68.442  1.00  0.00    -0.214 OA 
HETATM   18  O   UNL     1     -12.261  14.663  69.027  1.00  0.00    -0.261 OA 
HETATM   19  C   UNL     1     -12.370  12.456  63.742  1.00  0.00    -0.625 A  
HETATM   20  H   UNL     1     -10.410  10.249  69.042  1.00  0.00     0.000 HD 
HETATM   21  C   UNL     1     -11.153  11.989  63.256  1.00  0.00    -0.400 A  
HETATM   22  C   UNL     1     -10.090  11.815  64.136  1.00  0.00    -0.344 A  
HETATM   23  C   UNL     1     -10.237  12.112  65.499  1.00  0.00    -0.294 A  
ENDBRANCH  11  12
ENDBRANCH   5  11
TORSDOF 2
ENDMDL
MODEL       15
REMARK 921   NORMALIZED FREE ENERGY PREDICTED BY IDOCK:   -6.33 KCAL/MOL
REMARK 922        TOTAL FREE ENERGY PREDICTED BY IDOCK:   -7.58 KCAL/MOL
REMARK 923 INTER-LIGAND FREE ENERGY PREDICTED BY IDOCK:   -7.64 KCAL/MOL
REMARK 924 INTRA-LIGAND FREE ENERGY PREDICTED BY IDOCK:    0.06 KCAL/MOL
REMARK 927      BINDING AFFINITY PREDICTED BY RF-SCORE:    0.00 PKD
ROOT
HETATM    1  C   UNL     1     -10.512  12.431  63.924  1.00  0.00    -0.439 C  
HETATM    2  N   UNL     1     -10.457  13.756  64.486  1.00  0.00    -0.425 NA 
HETATM    3  C   UNL     1      -9.666  13.961  65.707  1.00  0.00    -0.164 C  
HETATM    4  C   UNL     1     -10.298  13.255  66.926  1.00  0.00    -0.255 C  
HETATM    5  C   UNL     1     -11.726  13.746  67.218  1.00  0.00    -0.382 C  
HETATM    6  C   UNL     1     -12.543  13.882  65.915  1.00  0.00    -0.498 C  
HETATM    7  O   UNL     1     -10.786  16.195  66.359  1.00  0.00    -0.294 OA 
HETATM    8  C   UNL     1     -11.721  14.466  64.730  1.00  0.00    -0.416 C  
HETATM    9  C   UNL     1      -9.744  15.483  65.694  1.00  0.00    -0.320 C  
HETATM   10  C   UNL     1     -11.064  15.808  65.021  1.00  0.00    -0.370 C  
ENDROOT
BRANCH   5  11
HETATM   11  O   UNL     1     -12.408  13.097  68.329  1.00  0.00    -0.130 OA 
BRANCH  11  12
HETATM   12  C   UNL     1     -11.851  12.095  69.035  1.00  0.00    -0.306 C  
HETATM   13  C   UNL     1     -12.601  13.478  71.128  1.00  0.00    -0.438 A  
HETATM   14  C   UNL     1     -12.157  12.138  70.534  1.00  0.00    -0.383 C  
HETATM   15  C   UNL     1     -13.064  10.935  70.847  1.00  0.00    -0.150 C  
HETATM   16  C   UNL     1     -11.635  14.472  71.382  1.00  0.00    -0.117 A  
HETATM   17  O   UNL     1     -13.040  10.603  72.236  1.00  0.00    -0.548 OA 
HETATM   18  O   UNL     1     -11.180  11.198  68.524  1.00  0.00    -0.214 OA 
HETATM   19  C   UNL     1     -11.977  15.689  71.991  1.00  0.00    -0.544 A  
HETATM   20  H   UNL     1     -13.600   9.860  72.430  1.00  0.00     0.000 HD 
HETATM   21  C   UNL     1     -13.293  15.939  72.363  1.00  0.00    -0.456 A  
HETATM   22  C   UNL     1     -14.263  14.968  72.134  1.00  0.00    -0.636 A  
HETATM   23  C   UNL     1     -13.922  13.750  71.527  1.00  0.00    -0.151 A  
ENDBRANCH  11  12
ENDBRANCH   5  11
TORSDOF 2
ENDMDL
MODEL       16
REMARK 921   NORMALIZED FREE ENERGY PREDICTED BY IDOCK:   -6.30 KCAL/MOL
REMARK 922        TOTAL FREE ENERGY PREDICTED BY IDOCK:   -7.55 KCAL/MOL
REMARK 923 INTER-LIGAND FREE ENERGY PREDICTED BY IDOCK:   -6.75 KCAL/MOL
REMARK 924 INTRA-LIGAND FREE ENERGY PREDICTED BY IDOCK:   -0.79 KCAL/MOL
REMARK 927      BINDING AFFINITY PREDICTED BY RF-SCORE:    0.00 PKD
ROOT
HETATM    1  C   UNL     1      -7.421  17.771  65.926  1.00  0.00    -0.165 C  
HETATM    2  N   UNL     1      -8.484  17.705  66.896  1.00  0.00    -0.232 NA 
HETATM    3  C   UNL     1      -8.578  16.510  67.745  1.00  0.00    -0.177 C  
HETATM    4  C   UNL     1      -8.974  15.258  66.932  1.00  0.00    -0.274 C  
HETATM    5  C   UNL     1     -10.327  15.421  66.220  1.00  0.00    -0.294 C  
HETATM    6  C   UNL     1     -10.448  16.816  65.568  1.00  0.00    -0.254 C  
HETATM    7  O   UNL     1     -11.033  16.892  68.447  1.00  0.00    -0.356 OA 
HETATM    8  C   UNL     1      -9.860  17.958  66.446  1.00  0.00    -0.337 C  
HETATM    9  C   UNL     1      -9.639  17.065  68.687  1.00  0.00    -0.275 C  
HETATM   10  C   UNL     1     -10.446  18.038  67.849  1.00  0.00    -0.396 C  
ENDROOT
BRANCH   5  11
HETATM   11  O   UNL     1     -10.753  14.298  65.397  1.00  0.00    -0.306 OA 
BRANCH  11  12
HETATM   12  C   UNL     1     -11.846  13.564  65.680  1.00  0.00    -0.369 C  
HETATM   13  C   UNL     1     -10.140  11.615  66.064  1.00  0.00    -0.259 A  
HETATM   14  C   UNL     1     -11.542  12.193  66.286  1.00  0.00    -0.424 C  
HETATM   15  C   UNL     1     -12.027  12.224  67.746  1.00  0.00    -0.159 C  
HETATM   16  C   UNL     1      -9.824  11.040  64.817  1.00  0.00    -0.329 A  
HETATM   17  O   UNL     1     -12.224  10.909  68.266  1.00  0.00    -0.804 OA 
HETATM   18  O   UNL     1     -12.996  13.967  65.501  1.00  0.00    -0.681 OA 
HETATM   19  C   UNL     1      -8.581  10.433  64.584  1.00  0.00    -0.192 A  
HETATM   20  H   UNL     1     -12.523  10.928  69.167  1.00  0.00     0.000 HD 
HETATM   21  C   UNL     1      -7.626  10.383  65.593  1.00  0.00    -0.150 A  
HETATM   22  C   UNL     1      -7.920  10.933  66.837  1.00  0.00    -0.138 A  
HETATM   23  C   UNL     1      -9.164  11.538  67.073  1.00  0.00    -0.180 A  
ENDBRANCH  11  12
ENDBRANCH   5  11
TORSDOF 2
ENDMDL
MODEL       17
REMARK 921   NORMALIZED FREE ENERGY PREDICTED BY IDOCK:   -6.30 KCAL/MOL
REMARK 922        TOTAL FREE ENERGY PREDICTED BY IDOCK:   -7.54 KCAL/MOL
REMARK 923 INTER-LIGAND FREE ENERGY PREDICTED BY IDOCK:   -6.91 KCAL/MOL
REMARK 924 INTRA-LIGAND FREE ENERGY PREDICTED BY IDOCK:   -0.63 KCAL/MOL
REMARK 927      BINDING AFFINITY PREDICTED BY RF-SCORE:    0.00 PKD
ROOT
HETATM    1  C   UNL     1     -11.777  11.654  67.694  1.00  0.00    -0.228 C  
HETATM    2  N   UNL     1     -11.620  12.514  66.549  1.00  0.00    -0.369 NA 
HETATM    3  C   UNL     1     -10.321  12.527  65.862  1.00  0.00    -0.263 C  
HETATM    4  C   UNL     1      -9.215  13.158  66.737  1.00  0.00    -0.232 C  
HETATM    5  C   UNL     1      -9.536  14.608  67.138  1.00  0.00    -0.229 C  
HETATM    6  C   UNL     1     -11.012  14.753  67.565  1.00  0.00    -0.304 C  
HETATM    7  O   UNL     1     -10.705  14.771  64.642  1.00  0.00    -0.379 OA 
HETATM    8  C   UNL     1     -11.992  13.930  66.680  1.00  0.00    -0.442 C  
HETATM    9  C   UNL     1     -10.782  13.347  64.664  1.00  0.00    -0.411 C  
HETATM   10  C   UNL     1     -11.898  14.230  65.190  1.00  0.00    -0.384 C  
ENDROOT
BRANCH   5  11
HETATM   11  O   UNL     1      -8.560  15.260  68.000  1.00  0.00    -0.148 OA 
BRANCH  11  12
HETATM   12  C   UNL     1      -7.358  15.672  67.553  1.00  0.00    -0.185 C  
HETATM   13  C   UNL     1      -8.483  18.033  67.429  1.00  0.00    -0.240 A  
HETATM   14  C   UNL     1      -7.203  17.192  67.476  1.00  0.00    -0.177 C  
HETATM   15  C   UNL     1      -6.177  17.598  68.548  1.00  0.00    -0.182 C  
HETATM   16  C   UNL     1      -9.197  18.130  66.218  1.00  0.00    -0.213 A  
HETATM   17  O   UNL     1      -5.611  18.882  68.280  1.00  0.00    -0.188 OA 
HETATM   18  O   UNL     1      -6.445  14.899  67.260  1.00  0.00    -0.304 OA 
HETATM   19  C   UNL     1     -10.334  18.943  66.100  1.00  0.00    -0.517 A  
HETATM   20  H   UNL     1      -4.978  19.133  68.941  1.00  0.00     0.000 HD 
HETATM   21  C   UNL     1     -10.782  19.682  67.189  1.00  0.00    -0.587 A  
HETATM   22  C   UNL     1     -10.086  19.613  68.392  1.00  0.00    -0.557 A  
HETATM   23  C   UNL     1      -8.947  18.802  68.511  1.00  0.00    -0.375 A  
ENDBRANCH  11  12
ENDBRANCH   5  11
TORSDOF 2
ENDMDL
MODEL       18
REMARK 921   NORMALIZED FREE ENERGY PREDICTED BY IDOCK:   -6.28 KCAL/MOL
REMARK 922        TOTAL FREE ENERGY PREDICTED BY IDOCK:   -7.52 KCAL/MOL
REMARK 923 INTER-LIGAND FREE ENERGY PREDICTED BY IDOCK:   -6.70 KCAL/MOL
REMARK 924 INTRA-LIGAND FREE ENERGY PREDICTED BY IDOCK:   -0.82 KCAL/MOL
REMARK 927      BINDING AFFINITY PREDICTED BY RF-SCORE:    0.00 PKD
ROOT
HETATM    1  C   UNL     1     -11.178  15.342  64.830  1.00  0.00    -0.396 C  
HETATM    2  N   UNL     1     -11.235  14.199  65.705  1.00  0.00    -0.307 NA 
HETATM    3  C   UNL     1     -11.883  14.359  67.014  1.00  0.00    -0.412 C  
HETATM    4  C   UNL     1     -11.072  15.283  67.948  1.00  0.00    -0.321 C  
HETATM    5  C   UNL     1      -9.648  14.761  68.203  1.00  0.00    -0.209 C  
HETATM    6  C   UNL     1      -9.002  14.249  66.897  1.00  0.00    -0.255 C  
HETATM    7  O   UNL     1     -10.816  12.262  68.080  1.00  0.00    -0.204 OA 
HETATM    8  C   UNL     1      -9.992  13.468  65.985  1.00  0.00    -0.299 C  
HETATM    9  C   UNL     1     -11.890  12.877  67.371  1.00  0.00    -0.360 C  
HETATM   10  C   UNL     1     -10.680  12.293  66.667  1.00  0.00    -0.245 C  
ENDROOT
BRANCH   5  11
HETATM   11  O   UNL     1      -8.802  15.599  69.041  1.00  0.00    -0.205 OA 
BRANCH  11  12
HETATM   12  C   UNL     1      -7.537  15.918  68.706  1.00  0.00    -0.178 C  
HETATM   13  C   UNL     1      -8.583  18.170  67.873  1.00  0.00    -0.259 A  
HETATM   14  C   UNL     1      -7.343  17.383  68.311  1.00  0.00    -0.214 C  
HETATM   15  C   UNL     1      -6.489  18.040  69.409  1.00  0.00    -0.228 C  
HETATM   16  C   UNL     1      -9.097  17.976  66.576  1.00  0.00    -0.283 A  
HETATM   17  O   UNL     1      -5.863  19.238  68.947  1.00  0.00    -0.209 OA 
HETATM   18  O   UNL     1      -6.605  15.114  68.743  1.00  0.00    -0.090 OA 
HETATM   19  C   UNL     1     -10.185  18.721  66.099  1.00  0.00    -0.462 A  
HETATM   20  H   UNL     1      -5.336  19.644  69.625  1.00  0.00     0.000 HD 
HETATM   21  C   UNL     1     -10.783  19.682  66.908  1.00  0.00    -0.570 A  
HETATM   22  C   UNL     1     -10.285  19.900  68.189  1.00  0.00    -0.564 A  
HETATM   23  C   UNL     1      -9.195  19.157  68.666  1.00  0.00    -0.429 A  
ENDBRANCH  11  12
ENDBRANCH   5  11
TORSDOF 2
ENDMDL
MODEL       19
REMARK 921   NORMALIZED FREE ENERGY PREDICTED BY IDOCK:   -6.25 KCAL/MOL
REMARK 922        TOTAL FREE ENERGY PREDICTED BY IDOCK:   -7.49 KCAL/MOL
REMARK 923 INTER-LIGAND FREE ENERGY PREDICTED BY IDOCK:   -6.92 KCAL/MOL
REMARK 924 INTRA-LIGAND FREE ENERGY PREDICTED BY IDOCK:   -0.57 KCAL/MOL
REMARK 927      BINDING AFFINITY PREDICTED BY RF-SCORE:    0.00 PKD
ROOT
HETATM    1  C   UNL     1     -10.351  17.338  68.695  1.00  0.00    -0.357 C  
HETATM    2  N   UNL     1      -9.044  17.260  68.093  1.00  0.00    -0.249 NA 
HETATM    3  C   UNL     1      -8.957  17.140  66.632  1.00  0.00    -0.253 C  
HETATM    4  C   UNL     1      -9.486  15.777  66.135  1.00  0.00    -0.375 C  
HETATM    5  C   UNL     1      -8.715  14.590  66.738  1.00  0.00    -0.185 C  
HETATM    6  C   UNL     1      -8.464  14.800  68.247  1.00  0.00    -0.151 C  
HETATM    7  O   UNL     1      -6.527  16.267  66.595  1.00  0.00    -0.273 OA 
HETATM    8  C   UNL     1      -8.093  16.267  68.611  1.00  0.00    -0.213 C  
HETATM    9  C   UNL     1      -7.451  17.352  66.542  1.00  0.00    -0.280 C  
HETATM   10  C   UNL     1      -6.896  16.820  67.850  1.00  0.00    -0.144 C  
ENDROOT
BRANCH   5  11
HETATM   11  O   UNL     1      -9.181  13.266  66.352  1.00  0.00    -0.218 OA 
BRANCH  11  12
HETATM   12  C   UNL     1     -10.166  13.077  65.453  1.00  0.00    -0.288 C  
HETATM   13  C   UNL     1     -11.693  12.755  67.556  1.00  0.00    -0.422 A  
HETATM   14  C   UNL     1     -11.571  13.052  66.058  1.00  0.00    -0.409 C  
HETATM   15  C   UNL     1     -12.300  14.315  65.567  1.00  0.00    -0.408 C  
HETATM   16  C   UNL     1     -11.567  11.426  68.005  1.00  0.00    -0.357 A  
HETATM   17  O   UNL     1     -13.718  14.182  65.671  1.00  0.00    -0.540 OA 
HETATM   18  O   UNL     1      -9.965  12.967  64.243  1.00  0.00    -0.271 OA 
HETATM   19  C   UNL     1     -11.740  11.088  69.356  1.00  0.00    -0.394 A  
HETATM   20  H   UNL     1     -14.168  14.961  65.368  1.00  0.00     0.000 HD 
HETATM   21  C   UNL     1     -12.047  12.072  70.289  1.00  0.00    -0.395 A  
HETATM   22  C   UNL     1     -12.189  13.391  69.867  1.00  0.00    -0.337 A  
HETATM   23  C   UNL     1     -12.018  13.729  68.516  1.00  0.00    -0.402 A  
ENDBRANCH  11  12
ENDBRANCH   5  11
TORSDOF 2
ENDMDL
MODEL       20
REMARK 921   NORMALIZED FREE ENERGY PREDICTED BY IDOCK:   -6.24 KCAL/MOL
REMARK 922        TOTAL FREE ENERGY PREDICTED BY IDOCK:   -7.48 KCAL/MOL
REMARK 923 INTER-LIGAND FREE ENERGY PREDICTED BY IDOCK:   -6.80 KCAL/MOL
REMARK 924 INTRA-LIGAND FREE ENERGY PREDICTED BY IDOCK:   -0.68 KCAL/MOL
REMARK 927      BINDING AFFINITY PREDICTED BY RF-SCORE:    0.00 PKD
ROOT
HETATM    1  C   UNL     1      -9.952   7.805  66.716  1.00  0.00    -0.261 C  
HETATM    2  N   UNL     1      -9.089   8.959  66.695  1.00  0.00    -0.147 NA 
HETATM    3  C   UNL     1      -9.106   9.861  67.855  1.00  0.00    -0.131 C  
HETATM    4  C   UNL     1     -10.446  10.618  67.974  1.00  0.00    -0.228 C  
HETATM    5  C   UNL     1     -10.757  11.466  66.729  1.00  0.00    -0.271 C  
HETATM    6  C   UNL     1     -10.440  10.689  65.433  1.00  0.00    -0.254 C  
HETATM    7  O   UNL     1      -8.027  11.863  66.631  1.00  0.00    -0.132 OA 
HETATM    8  C   UNL     1      -9.135   9.846  65.525  1.00  0.00    -0.189 C  
HETATM    9  C   UNL     1      -7.899  10.689  67.431  1.00  0.00    -0.110 C  
HETATM   10  C   UNL     1      -7.898  10.643  65.914  1.00  0.00    -0.150 C  
ENDROOT
BRANCH   5  11
HETATM   11  O   UNL     1     -12.027  12.180  66.745  1.00  0.00    -0.606 OA 
BRANCH  11  12
HETATM   12  C   UNL     1     -12.366  13.077  65.800  1.00  0.00    -0.416 C  
HETATM   13  C   UNL     1     -11.215  14.817  67.384  1.00  0.00    -0.346 A  
HETATM   14  C   UNL     1     -11.728  14.456  65.986  1.00  0.00    -0.378 C  
HETATM   15  C   UNL     1     -10.726  14.651  64.836  1.00  0.00    -0.427 C  
HETATM   16  C   UNL     1     -12.138  15.203  68.376  1.00  0.00    -0.107 A  
HETATM   17  O   UNL     1     -10.418  16.030  64.631  1.00  0.00    -0.679 OA 
HETATM   18  O   UNL     1     -13.099  12.812  64.848  1.00  0.00    -0.833 OA 
HETATM   19  C   UNL     1     -11.717  15.612  69.650  1.00  0.00    -0.373 A  
HETATM   20  H   UNL     1      -9.798  16.151  63.921  1.00  0.00     0.000 HD 
HETATM   21  C   UNL     1     -10.362  15.647  69.961  1.00  0.00    -0.309 A  
HETATM   22  C   UNL     1      -9.431  15.283  68.993  1.00  0.00    -0.232 A  
HETATM   23  C   UNL     1      -9.851  14.876  67.718  1.00  0.00    -0.217 A  
ENDBRANCH  11  12
ENDBRANCH   5  11
TORSDOF 2
ENDMDL
MODEL       21
REMARK 921   NORMALIZED FREE ENERGY PREDICTED BY IDOCK:   -6.23 KCAL/MOL
REMARK 922        TOTAL FREE ENERGY PREDICTED BY IDOCK:   -7.47 KCAL/MOL
REMARK 923 INTER-LIGAND FREE ENERGY PREDICTED BY IDOCK:   -6.74 KCAL/MOL
REMARK 924 INTRA-LIGAND FREE ENERGY PREDICTED BY IDOCK:   -0.73 KCAL/MOL
REMARK 927      BINDING AFFINITY PREDICTED BY RF-SCORE:    0.00 PKD
ROOT
HETATM    1  C   UNL     1     -10.153  20.050  66.081  1.00  0.00    -0.475 C  
HETATM    2  N   UNL     1      -9.119  19.522  66.933  1.00  0.00    -0.316 NA 
HETATM    3  C   UNL     1      -8.364  18.351  66.467  1.00  0.00    -0.272 C  
HETATM    4  C   UNL     1      -9.245  17.083  66.416  1.00  0.00    -0.298 C  
HETATM    5  C   UNL     1      -9.844  16.726  67.786  1.00  0.00    -0.257 C  
HETATM    6  C   UNL     1     -10.372  17.985  68.507  1.00  0.00    -0.359 C  
HETATM    7  O   UNL     1      -7.463  17.690  68.795  1.00  0.00    -0.254 OA 
HETATM    8  C   UNL     1      -9.449  19.225  68.334  1.00  0.00    -0.376 C  
HETATM    9  C   UNL     1      -7.308  18.393  67.565  1.00  0.00    -0.218 C  
HETATM   10  C   UNL     1      -8.007  19.001  68.766  1.00  0.00    -0.333 C  
ENDROOT
BRANCH   5  11
HETATM   11  O   UNL     1     -10.723  15.565  67.813  1.00  0.00    -0.281 OA 
BRANCH  11  12
HETATM   12  C   UNL     1     -10.270  14.318  68.045  1.00  0.00    -0.226 C  
HETATM   13  C   UNL     1     -11.622  14.503  70.280  1.00  0.00    -0.328 A  
HETATM   14  C   UNL     1     -10.933  13.620  69.235  1.00  0.00    -0.189 C  
HETATM   15  C   UNL     1     -11.782  12.468  68.670  1.00  0.00    -0.325 C  
HETATM   16  C   UNL     1     -10.835  15.188  71.227  1.00  0.00    -0.028 A  
HETATM   17  O   UNL     1     -12.068  11.485  69.665  1.00  0.00    -0.309 OA 
HETATM   18  O   UNL     1      -9.420  13.766  67.345  1.00  0.00    -0.211 OA 
HETATM   19  C   UNL     1     -11.417  15.952  72.249  1.00  0.00    -0.361 A  
HETATM   20  H   UNL     1     -12.592  10.773  69.317  1.00  0.00     0.000 HD 
HETATM   21  C   UNL     1     -12.801  16.047  72.351  1.00  0.00    -0.470 A  
HETATM   22  C   UNL     1     -13.599  15.369  71.434  1.00  0.00    -0.604 A  
HETATM   23  C   UNL     1     -13.018  14.603  70.413  1.00  0.00    -0.249 A  
ENDBRANCH  11  12
ENDBRANCH   5  11
TORSDOF 2
ENDMDL
MODEL       22
REMARK 921   NORMALIZED FREE ENERGY PREDICTED BY IDOCK:   -6.23 KCAL/MOL
REMARK 922        TOTAL FREE ENERGY PREDICTED BY IDOCK:   -7.47 KCAL/MOL
REMARK 923 INTER-LIGAND FREE ENERGY PREDICTED BY IDOCK:   -6.64 KCAL/MOL
REMARK 924 INTRA-LIGAND FREE ENERGY PREDICTED BY IDOCK:   -0.83 KCAL/MOL
REMARK 927      BINDING AFFINITY PREDICTED BY RF-SCORE:    0.00 PKD
ROOT
HETATM    1  C   UNL     1      -6.158  14.685  68.030  1.00  0.00    -0.156 C  
HETATM    2  N   UNL     1      -6.448  16.095  68.076  1.00  0.00    -0.123 NA 
HETATM    3  C   UNL     1      -7.438  16.570  69.052  1.00  0.00    -0.229 C  
HETATM    4  C   UNL     1      -8.864  16.086  68.706  1.00  0.00    -0.227 C  
HETATM    5  C   UNL     1      -9.326  16.558  67.317  1.00  0.00    -0.222 C  
HETATM    6  C   UNL     1      -8.200  16.401  66.273  1.00  0.00    -0.343 C  
HETATM    7  O   UNL     1      -7.872  18.834  67.887  1.00  0.00    -0.253 OA 
HETATM    8  C   UNL     1      -6.794  16.780  66.822  1.00  0.00    -0.230 C  
HETATM    9  C   UNL     1      -7.164  18.055  68.849  1.00  0.00    -0.259 C  
HETATM   10  C   UNL     1      -6.705  18.182  67.408  1.00  0.00    -0.194 C  
ENDROOT
BRANCH   5  11
HETATM   11  O   UNL     1     -10.646  16.107  66.898  1.00  0.00    -0.309 OA 
BRANCH  11  12
HETATM   12  C   UNL     1     -10.889  15.621  65.666  1.00  0.00    -0.327 C  
HETATM   13  C   UNL     1     -10.759  13.278  66.827  1.00  0.00    -0.279 A  
HETATM   14  C   UNL     1     -11.207  14.125  65.631  1.00  0.00    -0.308 C  
HETATM   15  C   UNL     1     -12.686  13.985  65.231  1.00  0.00    -0.439 C  
HETATM   16  C   UNL     1      -9.406  12.901  66.934  1.00  0.00    -0.240 A  
HETATM   17  O   UNL     1     -12.975  12.681  64.723  1.00  0.00    -0.816 OA 
HETATM   18  O   UNL     1     -10.889  16.320  64.652  1.00  0.00    -0.687 OA 
HETATM   19  C   UNL     1      -8.956  12.068  67.968  1.00  0.00    -0.187 A  
HETATM   20  H   UNL     1     -13.888  12.594  64.476  1.00  0.00     0.000 HD 
HETATM   21  C   UNL     1      -9.850  11.587  68.919  1.00  0.00    -0.091 A  
HETATM   22  C   UNL     1     -11.194  11.935  68.827  1.00  0.00    -0.314 A  
HETATM   23  C   UNL     1     -11.646  12.767  67.791  1.00  0.00    -0.405 A  
ENDBRANCH  11  12
ENDBRANCH   5  11
TORSDOF 2
ENDMDL
MODEL       23
REMARK 921   NORMALIZED FREE ENERGY PREDICTED BY IDOCK:   -6.16 KCAL/MOL
REMARK 922        TOTAL FREE ENERGY PREDICTED BY IDOCK:   -7.39 KCAL/MOL
REMARK 923 INTER-LIGAND FREE ENERGY PREDICTED BY IDOCK:   -6.60 KCAL/MOL
REMARK 924 INTRA-LIGAND FREE ENERGY PREDICTED BY IDOCK:   -0.79 KCAL/MOL
REMARK 927      BINDING AFFINITY PREDICTED BY RF-SCORE:    0.00 PKD
ROOT
HETATM    1  C   UNL     1     -10.354  12.373  63.915  1.00  0.00    -0.423 C  
HETATM    2  N   UNL     1     -11.077  12.825  65.076  1.00  0.00    -0.279 NA 
HETATM    3  C   UNL     1     -11.993  13.963  64.926  1.00  0.00    -0.395 C  
HETATM    4  C   UNL     1     -11.234  15.277  64.642  1.00  0.00    -0.366 C  
HETATM    5  C   UNL     1     -10.237  15.636  65.757  1.00  0.00    -0.367 C  
HETATM    6  C   UNL     1      -9.449  14.392  66.218  1.00  0.00    -0.297 C  
HETATM    7  O   UNL     1     -12.116  14.521  67.444  1.00  0.00    -0.380 OA 
HETATM    8  C   UNL     1     -10.322  13.107  66.305  1.00  0.00    -0.287 C  
HETATM    9  C   UNL     1     -12.632  13.838  66.304  1.00  0.00    -0.321 C  
HETATM   10  C   UNL     1     -11.554  13.242  67.190  1.00  0.00    -0.357 C  
ENDROOT
BRANCH   5  11
HETATM   11  O   UNL     1      -9.450  16.842  65.543  1.00  0.00    -0.496 OA 
BRANCH  11  12
HETATM   12  C   UNL     1      -9.754  18.019  66.123  1.00  0.00    -0.212 C  
HETATM   13  C   UNL     1      -7.699  17.513  67.666  1.00  0.00    -0.207 A  
HETATM   14  C   UNL     1      -8.690  18.533  67.096  1.00  0.00    -0.274 C  
HETATM   15  C   UNL     1      -8.066  19.788  66.464  1.00  0.00    -0.327 C  
HETATM   16  C   UNL     1      -8.115  16.657  68.705  1.00  0.00    -0.247 A  
HETATM   17  O   UNL     1      -7.415  20.604  67.440  1.00  0.00    -0.326 OA 
HETATM   18  O   UNL     1     -10.781  18.650  65.874  1.00  0.00    -0.420 OA 
HETATM   19  C   UNL     1      -7.229  15.755  69.312  1.00  0.00    -0.211 A  
HETATM   20  H   UNL     1      -7.030  21.380  67.050  1.00  0.00     0.000 HD 
HETATM   21  C   UNL     1      -5.904  15.689  68.896  1.00  0.00    -0.103 A  
HETATM   22  C   UNL     1      -5.466  16.533  67.880  1.00  0.00    -0.131 A  
HETATM   23  C   UNL     1      -6.351  17.438  67.274  1.00  0.00    -0.172 A  
ENDBRANCH  11  12
ENDBRANCH   5  11
TORSDOF 2
ENDMDL
MODEL       24
REMARK 921   NORMALIZED FREE ENERGY PREDICTED BY IDOCK:   -6.13 KCAL/MOL
REMARK 922        TOTAL FREE ENERGY PREDICTED BY IDOCK:   -7.35 KCAL/MOL
REMARK 923 INTER-LIGAND FREE ENERGY PREDICTED BY IDOCK:   -6.78 KCAL/MOL
REMARK 924 INTRA-LIGAND FREE ENERGY PREDICTED BY IDOCK:   -0.58 KCAL/MOL
REMARK 927      BINDING AFFINITY PREDICTED BY RF-SCORE:    0.00 PKD
ROOT
HETATM    1  C   UNL     1     -11.529   6.415  69.941  1.00  0.00    -0.415 C  
HETATM    2  N   UNL     1     -10.648   6.992  70.925  1.00  0.00    -0.215 NA 
HETATM    3  C   UNL     1     -11.163   8.081  71.765  1.00  0.00    -0.266 C  
HETATM    4  C   UNL     1     -11.416   9.367  70.948  1.00  0.00    -0.382 C  
HETATM    5  C   UNL     1     -10.145   9.885  70.255  1.00  0.00    -0.237 C  
HETATM    6  C   UNL     1      -9.349   8.726  69.616  1.00  0.00    -0.158 C  
HETATM    7  O   UNL     1      -8.845   8.947  72.502  1.00  0.00    -0.381 OA 
HETATM    8  C   UNL     1      -9.318   7.442  70.495  1.00  0.00    -0.157 C  
HETATM    9  C   UNL     1      -9.981   8.115  72.726  1.00  0.00    -0.291 C  
HETATM   10  C   UNL     1      -8.789   7.659  71.906  1.00  0.00    -0.116 C  
ENDROOT
BRANCH   5  11
HETATM   11  O   UNL     1     -10.309  11.072  69.428  1.00  0.00    -0.196 OA 
BRANCH  11  12
HETATM   12  C   UNL     1     -11.265  11.173  68.485  1.00  0.00    -0.258 C  
HETATM   13  C   UNL     1     -11.932  13.372  69.741  1.00  0.00    -0.396 A  
HETATM   14  C   UNL     1     -11.993  12.519  68.469  1.00  0.00    -0.266 C  
HETATM   15  C   UNL     1     -11.596  13.233  67.166  1.00  0.00    -0.357 C  
HETATM   16  C   UNL     1     -12.755  13.036  70.834  1.00  0.00    -0.299 A  
HETATM   17  O   UNL     1     -12.532  14.253  66.816  1.00  0.00    -0.575 OA 
HETATM   18  O   UNL     1     -11.517  10.276  67.680  1.00  0.00    -0.345 OA 
HETATM   19  C   UNL     1     -12.792  13.823  71.994  1.00  0.00    -0.383 A  
HETATM   20  H   UNL     1     -12.288  14.695  66.012  1.00  0.00     0.000 HD 
HETATM   21  C   UNL     1     -12.009  14.969  72.086  1.00  0.00    -0.456 A  
HETATM   22  C   UNL     1     -11.197  15.328  71.015  1.00  0.00    -0.378 A  
HETATM   23  C   UNL     1     -11.161  14.543  69.853  1.00  0.00    -0.247 A  
ENDBRANCH  11  12
ENDBRANCH   5  11
TORSDOF 2
ENDMDL
MODEL       25
REMARK 921   NORMALIZED FREE ENERGY PREDICTED BY IDOCK:   -6.12 KCAL/MOL
REMARK 922        TOTAL FREE ENERGY PREDICTED BY IDOCK:   -7.34 KCAL/MOL
REMARK 923 INTER-LIGAND FREE ENERGY PREDICTED BY IDOCK:   -6.84 KCAL/MOL
REMARK 924 INTRA-LIGAND FREE ENERGY PREDICTED BY IDOCK:   -0.50 KCAL/MOL
REMARK 927      BINDING AFFINITY PREDICTED BY RF-SCORE:    0.00 PKD
ROOT
HETATM    1  C   UNL     1      -5.874  14.526  67.962  1.00  0.00    -0.143 C  
HETATM    2  N   UNL     1      -6.361  15.867  68.162  1.00  0.00    -0.116 NA 
HETATM    3  C   UNL     1      -7.413  16.082  69.165  1.00  0.00    -0.216 C  
HETATM    4  C   UNL     1      -8.753  15.447  68.736  1.00  0.00    -0.195 C  
HETATM    5  C   UNL     1      -9.272  16.008  67.401  1.00  0.00    -0.208 C  
HETATM    6  C   UNL     1      -8.129  16.132  66.370  1.00  0.00    -0.305 C  
HETATM    7  O   UNL     1      -8.157  18.383  68.259  1.00  0.00    -0.280 OA 
HETATM    8  C   UNL     1      -6.794  16.638  66.988  1.00  0.00    -0.209 C  
HETATM    9  C   UNL     1      -7.350  17.604  69.139  1.00  0.00    -0.122 C  
HETATM   10  C   UNL     1      -6.907  17.961  67.733  1.00  0.00    -0.191 C  
ENDROOT
BRANCH   5  11
HETATM   11  O   UNL     1     -10.512  15.428  66.906  1.00  0.00    -0.283 OA 
BRANCH  11  12
HETATM   12  C   UNL     1     -11.481  14.978  67.726  1.00  0.00    -0.334 C  
HETATM   13  C   UNL     1     -11.622  12.963  66.059  1.00  0.00    -0.424 A  
HETATM   14  C   UNL     1     -11.924  13.540  67.446  1.00  0.00    -0.398 C  
HETATM   15  C   UNL     1     -11.466  12.684  68.639  1.00  0.00    -0.308 C  
HETATM   16  C   UNL     1     -12.432  13.336  64.968  1.00  0.00    -0.498 A  
HETATM   17  O   UNL     1     -12.198  11.460  68.723  1.00  0.00    -0.502 OA 
HETATM   18  O   UNL     1     -11.953  15.647  68.646  1.00  0.00    -0.336 OA 
HETATM   19  C   UNL     1     -12.244  12.784  63.693  1.00  0.00    -0.597 A  
HETATM   20  H   UNL     1     -11.916  10.931  69.460  1.00  0.00     0.000 HD 
HETATM   21  C   UNL     1     -11.244  11.842  63.479  1.00  0.00    -0.494 A  
HETATM   22  C   UNL     1     -10.439  11.448  64.543  1.00  0.00    -0.381 A  
HETATM   23  C   UNL     1     -10.627  11.999  65.820  1.00  0.00    -0.301 A  
ENDBRANCH  11  12
ENDBRANCH   5  11
TORSDOF 2
ENDMDL
MODEL       26
REMARK 921   NORMALIZED FREE ENERGY PREDICTED BY IDOCK:   -6.11 KCAL/MOL
REMARK 922        TOTAL FREE ENERGY PREDICTED BY IDOCK:   -7.33 KCAL/MOL
REMARK 923 INTER-LIGAND FREE ENERGY PREDICTED BY IDOCK:   -6.57 KCAL/MOL
REMARK 924 INTRA-LIGAND FREE ENERGY PREDICTED BY IDOCK:   -0.77 KCAL/MOL
REMARK 927      BINDING AFFINITY PREDICTED BY RF-SCORE:    0.00 PKD
ROOT
HETATM    1  C   UNL     1      -7.338  17.422  66.512  1.00  0.00    -0.277 C  
HETATM    2  N   UNL     1      -8.537  17.102  67.243  1.00  0.00    -0.198 NA 
HETATM    3  C   UNL     1      -8.410  16.315  68.477  1.00  0.00    -0.204 C  
HETATM    4  C   UNL     1      -7.960  14.866  68.191  1.00  0.00    -0.130 C  
HETATM    5  C   UNL     1      -8.937  14.117  67.269  1.00  0.00    -0.214 C  
HETATM    6  C   UNL     1      -9.394  15.013  66.097  1.00  0.00    -0.327 C  
HETATM    7  O   UNL     1     -10.885  15.582  68.565  1.00  0.00    -0.251 OA 
HETATM    8  C   UNL     1      -9.658  16.487  66.517  1.00  0.00    -0.271 C  
HETATM    9  C   UNL     1      -9.853  16.495  68.932  1.00  0.00    -0.260 C  
HETATM   10  C   UNL     1     -10.657  16.648  67.655  1.00  0.00    -0.321 C  
ENDROOT
BRANCH   5  11
HETATM   11  O   UNL     1      -8.561  12.755  66.916  1.00  0.00    -0.197 OA 
BRANCH  11  12
HETATM   12  C   UNL     1      -9.005  11.681  67.596  1.00  0.00    -0.166 C  
HETATM   13  C   UNL     1     -10.751  11.476  65.654  1.00  0.00    -0.323 A  
HETATM   14  C   UNL     1     -10.012  10.822  66.826  1.00  0.00    -0.249 C  
HETATM   15  C   UNL     1      -9.321   9.483  66.516  1.00  0.00    -0.171 C  
HETATM   16  C   UNL     1     -11.825  12.347  65.920  1.00  0.00    -0.467 A  
HETATM   17  O   UNL     1     -10.269   8.454  66.226  1.00  0.00    -0.442 OA 
HETATM   18  O   UNL     1      -8.617  11.389  68.727  1.00  0.00    -0.153 OA 
HETATM   19  C   UNL     1     -12.581  12.916  64.884  1.00  0.00    -0.525 A  
HETATM   20  H   UNL     1      -9.843   7.627  66.034  1.00  0.00     0.000 HD 
HETATM   21  C   UNL     1     -12.282  12.624  63.558  1.00  0.00    -0.638 A  
HETATM   22  C   UNL     1     -11.233  11.756  63.271  1.00  0.00    -0.357 A  
HETATM   23  C   UNL     1     -10.478  11.185  64.306  1.00  0.00    -0.427 A  
ENDBRANCH  11  12
ENDBRANCH   5  11
TORSDOF 2
ENDMDL
MODEL       27
REMARK 921   NORMALIZED FREE ENERGY PREDICTED BY IDOCK:   -6.09 KCAL/MOL
REMARK 922        TOTAL FREE ENERGY PREDICTED BY IDOCK:   -7.31 KCAL/MOL
REMARK 923 INTER-LIGAND FREE ENERGY PREDICTED BY IDOCK:   -6.70 KCAL/MOL
REMARK 924 INTRA-LIGAND FREE ENERGY PREDICTED BY IDOCK:   -0.60 KCAL/MOL
REMARK 927      BINDING AFFINITY PREDICTED BY RF-SCORE:    0.00 PKD
ROOT
HETATM    1  C   UNL     1      -7.164  11.713  66.796  1.00  0.00    -0.082 C  
HETATM    2  N   UNL     1      -7.928  10.501  66.644  1.00  0.00    -0.120 NA 
HETATM    3  C   UNL     1      -8.772  10.356  65.451  1.00  0.00    -0.180 C  
HETATM    4  C   UNL     1      -9.963  11.340  65.467  1.00  0.00    -0.293 C  
HETATM    5  C   UNL     1     -10.869  11.149  66.696  1.00  0.00    -0.253 C  
HETATM    6  C   UNL     1     -10.032  10.952  67.978  1.00  0.00    -0.188 C  
HETATM    7  O   UNL     1     -10.251   8.473  66.417  1.00  0.00    -0.273 OA 
HETATM    8  C   UNL     1      -8.774  10.062  67.762  1.00  0.00    -0.125 C  
HETATM    9  C   UNL     1      -9.109   8.887  65.670  1.00  0.00    -0.212 C  
HETATM   10  C   UNL     1      -9.069   8.689  67.173  1.00  0.00    -0.133 C  
ENDROOT
BRANCH   5  11
HETATM   11  O   UNL     1     -11.993  12.068  66.807  1.00  0.00    -0.616 OA 
BRANCH  11  12
HETATM   12  C   UNL     1     -12.324  12.930  65.827  1.00  0.00    -0.375 C  
HETATM   13  C   UNL     1     -11.210  14.732  67.368  1.00  0.00    -0.346 A  
HETATM   14  C   UNL     1     -11.699  14.319  65.975  1.00  0.00    -0.384 C  
HETATM   15  C   UNL     1     -10.680  14.483  64.835  1.00  0.00    -0.429 C  
HETATM   16  C   UNL     1     -12.151  15.144  68.332  1.00  0.00    -0.107 A  
HETATM   17  O   UNL     1     -10.380  15.857  64.587  1.00  0.00    -0.597 OA 
HETATM   18  O   UNL     1     -13.041  12.626  64.873  1.00  0.00    -0.850 OA 
HETATM   19  C   UNL     1     -11.752  15.599  69.598  1.00  0.00    -0.373 A  
HETATM   20  H   UNL     1      -9.750  15.958  63.883  1.00  0.00     0.000 HD 
HETATM   21  C   UNL     1     -10.402  15.656  69.927  1.00  0.00    -0.322 A  
HETATM   22  C   UNL     1      -9.454  15.266  68.987  1.00  0.00    -0.232 A  
HETATM   23  C   UNL     1      -9.851  14.813  67.720  1.00  0.00    -0.214 A  
ENDBRANCH  11  12
ENDBRANCH   5  11
TORSDOF 2
ENDMDL
MODEL       28
REMARK 921   NORMALIZED FREE ENERGY PREDICTED BY IDOCK:   -6.07 KCAL/MOL
REMARK 922        TOTAL FREE ENERGY PREDICTED BY IDOCK:   -7.29 KCAL/MOL
REMARK 923 INTER-LIGAND FREE ENERGY PREDICTED BY IDOCK:   -6.98 KCAL/MOL
REMARK 924 INTRA-LIGAND FREE ENERGY PREDICTED BY IDOCK:   -0.31 KCAL/MOL
REMARK 927      BINDING AFFINITY PREDICTED BY RF-SCORE:    0.00 PKD
ROOT
HETATM    1  C   UNL     1     -10.334  10.535  65.163  1.00  0.00    -0.240 C  
HETATM    2  N   UNL     1     -11.220  11.593  64.751  1.00  0.00    -0.272 NA 
HETATM    3  C   UNL     1     -10.673  12.675  63.922  1.00  0.00    -0.431 C  
HETATM    4  C   UNL     1      -9.672  13.551  64.707  1.00  0.00     0.185 C  
HETATM    5  C   UNL     1     -10.305  14.201  65.949  1.00  0.00    -0.316 C  
HETATM    6  C   UNL     1     -11.191  13.193  66.713  1.00  0.00    -0.330 C  
HETATM    7  O   UNL     1     -12.584  14.347  64.397  1.00  0.00    -0.668 OA 
HETATM    8  C   UNL     1     -12.025  12.273  65.776  1.00  0.00    -0.293 C  
HETATM    9  C   UNL     1     -12.015  13.318  63.590  1.00  0.00    -0.486 C  
HETATM   10  C   UNL     1     -12.904  13.018  64.782  1.00  0.00    -0.265 C  
ENDROOT
BRANCH   5  11
HETATM   11  O   UNL     1      -9.414  15.010  66.769  1.00  0.00    -0.222 OA 
BRANCH  11  12
HETATM   12  C   UNL     1      -9.343  14.881  68.107  1.00  0.00    -0.193 C  
HETATM   13  C   UNL     1      -9.729  17.470  68.134  1.00  0.00    -0.302 A  
HETATM   14  C   UNL     1      -9.759  16.133  68.882  1.00  0.00    -0.242 C  
HETATM   15  C   UNL     1     -11.075  15.803  69.607  1.00  0.00    -0.307 C  
HETATM   16  C   UNL     1      -8.494  18.113  67.924  1.00  0.00    -0.259 A  
HETATM   17  O   UNL     1     -11.315  16.693  70.698  1.00  0.00    -0.518 OA 
HETATM   18  O   UNL     1      -9.006  13.838  68.669  1.00  0.00    -0.151 OA 
HETATM   19  C   UNL     1      -8.416  19.372  67.309  1.00  0.00    -0.325 A  
HETATM   20  H   UNL     1     -12.128  16.489  71.146  1.00  0.00     0.000 HD 
HETATM   21  C   UNL     1      -9.575  20.019  66.894  1.00  0.00    -0.541 A  
HETATM   22  C   UNL     1     -10.808  19.410  67.102  1.00  0.00    -0.561 A  
HETATM   23  C   UNL     1     -10.887  18.153  67.719  1.00  0.00    -0.250 A  
ENDBRANCH  11  12
ENDBRANCH   5  11
TORSDOF 2
ENDMDL
MODEL       29
REMARK 921   NORMALIZED FREE ENERGY PREDICTED BY IDOCK:   -6.04 KCAL/MOL
REMARK 922        TOTAL FREE ENERGY PREDICTED BY IDOCK:   -7.25 KCAL/MOL
REMARK 923 INTER-LIGAND FREE ENERGY PREDICTED BY IDOCK:   -6.68 KCAL/MOL
REMARK 924 INTRA-LIGAND FREE ENERGY PREDICTED BY IDOCK:   -0.58 KCAL/MOL
REMARK 927      BINDING AFFINITY PREDICTED BY RF-SCORE:    0.00 PKD
ROOT
HETATM    1  C   UNL     1      -7.471   9.750  68.575  1.00  0.00    -0.079 C  
HETATM    2  N   UNL     1      -7.984   9.588  67.238  1.00  0.00    -0.106 NA 
HETATM    3  C   UNL     1      -7.690  10.634  66.250  1.00  0.00    -0.143 C  
HETATM    4  C   UNL     1      -8.416  11.957  66.580  1.00  0.00    -0.143 C  
HETATM    5  C   UNL     1      -9.944  11.794  66.635  1.00  0.00    -0.200 C  
HETATM    6  C   UNL     1     -10.339  10.506  67.389  1.00  0.00    -0.269 C  
HETATM    7  O   UNL     1      -9.565   9.960  64.607  1.00  0.00    -0.299 OA 
HETATM    8  C   UNL     1      -9.414   9.297  67.067  1.00  0.00    -0.159 C  
HETATM    9  C   UNL     1      -8.211   9.864  65.042  1.00  0.00    -0.143 C  
HETATM   10  C   UNL     1      -9.305   8.965  65.585  1.00  0.00    -0.191 C  
ENDROOT
BRANCH   5  11
HETATM   11  O   UNL     1     -10.700  12.989  66.984  1.00  0.00    -0.255 OA 
BRANCH  11  12
HETATM   12  C   UNL     1     -11.710  13.455  66.225  1.00  0.00    -0.366 C  
HETATM   13  C   UNL     1     -10.686  15.811  66.738  1.00  0.00    -0.293 A  
HETATM   14  C   UNL     1     -11.591  14.937  65.862  1.00  0.00    -0.228 C  
HETATM   15  C   UNL     1     -11.330  15.014  64.348  1.00  0.00    -0.198 C  
HETATM   16  C   UNL     1     -11.156  16.242  67.994  1.00  0.00    -0.299 A  
HETATM   17  O   UNL     1     -11.654  16.301  63.821  1.00  0.00    -1.539 OA 
HETATM   18  O   UNL     1     -12.637  12.750  65.825  1.00  0.00    -0.562 OA 
HETATM   19  C   UNL     1     -10.399  17.101  68.805  1.00  0.00    -0.353 A  
HETATM   20  H   UNL     1     -11.492  16.349  62.886  1.00  0.00     0.000 HD 
HETATM   21  C   UNL     1      -9.155  17.551  68.376  1.00  0.00    -0.276 A  
HETATM   22  C   UNL     1      -8.675  17.149  67.134  1.00  0.00    -0.227 A  
HETATM   23  C   UNL     1      -9.433  16.292  66.321  1.00  0.00    -0.347 A  
ENDBRANCH  11  12
ENDBRANCH   5  11
TORSDOF 2
ENDMDL
MODEL       30
REMARK 921   NORMALIZED FREE ENERGY PREDICTED BY IDOCK:   -6.02 KCAL/MOL
REMARK 922        TOTAL FREE ENERGY PREDICTED BY IDOCK:   -7.23 KCAL/MOL
REMARK 923 INTER-LIGAND FREE ENERGY PREDICTED BY IDOCK:   -6.39 KCAL/MOL
REMARK 924 INTRA-LIGAND FREE ENERGY PREDICTED BY IDOCK:   -0.85 KCAL/MOL
REMARK 927      BINDING AFFINITY PREDICTED BY RF-SCORE:    0.00 PKD
ROOT
HETATM    1  C   UNL     1     -11.504  14.833  64.867  1.00  0.00    -0.412 C  
HETATM    2  N   UNL     1     -11.145  15.231  66.204  1.00  0.00    -0.317 NA 
HETATM    3  C   UNL     1      -9.726  15.191  66.584  1.00  0.00    -0.258 C  
HETATM    4  C   UNL     1      -9.193  13.743  66.659  1.00  0.00    -0.238 C  
HETATM    5  C   UNL     1      -9.963  12.882  67.674  1.00  0.00    -0.218 C  
HETATM    6  C   UNL     1     -11.485  13.123  67.565  1.00  0.00    -0.371 C  
HETATM    7  O   UNL     1     -10.147  15.219  69.132  1.00  0.00    -0.218 OA 
HETATM    8  C   UNL     1     -11.856  14.616  67.334  1.00  0.00    -0.348 C  
HETATM    9  C   UNL     1      -9.895  15.916  67.913  1.00  0.00    -0.218 C  
HETATM   10  C   UNL     1     -11.298  15.572  68.379  1.00  0.00    -0.354 C  
ENDROOT
BRANCH   5  11
HETATM   11  O   UNL     1      -9.548  11.490  67.773  1.00  0.00    -0.168 OA 
BRANCH  11  12
HETATM   12  C   UNL     1     -10.429  10.477  67.884  1.00  0.00    -0.210 C  
HETATM   13  C   UNL     1      -9.977  10.124  65.329  1.00  0.00    -0.381 A  
HETATM   14  C   UNL     1     -10.494   9.564  66.658  1.00  0.00    -0.241 C  
HETATM   15  C   UNL     1      -9.918   8.200  67.077  1.00  0.00    -0.259 C  
HETATM   16  C   UNL     1     -10.784  11.019  64.600  1.00  0.00    -0.318 A  
HETATM   17  O   UNL     1     -10.337   7.156  66.196  1.00  0.00    -0.398 OA 
HETATM   18  O   UNL     1     -11.103  10.276  68.894  1.00  0.00    -0.230 OA 
HETATM   19  C   UNL     1     -10.391  11.506  63.345  1.00  0.00    -0.469 A  
HETATM   20  H   UNL     1      -9.982   6.314  66.454  1.00  0.00     0.000 HD 
HETATM   21  C   UNL     1      -9.182  11.106  62.787  1.00  0.00    -0.374 A  
HETATM   22  C   UNL     1      -8.374  10.212  63.482  1.00  0.00    -0.169 A  
HETATM   23  C   UNL     1      -8.767   9.723  64.736  1.00  0.00    -0.216 A  
ENDBRANCH  11  12
ENDBRANCH   5  11
TORSDOF 2
ENDMDL
MODEL       31
REMARK 921   NORMALIZED FREE ENERGY PREDICTED BY IDOCK:   -6.01 KCAL/MOL
REMARK 922        TOTAL FREE ENERGY PREDICTED BY IDOCK:   -7.22 KCAL/MOL
REMARK 923 INTER-LIGAND FREE ENERGY PREDICTED BY IDOCK:   -6.64 KCAL/MOL
REMARK 924 INTRA-LIGAND FREE ENERGY PREDICTED BY IDOCK:   -0.58 KCAL/MOL
REMARK 927      BINDING AFFINITY PREDICTED BY RF-SCORE:    0.00 PKD
ROOT
HETATM    1  C   UNL     1      -7.524  18.752  67.859  1.00  0.00    -0.242 C  
HETATM    2  N   UNL     1      -8.185  17.631  68.477  1.00  0.00    -0.288 NA 
HETATM    3  C   UNL     1      -7.679  16.281  68.191  1.00  0.00    -0.157 C  
HETATM    4  C   UNL     1      -7.930  15.874  66.723  1.00  0.00    -0.287 C  
HETATM    5  C   UNL     1      -9.423  15.891  66.353  1.00  0.00    -0.295 C  
HETATM    6  C   UNL     1     -10.121  17.147  66.919  1.00  0.00    -0.298 C  
HETATM    7  O   UNL     1      -9.816  15.046  68.951  1.00  0.00    -0.219 OA 
HETATM    8  C   UNL     1      -9.645  17.522  68.352  1.00  0.00    -0.303 C  
HETATM    9  C   UNL     1      -8.522  15.568  69.242  1.00  0.00    -0.265 C  
HETATM   10  C   UNL     1      -9.783  16.401  69.373  1.00  0.00    -0.157 C  
ENDROOT
BRANCH   5  11
HETATM   11  O   UNL     1      -9.740  15.559  64.971  1.00  0.00    -0.246 OA 
BRANCH  11  12
HETATM   12  C   UNL     1     -10.997  15.587  64.488  1.00  0.00    -0.206 C  
HETATM   13  C   UNL     1     -10.904  12.985  64.770  1.00  0.00    -0.357 A  
HETATM   14  C   UNL     1     -11.743  14.256  64.603  1.00  0.00    -0.439 C  
HETATM   15  C   UNL     1     -12.867  14.454  65.635  1.00  0.00    -0.204 C  
HETATM   16  C   UNL     1     -10.263  12.432  63.644  1.00  0.00    -0.383 A  
HETATM   17  O   UNL     1     -13.892  13.468  65.496  1.00  0.00     0.098 OA 
HETATM   18  O   UNL     1     -11.520  16.600  64.023  1.00  0.00    -1.192 OA 
HETATM   19  C   UNL     1      -9.542  11.232  63.725  1.00  0.00    -0.284 A  
HETATM   20  H   UNL     1     -14.586  13.590  66.132  1.00  0.00     0.000 HD 
HETATM   21  C   UNL     1      -9.448  10.554  64.936  1.00  0.00    -0.304 A  
HETATM   22  C   UNL     1     -10.083  11.074  66.059  1.00  0.00    -0.297 A  
HETATM   23  C   UNL     1     -10.806  12.273  65.978  1.00  0.00    -0.310 A  
ENDBRANCH  11  12
ENDBRANCH   5  11
TORSDOF 2
ENDMDL
MODEL       32
REMARK 921   NORMALIZED FREE ENERGY PREDICTED BY IDOCK:   -5.99 KCAL/MOL
REMARK 922        TOTAL FREE ENERGY PREDICTED BY IDOCK:   -7.20 KCAL/MOL
REMARK 923 INTER-LIGAND FREE ENERGY PREDICTED BY IDOCK:   -6.53 KCAL/MOL
REMARK 924 INTRA-LIGAND FREE ENERGY PREDICTED BY IDOCK:   -0.66 KCAL/MOL
REMARK 927      BINDING AFFINITY PREDICTED BY RF-SCORE:    0.00 PKD
ROOT
HETATM    1  C   UNL     1     -13.153  13.849  65.383  1.00  0.00    -0.189 C  
HETATM    2  N   UNL     1     -12.040  12.940  65.282  1.00  0.00    -0.425 NA 
HETATM    3  C   UNL     1     -11.559  12.291  66.510  1.00  0.00    -0.377 C  
HETATM    4  C   UNL     1     -10.900  13.303  67.473  1.00  0.00    -0.276 C  
HETATM    5  C   UNL     1      -9.702  14.028  66.838  1.00  0.00    -0.271 C  
HETATM    6  C   UNL     1     -10.017  14.458  65.389  1.00  0.00    -0.344 C  
HETATM    7  O   UNL     1      -9.254  11.626  65.555  1.00  0.00    -0.194 OA 
HETATM    8  C   UNL     1     -10.824  13.393  64.592  1.00  0.00    -0.392 C  
HETATM    9  C   UNL     1     -10.620  11.312  65.816  1.00  0.00    -0.248 C  
HETATM   10  C   UNL     1     -10.176  12.017  64.548  1.00  0.00    -0.286 C  
ENDROOT
BRANCH   5  11
HETATM   11  O   UNL     1      -9.052  15.032  67.669  1.00  0.00    -0.177 OA 
BRANCH  11  12
HETATM   12  C   UNL     1      -7.751  15.354  67.532  1.00  0.00    -0.181 C  
HETATM   13  C   UNL     1      -8.609  17.828  67.582  1.00  0.00    -0.230 A  
HETATM   14  C   UNL     1      -7.448  16.840  67.735  1.00  0.00    -0.176 C  
HETATM   15  C   UNL     1      -6.633  16.964  69.034  1.00  0.00    -0.209 C  
HETATM   16  C   UNL     1      -9.046  18.179  66.289  1.00  0.00    -0.199 A  
HETATM   17  O   UNL     1      -5.911  18.195  69.091  1.00  0.00    -0.210 OA 
HETATM   18  O   UNL     1      -6.871  14.526  67.297  1.00  0.00    -0.252 OA 
HETATM   19  C   UNL     1     -10.056  19.132  66.090  1.00  0.00    -0.492 A  
HETATM   20  H   UNL     1      -5.409  18.272  69.893  1.00  0.00     0.000 HD 
HETATM   21  C   UNL     1     -10.651  19.758  67.180  1.00  0.00    -0.577 A  
HETATM   22  C   UNL     1     -10.228  19.436  68.466  1.00  0.00    -0.492 A  
HETATM   23  C   UNL     1      -9.216  18.486  68.666  1.00  0.00    -0.336 A  
ENDBRANCH  11  12
ENDBRANCH   5  11
TORSDOF 2
ENDMDL
MODEL       33
REMARK 921   NORMALIZED FREE ENERGY PREDICTED BY IDOCK:   -5.97 KCAL/MOL
REMARK 922        TOTAL FREE ENERGY PREDICTED BY IDOCK:   -7.17 KCAL/MOL
REMARK 923 INTER-LIGAND FREE ENERGY PREDICTED BY IDOCK:   -6.59 KCAL/MOL
REMARK 924 INTRA-LIGAND FREE ENERGY PREDICTED BY IDOCK:   -0.58 KCAL/MOL
REMARK 927      BINDING AFFINITY PREDICTED BY RF-SCORE:    0.00 PKD
ROOT
HETATM    1  C   UNL     1      -9.316  14.493  66.598  1.00  0.00    -0.281 C  
HETATM    2  N   UNL     1     -10.500  14.129  65.862  1.00  0.00    -0.296 NA 
HETATM    3  C   UNL     1     -11.793  14.181  66.557  1.00  0.00    -0.419 C  
HETATM    4  C   UNL     1     -11.900  13.098  67.653  1.00  0.00    -0.405 C  
HETATM    5  C   UNL     1     -11.738  11.675  67.093  1.00  0.00    -0.133 C  
HETATM    6  C   UNL     1     -10.580  11.607  66.074  1.00  0.00    -0.303 C  
HETATM    7  O   UNL     1     -13.042  12.672  64.874  1.00  0.00    -0.850 OA 
HETATM    8  C   UNL     1     -10.510  12.849  65.140  1.00  0.00    -0.309 C  
HETATM    9  C   UNL     1     -12.650  13.970  65.315  1.00  0.00    -0.470 C  
HETATM   10  C   UNL     1     -11.796  13.137  64.378  1.00  0.00    -0.388 C  
ENDROOT
BRANCH   5  11
HETATM   11  O   UNL     1     -11.784  10.597  68.071  1.00  0.00    -0.495 OA 
BRANCH  11  12
HETATM   12  C   UNL     1     -11.062  10.618  69.208  1.00  0.00    -0.252 C  
HETATM   13  C   UNL     1      -9.939   8.455  68.249  1.00  0.00    -0.214 A  
HETATM   14  C   UNL     1      -9.889   9.635  69.226  1.00  0.00    -0.195 C  
HETATM   15  C   UNL     1      -8.598  10.469  69.200  1.00  0.00    -0.150 C  
HETATM   16  C   UNL     1     -10.760   7.350  68.546  1.00  0.00    -0.138 A  
HETATM   17  O   UNL     1      -7.475   9.721  69.669  1.00  0.00    -0.085 OA 
HETATM   18  O   UNL     1     -11.298  11.382  70.144  1.00  0.00    -0.248 OA 
HETATM   19  C   UNL     1     -10.789   6.214  67.724  1.00  0.00    -0.413 A  
HETATM   20  H   UNL     1      -6.677  10.236  69.653  1.00  0.00     0.000 HD 
HETATM   21  C   UNL     1      -9.993   6.156  66.585  1.00  0.00    -0.207 A  
HETATM   22  C   UNL     1      -9.164   7.230  66.277  1.00  0.00    -0.175 A  
HETATM   23  C   UNL     1      -9.133   8.365  67.100  1.00  0.00    -0.162 A  
ENDBRANCH  11  12
ENDBRANCH   5  11
TORSDOF 2
ENDMDL
MODEL       34
REMARK 921   NORMALIZED FREE ENERGY PREDICTED BY IDOCK:   -5.95 KCAL/MOL
REMARK 922        TOTAL FREE ENERGY PREDICTED BY IDOCK:   -7.15 KCAL/MOL
REMARK 923 INTER-LIGAND FREE ENERGY PREDICTED BY IDOCK:   -6.38 KCAL/MOL
REMARK 924 INTRA-LIGAND FREE ENERGY PREDICTED BY IDOCK:   -0.78 KCAL/MOL
REMARK 927      BINDING AFFINITY PREDICTED BY RF-SCORE:    0.00 PKD
ROOT
HETATM    1  C   UNL     1      -9.627  15.729  66.150  1.00  0.00    -0.332 C  
HETATM    2  N   UNL     1     -10.616  14.782  65.704  1.00  0.00    -0.318 NA 
HETATM    3  C   UNL     1     -11.861  14.661  66.475  1.00  0.00    -0.304 C  
HETATM    4  C   UNL     1     -11.614  14.046  67.869  1.00  0.00    -0.377 C  
HETATM    5  C   UNL     1     -10.985  12.645  67.793  1.00  0.00    -0.234 C  
HETATM    6  C   UNL     1      -9.860  12.598  66.736  1.00  0.00    -0.236 C  
HETATM    7  O   UNL     1     -12.524  12.355  65.520  1.00  0.00    -0.643 OA 
HETATM    8  C   UNL     1     -10.195  13.398  65.445  1.00  0.00    -0.298 C  
HETATM    9  C   UNL     1     -12.588  13.779  65.468  1.00  0.00    -0.512 C  
HETATM   10  C   UNL     1     -11.497  12.988  64.771  1.00  0.00    -0.327 C  
ENDROOT
BRANCH   5  11
HETATM   11  O   UNL     1     -10.681  12.012  69.069  1.00  0.00    -0.206 OA 
BRANCH  11  12
HETATM   12  C   UNL     1     -11.565  11.232  69.720  1.00  0.00    -0.333 C  
HETATM   13  C   UNL     1     -10.189   9.247  68.709  1.00  0.00    -0.223 A  
HETATM   14  C   UNL     1     -11.186   9.750  69.758  1.00  0.00    -0.242 C  
HETATM   15  C   UNL     1     -10.848   9.406  71.219  1.00  0.00    -0.361 C  
HETATM   16  C   UNL     1     -10.636   9.011  67.394  1.00  0.00    -0.309 A  
HETATM   17  O   UNL     1     -10.930   8.001  71.464  1.00  0.00    -0.227 OA 
HETATM   18  O   UNL     1     -12.577  11.669  70.268  1.00  0.00    -0.187 OA 
HETATM   19  C   UNL     1      -9.783   8.483  66.413  1.00  0.00    -0.328 A  
HETATM   20  H   UNL     1     -10.722   7.788  72.366  1.00  0.00     0.000 HD 
HETATM   21  C   UNL     1      -8.464   8.174  66.726  1.00  0.00    -0.123 A  
HETATM   22  C   UNL     1      -8.003   8.386  68.022  1.00  0.00    -0.119 A  
HETATM   23  C   UNL     1      -8.855   8.912  69.004  1.00  0.00    -0.136 A  
ENDBRANCH  11  12
ENDBRANCH   5  11
TORSDOF 2
ENDMDL
MODEL       35
REMARK 921   NORMALIZED FREE ENERGY PREDICTED BY IDOCK:   -5.89 KCAL/MOL
REMARK 922        TOTAL FREE ENERGY PREDICTED BY IDOCK:   -7.09 KCAL/MOL
REMARK 923 INTER-LIGAND FREE ENERGY PREDICTED BY IDOCK:   -6.42 KCAL/MOL
REMARK 924 INTRA-LIGAND FREE ENERGY PREDICTED BY IDOCK:   -0.66 KCAL/MOL
REMARK 927      BINDING AFFINITY PREDICTED BY RF-SCORE:    0.00 PKD
ROOT
HETATM    1  C   UNL     1     -11.658  15.172  64.543  1.00  0.00    -0.329 C  
HETATM    2  N   UNL     1     -11.375  13.923  65.203  1.00  0.00    -0.308 NA 
HETATM    3  C   UNL     1     -12.095  13.615  66.446  1.00  0.00    -0.433 C  
HETATM    4  C   UNL     1     -11.674  14.549  67.601  1.00  0.00    -0.410 C  
HETATM    5  C   UNL     1     -10.170  14.464  67.910  1.00  0.00    -0.232 C  
HETATM    6  C   UNL     1      -9.336  14.444  66.611  1.00  0.00    -0.297 C  
HETATM    7  O   UNL     1     -10.444  11.798  67.249  1.00  0.00    -0.205 OA 
HETATM    8  C   UNL     1      -9.973  13.582  65.484  1.00  0.00    -0.219 C  
HETATM    9  C   UNL     1     -11.629  12.167  66.546  1.00  0.00    -0.359 C  
HETATM   10  C   UNL     1     -10.265  12.142  65.883  1.00  0.00    -0.244 C  
ENDROOT
BRANCH   5  11
HETATM   11  O   UNL     1      -9.685  15.348  68.961  1.00  0.00    -0.211 OA 
BRANCH  11  12
HETATM   12  C   UNL     1     -10.323  16.483  69.306  1.00  0.00    -0.318 C  
HETATM   13  C   UNL     1      -8.382  17.679  68.019  1.00  0.00    -0.246 A  
HETATM   14  C   UNL     1      -9.795  17.738  68.606  1.00  0.00    -0.359 C  
HETATM   15  C   UNL     1     -10.897  18.220  67.648  1.00  0.00    -0.244 C  
HETATM   16  C   UNL     1      -7.274  17.796  68.881  1.00  0.00    -0.256 A  
HETATM   17  O   UNL     1     -10.727  19.594  67.295  1.00  0.00    -0.474 OA 
HETATM   18  O   UNL     1     -11.272  16.514  70.090  1.00  0.00    -0.323 OA 
HETATM   19  C   UNL     1      -5.960  17.821  68.388  1.00  0.00    -0.172 A  
HETATM   20  H   UNL     1     -11.407  19.893  66.703  1.00  0.00     0.000 HD 
HETATM   21  C   UNL     1      -5.724  17.733  67.021  1.00  0.00    -0.169 A  
HETATM   22  C   UNL     1      -6.803  17.630  66.148  1.00  0.00    -0.328 A  
HETATM   23  C   UNL     1      -8.117  17.607  66.639  1.00  0.00    -0.286 A  
ENDBRANCH  11  12
ENDBRANCH   5  11
TORSDOF 2
ENDMDL
MODEL       36
REMARK 921   NORMALIZED FREE ENERGY PREDICTED BY IDOCK:   -5.86 KCAL/MOL
REMARK 922        TOTAL FREE ENERGY PREDICTED BY IDOCK:   -7.05 KCAL/MOL
REMARK 923 INTER-LIGAND FREE ENERGY PREDICTED BY IDOCK:   -6.56 KCAL/MOL
REMARK 924 INTRA-LIGAND FREE ENERGY PREDICTED BY IDOCK:   -0.49 KCAL/MOL
REMARK 927      BINDING AFFINITY PREDICTED BY RF-SCORE:    0.00 PKD
ROOT
HETATM    1  C   UNL     1      -9.704  15.186  65.879  1.00  0.00    -0.350 C  
HETATM    2  N   UNL     1     -10.886  14.538  65.369  1.00  0.00    -0.332 NA 
HETATM    3  C   UNL     1     -11.948  14.182  66.319  1.00  0.00    -0.429 C  
HETATM    4  C   UNL     1     -11.504  13.056  67.280  1.00  0.00    -0.380 C  
HETATM    5  C   UNL     1     -11.103  11.771  66.537  1.00  0.00    -0.310 C  
HETATM    6  C   UNL     1     -10.240  12.091  65.298  1.00  0.00    -0.304 C  
HETATM    7  O   UNL     1     -13.106  12.470  64.770  1.00  0.00    -0.853 OA 
HETATM    8  C   UNL     1     -10.722  13.350  64.520  1.00  0.00    -0.419 C  
HETATM    9  C   UNL     1     -12.982  13.801  65.267  1.00  0.00    -0.278 C  
HETATM   10  C   UNL     1     -12.179  13.298  64.082  1.00  0.00    -0.401 C  
ENDROOT
BRANCH   5  11
HETATM   11  O   UNL     1     -10.632  10.674  67.371  1.00  0.00    -0.222 OA 
BRANCH  11  12
HETATM   12  C   UNL     1      -9.481  10.737  68.068  1.00  0.00    -0.160 C  
HETATM   13  C   UNL     1     -11.014  10.404  70.164  1.00  0.00    -0.365 A  
HETATM   14  C   UNL     1      -9.616  10.344  69.541  1.00  0.00    -0.182 C  
HETATM   15  C   UNL     1      -8.858   9.019  69.729  1.00  0.00    -0.153 C  
HETATM   16  C   UNL     1     -11.548  11.654  70.536  1.00  0.00    -0.028 A  
HETATM   17  O   UNL     1      -8.520   8.792  71.098  1.00  0.00    -0.155 OA 
HETATM   18  O   UNL     1      -8.402  11.050  67.564  1.00  0.00    -0.116 OA 
HETATM   19  C   UNL     1     -12.792  11.760  71.175  1.00  0.00    -0.365 A  
HETATM   20  H   UNL     1      -8.052   7.974  71.214  1.00  0.00     0.000 HD 
HETATM   21  C   UNL     1     -13.530  10.617  71.462  1.00  0.00    -0.222 A  
HETATM   22  C   UNL     1     -13.018   9.371  71.116  1.00  0.00    -0.307 A  
HETATM   23  C   UNL     1     -11.773   9.263  70.479  1.00  0.00    -0.225 A  
ENDBRANCH  11  12
ENDBRANCH   5  11
TORSDOF 2
ENDMDL
MODEL       37
REMARK 921   NORMALIZED FREE ENERGY PREDICTED BY IDOCK:   -5.85 KCAL/MOL
REMARK 922        TOTAL FREE ENERGY PREDICTED BY IDOCK:   -7.04 KCAL/MOL
REMARK 923 INTER-LIGAND FREE ENERGY PREDICTED BY IDOCK:   -6.69 KCAL/MOL
REMARK 924 INTRA-LIGAND FREE ENERGY PREDICTED BY IDOCK:   -0.35 KCAL/MOL
REMARK 927      BINDING AFFINITY PREDICTED BY RF-SCORE:    0.00 PKD
ROOT
HETATM    1  C   UNL     1      -9.099  14.498  67.581  1.00  0.00    -0.195 C  
HETATM    2  N   UNL     1     -10.236  14.005  66.846  1.00  0.00    -0.257 NA 
HETATM    3  C   UNL     1     -11.477  13.735  67.585  1.00  0.00    -0.323 C  
HETATM    4  C   UNL     1     -11.324  12.532  68.542  1.00  0.00    -0.337 C  
HETATM    5  C   UNL     1     -10.937  11.238  67.807  1.00  0.00    -0.252 C  
HETATM    6  C   UNL     1      -9.845  11.506  66.749  1.00  0.00    -0.227 C  
HETATM    7  O   UNL     1     -12.523  12.221  65.772  1.00  0.00    -0.564 OA 
HETATM    8  C   UNL     1     -10.053  12.838  65.973  1.00  0.00    -0.268 C  
HETATM    9  C   UNL     1     -12.349  13.511  66.356  1.00  0.00    -0.357 C  
HETATM   10  C   UNL     1     -11.411  12.965  65.296  1.00  0.00    -0.313 C  
ENDROOT
BRANCH   5  11
HETATM   11  O   UNL     1     -10.732  10.066  68.646  1.00  0.00    -0.209 OA 
BRANCH  11  12
HETATM   12  C   UNL     1      -9.742   9.990  69.556  1.00  0.00    -0.233 C  
HETATM   13  C   UNL     1     -11.555   8.871  71.079  1.00  0.00    -0.347 A  
HETATM   14  C   UNL     1     -10.075   9.130  70.777  1.00  0.00    -0.333 C  
HETATM   15  C   UNL     1      -9.179   7.881  70.711  1.00  0.00    -0.157 C  
HETATM   16  C   UNL     1     -12.319   9.885  71.689  1.00  0.00    -0.496 A  
HETATM   17  O   UNL     1      -9.058   7.249  71.986  1.00  0.00    -0.130 OA 
HETATM   18  O   UNL     1      -8.648  10.536  69.412  1.00  0.00    -0.154 OA 
HETATM   19  C   UNL     1     -13.658   9.676  72.052  1.00  0.00    -0.467 A  
HETATM   20  H   UNL     1      -8.505   6.477  71.945  1.00  0.00     0.000 HD 
HETATM   21  C   UNL     1     -14.264   8.447  71.816  1.00  0.00    -0.536 A  
HETATM   22  C   UNL     1     -13.525   7.426  71.225  1.00  0.00    -0.339 A  
HETATM   23  C   UNL     1     -12.186   7.633  70.864  1.00  0.00    -0.194 A  
ENDBRANCH  11  12
ENDBRANCH   5  11
TORSDOF 2
ENDMDL
MODEL       38
REMARK 921   NORMALIZED FREE ENERGY PREDICTED BY IDOCK:   -5.85 KCAL/MOL
REMARK 922        TOTAL FREE ENERGY PREDICTED BY IDOCK:   -7.04 KCAL/MOL
REMARK 923 INTER-LIGAND FREE ENERGY PREDICTED BY IDOCK:   -6.28 KCAL/MOL
REMARK 924 INTRA-LIGAND FREE ENERGY PREDICTED BY IDOCK:   -0.76 KCAL/MOL
REMARK 927      BINDING AFFINITY PREDICTED BY RF-SCORE:    0.00 PKD
ROOT
HETATM    1  C   UNL     1     -12.032   6.744  70.651  1.00  0.00    -0.362 C  
HETATM    2  N   UNL     1     -10.814   7.507  70.741  1.00  0.00    -0.237 NA 
HETATM    3  C   UNL     1     -10.848   8.787  71.461  1.00  0.00    -0.304 C  
HETATM    4  C   UNL     1     -11.689   9.845  70.713  1.00  0.00    -0.424 C  
HETATM    5  C   UNL     1     -11.157  10.129  69.298  1.00  0.00    -0.225 C  
HETATM    6  C   UNL     1     -10.771   8.819  68.576  1.00  0.00    -0.108 C  
HETATM    7  O   UNL     1      -8.671   9.715  70.426  1.00  0.00    -0.221 OA 
HETATM    8  C   UNL     1     -10.069   7.788  69.505  1.00  0.00    -0.194 C  
HETATM    9  C   UNL     1      -9.340   9.008  71.468  1.00  0.00    -0.224 C  
HETATM   10  C   UNL     1      -8.832   8.320  70.214  1.00  0.00    -0.141 C  
ENDROOT
BRANCH   5  11
HETATM   11  O   UNL     1     -11.921  11.085  68.510  1.00  0.00    -0.535 OA 
BRANCH  11  12
HETATM   12  C   UNL     1     -11.709  12.414  68.577  1.00  0.00    -0.326 C  
HETATM   13  C   UNL     1     -10.412  12.075  66.327  1.00  0.00    -0.273 A  
HETATM   14  C   UNL     1     -11.123  13.021  67.301  1.00  0.00    -0.303 C  
HETATM   15  C   UNL     1     -12.210  13.919  66.685  1.00  0.00    -0.424 C  
HETATM   16  C   UNL     1      -9.104  11.642  66.622  1.00  0.00    -0.196 A  
HETATM   17  O   UNL     1     -11.656  14.876  65.780  1.00  0.00    -0.325 OA 
HETATM   18  O   UNL     1     -11.990  13.094  69.564  1.00  0.00    -0.306 OA 
HETATM   19  C   UNL     1      -8.381  10.834  65.732  1.00  0.00    -0.158 A  
HETATM   20  H   UNL     1     -12.326  15.430  65.400  1.00  0.00     0.000 HD 
HETATM   21  C   UNL     1      -8.949  10.442  64.524  1.00  0.00    -0.241 A  
HETATM   22  C   UNL     1     -10.235  10.867  64.206  1.00  0.00    -0.430 A  
HETATM   23  C   UNL     1     -10.958  11.677  65.094  1.00  0.00    -0.326 A  
ENDBRANCH  11  12
ENDBRANCH   5  11
TORSDOF 2
ENDMDL
MODEL       39
REMARK 921   NORMALIZED FREE ENERGY PREDICTED BY IDOCK:   -5.83 KCAL/MOL
REMARK 922        TOTAL FREE ENERGY PREDICTED BY IDOCK:   -7.02 KCAL/MOL
REMARK 923 INTER-LIGAND FREE ENERGY PREDICTED BY IDOCK:   -6.21 KCAL/MOL
REMARK 924 INTRA-LIGAND FREE ENERGY PREDICTED BY IDOCK:   -0.81 KCAL/MOL
REMARK 927      BINDING AFFINITY PREDICTED BY RF-SCORE:    0.00 PKD
ROOT
HETATM    1  C   UNL     1     -11.017  10.350  70.171  1.00  0.00    -0.300 C  
HETATM    2  N   UNL     1      -9.874   9.644  69.650  1.00  0.00    -0.201 NA 
HETATM    3  C   UNL     1      -8.633  10.398  69.427  1.00  0.00    -0.130 C  
HETATM    4  C   UNL     1      -8.779  11.414  68.273  1.00  0.00    -0.160 C  
HETATM    5  C   UNL     1      -9.154  10.744  66.941  1.00  0.00    -0.149 C  
HETATM    6  C   UNL     1     -10.246   9.672  67.146  1.00  0.00    -0.305 C  
HETATM    7  O   UNL     1      -7.571   8.666  67.832  1.00  0.00    -0.095 OA 
HETATM    8  C   UNL     1     -10.046   8.830  68.439  1.00  0.00    -0.190 C  
HETATM    9  C   UNL     1      -7.756   9.184  69.148  1.00  0.00    -0.081 C  
HETATM   10  C   UNL     1      -8.687   8.150  68.543  1.00  0.00    -0.134 C  
ENDROOT
BRANCH   5  11
HETATM   11  O   UNL     1      -9.353  11.641  65.811  1.00  0.00    -0.229 OA 
BRANCH  11  12
HETATM   12  C   UNL     1     -10.429  11.565  65.005  1.00  0.00    -0.290 C  
HETATM   13  C   UNL     1     -11.355  13.536  66.460  1.00  0.00    -0.340 A  
HETATM   14  C   UNL     1     -11.413  12.728  65.160  1.00  0.00    -0.356 C  
HETATM   15  C   UNL     1     -11.353  13.548  63.860  1.00  0.00    -0.191 C  
HETATM   16  C   UNL     1     -11.933  13.002  67.628  1.00  0.00    -0.353 A  
HETATM   17  O   UNL     1     -12.518  14.357  63.692  1.00  0.00    -1.066 OA 
HETATM   18  O   UNL     1     -10.600  10.660  64.188  1.00  0.00    -0.283 OA 
HETATM   19  C   UNL     1     -11.972  13.730  68.826  1.00  0.00    -0.400 A  
HETATM   20  H   UNL     1     -12.482  14.864  62.889  1.00  0.00     0.000 HD 
HETATM   21  C   UNL     1     -11.436  15.011  68.884  1.00  0.00    -0.333 A  
HETATM   22  C   UNL     1     -10.870  15.565  67.740  1.00  0.00    -0.309 A  
HETATM   23  C   UNL     1     -10.833  14.840  66.540  1.00  0.00    -0.319 A  
ENDBRANCH  11  12
ENDBRANCH   5  11
TORSDOF 2
ENDMDL
MODEL       40
REMARK 921   NORMALIZED FREE ENERGY PREDICTED BY IDOCK:   -5.81 KCAL/MOL
REMARK 922        TOTAL FREE ENERGY PREDICTED BY IDOCK:   -7.00 KCAL/MOL
REMARK 923 INTER-LIGAND FREE ENERGY PREDICTED BY IDOCK:   -6.26 KCAL/MOL
REMARK 924 INTRA-LIGAND FREE ENERGY PREDICTED BY IDOCK:   -0.74 KCAL/MOL
REMARK 927      BINDING AFFINITY PREDICTED BY RF-SCORE:    0.00 PKD
ROOT
HETATM    1  C   UNL     1     -10.033  10.549  65.718  1.00  0.00    -0.258 C  
HETATM    2  N   UNL     1     -10.961  11.368  64.981  1.00  0.00    -0.245 NA 
HETATM    3  C   UNL     1     -10.418  12.373  64.057  1.00  0.00    -0.416 C  
HETATM    4  C   UNL     1      -9.701  13.516  64.809  1.00  0.00     0.185 C  
HETATM    5  C   UNL     1     -10.628  14.249  65.792  1.00  0.00    -0.309 C  
HETATM    6  C   UNL     1     -11.499  13.251  66.586  1.00  0.00    -0.384 C  
HETATM    7  O   UNL     1     -12.586  13.769  63.905  1.00  0.00    -0.701 OA 
HETATM    8  C   UNL     1     -12.020  12.067  65.722  1.00  0.00    -0.063 C  
HETATM    9  C   UNL     1     -11.750  12.728  63.406  1.00  0.00    -0.488 C  
HETATM   10  C   UNL     1     -12.794  12.488  64.480  1.00  0.00    -0.262 C  
ENDROOT
BRANCH   5  11
HETATM   11  O   UNL     1     -10.015  15.315  66.573  1.00  0.00    -0.246 OA 
BRANCH  11  12
HETATM   12  C   UNL     1     -10.417  16.597  66.491  1.00  0.00    -0.262 C  
HETATM   13  C   UNL     1     -11.140  16.275  68.988  1.00  0.00    -0.331 A  
HETATM   14  C   UNL     1     -10.793  17.224  67.836  1.00  0.00    -0.283 C  
HETATM   15  C   UNL     1      -9.734  18.294  68.149  1.00  0.00    -0.327 C  
HETATM   16  C   UNL     1     -12.408  15.662  69.015  1.00  0.00     0.044 A  
HETATM   17  O   UNL     1     -10.207  19.242  69.108  1.00  0.00    -0.573 OA 
HETATM   18  O   UNL     1     -10.452  17.229  65.435  1.00  0.00    -0.635 OA 
HETATM   19  C   UNL     1     -12.804  14.841  70.081  1.00  0.00    -0.191 A  
HETATM   20  H   UNL     1      -9.554  19.903  69.302  1.00  0.00     0.000 HD 
HETATM   21  C   UNL     1     -11.942  14.617  71.149  1.00  0.00    -0.405 A  
HETATM   22  C   UNL     1     -10.689  15.222  71.151  1.00  0.00     0.008 A  
HETATM   23  C   UNL     1     -10.293  16.045  70.086  1.00  0.00    -0.119 A  
ENDBRANCH  11  12
ENDBRANCH   5  11
TORSDOF 2
ENDMDL
MODEL       41
REMARK 921   NORMALIZED FREE ENERGY PREDICTED BY IDOCK:   -5.80 KCAL/MOL
REMARK 922        TOTAL FREE ENERGY PREDICTED BY IDOCK:   -6.98 KCAL/MOL
REMARK 923 INTER-LIGAND FREE ENERGY PREDICTED BY IDOCK:   -6.45 KCAL/MOL
REMARK 924 INTRA-LIGAND FREE ENERGY PREDICTED BY IDOCK:   -0.53 KCAL/MOL
REMARK 927      BINDING AFFINITY PREDICTED BY RF-SCORE:    0.00 PKD
ROOT
HETATM    1  C   UNL     1      -8.984  11.032  65.737  1.00  0.00    -0.195 C  
HETATM    2  N   UNL     1      -9.790  11.728  66.708  1.00  0.00    -0.196 NA 
HETATM    3  C   UNL     1      -9.150  12.172  67.954  1.00  0.00    -0.185 C  
HETATM    4  C   UNL     1      -8.747  10.980  68.849  1.00  0.00    -0.122 C  
HETATM    5  C   UNL     1      -9.948  10.103  69.239  1.00  0.00    -0.219 C  
HETATM    6  C   UNL     1     -10.876   9.860  68.029  1.00  0.00    -0.294 C  
HETATM    7  O   UNL     1     -11.350  12.481  69.270  1.00  0.00    -0.257 OA 
HETATM    8  C   UNL     1     -11.058  11.118  67.131  1.00  0.00    -0.287 C  
HETATM    9  C   UNL     1     -10.320  13.017  68.443  1.00  0.00    -0.252 C  
HETATM   10  C   UNL     1     -11.558  12.351  67.872  1.00  0.00    -0.356 C  
ENDROOT
BRANCH   5  11
HETATM   11  O   UNL     1      -9.645   8.931  70.049  1.00  0.00    -0.166 OA 
BRANCH  11  12
HETATM   12  C   UNL     1      -9.160   9.022  71.302  1.00  0.00    -0.232 C  
HETATM   13  C   UNL     1     -11.613   8.469  72.033  1.00  0.00    -0.432 A  
HETATM   14  C   UNL     1     -10.124   8.534  72.386  1.00  0.00    -0.365 C  
HETATM   15  C   UNL     1      -9.522   7.249  72.982  1.00  0.00    -0.168 C  
HETATM   16  C   UNL     1     -12.368   9.659  72.017  1.00  0.00    -0.376 A  
HETATM   17  O   UNL     1     -10.063   6.961  74.272  1.00  0.00    -0.375 OA 
HETATM   18  O   UNL     1      -8.028   9.432  71.561  1.00  0.00    -0.298 OA 
HETATM   19  C   UNL     1     -13.749   9.648  71.771  1.00  0.00    -0.349 A  
HETATM   20  H   UNL     1      -9.693   6.168  74.641  1.00  0.00     0.000 HD 
HETATM   21  C   UNL     1     -14.408   8.447  71.538  1.00  0.00    -0.499 A  
HETATM   22  C   UNL     1     -13.687   7.257  71.562  1.00  0.00    -0.451 A  
HETATM   23  C   UNL     1     -12.306   7.266  71.810  1.00  0.00    -0.375 A  
ENDBRANCH  11  12
ENDBRANCH   5  11
TORSDOF 2
ENDMDL
MODEL       42
REMARK 921   NORMALIZED FREE ENERGY PREDICTED BY IDOCK:   -5.78 KCAL/MOL
REMARK 922        TOTAL FREE ENERGY PREDICTED BY IDOCK:   -6.96 KCAL/MOL
REMARK 923 INTER-LIGAND FREE ENERGY PREDICTED BY IDOCK:   -6.38 KCAL/MOL
REMARK 924 INTRA-LIGAND FREE ENERGY PREDICTED BY IDOCK:   -0.58 KCAL/MOL
REMARK 927      BINDING AFFINITY PREDICTED BY RF-SCORE:    0.00 PKD
ROOT
HETATM    1  C   UNL     1     -10.271   9.306  66.490  1.00  0.00    -0.246 C  
HETATM    2  N   UNL     1      -9.029   9.923  66.880  1.00  0.00    -0.138 NA 
HETATM    3  C   UNL     1      -8.893  10.400  68.263  1.00  0.00    -0.135 C  
HETATM    4  C   UNL     1      -9.811  11.609  68.546  1.00  0.00    -0.196 C  
HETATM    5  C   UNL     1      -9.519  12.801  67.619  1.00  0.00    -0.190 C  
HETATM    6  C   UNL     1      -9.310  12.335  66.162  1.00  0.00    -0.177 C  
HETATM    7  O   UNL     1      -6.894  11.966  67.793  1.00  0.00    -0.079 OA 
HETATM    8  C   UNL     1      -8.497  11.013  66.050  1.00  0.00    -0.158 C  
HETATM    9  C   UNL     1      -7.399  10.692  68.186  1.00  0.00    -0.088 C  
HETATM   10  C   UNL     1      -7.138  11.051  66.736  1.00  0.00    -0.135 C  
ENDROOT
BRANCH   5  11
HETATM   11  O   UNL     1     -10.372  13.968  67.795  1.00  0.00    -0.232 OA 
BRANCH  11  12
HETATM   12  C   UNL     1     -11.406  14.240  66.975  1.00  0.00    -0.341 C  
HETATM   13  C   UNL     1     -10.359  16.637  66.846  1.00  0.00    -0.299 A  
HETATM   14  C   UNL     1     -11.295  15.581  66.247  1.00  0.00    -0.004 C  
HETATM   15  C   UNL     1     -11.085  15.272  64.755  1.00  0.00    -0.394 C  
HETATM   16  C   UNL     1     -10.785  17.376  67.967  1.00  0.00    -0.359 A  
HETATM   17  O   UNL     1     -11.422  16.388  63.931  1.00  0.00    -1.569 OA 
HETATM   18  O   UNL     1     -12.348  13.467  66.796  1.00  0.00    -0.365 OA 
HETATM   19  C   UNL     1      -9.998  18.402  68.511  1.00  0.00    -0.415 A  
HETATM   20  H   UNL     1     -11.293  16.198  63.010  1.00  0.00     0.000 HD 
HETATM   21  C   UNL     1      -8.768  18.716  67.943  1.00  0.00    -0.309 A  
HETATM   22  C   UNL     1      -8.332  18.008  66.827  1.00  0.00    -0.271 A  
HETATM   23  C   UNL     1      -9.119  16.983  66.282  1.00  0.00    -0.279 A  
ENDBRANCH  11  12
ENDBRANCH   5  11
TORSDOF 2
ENDMDL
MODEL       43
REMARK 921   NORMALIZED FREE ENERGY PREDICTED BY IDOCK:   -5.73 KCAL/MOL
REMARK 922        TOTAL FREE ENERGY PREDICTED BY IDOCK:   -6.91 KCAL/MOL
REMARK 923 INTER-LIGAND FREE ENERGY PREDICTED BY IDOCK:   -6.38 KCAL/MOL
REMARK 924 INTRA-LIGAND FREE ENERGY PREDICTED BY IDOCK:   -0.53 KCAL/MOL
REMARK 927      BINDING AFFINITY PREDICTED BY RF-SCORE:    0.00 PKD
ROOT
HETATM    1  C   UNL     1     -13.270  13.816  65.501  1.00  0.00     0.047 C  
HETATM    2  N   UNL     1     -12.168  12.935  65.213  1.00  0.00    -0.452 NA 
HETATM    3  C   UNL     1     -11.522  12.240  66.335  1.00  0.00    -0.378 C  
HETATM    4  C   UNL     1     -10.758  13.219  67.254  1.00  0.00    -0.262 C  
HETATM    5  C   UNL     1      -9.663  13.998  66.505  1.00  0.00    -0.295 C  
HETATM    6  C   UNL     1     -10.170  14.488  65.132  1.00  0.00    -0.420 C  
HETATM    7  O   UNL     1      -9.351  11.667  65.059  1.00  0.00    -0.163 OA 
HETATM    8  C   UNL     1     -11.058  13.445  64.395  1.00  0.00    -0.388 C  
HETATM    9  C   UNL     1     -10.667  11.314  65.479  1.00  0.00    -0.220 C  
HETATM   10  C   UNL     1     -10.401  12.085  64.200  1.00  0.00    -0.347 C  
ENDROOT
BRANCH   5  11
HETATM   11  O   UNL     1      -8.924  14.974  67.294  1.00  0.00    -0.181 OA 
BRANCH  11  12
HETATM   12  C   UNL     1      -8.912  14.958  68.640  1.00  0.00    -0.184 C  
HETATM   13  C   UNL     1      -9.557  17.488  68.435  1.00  0.00    -0.303 A  
HETATM   14  C   UNL     1      -9.491  16.218  69.289  1.00  0.00    -0.202 C  
HETATM   15  C   UNL     1     -10.803  15.810  69.980  1.00  0.00    -0.342 C  
HETATM   16  C   UNL     1      -8.382  18.238  68.226  1.00  0.00    -0.316 A  
HETATM   17  O   UNL     1     -11.188  16.753  70.981  1.00  0.00    -0.393 OA 
HETATM   18  O   UNL     1      -8.501  14.004  69.301  1.00  0.00     0.174 OA 
HETATM   19  C   UNL     1      -8.400  19.445  67.513  1.00  0.00    -0.326 A  
HETATM   20  H   UNL     1     -11.998  16.501  71.409  1.00  0.00     0.000 HD 
HETATM   21  C   UNL     1      -9.594  19.934  66.994  1.00  0.00    -0.515 A  
HETATM   22  C   UNL     1     -10.769  19.218  67.198  1.00  0.00    -0.584 A  
HETATM   23  C   UNL     1     -10.753  18.011  67.913  1.00  0.00    -0.329 A  
ENDBRANCH  11  12
ENDBRANCH   5  11
TORSDOF 2
ENDMDL
MODEL       44
REMARK 921   NORMALIZED FREE ENERGY PREDICTED BY IDOCK:   -5.73 KCAL/MOL
REMARK 922        TOTAL FREE ENERGY PREDICTED BY IDOCK:   -6.91 KCAL/MOL
REMARK 923 INTER-LIGAND FREE ENERGY PREDICTED BY IDOCK:   -6.14 KCAL/MOL
REMARK 924 INTRA-LIGAND FREE ENERGY PREDICTED BY IDOCK:   -0.76 KCAL/MOL
REMARK 927      BINDING AFFINITY PREDICTED BY RF-SCORE:    0.00 PKD
ROOT
HETATM    1  C   UNL     1     -11.631  15.514  68.462  1.00  0.00    -0.368 C  
HETATM    2  N   UNL     1     -11.592  15.092  67.085  1.00  0.00    -0.311 NA 
HETATM    3  C   UNL     1     -12.028  13.725  66.765  1.00  0.00    -0.426 C  
HETATM    4  C   UNL     1     -11.053  12.666  67.324  1.00  0.00    -0.320 C  
HETATM    5  C   UNL     1      -9.625  12.832  66.778  1.00  0.00    -0.244 C  
HETATM    6  C   UNL     1      -9.203  14.317  66.767  1.00  0.00    -0.282 C  
HETATM    7  O   UNL     1     -10.880  13.632  64.453  1.00  0.00    -0.396 OA 
HETATM    8  C   UNL     1     -10.346  15.278  66.330  1.00  0.00    -0.294 C  
HETATM    9  C   UNL     1     -12.028  13.908  65.252  1.00  0.00    -0.375 C  
HETATM   10  C   UNL     1     -10.961  14.950  64.976  1.00  0.00    -0.420 C  
ENDROOT
BRANCH   5  11
HETATM   11  O   UNL     1      -8.634  11.896  67.291  1.00  0.00    -0.156 OA 
BRANCH  11  12
HETATM   12  C   UNL     1      -8.250  10.800  66.608  1.00  0.00    -0.140 C  
HETATM   13  C   UNL     1      -9.408   9.480  68.551  1.00  0.00    -0.138 A  
HETATM   14  C   UNL     1      -8.863   9.495  67.119  1.00  0.00    -0.141 C  
HETATM   15  C   UNL     1      -9.830   8.992  66.032  1.00  0.00    -0.242 C  
HETATM   16  C   UNL     1      -8.505   9.379  69.628  1.00  0.00    -0.166 A  
HETATM   17  O   UNL     1     -10.103   7.597  66.172  1.00  0.00    -0.456 OA 
HETATM   18  O   UNL     1      -7.496  10.840  65.635  1.00  0.00    -0.125 OA 
HETATM   19  C   UNL     1      -8.953   9.290  70.954  1.00  0.00    -0.273 A  
HETATM   20  H   UNL     1     -10.699   7.286  65.501  1.00  0.00     0.000 HD 
HETATM   21  C   UNL     1     -10.315   9.296  71.235  1.00  0.00    -0.397 A  
HETATM   22  C   UNL     1     -11.226   9.382  70.187  1.00  0.00    -0.253 A  
HETATM   23  C   UNL     1     -10.780   9.469  68.860  1.00  0.00    -0.220 A  
ENDBRANCH  11  12
ENDBRANCH   5  11
TORSDOF 2
ENDMDL
MODEL       45
REMARK 921   NORMALIZED FREE ENERGY PREDICTED BY IDOCK:   -5.69 KCAL/MOL
REMARK 922        TOTAL FREE ENERGY PREDICTED BY IDOCK:   -6.86 KCAL/MOL
REMARK 923 INTER-LIGAND FREE ENERGY PREDICTED BY IDOCK:   -6.83 KCAL/MOL
REMARK 924 INTRA-LIGAND FREE ENERGY PREDICTED BY IDOCK:   -0.02 KCAL/MOL
REMARK 927      BINDING AFFINITY PREDICTED BY RF-SCORE:    0.00 PKD
ROOT
HETATM    1  C   UNL     1      -9.826  15.293  66.445  1.00  0.00    -0.275 C  
HETATM    2  N   UNL     1     -10.894  14.644  65.729  1.00  0.00    -0.311 NA 
HETATM    3  C   UNL     1     -12.007  14.078  66.504  1.00  0.00    -0.444 C  
HETATM    4  C   UNL     1     -11.562  12.859  67.342  1.00  0.00    -0.414 C  
HETATM    5  C   UNL     1     -10.984  11.727  66.476  1.00  0.00    -0.295 C  
HETATM    6  C   UNL     1     -10.038  12.286  65.391  1.00  0.00    -0.292 C  
HETATM    7  O   UNL     1     -12.863  12.532  64.620  1.00  0.00    -0.716 OA 
HETATM    8  C   UNL     1     -10.550  13.606  64.748  1.00  0.00    -0.422 C  
HETATM    9  C   UNL     1     -12.901  13.781  65.306  1.00  0.00    -0.384 C  
HETATM   10  C   UNL     1     -11.950  13.515  64.155  1.00  0.00    -0.448 C  
ENDROOT
BRANCH   5  11
HETATM   11  O   UNL     1     -10.501  10.558  67.197  1.00  0.00    -0.222 OA 
BRANCH  11  12
HETATM   12  C   UNL     1     -10.091   9.438  66.571  1.00  0.00    -0.262 C  
HETATM   13  C   UNL     1      -9.737   8.504  68.991  1.00  0.00    -0.170 A  
HETATM   14  C   UNL     1      -9.914   8.231  67.494  1.00  0.00    -0.252 C  
HETATM   15  C   UNL     1     -11.008   7.214  67.126  1.00  0.00    -0.272 C  
HETATM   16  C   UNL     1      -8.486   8.944  69.466  1.00  0.00    -0.128 A  
HETATM   17  O   UNL     1     -10.679   5.898  67.573  1.00  0.00    -0.251 OA 
HETATM   18  O   UNL     1      -9.904   9.374  65.355  1.00  0.00    -0.270 OA 
HETATM   19  C   UNL     1      -8.249   9.140  70.835  1.00  0.00    -0.220 A  
HETATM   20  H   UNL     1     -11.354   5.269  67.346  1.00  0.00     0.000 HD 
HETATM   21  C   UNL     1      -9.257   8.897  71.761  1.00  0.00    -0.279 A  
HETATM   22  C   UNL     1     -10.497   8.449  71.317  1.00  0.00    -0.273 A  
HETATM   23  C   UNL     1     -10.735   8.251  69.949  1.00  0.00    -0.234 A  
ENDBRANCH  11  12
ENDBRANCH   5  11
TORSDOF 2
ENDMDL
MODEL       46
REMARK 921   NORMALIZED FREE ENERGY PREDICTED BY IDOCK:   -5.68 KCAL/MOL
REMARK 922        TOTAL FREE ENERGY PREDICTED BY IDOCK:   -6.85 KCAL/MOL
REMARK 923 INTER-LIGAND FREE ENERGY PREDICTED BY IDOCK:   -6.23 KCAL/MOL
REMARK 924 INTRA-LIGAND FREE ENERGY PREDICTED BY IDOCK:   -0.62 KCAL/MOL
REMARK 927      BINDING AFFINITY PREDICTED BY RF-SCORE:    0.00 PKD
ROOT
HETATM    1  C   UNL     1      -5.408  18.092  69.054  1.00  0.00    -0.192 C  
HETATM    2  N   UNL     1      -5.426  19.155  68.081  1.00  0.00    -0.188 NA 
HETATM    3  C   UNL     1      -6.454  20.197  68.208  1.00  0.00    -0.291 C  
HETATM    4  C   UNL     1      -7.868  19.645  67.924  1.00  0.00    -0.333 C  
HETATM    5  C   UNL     1      -7.995  19.045  66.514  1.00  0.00    -0.282 C  
HETATM    6  C   UNL     1      -6.763  18.183  66.163  1.00  0.00    -0.292 C  
HETATM    7  O   UNL     1      -6.246  21.050  65.779  1.00  0.00    -0.249 OA 
HETATM    8  C   UNL     1      -5.422  18.799  66.655  1.00  0.00    -0.146 C  
HETATM    9  C   UNL     1      -5.869  21.127  67.152  1.00  0.00    -0.303 C  
HETATM   10  C   UNL     1      -5.163  20.217  66.166  1.00  0.00    -0.160 C  
ENDROOT
BRANCH   5  11
HETATM   11  O   UNL     1      -9.289  18.465  66.183  1.00  0.00    -0.465 OA 
BRANCH  11  12
HETATM   12  C   UNL     1     -10.365  18.586  66.984  1.00  0.00    -0.399 C  
HETATM   13  C   UNL     1     -10.299  15.969  67.064  1.00  0.00    -0.292 A  
HETATM   14  C   UNL     1     -10.780  17.287  67.679  1.00  0.00    -0.307 C  
HETATM   15  C   UNL     1     -10.497  17.465  69.181  1.00  0.00    -0.231 C  
HETATM   16  C   UNL     1     -10.950  15.467  65.920  1.00  0.00    -0.293 A  
HETATM   17  O   UNL     1     -11.246  16.542  69.973  1.00  0.00    -0.412 OA 
HETATM   18  O   UNL     1     -10.950  19.653  67.174  1.00  0.00    -0.467 OA 
HETATM   19  C   UNL     1     -10.597  14.231  65.358  1.00  0.00    -0.367 A  
HETATM   20  H   UNL     1     -11.071  16.652  70.900  1.00  0.00     0.000 HD 
HETATM   21  C   UNL     1      -9.586  13.466  65.930  1.00  0.00    -0.127 A  
HETATM   22  C   UNL     1      -8.937  13.935  67.068  1.00  0.00    -0.251 A  
HETATM   23  C   UNL     1      -9.291  15.170  67.632  1.00  0.00    -0.189 A  
ENDBRANCH  11  12
ENDBRANCH   5  11
TORSDOF 2
ENDMDL
MODEL       47
REMARK 921   NORMALIZED FREE ENERGY PREDICTED BY IDOCK:   -5.67 KCAL/MOL
REMARK 922        TOTAL FREE ENERGY PREDICTED BY IDOCK:   -6.84 KCAL/MOL
REMARK 923 INTER-LIGAND FREE ENERGY PREDICTED BY IDOCK:   -6.15 KCAL/MOL
REMARK 924 INTRA-LIGAND FREE ENERGY PREDICTED BY IDOCK:   -0.68 KCAL/MOL
REMARK 927      BINDING AFFINITY PREDICTED BY RF-SCORE:    0.00 PKD
ROOT
HETATM    1  C   UNL     1     -10.415   7.507  67.400  1.00  0.00    -0.297 C  
HETATM    2  N   UNL     1      -9.568   8.310  68.245  1.00  0.00    -0.145 NA 
HETATM    3  C   UNL     1     -10.162   9.467  68.927  1.00  0.00    -0.199 C  
HETATM    4  C   UNL     1     -10.558  10.579  67.931  1.00  0.00    -0.271 C  
HETATM    5  C   UNL     1      -9.361  11.094  67.114  1.00  0.00    -0.165 C  
HETATM    6  C   UNL     1      -8.475   9.925  66.630  1.00  0.00    -0.126 C  
HETATM    7  O   UNL     1      -7.918  10.644  69.424  1.00  0.00    -0.154 OA 
HETATM    8  C   UNL     1      -8.298   8.805  67.695  1.00  0.00    -0.114 C  
HETATM    9  C   UNL     1      -8.963   9.759  69.821  1.00  0.00    -0.221 C  
HETATM   10  C   UNL     1      -7.755   9.289  69.033  1.00  0.00    -0.075 C  
ENDROOT
BRANCH   5  11
HETATM   11  O   UNL     1      -9.659  12.116  66.121  1.00  0.00    -0.236 OA 
BRANCH  11  12
HETATM   12  C   UNL     1     -10.782  12.098  65.377  1.00  0.00    -0.284 C  
HETATM   13  C   UNL     1     -11.412  14.261  66.712  1.00  0.00    -0.380 A  
HETATM   14  C   UNL     1     -11.628  13.368  65.486  1.00  0.00    -0.346 C  
HETATM   15  C   UNL     1     -11.557  14.078  64.123  1.00  0.00    -0.266 C  
HETATM   16  C   UNL     1     -11.975  13.882  67.946  1.00  0.00    -0.393 A  
HETATM   17  O   UNL     1     -12.638  14.995  63.947  1.00  0.00    -0.958 OA 
HETATM   18  O   UNL     1     -11.093  11.157  64.645  1.00  0.00    -0.231 OA 
HETATM   19  C   UNL     1     -11.869  14.697  69.083  1.00  0.00    -0.347 A  
HETATM   20  H   UNL     1     -12.595  15.433  63.105  1.00  0.00     0.000 HD 
HETATM   21  C   UNL     1     -11.199  15.913  69.011  1.00  0.00    -0.327 A  
HETATM   22  C   UNL     1     -10.644  16.315  67.800  1.00  0.00    -0.314 A  
HETATM   23  C   UNL     1     -10.752  15.502  66.662  1.00  0.00    -0.306 A  
ENDBRANCH  11  12
ENDBRANCH   5  11
TORSDOF 2
ENDMDL
MODEL       48
REMARK 921   NORMALIZED FREE ENERGY PREDICTED BY IDOCK:   -5.63 KCAL/MOL
REMARK 922        TOTAL FREE ENERGY PREDICTED BY IDOCK:   -6.79 KCAL/MOL
REMARK 923 INTER-LIGAND FREE ENERGY PREDICTED BY IDOCK:   -6.02 KCAL/MOL
REMARK 924 INTRA-LIGAND FREE ENERGY PREDICTED BY IDOCK:   -0.77 KCAL/MOL
REMARK 927      BINDING AFFINITY PREDICTED BY RF-SCORE:    0.00 PKD
ROOT
HETATM    1  C   UNL     1      -9.178   8.029  73.320  1.00  0.00    -0.278 C  
HETATM    2  N   UNL     1     -10.442   7.631  72.756  1.00  0.00    -0.280 NA 
HETATM    3  C   UNL     1     -10.455   6.526  71.788  1.00  0.00    -0.211 C  
HETATM    4  C   UNL     1      -9.762   6.915  70.464  1.00  0.00    -0.177 C  
HETATM    5  C   UNL     1     -10.425   8.125  69.785  1.00  0.00    -0.227 C  
HETATM    6  C   UNL     1     -10.759   9.226  70.816  1.00  0.00    -0.350 C  
HETATM    7  O   UNL     1     -12.773   7.086  70.798  1.00  0.00    -0.282 OA 
HETATM    8  C   UNL     1     -11.301   8.664  72.162  1.00  0.00    -0.364 C  
HETATM    9  C   UNL     1     -11.970   6.374  71.737  1.00  0.00    -0.316 C  
HETATM   10  C   UNL     1     -12.518   7.760  72.021  1.00  0.00    -0.286 C  
ENDROOT
BRANCH   5  11
HETATM   11  O   UNL     1      -9.803   8.582  68.550  1.00  0.00    -0.164 OA 
BRANCH  11  12
HETATM   12  C   UNL     1     -10.388   8.433  67.346  1.00  0.00    -0.285 C  
HETATM   13  C   UNL     1     -10.446  11.051  67.321  1.00  0.00    -0.270 A  
HETATM   14  C   UNL     1     -10.518   9.732  66.546  1.00  0.00    -0.212 C  
HETATM   15  C   UNL     1      -9.574   9.615  65.337  1.00  0.00    -0.291 C  
HETATM   16  C   UNL     1     -11.574  11.485  68.046  1.00  0.00    -0.370 A  
HETATM   17  O   UNL     1      -9.933  10.525  64.296  1.00  0.00    -0.321 OA 
HETATM   18  O   UNL     1     -10.760   7.346  66.905  1.00  0.00    -0.346 OA 
HETATM   19  C   UNL     1     -11.587  12.718  68.714  1.00  0.00    -0.353 A  
HETATM   20  H   UNL     1      -9.350  10.454  63.550  1.00  0.00     0.000 HD 
HETATM   21  C   UNL     1     -10.474  13.550  68.669  1.00  0.00    -0.242 A  
HETATM   22  C   UNL     1      -9.353  13.149  67.949  1.00  0.00    -0.215 A  
HETATM   23  C   UNL     1      -9.339  11.917  67.279  1.00  0.00    -0.177 A  
ENDBRANCH  11  12
ENDBRANCH   5  11
TORSDOF 2
ENDMDL
MODEL       49
REMARK 921   NORMALIZED FREE ENERGY PREDICTED BY IDOCK:   -5.58 KCAL/MOL
REMARK 922        TOTAL FREE ENERGY PREDICTED BY IDOCK:   -6.74 KCAL/MOL
REMARK 923 INTER-LIGAND FREE ENERGY PREDICTED BY IDOCK:   -6.17 KCAL/MOL
REMARK 924 INTRA-LIGAND FREE ENERGY PREDICTED BY IDOCK:   -0.57 KCAL/MOL
REMARK 927      BINDING AFFINITY PREDICTED BY RF-SCORE:    0.00 PKD
ROOT
HETATM    1  C   UNL     1     -12.413  13.417  65.536  1.00  0.00    -0.483 C  
HETATM    2  N   UNL     1     -11.878  14.368  66.478  1.00  0.00    -0.396 NA 
HETATM    3  C   UNL     1     -10.486  14.806  66.309  1.00  0.00    -0.296 C  
HETATM    4  C   UNL     1      -9.486  13.664  66.592  1.00  0.00    -0.285 C  
HETATM    5  C   UNL     1      -9.620  13.102  68.018  1.00  0.00    -0.220 C  
HETATM    6  C   UNL     1     -11.103  12.923  68.407  1.00  0.00    -0.293 C  
HETATM    7  O   UNL     1     -10.213  15.707  68.714  1.00  0.00    -0.204 OA 
HETATM    8  C   UNL     1     -12.014  14.084  67.913  1.00  0.00    -0.351 C  
HETATM    9  C   UNL     1     -10.543  15.923  67.344  1.00  0.00    -0.315 C  
HETATM   10  C   UNL     1     -11.569  15.468  68.365  1.00  0.00    -0.357 C  
ENDROOT
BRANCH   5  11
HETATM   11  O   UNL     1      -8.739  11.991  68.350  1.00  0.00    -0.173 OA 
BRANCH  11  12
HETATM   12  C   UNL     1      -8.445  11.012  67.473  1.00  0.00    -0.127 C  
HETATM   13  C   UNL     1      -9.639   9.443  69.196  1.00  0.00    -0.163 A  
HETATM   14  C   UNL     1      -9.131   9.676  67.770  1.00  0.00    -0.132 C  
HETATM   15  C   UNL     1     -10.154   9.433  66.647  1.00  0.00    -0.262 C  
HETATM   16  C   UNL     1      -8.719   9.098  70.206  1.00  0.00    -0.223 A  
HETATM   17  O   UNL     1     -10.516   8.055  66.551  1.00  0.00    -0.455 OA 
HETATM   18  O   UNL     1      -7.714  11.177  66.496  1.00  0.00    -0.150 OA 
HETATM   19  C   UNL     1      -9.139   8.804  71.511  1.00  0.00    -0.322 A  
HETATM   20  H   UNL     1     -11.148   7.904  65.858  1.00  0.00     0.000 HD 
HETATM   21  C   UNL     1     -10.490   8.843  71.837  1.00  0.00    -0.415 A  
HETATM   22  C   UNL     1     -11.419   9.168  70.853  1.00  0.00    -0.357 A  
HETATM   23  C   UNL     1     -11.001   9.461  69.547  1.00  0.00    -0.193 A  
ENDBRANCH  11  12
ENDBRANCH   5  11
TORSDOF 2
ENDMDL
MODEL       50
REMARK 921   NORMALIZED FREE ENERGY PREDICTED BY IDOCK:   -5.58 KCAL/MOL
REMARK 922        TOTAL FREE ENERGY PREDICTED BY IDOCK:   -6.74 KCAL/MOL
REMARK 923 INTER-LIGAND FREE ENERGY PREDICTED BY IDOCK:   -6.03 KCAL/MOL
REMARK 924 INTRA-LIGAND FREE ENERGY PREDICTED BY IDOCK:   -0.72 KCAL/MOL
REMARK 927      BINDING AFFINITY PREDICTED BY RF-SCORE:    0.00 PKD
ROOT
HETATM    1  C   UNL     1     -13.311   9.037  71.669  1.00  0.00    -0.377 C  
HETATM    2  N   UNL     1     -12.408   8.009  72.120  1.00  0.00    -0.321 NA 
HETATM    3  C   UNL     1     -11.031   8.393  72.460  1.00  0.00    -0.318 C  
HETATM    4  C   UNL     1     -10.231   8.825  71.212  1.00  0.00    -0.332 C  
HETATM    5  C   UNL     1     -10.148   7.715  70.150  1.00  0.00    -0.199 C  
HETATM    6  C   UNL     1     -11.513   7.016  69.969  1.00  0.00    -0.262 C  
HETATM    7  O   UNL     1     -10.061   6.004  72.315  1.00  0.00    -0.178 OA 
HETATM    8  C   UNL     1     -12.272   6.791  71.309  1.00  0.00    -0.364 C  
HETATM    9  C   UNL     1     -10.641   7.057  73.081  1.00  0.00    -0.318 C  
HETATM   10  C   UNL     1     -11.481   6.021  72.357  1.00  0.00    -0.308 C  
ENDROOT
BRANCH   5  11
HETATM   11  O   UNL     1      -9.445   8.059  68.923  1.00  0.00    -0.150 OA 
BRANCH  11  12
HETATM   12  C   UNL     1      -9.939   7.779  67.701  1.00  0.00    -0.178 C  
HETATM   13  C   UNL     1     -10.428  10.349  67.577  1.00  0.00    -0.292 A  
HETATM   14  C   UNL     1     -10.243   9.014  66.849  1.00  0.00    -0.339 C  
HETATM   15  C   UNL     1      -9.236   9.021  65.686  1.00  0.00    -0.225 C  
HETATM   16  C   UNL     1     -11.646  10.609  68.237  1.00  0.00    -0.245 A  
HETATM   17  O   UNL     1      -9.692   9.827  64.598  1.00  0.00    -0.409 OA 
HETATM   18  O   UNL     1     -10.104   6.632  67.285  1.00  0.00    -0.141 OA 
HETATM   19  C   UNL     1     -11.895  11.841  68.858  1.00  0.00    -0.381 A  
HETATM   20  H   UNL     1      -9.070   9.832  63.880  1.00  0.00     0.000 HD 
HETATM   21  C   UNL     1     -10.934  12.846  68.830  1.00  0.00    -0.292 A  
HETATM   22  C   UNL     1      -9.729  12.618  68.173  1.00  0.00    -0.219 A  
HETATM   23  C   UNL     1      -9.479  11.386  67.550  1.00  0.00    -0.173 A  
ENDBRANCH  11  12
ENDBRANCH   5  11
TORSDOF 2
ENDMDL
MODEL       51
REMARK 921   NORMALIZED FREE ENERGY PREDICTED BY IDOCK:   -5.57 KCAL/MOL
REMARK 922        TOTAL FREE ENERGY PREDICTED BY IDOCK:   -6.73 KCAL/MOL
REMARK 923 INTER-LIGAND FREE ENERGY PREDICTED BY IDOCK:   -5.91 KCAL/MOL
REMARK 924 INTRA-LIGAND FREE ENERGY PREDICTED BY IDOCK:   -0.82 KCAL/MOL
REMARK 927      BINDING AFFINITY PREDICTED BY RF-SCORE:    0.00 PKD
ROOT
HETATM    1  C   UNL     1      -7.826   8.999  68.175  1.00  0.00    -0.100 C  
HETATM    2  N   UNL     1      -8.893   8.647  69.076  1.00  0.00    -0.137 NA 
HETATM    3  C   UNL     1     -10.110   8.047  68.513  1.00  0.00    -0.199 C  
HETATM    4  C   UNL     1     -10.902   9.056  67.653  1.00  0.00    -0.133 C  
HETATM    5  C   UNL     1     -11.331  10.300  68.448  1.00  0.00    -0.178 C  
HETATM    6  C   UNL     1     -10.183  10.809  69.346  1.00  0.00    -0.187 C  
HETATM    7  O   UNL     1     -11.605   8.542  70.559  1.00  0.00    -0.240 OA 
HETATM    8  C   UNL     1      -9.376   9.664  70.022  1.00  0.00    -0.241 C  
HETATM    9  C   UNL     1     -10.734   7.665  69.849  1.00  0.00    -0.249 C  
HETATM   10  C   UNL     1     -10.221   8.695  70.837  1.00  0.00    -0.209 C  
ENDROOT
BRANCH   5  11
HETATM   11  O   UNL     1     -12.048  11.320  67.696  1.00  0.00    -0.600 OA 
BRANCH  11  12
HETATM   12  C   UNL     1     -11.731  12.627  67.764  1.00  0.00    -0.356 C  
HETATM   13  C   UNL     1     -10.474  12.191  65.509  1.00  0.00    -0.300 A  
HETATM   14  C   UNL     1     -11.103  13.189  66.486  1.00  0.00    -0.317 C  
HETATM   15  C   UNL     1     -12.118  14.171  65.876  1.00  0.00    -0.426 C  
HETATM   16  C   UNL     1      -9.203  11.655  65.797  1.00  0.00    -0.184 A  
HETATM   17  O   UNL     1     -11.492  15.082  64.971  1.00  0.00    -0.366 OA 
HETATM   18  O   UNL     1     -11.953  13.327  68.753  1.00  0.00    -0.325 OA 
HETATM   19  C   UNL     1      -8.550  10.793  64.903  1.00  0.00    -0.097 A  
HETATM   20  H   UNL     1     -12.118  15.689  64.594  1.00  0.00     0.000 HD 
HETATM   21  C   UNL     1      -9.152  10.450  63.697  1.00  0.00    -0.277 A  
HETATM   22  C   UNL     1     -10.401  10.977  63.385  1.00  0.00    -0.373 A  
HETATM   23  C   UNL     1     -11.054  11.840  64.277  1.00  0.00    -0.420 A  
ENDBRANCH  11  12
ENDBRANCH   5  11
TORSDOF 2
ENDMDL
MODEL       52
REMARK 921   NORMALIZED FREE ENERGY PREDICTED BY IDOCK:   -5.57 KCAL/MOL
REMARK 922        TOTAL FREE ENERGY PREDICTED BY IDOCK:   -6.73 KCAL/MOL
REMARK 923 INTER-LIGAND FREE ENERGY PREDICTED BY IDOCK:   -6.01 KCAL/MOL
REMARK 924 INTRA-LIGAND FREE ENERGY PREDICTED BY IDOCK:   -0.72 KCAL/MOL
REMARK 927      BINDING AFFINITY PREDICTED BY RF-SCORE:    0.00 PKD
ROOT
HETATM    1  C   UNL     1     -10.251  11.965  64.040  1.00  0.00    -0.361 C  
HETATM    2  N   UNL     1     -10.852  13.059  64.758  1.00  0.00    -0.319 NA 
HETATM    3  C   UNL     1      -9.986  13.896  65.600  1.00  0.00    -0.276 C  
HETATM    4  C   UNL     1      -9.456  13.122  66.827  1.00  0.00    -0.252 C  
HETATM    5  C   UNL     1     -10.587  12.588  67.722  1.00  0.00    -0.219 C  
HETATM    6  C   UNL     1     -11.724  11.976  66.874  1.00  0.00    -0.342 C  
HETATM    7  O   UNL     1     -11.904  14.906  67.005  1.00  0.00    -0.327 OA 
HETATM    8  C   UNL     1     -12.036  12.789  65.585  1.00  0.00    -0.459 C  
HETATM    9  C   UNL     1     -11.028  14.972  65.882  1.00  0.00    -0.343 C  
HETATM   10  C   UNL     1     -12.364  14.256  65.830  1.00  0.00    -0.403 C  
ENDROOT
BRANCH   5  11
HETATM   11  O   UNL     1     -10.170  11.809  68.879  1.00  0.00    -0.188 OA 
BRANCH  11  12
HETATM   12  C   UNL     1     -11.038  11.103  69.629  1.00  0.00    -0.232 C  
HETATM   13  C   UNL     1      -9.799   9.009  68.661  1.00  0.00    -0.177 A  
HETATM   14  C   UNL     1     -10.709   9.613  69.735  1.00  0.00    -0.269 C  
HETATM   15  C   UNL     1     -10.293   9.343  71.191  1.00  0.00    -0.307 C  
HETATM   16  C   UNL     1     -10.336   8.714  67.392  1.00  0.00    -0.353 A  
HETATM   17  O   UNL     1     -10.408   7.959  71.527  1.00  0.00    -0.197 OA 
HETATM   18  O   UNL     1     -11.998  11.611  70.210  1.00  0.00    -0.338 OA 
HETATM   19  C   UNL     1      -9.566   8.096  66.396  1.00  0.00    -0.286 A  
HETATM   20  H   UNL     1     -10.151   7.792  72.426  1.00  0.00     0.000 HD 
HETATM   21  C   UNL     1      -8.242   7.755  66.646  1.00  0.00    -0.123 A  
HETATM   22  C   UNL     1      -7.693   8.025  67.896  1.00  0.00    -0.114 A  
HETATM   23  C   UNL     1      -8.462   8.641  68.894  1.00  0.00    -0.129 A  
ENDBRANCH  11  12
ENDBRANCH   5  11
TORSDOF 2
ENDMDL
MODEL       53
REMARK 921   NORMALIZED FREE ENERGY PREDICTED BY IDOCK:   -5.56 KCAL/MOL
REMARK 922        TOTAL FREE ENERGY PREDICTED BY IDOCK:   -6.72 KCAL/MOL
REMARK 923 INTER-LIGAND FREE ENERGY PREDICTED BY IDOCK:   -6.01 KCAL/MOL
REMARK 924 INTRA-LIGAND FREE ENERGY PREDICTED BY IDOCK:   -0.70 KCAL/MOL
REMARK 927      BINDING AFFINITY PREDICTED BY RF-SCORE:    0.00 PKD
ROOT
HETATM    1  C   UNL     1      -8.392   9.100  66.422  1.00  0.00    -0.122 C  
HETATM    2  N   UNL     1      -8.898   9.075  67.770  1.00  0.00    -0.125 NA 
HETATM    3  C   UNL     1     -10.353   9.108  67.968  1.00  0.00    -0.222 C  
HETATM    4  C   UNL     1     -10.958  10.468  67.555  1.00  0.00    -0.365 C  
HETATM    5  C   UNL     1     -10.362  11.643  68.348  1.00  0.00    -0.204 C  
HETATM    6  C   UNL     1      -8.829  11.505  68.478  1.00  0.00    -0.139 C  
HETATM    7  O   UNL     1     -10.255   9.846  70.440  1.00  0.00    -0.277 OA 
HETATM    8  C   UNL     1      -8.363  10.044  68.737  1.00  0.00    -0.121 C  
HETATM    9  C   UNL     1     -10.319   8.811  69.462  1.00  0.00    -0.213 C  
HETATM   10  C   UNL     1      -9.004   9.386  69.952  1.00  0.00    -0.200 C  
ENDROOT
BRANCH   5  11
HETATM   11  O   UNL     1     -10.850  12.967  67.987  1.00  0.00    -0.227 OA 
BRANCH  11  12
HETATM   12  C   UNL     1     -10.024  13.983  67.672  1.00  0.00    -0.237 C  
HETATM   13  C   UNL     1     -10.725  13.467  65.202  1.00  0.00    -0.349 A  
HETATM   14  C   UNL     1     -10.124  14.445  66.217  1.00  0.00    -0.308 C  
HETATM   15  C   UNL     1     -10.739  15.855  66.230  1.00  0.00    -0.261 C  
HETATM   16  C   UNL     1      -9.935  12.404  64.722  1.00  0.00    -0.196 A  
HETATM   17  O   UNL     1     -10.463  16.564  65.020  1.00  0.00    -0.652 OA 
HETATM   18  O   UNL     1      -9.274  14.522  68.487  1.00  0.00    -0.187 OA 
HETATM   19  C   UNL     1     -10.411  11.522  63.741  1.00  0.00    -0.450 A  
HETATM   20  H   UNL     1     -10.843  17.434  65.028  1.00  0.00     0.000 HD 
HETATM   21  C   UNL     1     -11.687  11.685  63.212  1.00  0.00    -0.233 A  
HETATM   22  C   UNL     1     -12.480  12.736  63.662  1.00  0.00    -0.482 A  
HETATM   23  C   UNL     1     -12.005  13.620  64.642  1.00  0.00    -0.441 A  
ENDBRANCH  11  12
ENDBRANCH   5  11
TORSDOF 2
ENDMDL
MODEL       54
REMARK 921   NORMALIZED FREE ENERGY PREDICTED BY IDOCK:   -5.53 KCAL/MOL
REMARK 922        TOTAL FREE ENERGY PREDICTED BY IDOCK:   -6.68 KCAL/MOL
REMARK 923 INTER-LIGAND FREE ENERGY PREDICTED BY IDOCK:   -5.98 KCAL/MOL
REMARK 924 INTRA-LIGAND FREE ENERGY PREDICTED BY IDOCK:   -0.71 KCAL/MOL
REMARK 927      BINDING AFFINITY PREDICTED BY RF-SCORE:    0.00 PKD
ROOT
HETATM    1  C   UNL     1     -10.420   8.281  69.689  1.00  0.00    -0.221 C  
HETATM    2  N   UNL     1      -9.704   8.447  68.449  1.00  0.00    -0.152 NA 
HETATM    3  C   UNL     1      -8.468   9.240  68.461  1.00  0.00    -0.123 C  
HETATM    4  C   UNL     1      -8.747  10.735  68.730  1.00  0.00    -0.163 C  
HETATM    5  C   UNL     1      -9.681  11.359  67.680  1.00  0.00    -0.172 C  
HETATM    6  C   UNL     1     -10.860  10.416  67.354  1.00  0.00    -0.344 C  
HETATM    7  O   UNL     1      -8.413   9.658  65.913  1.00  0.00    -0.123 OA 
HETATM    8  C   UNL     1     -10.445   8.919  67.271  1.00  0.00    -0.277 C  
HETATM    9  C   UNL     1      -8.033   8.880  67.046  1.00  0.00    -0.102 C  
HETATM   10  C   UNL     1      -9.321   8.632  66.285  1.00  0.00    -0.220 C  
ENDROOT
BRANCH   5  11
HETATM   11  O   UNL     1     -10.028  12.758  67.887  1.00  0.00    -0.215 OA 
BRANCH  11  12
HETATM   12  C   UNL     1      -9.246  13.769  67.463  1.00  0.00    -0.216 C  
HETATM   13  C   UNL     1     -10.623  13.581  65.244  1.00  0.00    -0.335 A  
HETATM   14  C   UNL     1      -9.701  14.406  66.148  1.00  0.00    -0.335 C  
HETATM   15  C   UNL     1     -10.185  15.828  66.476  1.00  0.00    -0.286 C  
HETATM   16  C   UNL     1     -10.073  12.551  64.457  1.00  0.00    -0.273 A  
HETATM   17  O   UNL     1     -10.196  16.664  65.317  1.00  0.00    -0.600 OA 
HETATM   18  O   UNL     1      -8.266  14.175  68.089  1.00  0.00    -0.131 OA 
HETATM   19  C   UNL     1     -10.859  11.813  63.559  1.00  0.00    -0.496 A  
HETATM   20  H   UNL     1     -10.494  17.542  65.519  1.00  0.00     0.000 HD 
HETATM   21  C   UNL     1     -12.215  12.092  63.425  1.00  0.00    -0.627 A  
HETATM   22  C   UNL     1     -12.779  13.114  64.182  1.00  0.00    -0.158 A  
HETATM   23  C   UNL     1     -11.993  13.853  65.079  1.00  0.00    -0.403 A  
ENDBRANCH  11  12
ENDBRANCH   5  11
TORSDOF 2
ENDMDL
MODEL       55
REMARK 921   NORMALIZED FREE ENERGY PREDICTED BY IDOCK:   -5.47 KCAL/MOL
REMARK 922        TOTAL FREE ENERGY PREDICTED BY IDOCK:   -6.61 KCAL/MOL
REMARK 923 INTER-LIGAND FREE ENERGY PREDICTED BY IDOCK:   -6.02 KCAL/MOL
REMARK 924 INTRA-LIGAND FREE ENERGY PREDICTED BY IDOCK:   -0.59 KCAL/MOL
REMARK 927      BINDING AFFINITY PREDICTED BY RF-SCORE:    0.00 PKD
ROOT
HETATM    1  C   UNL     1      -8.398   6.951  71.071  1.00  0.00    -0.126 C  
HETATM    2  N   UNL     1      -9.717   7.469  71.334  1.00  0.00    -0.167 NA 
HETATM    3  C   UNL     1     -10.824   7.020  70.480  1.00  0.00    -0.251 C  
HETATM    4  C   UNL     1     -10.687   7.551  69.036  1.00  0.00    -0.148 C  
HETATM    5  C   UNL     1     -10.655   9.087  68.973  1.00  0.00    -0.190 C  
HETATM    6  C   UNL     1      -9.752   9.670  70.082  1.00  0.00    -0.301 C  
HETATM    7  O   UNL     1     -12.417   8.957  71.094  1.00  0.00    -0.291 OA 
HETATM    8  C   UNL     1      -9.888   8.925  71.441  1.00  0.00    -0.306 C  
HETATM    9  C   UNL     1     -11.935   7.634  71.322  1.00  0.00    -0.306 C  
HETATM   10  C   UNL     1     -11.311   8.851  71.978  1.00  0.00    -0.357 C  
ENDROOT
BRANCH   5  11
HETATM   11  O   UNL     1     -10.485   9.666  67.648  1.00  0.00    -0.228 OA 
BRANCH  11  12
HETATM   12  C   UNL     1      -9.275   9.956  67.134  1.00  0.00    -0.138 C  
HETATM   13  C   UNL     1     -10.392  12.210  66.407  1.00  0.00    -0.246 A  
HETATM   14  C   UNL     1      -9.115  11.410  66.684  1.00  0.00    -0.187 C  
HETATM   15  C   UNL     1      -8.107  12.072  67.638  1.00  0.00    -0.155 C  
HETATM   16  C   UNL     1     -11.086  12.001  65.198  1.00  0.00    -0.369 A  
HETATM   17  O   UNL     1      -7.534  13.250  67.069  1.00  0.00    -0.375 OA 
HETATM   18  O   UNL     1      -8.359   9.137  67.057  1.00  0.00    -0.118 OA 
HETATM   19  C   UNL     1     -12.219  12.756  64.862  1.00  0.00    -0.519 A  
HETATM   20  H   UNL     1      -6.912  13.659  67.658  1.00  0.00     0.000 HD 
HETATM   21  C   UNL     1     -12.684  13.742  65.726  1.00  0.00    -0.494 A  
HETATM   22  C   UNL     1     -12.008  13.976  66.919  1.00  0.00    -0.479 A  
HETATM   23  C   UNL     1     -10.874  13.223  67.256  1.00  0.00    -0.275 A  
ENDBRANCH  11  12
ENDBRANCH   5  11
TORSDOF 2
ENDMDL
MODEL       56
REMARK 921   NORMALIZED FREE ENERGY PREDICTED BY IDOCK:   -5.46 KCAL/MOL
REMARK 922        TOTAL FREE ENERGY PREDICTED BY IDOCK:   -6.61 KCAL/MOL
REMARK 923 INTER-LIGAND FREE ENERGY PREDICTED BY IDOCK:   -6.06 KCAL/MOL
REMARK 924 INTRA-LIGAND FREE ENERGY PREDICTED BY IDOCK:   -0.54 KCAL/MOL
REMARK 927      BINDING AFFINITY PREDICTED BY RF-SCORE:    0.00 PKD
ROOT
HETATM    1  C   UNL     1      -7.426   8.599  66.933  1.00  0.00    -0.083 C  
HETATM    2  N   UNL     1      -8.155   9.811  66.658  1.00  0.00    -0.116 NA 
HETATM    3  C   UNL     1      -8.014  10.934  67.595  1.00  0.00    -0.114 C  
HETATM    4  C   UNL     1      -8.657  10.623  68.965  1.00  0.00    -0.150 C  
HETATM    5  C   UNL     1     -10.157  10.304  68.854  1.00  0.00    -0.204 C  
HETATM    6  C   UNL     1     -10.440   9.371  67.656  1.00  0.00    -0.328 C  
HETATM    7  O   UNL     1     -10.144  12.173  66.823  1.00  0.00    -0.199 OA 
HETATM    8  C   UNL     1      -9.597   9.716  66.395  1.00  0.00    -0.210 C  
HETATM    9  C   UNL     1      -8.738  11.957  66.728  1.00  0.00    -0.193 C  
HETATM   10  C   UNL     1      -9.740  11.156  65.919  1.00  0.00    -0.229 C  
ENDROOT
BRANCH   5  11
HETATM   11  O   UNL     1     -10.828   9.958  70.099  1.00  0.00    -0.258 OA 
BRANCH  11  12
HETATM   12  C   UNL     1     -12.169   9.953  70.223  1.00  0.00    -0.047 C  
HETATM   13  C   UNL     1     -11.783   7.828  71.704  1.00  0.00    -0.316 A  
HETATM   14  C   UNL     1     -12.699   8.980  71.279  1.00  0.00    -0.316 C  
HETATM   15  C   UNL     1     -13.283   9.827  72.423  1.00  0.00    -0.275 C  
HETATM   16  C   UNL     1     -11.651   6.708  70.860  1.00  0.00    -0.416 A  
HETATM   17  O   UNL     1     -14.197   9.075  73.223  1.00  0.00    -1.192 OA 
HETATM   18  O   UNL     1     -12.910  10.689  69.571  1.00  0.00    -0.170 OA 
HETATM   19  C   UNL     1     -10.882   5.596  71.232  1.00  0.00    -0.289 A  
HETATM   20  H   UNL     1     -14.557   9.597  73.930  1.00  0.00     0.000 HD 
HETATM   21  C   UNL     1     -10.231   5.575  72.461  1.00  0.00    -0.229 A  
HETATM   22  C   UNL     1     -10.357   6.665  73.317  1.00  0.00    -0.275 A  
HETATM   23  C   UNL     1     -11.127   7.777  72.946  1.00  0.00    -0.457 A  
ENDBRANCH  11  12
ENDBRANCH   5  11
TORSDOF 2
ENDMDL
MODEL       57
REMARK 921   NORMALIZED FREE ENERGY PREDICTED BY IDOCK:   -5.46 KCAL/MOL
REMARK 922        TOTAL FREE ENERGY PREDICTED BY IDOCK:   -6.61 KCAL/MOL
REMARK 923 INTER-LIGAND FREE ENERGY PREDICTED BY IDOCK:   -6.22 KCAL/MOL
REMARK 924 INTRA-LIGAND FREE ENERGY PREDICTED BY IDOCK:   -0.38 KCAL/MOL
REMARK 927      BINDING AFFINITY PREDICTED BY RF-SCORE:    0.00 PKD
ROOT
HETATM    1  C   UNL     1      -6.813  10.843  69.588  1.00  0.00    -0.137 C  
HETATM    2  N   UNL     1      -7.543  10.308  68.467  1.00  0.00    -0.086 NA 
HETATM    3  C   UNL     1      -7.319  10.903  67.143  1.00  0.00    -0.105 C  
HETATM    4  C   UNL     1      -7.864  12.346  67.063  1.00  0.00    -0.086 C  
HETATM    5  C   UNL     1      -9.373  12.423  67.351  1.00  0.00    -0.181 C  
HETATM    6  C   UNL     1      -9.755  11.536  68.555  1.00  0.00    -0.191 C  
HETATM    7  O   UNL     1      -9.482   9.975  66.081  1.00  0.00    -0.169 OA 
HETATM    8  C   UNL     1      -9.002  10.175  68.580  1.00  0.00    -0.136 C  
HETATM    9  C   UNL     1      -8.090   9.847  66.360  1.00  0.00    -0.118 C  
HETATM   10  C   UNL     1      -9.159   9.346  67.313  1.00  0.00    -0.133 C  
ENDROOT
BRANCH   5  11
HETATM   11  O   UNL     1      -9.956  13.758  67.336  1.00  0.00    -0.232 OA 
BRANCH  11  12
HETATM   12  C   UNL     1      -9.456  14.760  66.588  1.00  0.00    -0.273 C  
HETATM   13  C   UNL     1     -10.991  13.791  64.700  1.00  0.00    -0.406 A  
HETATM   14  C   UNL     1     -10.173  14.964  65.252  1.00  0.00    -0.404 C  
HETATM   15  C   UNL     1     -10.909  16.312  65.333  1.00  0.00    -0.273 C  
HETATM   16  C   UNL     1     -10.322  12.718  64.081  1.00  0.00    -0.401 A  
HETATM   17  O   UNL     1     -11.220  16.824  64.037  1.00  0.00    -1.438 OA 
HETATM   18  O   UNL     1      -8.523  15.476  66.954  1.00  0.00    -0.212 OA 
HETATM   19  C   UNL     1     -11.025  11.654  63.496  1.00  0.00    -0.485 A  
HETATM   20  H   UNL     1     -11.675  17.656  64.087  1.00  0.00     0.000 HD 
HETATM   21  C   UNL     1     -12.415  11.641  63.514  1.00  0.00    -0.345 A  
HETATM   22  C   UNL     1     -13.099  12.697  64.108  1.00  0.00    -0.002 A  
HETATM   23  C   UNL     1     -12.397  13.762  64.692  1.00  0.00    -0.410 A  
ENDBRANCH  11  12
ENDBRANCH   5  11
TORSDOF 2
ENDMDL
MODEL       58
REMARK 921   NORMALIZED FREE ENERGY PREDICTED BY IDOCK:   -5.45 KCAL/MOL
REMARK 922        TOTAL FREE ENERGY PREDICTED BY IDOCK:   -6.60 KCAL/MOL
REMARK 923 INTER-LIGAND FREE ENERGY PREDICTED BY IDOCK:   -5.76 KCAL/MOL
REMARK 924 INTRA-LIGAND FREE ENERGY PREDICTED BY IDOCK:   -0.83 KCAL/MOL
REMARK 927      BINDING AFFINITY PREDICTED BY RF-SCORE:    0.00 PKD
ROOT
HETATM    1  C   UNL     1      -7.654  10.977  66.637  1.00  0.00    -0.146 C  
HETATM    2  N   UNL     1      -8.481   9.815  66.841  1.00  0.00    -0.120 NA 
HETATM    3  C   UNL     1      -9.734   9.712  66.081  1.00  0.00    -0.252 C  
HETATM    4  C   UNL     1     -10.766  10.770  66.528  1.00  0.00    -0.245 C  
HETATM    5  C   UNL     1     -11.124  10.652  68.019  1.00  0.00    -0.301 C  
HETATM    6  C   UNL     1      -9.862  10.416  68.876  1.00  0.00    -0.206 C  
HETATM    7  O   UNL     1     -10.814   7.938  67.616  1.00  0.00    -0.176 OA 
HETATM    8  C   UNL     1      -8.842   9.444  68.216  1.00  0.00    -0.128 C  
HETATM    9  C   UNL     1     -10.038   8.269  66.467  1.00  0.00    -0.233 C  
HETATM   10  C   UNL     1      -9.420   8.087  67.841  1.00  0.00    -0.145 C  
ENDROOT
BRANCH   5  11
HETATM   11  O   UNL     1     -12.061  11.643  68.529  1.00  0.00    -0.491 OA 
BRANCH  11  12
HETATM   12  C   UNL     1     -11.955  12.173  69.763  1.00  0.00    -0.302 C  
HETATM   13  C   UNL     1     -10.870  14.213  68.528  1.00  0.00    -0.264 A  
HETATM   14  C   UNL     1     -11.554  13.650  69.779  1.00  0.00    -0.322 C  
HETATM   15  C   UNL     1     -12.769  14.444  70.289  1.00  0.00    -0.263 C  
HETATM   16  C   UNL     1      -9.508  13.933  68.306  1.00  0.00    -0.217 A  
HETATM   17  O   UNL     1     -12.392  15.731  70.779  1.00  0.00    -0.410 OA 
HETATM   18  O   UNL     1     -12.189  11.541  70.793  1.00  0.00    -0.374 OA 
HETATM   19  C   UNL     1      -8.815  14.480  67.216  1.00  0.00    -0.221 A  
HETATM   20  H   UNL     1     -13.142  16.222  71.094  1.00  0.00     0.000 HD 
HETATM   21  C   UNL     1      -9.468  15.324  66.325  1.00  0.00    -0.341 A  
HETATM   22  C   UNL     1     -10.810  15.626  66.531  1.00  0.00    -0.260 A  
HETATM   23  C   UNL     1     -11.504  15.080  67.621  1.00  0.00    -0.344 A  
ENDBRANCH  11  12
ENDBRANCH   5  11
TORSDOF 2
ENDMDL
MODEL       59
REMARK 921   NORMALIZED FREE ENERGY PREDICTED BY IDOCK:   -5.45 KCAL/MOL
REMARK 922        TOTAL FREE ENERGY PREDICTED BY IDOCK:   -6.59 KCAL/MOL
REMARK 923 INTER-LIGAND FREE ENERGY PREDICTED BY IDOCK:   -5.81 KCAL/MOL
REMARK 924 INTRA-LIGAND FREE ENERGY PREDICTED BY IDOCK:   -0.78 KCAL/MOL
REMARK 927      BINDING AFFINITY PREDICTED BY RF-SCORE:    0.00 PKD
ROOT
HETATM    1  C   UNL     1     -11.901  12.319  68.513  1.00  0.00    -0.307 C  
HETATM    2  N   UNL     1     -10.893  11.885  67.580  1.00  0.00    -0.227 NA 
HETATM    3  C   UNL     1     -11.025  10.547  66.988  1.00  0.00    -0.180 C  
HETATM    4  C   UNL     1     -10.816   9.432  68.037  1.00  0.00    -0.197 C  
HETATM    5  C   UNL     1      -9.434   9.503  68.706  1.00  0.00    -0.147 C  
HETATM    6  C   UNL     1      -9.064  10.959  69.066  1.00  0.00    -0.110 C  
HETATM    7  O   UNL     1      -8.562  10.363  66.233  1.00  0.00    -0.135 OA 
HETATM    8  C   UNL     1      -9.482  11.987  67.975  1.00  0.00    -0.199 C  
HETATM    9  C   UNL     1      -9.915  10.718  65.957  1.00  0.00    -0.242 C  
HETATM   10  C   UNL     1      -8.933  11.688  66.587  1.00  0.00    -0.189 C  
ENDROOT
BRANCH   5  11
HETATM   11  O   UNL     1      -9.175   8.510  69.740  1.00  0.00    -0.154 OA 
BRANCH  11  12
HETATM   12  C   UNL     1      -8.691   8.837  70.953  1.00  0.00    -0.194 C  
HETATM   13  C   UNL     1     -11.174   8.582  71.745  1.00  0.00    -0.379 A  
HETATM   14  C   UNL     1      -9.685   8.639  72.100  1.00  0.00    -0.383 C  
HETATM   15  C   UNL     1      -9.159   7.478  72.961  1.00  0.00    -0.172 C  
HETATM   16  C   UNL     1     -11.861   9.781  71.468  1.00  0.00    -0.476 A  
HETATM   17  O   UNL     1      -9.721   7.497  74.275  1.00  0.00    -0.397 OA 
HETATM   18  O   UNL     1      -7.538   9.229  71.138  1.00  0.00    -0.261 OA 
HETATM   19  C   UNL     1     -13.239   9.793  71.207  1.00  0.00    -0.452 A  
HETATM   20  H   UNL     1      -9.396   6.781  74.807  1.00  0.00     0.000 HD 
HETATM   21  C   UNL     1     -13.964   8.607  71.221  1.00  0.00    -0.239 A  
HETATM   22  C   UNL     1     -13.310   7.412  71.505  1.00  0.00    -0.435 A  
HETATM   23  C   UNL     1     -11.932   7.399  71.768  1.00  0.00    -0.338 A  
ENDBRANCH  11  12
ENDBRANCH   5  11
TORSDOF 2
ENDMDL
MODEL       60
REMARK 921   NORMALIZED FREE ENERGY PREDICTED BY IDOCK:   -5.44 KCAL/MOL
REMARK 922        TOTAL FREE ENERGY PREDICTED BY IDOCK:   -6.58 KCAL/MOL
REMARK 923 INTER-LIGAND FREE ENERGY PREDICTED BY IDOCK:   -5.83 KCAL/MOL
REMARK 924 INTRA-LIGAND FREE ENERGY PREDICTED BY IDOCK:   -0.75 KCAL/MOL
REMARK 927      BINDING AFFINITY PREDICTED BY RF-SCORE:    0.00 PKD
ROOT
HETATM    1  C   UNL     1      -7.266   9.220  66.921  1.00  0.00    -0.086 C  
HETATM    2  N   UNL     1      -8.562   9.409  67.521  1.00  0.00    -0.122 NA 
HETATM    3  C   UNL     1      -9.592  10.114  66.745  1.00  0.00    -0.177 C  
HETATM    4  C   UNL     1      -9.244  11.606  66.552  1.00  0.00    -0.205 C  
HETATM    5  C   UNL     1      -9.086  12.352  67.888  1.00  0.00    -0.191 C  
HETATM    6  C   UNL     1      -8.279  11.512  68.902  1.00  0.00    -0.019 C  
HETATM    7  O   UNL     1     -11.092  10.674  68.770  1.00  0.00    -0.229 OA 
HETATM    8  C   UNL     1      -8.633   9.997  68.865  1.00  0.00    -0.138 C  
HETATM    9  C   UNL     1     -10.745   9.808  67.693  1.00  0.00    -0.274 C  
HETATM   10  C   UNL     1     -10.111   9.692  69.066  1.00  0.00    -0.186 C  
ENDROOT
BRANCH   5  11
HETATM   11  O   UNL     1      -8.715  13.757  67.793  1.00  0.00    -0.161 OA 
BRANCH  11  12
HETATM   12  C   UNL     1      -9.193  14.692  68.636  1.00  0.00    -0.194 C  
HETATM   13  C   UNL     1     -11.186  14.851  66.946  1.00  0.00    -0.343 A  
HETATM   14  C   UNL     1     -10.634  15.119  68.350  1.00  0.00    -0.238 C  
HETATM   15  C   UNL     1     -11.499  14.610  69.516  1.00  0.00    -0.297 C  
HETATM   16  C   UNL     1     -10.813  15.701  65.886  1.00  0.00    -0.297 A  
HETATM   17  O   UNL     1     -12.736  15.318  69.605  1.00  0.00    -0.602 OA 
HETATM   18  O   UNL     1      -8.545  15.145  69.580  1.00  0.00    -0.215 OA 
HETATM   19  C   UNL     1     -11.344  15.544  64.598  1.00  0.00    -0.363 A  
HETATM   20  H   UNL     1     -13.270  15.003  70.324  1.00  0.00     0.000 HD 
HETATM   21  C   UNL     1     -12.265  14.535  64.339  1.00  0.00    -0.480 A  
HETATM   22  C   UNL     1     -12.659  13.691  65.372  1.00  0.00    -0.533 A  
HETATM   23  C   UNL     1     -12.130  13.848  66.662  1.00  0.00    -0.485 A  
ENDBRANCH  11  12
ENDBRANCH   5  11
TORSDOF 2
ENDMDL
MODEL       61
REMARK 921   NORMALIZED FREE ENERGY PREDICTED BY IDOCK:   -5.44 KCAL/MOL
REMARK 922        TOTAL FREE ENERGY PREDICTED BY IDOCK:   -6.58 KCAL/MOL
REMARK 923 INTER-LIGAND FREE ENERGY PREDICTED BY IDOCK:   -6.21 KCAL/MOL
REMARK 924 INTRA-LIGAND FREE ENERGY PREDICTED BY IDOCK:   -0.37 KCAL/MOL
REMARK 927      BINDING AFFINITY PREDICTED BY RF-SCORE:    0.00 PKD
ROOT
HETATM    1  C   UNL     1     -10.768  15.868  68.397  1.00  0.00    -0.281 C  
HETATM    2  N   UNL     1     -10.986  15.446  67.036  1.00  0.00    -0.321 NA 
HETATM    3  C   UNL     1     -11.983  14.398  66.784  1.00  0.00    -0.399 C  
HETATM    4  C   UNL     1     -11.533  13.031  67.345  1.00  0.00    -0.380 C  
HETATM    5  C   UNL     1     -10.203  12.553  66.738  1.00  0.00    -0.231 C  
HETATM    6  C   UNL     1      -9.183  13.710  66.655  1.00  0.00    -0.225 C  
HETATM    7  O   UNL     1     -11.107  13.778  64.435  1.00  0.00    -0.379 OA 
HETATM    8  C   UNL     1      -9.821  15.063  66.227  1.00  0.00    -0.285 C  
HETATM    9  C   UNL     1     -11.982  14.537  65.267  1.00  0.00    -0.353 C  
HETATM   10  C   UNL     1     -10.585  15.009  64.911  1.00  0.00    -0.374 C  
ENDROOT
BRANCH   5  11
HETATM   11  O   UNL     1      -9.688  11.290  67.247  1.00  0.00    -0.172 OA 
BRANCH  11  12
HETATM   12  C   UNL     1     -10.406  10.150  67.219  1.00  0.00    -0.237 C  
HETATM   13  C   UNL     1      -9.421   9.875  64.808  1.00  0.00    -0.356 A  
HETATM   14  C   UNL     1     -10.091   9.239  66.030  1.00  0.00    -0.262 C  
HETATM   15  C   UNL     1      -9.402   7.983  66.591  1.00  0.00    -0.197 C  
HETATM   16  C   UNL     1     -10.202  10.633  63.913  1.00  0.00    -0.306 A  
HETATM   17  O   UNL     1      -9.477   6.887  65.678  1.00  0.00    -0.373 OA 
HETATM   18  O   UNL     1     -11.223   9.845  68.088  1.00  0.00    -0.207 OA 
HETATM   19  C   UNL     1      -9.654  11.177  62.741  1.00  0.00    -0.334 A  
HETATM   20  H   UNL     1      -9.052   6.112  66.024  1.00  0.00     0.000 HD 
HETATM   21  C   UNL     1      -8.313  10.973  62.435  1.00  0.00    -0.286 A  
HETATM   22  C   UNL     1      -7.525  10.217  63.298  1.00  0.00    -0.113 A  
HETATM   23  C   UNL     1      -8.072   9.671  64.469  1.00  0.00    -0.143 A  
ENDBRANCH  11  12
ENDBRANCH   5  11
TORSDOF 2
ENDMDL
MODEL       62
REMARK 921   NORMALIZED FREE ENERGY PREDICTED BY IDOCK:   -5.43 KCAL/MOL
REMARK 922        TOTAL FREE ENERGY PREDICTED BY IDOCK:   -6.57 KCAL/MOL
REMARK 923 INTER-LIGAND FREE ENERGY PREDICTED BY IDOCK:   -6.41 KCAL/MOL
REMARK 924 INTRA-LIGAND FREE ENERGY PREDICTED BY IDOCK:   -0.15 KCAL/MOL
REMARK 927      BINDING AFFINITY PREDICTED BY RF-SCORE:    0.00 PKD
ROOT
HETATM    1  C   UNL     1     -11.296  11.621  66.895  1.00  0.00    -0.295 C  
HETATM    2  N   UNL     1     -11.878  12.516  65.927  1.00  0.00    -0.460 NA 
HETATM    3  C   UNL     1     -11.123  12.799  64.699  1.00  0.00    -0.318 C  
HETATM    4  C   UNL     1      -9.846  13.620  64.986  1.00  0.00    -0.087 C  
HETATM    5  C   UNL     1     -10.152  14.970  65.657  1.00  0.00    -0.362 C  
HETATM    6  C   UNL     1     -11.215  14.811  66.766  1.00  0.00    -0.344 C  
HETATM    7  O   UNL     1     -12.425  14.944  64.092  1.00  0.00    -0.763 OA 
HETATM    8  C   UNL     1     -12.358  13.827  66.386  1.00  0.00    -0.412 C  
HETATM    9  C   UNL     1     -12.249  13.533  63.984  1.00  0.00    -0.402 C  
HETATM   10  C   UNL     1     -13.075  14.168  65.087  1.00  0.00    -0.019 C  
ENDROOT
BRANCH   5  11
HETATM   11  O   UNL     1      -8.996  15.787  66.000  1.00  0.00    -0.333 OA 
BRANCH  11  12
HETATM   12  C   UNL     1      -8.078  15.400  66.906  1.00  0.00    -0.224 C  
HETATM   13  C   UNL     1      -7.124  17.821  66.615  1.00  0.00    -0.257 A  
HETATM   14  C   UNL     1      -7.212  16.539  67.449  1.00  0.00    -0.178 C  
HETATM   15  C   UNL     1      -7.589  16.730  68.928  1.00  0.00    -0.239 C  
HETATM   16  C   UNL     1      -6.293  17.844  65.477  1.00  0.00    -0.142 A  
HETATM   17  O   UNL     1      -6.566  17.417  69.650  1.00  0.00    -0.221 OA 
HETATM   18  O   UNL     1      -7.960  14.237  67.295  1.00  0.00    -0.192 OA 
HETATM   19  C   UNL     1      -6.120  19.012  64.719  1.00  0.00    -0.289 A  
HETATM   20  H   UNL     1      -6.798  17.535  70.564  1.00  0.00     0.000 HD 
HETATM   21  C   UNL     1      -6.771  20.185  65.083  1.00  0.00    -0.333 A  
HETATM   22  C   UNL     1      -7.587  20.190  66.211  1.00  0.00    -0.298 A  
HETATM   23  C   UNL     1      -7.759  19.024  66.970  1.00  0.00    -0.245 A  
ENDBRANCH  11  12
ENDBRANCH   5  11
TORSDOF 2
ENDMDL
MODEL       63
REMARK 921   NORMALIZED FREE ENERGY PREDICTED BY IDOCK:   -5.42 KCAL/MOL
REMARK 922        TOTAL FREE ENERGY PREDICTED BY IDOCK:   -6.55 KCAL/MOL
REMARK 923 INTER-LIGAND FREE ENERGY PREDICTED BY IDOCK:   -5.94 KCAL/MOL
REMARK 924 INTRA-LIGAND FREE ENERGY PREDICTED BY IDOCK:   -0.61 KCAL/MOL
REMARK 927      BINDING AFFINITY PREDICTED BY RF-SCORE:    0.00 PKD
ROOT
HETATM    1  C   UNL     1      -9.425  10.149  63.709  1.00  0.00    -0.275 C  
HETATM    2  N   UNL     1      -8.633   9.581  64.769  1.00  0.00    -0.164 NA 
HETATM    3  C   UNL     1      -9.325   8.852  65.840  1.00  0.00    -0.236 C  
HETATM    4  C   UNL     1     -10.181   9.793  66.716  1.00  0.00    -0.300 C  
HETATM    5  C   UNL     1      -9.346  10.901  67.381  1.00  0.00    -0.155 C  
HETATM    6  C   UNL     1      -8.333  11.507  66.386  1.00  0.00    -0.118 C  
HETATM    7  O   UNL     1      -7.374   8.975  67.529  1.00  0.00    -0.080 OA 
HETATM    8  C   UNL     1      -7.668  10.446  65.462  1.00  0.00    -0.147 C  
HETATM    9  C   UNL     1      -8.067   8.287  66.489  1.00  0.00    -0.105 C  
HETATM   10  C   UNL     1      -6.981   9.308  66.206  1.00  0.00    -0.087 C  
ENDROOT
BRANCH   5  11
HETATM   11  O   UNL     1     -10.088  11.857  68.190  1.00  0.00    -0.186 OA 
BRANCH  11  12
HETATM   12  C   UNL     1     -11.403  12.089  68.016  1.00  0.00    -0.296 C  
HETATM   13  C   UNL     1     -10.645  14.511  67.372  1.00  0.00    -0.271 A  
HETATM   14  C   UNL     1     -11.722  13.422  67.336  1.00  0.00    -0.415 C  
HETATM   15  C   UNL     1     -12.295  13.096  65.946  1.00  0.00    -0.398 C  
HETATM   16  C   UNL     1     -10.459  15.255  68.554  1.00  0.00    -0.235 A  
HETATM   17  O   UNL     1     -13.042  14.191  65.412  1.00  0.00    -0.743 OA 
HETATM   18  O   UNL     1     -12.280  11.288  68.343  1.00  0.00    -0.604 OA 
HETATM   19  C   UNL     1      -9.537  16.310  68.619  1.00  0.00    -0.237 A  
HETATM   20  H   UNL     1     -13.396  13.990  64.554  1.00  0.00     0.000 HD 
HETATM   21  C   UNL     1      -8.781  16.649  67.502  1.00  0.00    -0.198 A  
HETATM   22  C   UNL     1      -8.956  15.937  66.320  1.00  0.00    -0.381 A  
HETATM   23  C   UNL     1      -9.879  14.883  66.252  1.00  0.00    -0.315 A  
ENDBRANCH  11  12
ENDBRANCH   5  11
TORSDOF 2
ENDMDL
MODEL       64
REMARK 921   NORMALIZED FREE ENERGY PREDICTED BY IDOCK:   -5.41 KCAL/MOL
REMARK 922        TOTAL FREE ENERGY PREDICTED BY IDOCK:   -6.55 KCAL/MOL
REMARK 923 INTER-LIGAND FREE ENERGY PREDICTED BY IDOCK:   -5.75 KCAL/MOL
REMARK 924 INTRA-LIGAND FREE ENERGY PREDICTED BY IDOCK:   -0.80 KCAL/MOL
REMARK 927      BINDING AFFINITY PREDICTED BY RF-SCORE:    0.00 PKD
ROOT
HETATM    1  C   UNL     1     -13.209   8.200  71.582  1.00  0.00    -0.332 C  
HETATM    2  N   UNL     1     -11.771   8.139  71.644  1.00  0.00    -0.274 NA 
HETATM    3  C   UNL     1     -11.010   9.366  71.372  1.00  0.00    -0.373 C  
HETATM    4  C   UNL     1     -11.125   9.797  69.893  1.00  0.00    -0.293 C  
HETATM    5  C   UNL     1     -10.616   8.717  68.923  1.00  0.00    -0.155 C  
HETATM    6  C   UNL     1     -11.108   7.315  69.344  1.00  0.00    -0.092 C  
HETATM    7  O   UNL     1      -8.769   8.173  70.901  1.00  0.00    -0.131 OA 
HETATM    8  C   UNL     1     -11.080   7.089  70.883  1.00  0.00    -0.267 C  
HETATM    9  C   UNL     1      -9.658   8.817  71.810  1.00  0.00    -0.301 C  
HETATM   10  C   UNL     1      -9.722   7.328  71.528  1.00  0.00    -0.159 C  
ENDROOT
BRANCH   5  11
HETATM   11  O   UNL     1     -10.730   9.030  67.506  1.00  0.00    -0.267 OA 
BRANCH  11  12
HETATM   12  C   UNL     1      -9.658   9.132  66.697  1.00  0.00    -0.203 C  
HETATM   13  C   UNL     1     -10.280  11.673  66.594  1.00  0.00    -0.249 A  
HETATM   14  C   UNL     1      -9.236  10.571  66.392  1.00  0.00    -0.190 C  
HETATM   15  C   UNL     1      -7.880  10.801  67.080  1.00  0.00    -0.121 C  
HETATM   16  C   UNL     1     -11.287  11.853  65.625  1.00  0.00    -0.339 A  
HETATM   17  O   UNL     1      -7.177  11.905  66.508  1.00  0.00    -0.369 OA 
HETATM   18  O   UNL     1      -9.044   8.157  66.262  1.00  0.00    -0.166 OA 
HETATM   19  C   UNL     1     -12.224  12.892  65.725  1.00  0.00    -0.498 A  
HETATM   20  H   UNL     1      -6.340  12.048  66.932  1.00  0.00     0.000 HD 
HETATM   21  C   UNL     1     -12.174  13.779  66.794  1.00  0.00    -0.440 A  
HETATM   22  C   UNL     1     -11.181  13.630  67.757  1.00  0.00    -0.310 A  
HETATM   23  C   UNL     1     -10.242  12.592  67.658  1.00  0.00    -0.217 A  
ENDBRANCH  11  12
ENDBRANCH   5  11
TORSDOF 2
ENDMDL
MODEL       65
REMARK 921   NORMALIZED FREE ENERGY PREDICTED BY IDOCK:   -5.40 KCAL/MOL
REMARK 922        TOTAL FREE ENERGY PREDICTED BY IDOCK:   -6.53 KCAL/MOL
REMARK 923 INTER-LIGAND FREE ENERGY PREDICTED BY IDOCK:   -5.87 KCAL/MOL
REMARK 924 INTRA-LIGAND FREE ENERGY PREDICTED BY IDOCK:   -0.66 KCAL/MOL
REMARK 927      BINDING AFFINITY PREDICTED BY RF-SCORE:    0.00 PKD
ROOT
HETATM    1  C   UNL     1     -11.137  15.242  70.789  1.00  0.00    -0.302 C  
HETATM    2  N   UNL     1     -10.498  16.006  69.748  1.00  0.00    -0.295 NA 
HETATM    3  C   UNL     1     -11.236  16.235  68.499  1.00  0.00    -0.359 C  
HETATM    4  C   UNL     1     -11.427  14.929  67.697  1.00  0.00    -0.366 C  
HETATM    5  C   UNL     1     -10.090  14.266  67.324  1.00  0.00    -0.252 C  
HETATM    6  C   UNL     1      -9.108  14.286  68.515  1.00  0.00    -0.191 C  
HETATM    7  O   UNL     1      -9.163  16.856  67.091  1.00  0.00    -0.222 OA 
HETATM    8  C   UNL     1      -9.146  15.615  69.322  1.00  0.00    -0.270 C  
HETATM    9  C   UNL     1     -10.257  17.247  67.917  1.00  0.00    -0.332 C  
HETATM   10  C   UNL     1      -8.904  16.865  68.487  1.00  0.00    -0.251 C  
ENDROOT
BRANCH   5  11
HETATM   11  O   UNL     1     -10.185  13.005  66.602  1.00  0.00    -0.248 OA 
BRANCH  11  12
HETATM   12  C   UNL     1     -11.254  12.192  66.700  1.00  0.00    -0.324 C  
HETATM   13  C   UNL     1      -9.607  10.575  67.938  1.00  0.00    -0.164 A  
HETATM   14  C   UNL     1     -11.049  10.993  67.629  1.00  0.00    -0.363 C  
HETATM   15  C   UNL     1     -11.959  11.205  68.850  1.00  0.00    -0.298 C  
HETATM   16  C   UNL     1      -8.882   9.847  66.975  1.00  0.00    -0.144 A  
HETATM   17  O   UNL     1     -12.207   9.981  69.544  1.00  0.00    -0.484 OA 
HETATM   18  O   UNL     1     -12.320  12.404  66.121  1.00  0.00    -0.606 OA 
HETATM   19  C   UNL     1      -7.585   9.378  67.234  1.00  0.00    -0.091 A  
HETATM   20  H   UNL     1     -12.769  10.111  70.298  1.00  0.00     0.000 HD 
HETATM   21  C   UNL     1      -6.985   9.624  68.464  1.00  0.00    -0.065 A  
HETATM   22  C   UNL     1      -7.687  10.331  69.435  1.00  0.00    -0.146 A  
HETATM   23  C   UNL     1      -8.984  10.798  69.179  1.00  0.00    -0.100 A  
ENDBRANCH  11  12
ENDBRANCH   5  11
TORSDOF 2
ENDMDL
MODEL       66
REMARK 921   NORMALIZED FREE ENERGY PREDICTED BY IDOCK:   -5.38 KCAL/MOL
REMARK 922        TOTAL FREE ENERGY PREDICTED BY IDOCK:   -6.52 KCAL/MOL
REMARK 923 INTER-LIGAND FREE ENERGY PREDICTED BY IDOCK:   -5.75 KCAL/MOL
REMARK 924 INTRA-LIGAND FREE ENERGY PREDICTED BY IDOCK:   -0.77 KCAL/MOL
REMARK 927      BINDING AFFINITY PREDICTED BY RF-SCORE:    0.00 PKD
ROOT
HETATM    1  C   UNL     1      -6.929  16.234  67.941  1.00  0.00    -0.138 C  
HETATM    2  N   UNL     1      -8.318  16.492  68.223  1.00  0.00    -0.183 NA 
HETATM    3  C   UNL     1      -9.082  15.467  68.947  1.00  0.00    -0.219 C  
HETATM    4  C   UNL     1      -9.287  14.195  68.096  1.00  0.00    -0.206 C  
HETATM    5  C   UNL     1     -10.033  14.479  66.781  1.00  0.00    -0.264 C  
HETATM    6  C   UNL     1      -9.502  15.764  66.107  1.00  0.00    -0.375 C  
HETATM    7  O   UNL     1     -11.408  16.359  68.264  1.00  0.00    -0.350 OA 
HETATM    8  C   UNL     1      -9.193  16.906  67.118  1.00  0.00    -0.229 C  
HETATM    9  C   UNL     1     -10.319  16.326  69.184  1.00  0.00    -0.272 C  
HETATM   10  C   UNL     1     -10.365  17.288  68.012  1.00  0.00    -0.353 C  
ENDROOT
BRANCH   5  11
HETATM   11  O   UNL     1     -10.229  13.336  65.900  1.00  0.00    -0.283 OA 
BRANCH  11  12
HETATM   12  C   UNL     1     -11.234  12.456  66.067  1.00  0.00    -0.335 C  
HETATM   13  C   UNL     1      -9.324  10.671  66.215  1.00  0.00    -0.199 A  
HETATM   14  C   UNL     1     -10.781  11.057  66.491  1.00  0.00    -0.298 C  
HETATM   15  C   UNL     1     -11.268  10.841  67.934  1.00  0.00    -0.318 C  
HETATM   16  C   UNL     1      -8.945  10.306  64.909  1.00  0.00    -0.231 A  
HETATM   17  O   UNL     1     -11.319   9.454  68.272  1.00  0.00    -0.495 OA 
HETATM   18  O   UNL     1     -12.421  12.751  65.924  1.00  0.00    -0.560 OA 
HETATM   19  C   UNL     1      -7.643   9.875  64.616  1.00  0.00    -0.139 A  
HETATM   20  H   UNL     1     -11.619   9.320  69.163  1.00  0.00     0.000 HD 
HETATM   21  C   UNL     1      -6.689   9.796  65.625  1.00  0.00    -0.092 A  
HETATM   22  C   UNL     1      -7.043  10.139  66.926  1.00  0.00    -0.091 A  
HETATM   23  C   UNL     1      -8.346  10.568  67.220  1.00  0.00    -0.122 A  
ENDBRANCH  11  12
ENDBRANCH   5  11
TORSDOF 2
ENDMDL
MODEL       67
REMARK 921   NORMALIZED FREE ENERGY PREDICTED BY IDOCK:   -5.36 KCAL/MOL
REMARK 922        TOTAL FREE ENERGY PREDICTED BY IDOCK:   -6.49 KCAL/MOL
REMARK 923 INTER-LIGAND FREE ENERGY PREDICTED BY IDOCK:   -5.77 KCAL/MOL
REMARK 924 INTRA-LIGAND FREE ENERGY PREDICTED BY IDOCK:   -0.71 KCAL/MOL
REMARK 927      BINDING AFFINITY PREDICTED BY RF-SCORE:    0.00 PKD
ROOT
HETATM    1  C   UNL     1      -9.660  13.902  67.510  1.00  0.00    -0.229 C  
HETATM    2  N   UNL     1     -10.778  14.128  66.630  1.00  0.00    -0.287 NA 
HETATM    3  C   UNL     1     -11.889  13.167  66.656  1.00  0.00    -0.391 C  
HETATM    4  C   UNL     1     -11.471  11.790  66.096  1.00  0.00    -0.288 C  
HETATM    5  C   UNL     1     -10.971  11.872  64.644  1.00  0.00    -0.316 C  
HETATM    6  C   UNL     1     -10.036  13.085  64.445  1.00  0.00    -0.245 C  
HETATM    7  O   UNL     1     -12.871  13.855  64.369  1.00  0.00    -0.632 OA 
HETATM    8  C   UNL     1     -10.511  14.358  65.203  1.00  0.00    -0.415 C  
HETATM    9  C   UNL     1     -12.833  13.990  65.788  1.00  0.00    -0.377 C  
HETATM   10  C   UNL     1     -11.931  14.794  64.871  1.00  0.00    -0.358 C  
ENDROOT
BRANCH   5  11
HETATM   11  O   UNL     1     -10.517  10.619  64.055  1.00  0.00    -0.311 OA 
BRANCH  11  12
HETATM   12  C   UNL     1      -9.294  10.476  63.510  1.00  0.00    -0.293 C  
HETATM   13  C   UNL     1      -8.665   9.379  65.804  1.00  0.00    -0.183 A  
HETATM   14  C   UNL     1      -8.344   9.590  64.321  1.00  0.00    -0.172 C  
HETATM   15  C   UNL     1      -8.107   8.310  63.501  1.00  0.00    -0.130 C  
HETATM   16  C   UNL     1      -8.362  10.402  66.724  1.00  0.00    -0.126 A  
HETATM   17  O   UNL     1      -6.918   7.633  63.910  1.00  0.00    -0.059 OA 
HETATM   18  O   UNL     1      -8.968  10.983  62.436  1.00  0.00    -0.298 OA 
HETATM   19  C   UNL     1      -8.569  10.234  68.102  1.00  0.00    -0.119 A  
HETATM   20  H   UNL     1      -6.771   6.843  63.404  1.00  0.00     0.000 HD 
HETATM   21  C   UNL     1      -9.080   9.037  68.591  1.00  0.00    -0.137 A  
HETATM   22  C   UNL     1      -9.376   8.008  67.703  1.00  0.00    -0.162 A  
HETATM   23  C   UNL     1      -9.168   8.174  66.326  1.00  0.00    -0.245 A  
ENDBRANCH  11  12
ENDBRANCH   5  11
TORSDOF 2
ENDMDL
MODEL       68
REMARK 921   NORMALIZED FREE ENERGY PREDICTED BY IDOCK:   -5.34 KCAL/MOL
REMARK 922        TOTAL FREE ENERGY PREDICTED BY IDOCK:   -6.47 KCAL/MOL
REMARK 923 INTER-LIGAND FREE ENERGY PREDICTED BY IDOCK:   -5.90 KCAL/MOL
REMARK 924 INTRA-LIGAND FREE ENERGY PREDICTED BY IDOCK:   -0.57 KCAL/MOL
REMARK 927      BINDING AFFINITY PREDICTED BY RF-SCORE:    0.00 PKD
ROOT
HETATM    1  C   UNL     1      -6.948   8.123  67.190  1.00  0.00    -0.075 C  
HETATM    2  N   UNL     1      -7.396   8.795  65.997  1.00  0.00    -0.088 NA 
HETATM    3  C   UNL     1      -7.041  10.209  65.821  1.00  0.00    -0.127 C  
HETATM    4  C   UNL     1      -7.767  11.115  66.840  1.00  0.00    -0.148 C  
HETATM    5  C   UNL     1      -9.298  11.010  66.738  1.00  0.00    -0.181 C  
HETATM    6  C   UNL     1      -9.745   9.540  66.578  1.00  0.00    -0.284 C  
HETATM    7  O   UNL     1      -8.840  10.698  64.033  1.00  0.00    -0.183 OA 
HETATM    8  C   UNL     1      -8.819   8.714  65.640  1.00  0.00    -0.187 C  
HETATM    9  C   UNL     1      -7.511  10.313  64.375  1.00  0.00    -0.084 C  
HETATM   10  C   UNL     1      -8.641   9.309  64.250  1.00  0.00    -0.193 C  
ENDROOT
BRANCH   5  11
HETATM   11  O   UNL     1     -10.056  11.802  67.696  1.00  0.00    -0.189 OA 
BRANCH  11  12
HETATM   12  C   UNL     1     -11.383  12.001  67.583  1.00  0.00    -0.307 C  
HETATM   13  C   UNL     1     -10.717  14.450  66.938  1.00  0.00    -0.292 A  
HETATM   14  C   UNL     1     -11.766  13.333  66.935  1.00  0.00    -0.437 C  
HETATM   15  C   UNL     1     -12.392  13.010  65.568  1.00  0.00    -0.472 C  
HETATM   16  C   UNL     1     -10.498  15.184  68.121  1.00  0.00    -0.245 A  
HETATM   17  O   UNL     1     -13.190  14.091  65.083  1.00  0.00    -0.768 OA 
HETATM   18  O   UNL     1     -12.223  11.173  67.938  1.00  0.00    -0.521 OA 
HETATM   19  C   UNL     1      -9.601  16.262  68.159  1.00  0.00    -0.219 A  
HETATM   20  H   UNL     1     -13.577  13.891  64.238  1.00  0.00     0.000 HD 
HETATM   21  C   UNL     1      -8.905  16.634  67.015  1.00  0.00    -0.220 A  
HETATM   22  C   UNL     1      -9.114  15.932  65.832  1.00  0.00    -0.304 A  
HETATM   23  C   UNL     1     -10.012  14.855  65.791  1.00  0.00    -0.376 A  
ENDBRANCH  11  12
ENDBRANCH   5  11
TORSDOF 2
ENDMDL
MODEL       69
REMARK 921   NORMALIZED FREE ENERGY PREDICTED BY IDOCK:   -5.33 KCAL/MOL
REMARK 922        TOTAL FREE ENERGY PREDICTED BY IDOCK:   -6.46 KCAL/MOL
REMARK 923 INTER-LIGAND FREE ENERGY PREDICTED BY IDOCK:   -5.84 KCAL/MOL
REMARK 924 INTRA-LIGAND FREE ENERGY PREDICTED BY IDOCK:   -0.62 KCAL/MOL
REMARK 927      BINDING AFFINITY PREDICTED BY RF-SCORE:    0.00 PKD
ROOT
HETATM    1  C   UNL     1     -12.451  13.016  65.517  1.00  0.00    -0.438 C  
HETATM    2  N   UNL     1     -11.255  13.087  66.315  1.00  0.00    -0.293 NA 
HETATM    3  C   UNL     1     -10.051  12.399  65.828  1.00  0.00    -0.253 C  
HETATM    4  C   UNL     1     -10.216  10.864  65.855  1.00  0.00    -0.314 C  
HETATM    5  C   UNL     1     -10.510  10.327  67.266  1.00  0.00    -0.253 C  
HETATM    6  C   UNL     1     -11.546  11.213  67.993  1.00  0.00    -0.337 C  
HETATM    7  O   UNL     1      -8.843  12.359  68.110  1.00  0.00    -0.182 OA 
HETATM    8  C   UNL     1     -11.341  12.734  67.739  1.00  0.00    -0.294 C  
HETATM    9  C   UNL     1      -9.099  12.993  66.858  1.00  0.00    -0.227 C  
HETATM   10  C   UNL     1      -9.951  13.247  68.088  1.00  0.00    -0.234 C  
ENDROOT
BRANCH   5  11
HETATM   11  O   UNL     1     -10.721   8.890  67.369  1.00  0.00    -0.272 OA 
BRANCH  11  12
HETATM   12  C   UNL     1      -9.704   8.009  67.412  1.00  0.00    -0.166 C  
HETATM   13  C   UNL     1     -10.511   7.564  69.863  1.00  0.00    -0.232 A  
HETATM   14  C   UNL     1      -9.713   7.097  68.641  1.00  0.00    -0.141 C  
HETATM   15  C   UNL     1     -10.021   5.673  68.147  1.00  0.00    -0.147 C  
HETATM   16  C   UNL     1      -9.964   8.552  70.704  1.00  0.00    -0.222 A  
HETATM   17  O   UNL     1      -9.611   4.685  69.093  1.00  0.00    -0.146 OA 
HETATM   18  O   UNL     1      -8.853   7.916  66.526  1.00  0.00    -0.137 OA 
HETATM   19  C   UNL     1     -10.618   8.964  71.874  1.00  0.00    -0.419 A  
HETATM   20  H   UNL     1      -9.800   3.806  68.789  1.00  0.00     0.000 HD 
HETATM   21  C   UNL     1     -11.835   8.394  72.233  1.00  0.00    -0.456 A  
HETATM   22  C   UNL     1     -12.390   7.407  71.424  1.00  0.00    -0.394 A  
HETATM   23  C   UNL     1     -11.735   6.993  70.254  1.00  0.00    -0.284 A  
ENDBRANCH  11  12
ENDBRANCH   5  11
TORSDOF 2
ENDMDL
MODEL       70
REMARK 921   NORMALIZED FREE ENERGY PREDICTED BY IDOCK:   -5.33 KCAL/MOL
REMARK 922        TOTAL FREE ENERGY PREDICTED BY IDOCK:   -6.46 KCAL/MOL
REMARK 923 INTER-LIGAND FREE ENERGY PREDICTED BY IDOCK:   -6.39 KCAL/MOL
REMARK 924 INTRA-LIGAND FREE ENERGY PREDICTED BY IDOCK:   -0.08 KCAL/MOL
REMARK 927      BINDING AFFINITY PREDICTED BY RF-SCORE:    0.00 PKD
ROOT
HETATM    1  C   UNL     1      -9.842  15.504  65.893  1.00  0.00    -0.353 C  
HETATM    2  N   UNL     1     -10.962  14.756  65.379  1.00  0.00    -0.338 NA 
HETATM    3  C   UNL     1     -11.985  14.296  66.327  1.00  0.00    -0.412 C  
HETATM    4  C   UNL     1     -11.439  13.207  67.277  1.00  0.00    -0.375 C  
HETATM    5  C   UNL     1     -10.924  11.970  66.522  1.00  0.00    -0.295 C  
HETATM    6  C   UNL     1     -10.096  12.378  65.284  1.00  0.00    -0.285 C  
HETATM    7  O   UNL     1     -12.986  12.500  64.765  1.00  0.00    -0.827 OA 
HETATM    8  C   UNL     1     -10.693  13.595  64.519  1.00  0.00    -0.407 C  
HETATM    9  C   UNL     1     -12.983  13.832  65.274  1.00  0.00    -0.278 C  
HETATM   10  C   UNL     1     -12.140  13.415  64.083  1.00  0.00    -0.433 C  
ENDROOT
BRANCH   5  11
HETATM   11  O   UNL     1     -10.353  10.913  67.346  1.00  0.00    -0.193 OA 
BRANCH  11  12
HETATM   12  C   UNL     1      -9.028  10.791  67.551  1.00  0.00    -0.132 C  
HETATM   13  C   UNL     1      -9.634   8.410  68.457  1.00  0.00    -0.155 A  
HETATM   14  C   UNL     1      -8.576   9.373  67.909  1.00  0.00    -0.120 C  
HETATM   15  C   UNL     1      -7.746   8.849  66.724  1.00  0.00    -0.097 C  
HETATM   16  C   UNL     1     -10.040   8.528  69.801  1.00  0.00    -0.197 A  
HETATM   17  O   UNL     1      -6.904   7.761  67.108  1.00  0.00    -0.065 OA 
HETATM   18  O   UNL     1      -8.236  11.726  67.432  1.00  0.00    -0.145 OA 
HETATM   19  C   UNL     1     -10.951   7.629  70.373  1.00  0.00    -0.256 A  
HETATM   20  H   UNL     1      -6.391   7.437  66.377  1.00  0.00     0.000 HD 
HETATM   21  C   UNL     1     -11.475   6.586  69.616  1.00  0.00    -0.417 A  
HETATM   22  C   UNL     1     -11.078   6.441  68.291  1.00  0.00    -0.359 A  
HETATM   23  C   UNL     1     -10.166   7.339  67.717  1.00  0.00    -0.247 A  
ENDBRANCH  11  12
ENDBRANCH   5  11
TORSDOF 2
ENDMDL
MODEL       71
REMARK 921   NORMALIZED FREE ENERGY PREDICTED BY IDOCK:   -5.33 KCAL/MOL
REMARK 922        TOTAL FREE ENERGY PREDICTED BY IDOCK:   -6.45 KCAL/MOL
REMARK 923 INTER-LIGAND FREE ENERGY PREDICTED BY IDOCK:   -5.66 KCAL/MOL
REMARK 924 INTRA-LIGAND FREE ENERGY PREDICTED BY IDOCK:   -0.79 KCAL/MOL
REMARK 927      BINDING AFFINITY PREDICTED BY RF-SCORE:    0.00 PKD
ROOT
HETATM    1  C   UNL     1     -12.600  13.807  65.519  1.00  0.00    -0.512 C  
HETATM    2  N   UNL     1     -11.350  13.893  66.231  1.00  0.00    -0.317 NA 
HETATM    3  C   UNL     1     -10.368  12.817  66.045  1.00  0.00    -0.276 C  
HETATM    4  C   UNL     1     -10.852  11.485  66.657  1.00  0.00    -0.335 C  
HETATM    5  C   UNL     1     -11.130  11.595  68.165  1.00  0.00    -0.242 C  
HETATM    6  C   UNL     1     -11.887  12.900  68.497  1.00  0.00    -0.350 C  
HETATM    7  O   UNL     1      -9.002  13.353  68.170  1.00  0.00    -0.179 OA 
HETATM    8  C   UNL     1     -11.386  14.126  67.681  1.00  0.00    -0.319 C  
HETATM    9  C   UNL     1      -9.225  13.516  66.771  1.00  0.00    -0.240 C  
HETATM   10  C   UNL     1      -9.893  14.398  67.808  1.00  0.00    -0.221 C  
ENDROOT
BRANCH   5  11
HETATM   11  O   UNL     1     -11.632  10.390  68.810  1.00  0.00    -0.218 OA 
BRANCH  11  12
HETATM   12  C   UNL     1     -11.188   9.971  70.011  1.00  0.00    -0.288 C  
HETATM   13  C   UNL     1      -9.976   8.099  68.638  1.00  0.00    -0.201 A  
HETATM   14  C   UNL     1     -10.096   8.901  69.938  1.00  0.00    -0.204 C  
HETATM   15  C   UNL     1      -8.795   9.544  70.448  1.00  0.00    -0.234 C  
HETATM   16  C   UNL     1     -10.894   7.061  68.384  1.00  0.00    -0.191 A  
HETATM   17  O   UNL     1      -7.845   8.560  70.859  1.00  0.00    -0.086 OA 
HETATM   18  O   UNL     1     -11.595  10.427  71.079  1.00  0.00    -0.346 OA 
HETATM   19  C   UNL     1     -10.786   6.249  67.245  1.00  0.00    -0.457 A  
HETATM   20  H   UNL     1      -7.041   8.957  71.174  1.00  0.00     0.000 HD 
HETATM   21  C   UNL     1      -9.756   6.455  66.334  1.00  0.00    -0.140 A  
HETATM   22  C   UNL     1      -8.830   7.466  66.570  1.00  0.00    -0.165 A  
HETATM   23  C   UNL     1      -8.935   8.277  67.710  1.00  0.00    -0.139 A  
ENDBRANCH  11  12
ENDBRANCH   5  11
TORSDOF 2
ENDMDL
MODEL       72
REMARK 921   NORMALIZED FREE ENERGY PREDICTED BY IDOCK:   -5.32 KCAL/MOL
REMARK 922        TOTAL FREE ENERGY PREDICTED BY IDOCK:   -6.45 KCAL/MOL
REMARK 923 INTER-LIGAND FREE ENERGY PREDICTED BY IDOCK:   -5.97 KCAL/MOL
REMARK 924 INTRA-LIGAND FREE ENERGY PREDICTED BY IDOCK:   -0.48 KCAL/MOL
REMARK 927      BINDING AFFINITY PREDICTED BY RF-SCORE:    0.00 PKD
ROOT
HETATM    1  C   UNL     1     -12.481  12.599  65.322  1.00  0.00    -0.416 C  
HETATM    2  N   UNL     1     -11.568  13.411  66.086  1.00  0.00    -0.333 NA 
HETATM    3  C   UNL     1     -10.131  13.122  65.986  1.00  0.00    -0.286 C  
HETATM    4  C   UNL     1      -9.772  11.764  66.628  1.00  0.00    -0.219 C  
HETATM    5  C   UNL     1     -10.151  11.697  68.117  1.00  0.00    -0.196 C  
HETATM    6  C   UNL     1     -11.549  12.304  68.362  1.00  0.00    -0.377 C  
HETATM    7  O   UNL     1      -9.474  14.373  68.148  1.00  0.00    -0.192 OA 
HETATM    8  C   UNL     1     -11.821  13.585  67.523  1.00  0.00    -0.368 C  
HETATM    9  C   UNL     1      -9.666  14.365  66.735  1.00  0.00    -0.270 C  
HETATM   10  C   UNL     1     -10.786  14.687  67.706  1.00  0.00    -0.267 C  
ENDROOT
BRANCH   5  11
HETATM   11  O   UNL     1      -9.883  10.431  68.785  1.00  0.00    -0.168 OA 
BRANCH  11  12
HETATM   12  C   UNL     1      -8.754  10.205  69.483  1.00  0.00    -0.174 C  
HETATM   13  C   UNL     1     -10.176   8.395  70.732  1.00  0.00    -0.227 A  
HETATM   14  C   UNL     1      -8.798   8.951  70.360  1.00  0.00    -0.204 C  
HETATM   15  C   UNL     1      -7.811   7.939  69.754  1.00  0.00    -0.104 C  
HETATM   16  C   UNL     1     -10.922   9.028  71.746  1.00  0.00    -0.443 A  
HETATM   17  O   UNL     1      -7.422   6.946  70.705  1.00  0.00    -0.079 OA 
HETATM   18  O   UNL     1      -7.755  10.921  69.404  1.00  0.00    -0.134 OA 
HETATM   19  C   UNL     1     -12.157   8.519  72.175  1.00  0.00    -0.449 A  
HETATM   20  H   UNL     1      -6.812   6.321  70.331  1.00  0.00     0.000 HD 
HETATM   21  C   UNL     1     -12.673   7.362  71.602  1.00  0.00    -0.399 A  
HETATM   22  C   UNL     1     -11.949   6.712  70.608  1.00  0.00    -0.404 A  
HETATM   23  C   UNL     1     -10.713   7.219  70.179  1.00  0.00    -0.260 A  
ENDBRANCH  11  12
ENDBRANCH   5  11
TORSDOF 2
ENDMDL
MODEL       73
REMARK 921   NORMALIZED FREE ENERGY PREDICTED BY IDOCK:   -5.29 KCAL/MOL
REMARK 922        TOTAL FREE ENERGY PREDICTED BY IDOCK:   -6.42 KCAL/MOL
REMARK 923 INTER-LIGAND FREE ENERGY PREDICTED BY IDOCK:   -5.58 KCAL/MOL
REMARK 924 INTRA-LIGAND FREE ENERGY PREDICTED BY IDOCK:   -0.83 KCAL/MOL
REMARK 927      BINDING AFFINITY PREDICTED BY RF-SCORE:    0.00 PKD
ROOT
HETATM    1  C   UNL     1      -7.380  12.513  67.008  1.00  0.00     0.020 C  
HETATM    2  N   UNL     1      -8.329  11.455  66.777  1.00  0.00    -0.159 NA 
HETATM    3  C   UNL     1      -9.468  11.725  65.888  1.00  0.00    -0.223 C  
HETATM    4  C   UNL     1     -10.452  12.741  66.509  1.00  0.00    -0.276 C  
HETATM    5  C   UNL     1     -11.023  12.262  67.854  1.00  0.00    -0.224 C  
HETATM    6  C   UNL     1      -9.920  11.642  68.738  1.00  0.00    -0.147 C  
HETATM    7  O   UNL     1     -10.908   9.749  66.719  1.00  0.00    -0.134 OA 
HETATM    8  C   UNL     1      -8.910  10.768  67.939  1.00  0.00    -0.132 C  
HETATM    9  C   UNL     1      -9.952  10.282  65.806  1.00  0.00    -0.271 C  
HETATM   10  C   UNL     1      -9.551   9.651  67.126  1.00  0.00    -0.166 C  
ENDROOT
BRANCH   5  11
HETATM   11  O   UNL     1     -11.928  13.185  68.525  1.00  0.00    -0.337 OA 
BRANCH  11  12
HETATM   12  C   UNL     1     -11.913  13.374  69.859  1.00  0.00    -0.338 C  
HETATM   13  C   UNL     1     -10.510  15.513  69.295  1.00  0.00    -0.245 A  
HETATM   14  C   UNL     1     -11.381  14.742  70.293  1.00  0.00    -0.277 C  
HETATM   15  C   UNL     1     -12.566  15.522  70.887  1.00  0.00    -0.456 C  
HETATM   16  C   UNL     1      -9.163  15.137  69.125  1.00  0.00    -0.215 A  
HETATM   17  O   UNL     1     -12.128  16.591  71.726  1.00  0.00    -0.618 OA 
HETATM   18  O   UNL     1     -12.320  12.537  70.665  1.00  0.00    -0.355 OA 
HETATM   19  C   UNL     1      -8.303  15.852  68.279  1.00  0.00    -0.165 A  
HETATM   20  H   UNL     1     -12.860  17.073  72.093  1.00  0.00     0.000 HD 
HETATM   21  C   UNL     1      -8.770  16.964  67.586  1.00  0.00    -0.212 A  
HETATM   22  C   UNL     1     -10.093  17.362  67.748  1.00  0.00    -0.323 A  
HETATM   23  C   UNL     1     -10.953  16.649  68.595  1.00  0.00    -0.328 A  
ENDBRANCH  11  12
ENDBRANCH   5  11
TORSDOF 2
ENDMDL
MODEL       74
REMARK 921   NORMALIZED FREE ENERGY PREDICTED BY IDOCK:   -5.28 KCAL/MOL
REMARK 922        TOTAL FREE ENERGY PREDICTED BY IDOCK:   -6.41 KCAL/MOL
REMARK 923 INTER-LIGAND FREE ENERGY PREDICTED BY IDOCK:   -6.59 KCAL/MOL
REMARK 924 INTRA-LIGAND FREE ENERGY PREDICTED BY IDOCK:    0.19 KCAL/MOL
REMARK 927      BINDING AFFINITY PREDICTED BY RF-SCORE:    0.00 PKD
ROOT
HETATM    1  C   UNL     1      -7.219  19.290  66.188  1.00  0.00    -0.265 C  
HETATM    2  N   UNL     1      -6.373  18.417  66.961  1.00  0.00    -0.172 NA 
HETATM    3  C   UNL     1      -6.328  16.994  66.601  1.00  0.00    -0.212 C  
HETATM    4  C   UNL     1      -7.668  16.284  66.896  1.00  0.00    -0.278 C  
HETATM    5  C   UNL     1      -8.066  16.368  68.379  1.00  0.00    -0.188 C  
HETATM    6  C   UNL     1      -7.821  17.786  68.940  1.00  0.00    -0.186 C  
HETATM    7  O   UNL     1      -5.352  16.195  68.855  1.00  0.00    -0.109 OA 
HETATM    8  C   UNL     1      -6.503  18.433  68.425  1.00  0.00    -0.212 C  
HETATM    9  C   UNL     1      -5.161  16.635  67.512  1.00  0.00    -0.131 C  
HETATM   10  C   UNL     1      -5.254  17.600  68.678  1.00  0.00    -0.143 C  
ENDROOT
BRANCH   5  11
HETATM   11  O   UNL     1      -9.340  15.758  68.732  1.00  0.00    -0.195 OA 
BRANCH  11  12
HETATM   12  C   UNL     1     -10.481  16.468  68.830  1.00  0.00    -0.309 C  
HETATM   13  C   UNL     1     -11.663  14.151  68.521  1.00  0.00    -0.380 A  
HETATM   14  C   UNL     1     -11.742  15.613  68.974  1.00  0.00    -0.408 C  
HETATM   15  C   UNL     1     -12.285  15.842  70.395  1.00  0.00    -0.356 C  
HETATM   16  C   UNL     1     -11.722  13.855  67.145  1.00  0.00    -0.419 A  
HETATM   17  O   UNL     1     -13.664  15.483  70.499  1.00  0.00    -0.837 OA 
HETATM   18  O   UNL     1     -10.513  17.699  68.836  1.00  0.00    -0.351 OA 
HETATM   19  C   UNL     1     -11.725  12.532  66.679  1.00  0.00    -0.453 A  
HETATM   20  H   UNL     1     -13.999  15.624  71.376  1.00  0.00     0.000 HD 
HETATM   21  C   UNL     1     -11.674  11.473  67.579  1.00  0.00    -0.262 A  
HETATM   22  C   UNL     1     -11.629  11.741  68.943  1.00  0.00    -0.370 A  
HETATM   23  C   UNL     1     -11.627  13.063  69.411  1.00  0.00    -0.360 A  
ENDBRANCH  11  12
ENDBRANCH   5  11
TORSDOF 2
ENDMDL
MODEL       75
REMARK 921   NORMALIZED FREE ENERGY PREDICTED BY IDOCK:   -5.28 KCAL/MOL
REMARK 922        TOTAL FREE ENERGY PREDICTED BY IDOCK:   -6.41 KCAL/MOL
REMARK 923 INTER-LIGAND FREE ENERGY PREDICTED BY IDOCK:   -5.67 KCAL/MOL
REMARK 924 INTRA-LIGAND FREE ENERGY PREDICTED BY IDOCK:   -0.74 KCAL/MOL
REMARK 927      BINDING AFFINITY PREDICTED BY RF-SCORE:    0.00 PKD
ROOT
HETATM    1  C   UNL     1     -10.362  12.161  63.640  1.00  0.00    -0.452 C  
HETATM    2  N   UNL     1     -11.049  13.079  64.513  1.00  0.00    -0.332 NA 
HETATM    3  C   UNL     1     -10.244  14.018  65.306  1.00  0.00    -0.360 C  
HETATM    4  C   UNL     1      -9.419  13.293  66.391  1.00  0.00    -0.225 C  
HETATM    5  C   UNL     1     -10.300  12.503  67.373  1.00  0.00    -0.216 C  
HETATM    6  C   UNL     1     -11.410  11.732  66.627  1.00  0.00    -0.381 C  
HETATM    7  O   UNL     1     -12.104  14.562  67.014  1.00  0.00    -0.398 OA 
HETATM    8  C   UNL     1     -12.040  12.541  65.455  1.00  0.00    -0.419 C  
HETATM    9  C   UNL     1     -11.417  14.857  65.799  1.00  0.00    -0.281 C  
HETATM   10  C   UNL     1     -12.594  13.901  65.856  1.00  0.00    -0.456 C  
ENDROOT
BRANCH   5  11
HETATM   11  O   UNL     1      -9.593  11.755  68.403  1.00  0.00    -0.192 OA 
BRANCH  11  12
HETATM   12  C   UNL     1      -8.271  11.506  68.340  1.00  0.00    -0.152 C  
HETATM   13  C   UNL     1      -9.005   9.033  67.888  1.00  0.00    -0.135 A  
HETATM   14  C   UNL     1      -7.919  10.112  67.816  1.00  0.00    -0.102 C  
HETATM   15  C   UNL     1      -7.253  10.298  66.442  1.00  0.00    -0.113 C  
HETATM   16  C   UNL     1      -9.273   8.409  69.122  1.00  0.00    -0.150 A  
HETATM   17  O   UNL     1      -6.482   9.155  66.068  1.00  0.00    -0.066 OA 
HETATM   18  O   UNL     1      -7.411  12.334  68.644  1.00  0.00    -0.111 OA 
HETATM   19  C   UNL     1     -10.206   7.367  69.230  1.00  0.00    -0.199 A  
HETATM   20  H   UNL     1      -6.071   9.270  65.220  1.00  0.00     0.000 HD 
HETATM   21  C   UNL     1     -10.890   6.921  68.104  1.00  0.00    -0.258 A  
HETATM   22  C   UNL     1     -10.632   7.513  66.872  1.00  0.00    -0.367 A  
HETATM   23  C   UNL     1      -9.698   8.554  66.762  1.00  0.00    -0.303 A  
ENDBRANCH  11  12
ENDBRANCH   5  11
TORSDOF 2
ENDMDL
MODEL       76
REMARK 921   NORMALIZED FREE ENERGY PREDICTED BY IDOCK:   -5.26 KCAL/MOL
REMARK 922        TOTAL FREE ENERGY PREDICTED BY IDOCK:   -6.38 KCAL/MOL
REMARK 923 INTER-LIGAND FREE ENERGY PREDICTED BY IDOCK:   -5.87 KCAL/MOL
REMARK 924 INTRA-LIGAND FREE ENERGY PREDICTED BY IDOCK:   -0.51 KCAL/MOL
REMARK 927      BINDING AFFINITY PREDICTED BY RF-SCORE:    0.00 PKD
ROOT
HETATM    1  C   UNL     1      -9.733  10.500  65.425  1.00  0.00    -0.257 C  
HETATM    2  N   UNL     1      -9.098   9.395  66.096  1.00  0.00    -0.159 NA 
HETATM    3  C   UNL     1      -9.952   8.344  66.664  1.00  0.00    -0.284 C  
HETATM    4  C   UNL     1     -10.774   8.859  67.866  1.00  0.00    -0.185 C  
HETATM    5  C   UNL     1      -9.886   9.391  69.003  1.00  0.00    -0.169 C  
HETATM    6  C   UNL     1      -8.733  10.256  68.449  1.00  0.00    -0.129 C  
HETATM    7  O   UNL     1      -8.150   7.383  68.245  1.00  0.00    -0.121 OA 
HETATM    8  C   UNL     1      -8.109   9.685  67.143  1.00  0.00    -0.110 C  
HETATM    9  C   UNL     1      -8.821   7.375  66.987  1.00  0.00    -0.128 C  
HETATM   10  C   UNL     1      -7.612   8.250  67.258  1.00  0.00    -0.097 C  
ENDROOT
BRANCH   5  11
HETATM   11  O   UNL     1     -10.587   9.936  70.157  1.00  0.00    -0.257 OA 
BRANCH  11  12
HETATM   12  C   UNL     1     -11.929  10.039  70.208  1.00  0.00    -0.187 C  
HETATM   13  C   UNL     1     -11.796   7.893  71.702  1.00  0.00    -0.325 A  
HETATM   14  C   UNL     1     -12.592   9.114  71.230  1.00  0.00    -0.351 C  
HETATM   15  C   UNL     1     -13.168  10.006  72.343  1.00  0.00    -0.170 C  
HETATM   16  C   UNL     1     -11.708   6.764  70.864  1.00  0.00    -0.424 A  
HETATM   17  O   UNL     1     -14.182   9.332  73.090  1.00  0.00    -1.041 OA 
HETATM   18  O   UNL     1     -12.572  10.831  69.518  1.00  0.00    -0.293 OA 
HETATM   19  C   UNL     1     -11.052   5.594  71.275  1.00  0.00    -0.205 A  
HETATM   20  H   UNL     1     -14.537   9.882  73.778  1.00  0.00     0.000 HD 
HETATM   21  C   UNL     1     -10.473   5.524  72.537  1.00  0.00    -0.260 A  
HETATM   22  C   UNL     1     -10.558   6.622  73.388  1.00  0.00    -0.333 A  
HETATM   23  C   UNL     1     -11.215   7.791  72.979  1.00  0.00    -0.380 A  
ENDBRANCH  11  12
ENDBRANCH   5  11
TORSDOF 2
ENDMDL
MODEL       77
REMARK 921   NORMALIZED FREE ENERGY PREDICTED BY IDOCK:   -5.18 KCAL/MOL
REMARK 922        TOTAL FREE ENERGY PREDICTED BY IDOCK:   -6.29 KCAL/MOL
REMARK 923 INTER-LIGAND FREE ENERGY PREDICTED BY IDOCK:   -5.63 KCAL/MOL
REMARK 924 INTRA-LIGAND FREE ENERGY PREDICTED BY IDOCK:   -0.66 KCAL/MOL
REMARK 927      BINDING AFFINITY PREDICTED BY RF-SCORE:    0.00 PKD
ROOT
HETATM    1  C   UNL     1      -8.539   7.804  67.678  1.00  0.00    -0.123 C  
HETATM    2  N   UNL     1      -7.746   8.763  68.404  1.00  0.00    -0.095 NA 
HETATM    3  C   UNL     1      -8.419   9.609  69.399  1.00  0.00    -0.156 C  
HETATM    4  C   UNL     1      -9.389  10.613  68.738  1.00  0.00    -0.183 C  
HETATM    5  C   UNL     1      -8.681  11.549  67.743  1.00  0.00    -0.142 C  
HETATM    6  C   UNL     1      -7.682  10.770  66.861  1.00  0.00    -0.130 C  
HETATM    7  O   UNL     1      -6.560  11.399  69.503  1.00  0.00    -0.107 OA 
HETATM    8  C   UNL     1      -6.889   9.683  67.642  1.00  0.00    -0.082 C  
HETATM    9  C   UNL     1      -7.146  10.196  69.996  1.00  0.00    -0.154 C  
HETATM   10  C   UNL     1      -6.140  10.205  68.861  1.00  0.00    -0.043 C  
ENDROOT
BRANCH   5  11
HETATM   11  O   UNL     1      -9.536  12.499  67.045  1.00  0.00    -0.205 OA 
BRANCH  11  12
HETATM   12  C   UNL     1     -10.683  12.134  66.440  1.00  0.00    -0.257 C  
HETATM   13  C   UNL     1     -11.818  13.767  68.143  1.00  0.00    -0.411 A  
HETATM   14  C   UNL     1     -11.896  12.980  66.831  1.00  0.00    -0.442 C  
HETATM   15  C   UNL     1     -12.303  13.791  65.589  1.00  0.00    -0.482 C  
HETATM   16  C   UNL     1     -12.004  13.088  69.363  1.00  0.00    -0.338 A  
HETATM   17  O   UNL     1     -13.653  14.250  65.675  1.00  0.00    -0.633 OA 
HETATM   18  O   UNL     1     -10.751  11.221  65.617  1.00  0.00    -0.261 OA 
HETATM   19  C   UNL     1     -12.014  13.771  70.589  1.00  0.00    -0.340 A  
HETATM   20  H   UNL     1     -13.904  14.751  64.909  1.00  0.00     0.000 HD 
HETATM   21  C   UNL     1     -11.842  15.151  70.622  1.00  0.00    -0.371 A  
HETATM   22  C   UNL     1     -11.669  15.845  69.428  1.00  0.00    -0.350 A  
HETATM   23  C   UNL     1     -11.661  15.163  68.202  1.00  0.00    -0.323 A  
ENDBRANCH  11  12
ENDBRANCH   5  11
TORSDOF 2
ENDMDL
MODEL       78
REMARK 921   NORMALIZED FREE ENERGY PREDICTED BY IDOCK:   -5.17 KCAL/MOL
REMARK 922        TOTAL FREE ENERGY PREDICTED BY IDOCK:   -6.28 KCAL/MOL
REMARK 923 INTER-LIGAND FREE ENERGY PREDICTED BY IDOCK:   -5.57 KCAL/MOL
REMARK 924 INTRA-LIGAND FREE ENERGY PREDICTED BY IDOCK:   -0.71 KCAL/MOL
REMARK 927      BINDING AFFINITY PREDICTED BY RF-SCORE:    0.00 PKD
ROOT
HETATM    1  C   UNL     1     -12.526   7.284  70.964  1.00  0.00    -0.285 C  
HETATM    2  N   UNL     1     -11.204   7.857  70.995  1.00  0.00    -0.265 NA 
HETATM    3  C   UNL     1     -11.076   9.291  71.287  1.00  0.00    -0.357 C  
HETATM    4  C   UNL     1     -11.642  10.163  70.145  1.00  0.00    -0.350 C  
HETATM    5  C   UNL     1     -10.940   9.904  68.801  1.00  0.00    -0.179 C  
HETATM    6  C   UNL     1     -10.729   8.392  68.566  1.00  0.00    -0.069 C  
HETATM    7  O   UNL     1      -8.682   9.525  70.344  1.00  0.00    -0.217 OA 
HETATM    8  C   UNL     1     -10.311   7.622  69.852  1.00  0.00    -0.225 C  
HETATM    9  C   UNL     1      -9.560   9.288  71.443  1.00  0.00    -0.158 C  
HETATM   10  C   UNL     1      -9.069   8.173  70.539  1.00  0.00    -0.150 C  
ENDROOT
BRANCH   5  11
HETATM   11  O   UNL     1     -11.446  10.657  67.662  1.00  0.00    -0.474 OA 
BRANCH  11  12
HETATM   12  C   UNL     1     -11.091  11.934  67.423  1.00  0.00    -0.279 C  
HETATM   13  C   UNL     1      -9.225  10.879  65.918  1.00  0.00    -0.214 A  
HETATM   14  C   UNL     1     -10.068  12.101  66.297  1.00  0.00    -0.247 C  
HETATM   15  C   UNL     1     -10.787  12.804  65.132  1.00  0.00    -0.291 C  
HETATM   16  C   UNL     1      -8.139  10.514  66.737  1.00  0.00    -0.123 A  
HETATM   17  O   UNL     1      -9.862  13.418  64.233  1.00  0.00    -0.679 OA 
HETATM   18  O   UNL     1     -11.568  12.894  68.030  1.00  0.00    -0.298 OA 
HETATM   19  C   UNL     1      -7.292   9.448  66.399  1.00  0.00    -0.093 A  
HETATM   20  H   UNL     1     -10.305  13.852  63.514  1.00  0.00     0.000 HD 
HETATM   21  C   UNL     1      -7.509   8.725  65.231  1.00  0.00    -0.086 A  
HETATM   22  C   UNL     1      -8.569   9.075  64.400  1.00  0.00    -0.174 A  
HETATM   23  C   UNL     1      -9.415  10.142  64.736  1.00  0.00    -0.355 A  
ENDBRANCH  11  12
ENDBRANCH   5  11
TORSDOF 2
ENDMDL
MODEL       79
REMARK 921   NORMALIZED FREE ENERGY PREDICTED BY IDOCK:   -5.14 KCAL/MOL
REMARK 922        TOTAL FREE ENERGY PREDICTED BY IDOCK:   -6.24 KCAL/MOL
REMARK 923 INTER-LIGAND FREE ENERGY PREDICTED BY IDOCK:   -5.45 KCAL/MOL
REMARK 924 INTRA-LIGAND FREE ENERGY PREDICTED BY IDOCK:   -0.79 KCAL/MOL
REMARK 927      BINDING AFFINITY PREDICTED BY RF-SCORE:    0.00 PKD
ROOT
HETATM    1  C   UNL     1     -11.456  11.424  67.215  1.00  0.00    -0.224 C  
HETATM    2  N   UNL     1     -11.507  12.498  66.256  1.00  0.00    -0.348 NA 
HETATM    3  C   UNL     1     -10.241  13.105  65.823  1.00  0.00    -0.289 C  
HETATM    4  C   UNL     1      -9.561  13.891  66.965  1.00  0.00    -0.254 C  
HETATM    5  C   UNL     1     -10.447  15.023  67.512  1.00  0.00    -0.256 C  
HETATM    6  C   UNL     1     -11.908  14.551  67.683  1.00  0.00    -0.395 C  
HETATM    7  O   UNL     1     -11.302  15.270  64.899  1.00  0.00    -0.389 OA 
HETATM    8  C   UNL     1     -12.398  13.635  66.525  1.00  0.00    -0.361 C  
HETATM    9  C   UNL     1     -10.839  13.937  64.696  1.00  0.00    -0.408 C  
HETATM   10  C   UNL     1     -12.257  14.246  65.137  1.00  0.00    -0.421 C  
ENDROOT
BRANCH   5  11
HETATM   11  O   UNL     1      -9.894  15.786  68.622  1.00  0.00    -0.200 OA 
BRANCH  11  12
HETATM   12  C   UNL     1      -9.583  17.092  68.520  1.00  0.00    -0.288 C  
HETATM   13  C   UNL     1      -7.103  16.264  68.658  1.00  0.00    -0.155 A  
HETATM   14  C   UNL     1      -8.096  17.367  68.282  1.00  0.00    -0.249 C  
HETATM   15  C   UNL     1      -7.962  17.929  66.856  1.00  0.00    -0.227 C  
HETATM   16  C   UNL     1      -6.764  16.076  70.012  1.00  0.00     0.083 A  
HETATM   17  O   UNL     1      -6.735  18.640  66.681  1.00  0.00    -0.187 OA 
HETATM   18  O   UNL     1     -10.420  17.993  68.579  1.00  0.00    -0.357 OA 
HETATM   19  C   UNL     1      -5.807  15.129  70.405  1.00  0.00    -0.131 A  
HETATM   20  H   UNL     1      -6.652  18.987  65.801  1.00  0.00     0.000 HD 
HETATM   21  C   UNL     1      -5.162  14.349  69.452  1.00  0.00    -0.089 A  
HETATM   22  C   UNL     1      -5.471  14.525  68.106  1.00  0.00    -0.123 A  
HETATM   23  C   UNL     1      -6.426  15.473  67.712  1.00  0.00    -0.186 A  
ENDBRANCH  11  12
ENDBRANCH   5  11
TORSDOF 2
ENDMDL
MODEL       80
REMARK 921   NORMALIZED FREE ENERGY PREDICTED BY IDOCK:   -5.14 KCAL/MOL
REMARK 922        TOTAL FREE ENERGY PREDICTED BY IDOCK:   -6.24 KCAL/MOL
REMARK 923 INTER-LIGAND FREE ENERGY PREDICTED BY IDOCK:   -5.58 KCAL/MOL
REMARK 924 INTRA-LIGAND FREE ENERGY PREDICTED BY IDOCK:   -0.66 KCAL/MOL
REMARK 927      BINDING AFFINITY PREDICTED BY RF-SCORE:    0.00 PKD
ROOT
HETATM    1  C   UNL     1      -8.336   6.798  65.344  1.00  0.00    -0.122 C  
HETATM    2  N   UNL     1      -8.924   5.998  66.388  1.00  0.00    -0.141 NA 
HETATM    3  C   UNL     1     -10.327   6.246  66.747  1.00  0.00    -0.221 C  
HETATM    4  C   UNL     1     -10.511   7.622  67.424  1.00  0.00    -0.367 C  
HETATM    5  C   UNL     1      -9.678   7.762  68.709  1.00  0.00    -0.157 C  
HETATM    6  C   UNL     1      -8.253   7.202  68.512  1.00  0.00    -0.125 C  
HETATM    7  O   UNL     1     -10.209   5.074  69.045  1.00  0.00    -0.195 OA 
HETATM    8  C   UNL     1      -8.218   5.892  67.672  1.00  0.00    -0.105 C  
HETATM    9  C   UNL     1     -10.481   5.026  67.646  1.00  0.00    -0.005 C  
HETATM   10  C   UNL     1      -9.097   4.774  68.215  1.00  0.00    -0.117 C  
ENDROOT
BRANCH   5  11
HETATM   11  O   UNL     1      -9.764   9.049  69.386  1.00  0.00    -0.163 OA 
BRANCH  11  12
HETATM   12  C   UNL     1      -9.119   9.305  70.540  1.00  0.00    -0.259 C  
HETATM   13  C   UNL     1     -11.377   8.613  71.673  1.00  0.00    -0.377 A  
HETATM   14  C   UNL     1      -9.867   8.843  71.793  1.00  0.00    -0.386 C  
HETATM   15  C   UNL     1      -9.061   7.681  72.399  1.00  0.00    -0.143 C  
HETATM   16  C   UNL     1     -12.242   9.725  71.670  1.00  0.00    -0.488 A  
HETATM   17  O   UNL     1      -9.383   7.475  73.776  1.00  0.00    -0.247 OA 
HETATM   18  O   UNL     1      -8.009   9.836  70.591  1.00  0.00    -0.272 OA 
HETATM   19  C   UNL     1     -13.636   9.569  71.634  1.00  0.00    -0.426 A  
HETATM   20  H   UNL     1      -8.885   6.758  74.150  1.00  0.00     0.000 HD 
HETATM   21  C   UNL     1     -14.197   8.296  71.605  1.00  0.00    -0.530 A  
HETATM   22  C   UNL     1     -13.362   7.183  71.621  1.00  0.00    -0.397 A  
HETATM   23  C   UNL     1     -11.969   7.338  71.659  1.00  0.00    -0.341 A  
ENDBRANCH  11  12
ENDBRANCH   5  11
TORSDOF 2
ENDMDL
MODEL       81
REMARK 921   NORMALIZED FREE ENERGY PREDICTED BY IDOCK:   -5.12 KCAL/MOL
REMARK 922        TOTAL FREE ENERGY PREDICTED BY IDOCK:   -6.23 KCAL/MOL
REMARK 923 INTER-LIGAND FREE ENERGY PREDICTED BY IDOCK:   -5.57 KCAL/MOL
REMARK 924 INTRA-LIGAND FREE ENERGY PREDICTED BY IDOCK:   -0.66 KCAL/MOL
REMARK 927      BINDING AFFINITY PREDICTED BY RF-SCORE:    0.00 PKD
ROOT
HETATM    1  C   UNL     1      -8.140   6.721  67.916  1.00  0.00    -0.114 C  
HETATM    2  N   UNL     1      -7.847   7.843  68.772  1.00  0.00    -0.116 NA 
HETATM    3  C   UNL     1      -8.939   8.767  69.104  1.00  0.00    -0.137 C  
HETATM    4  C   UNL     1      -9.402   9.575  67.872  1.00  0.00    -0.145 C  
HETATM    5  C   UNL     1      -8.268  10.409  67.253  1.00  0.00    -0.121 C  
HETATM    6  C   UNL     1      -6.958   9.595  67.175  1.00  0.00    -0.085 C  
HETATM    7  O   UNL     1      -7.406  10.704  69.859  1.00  0.00    -0.150 OA 
HETATM    8  C   UNL     1      -6.709   8.708  68.429  1.00  0.00    -0.064 C  
HETATM    9  C   UNL     1      -8.173   9.543  70.170  1.00  0.00    -0.177 C  
HETATM   10  C   UNL     1      -6.718   9.467  69.748  1.00  0.00    -0.057 C  
ENDROOT
BRANCH   5  11
HETATM   11  O   UNL     1      -8.614  11.168  66.060  1.00  0.00    -0.172 OA 
BRANCH  11  12
HETATM   12  C   UNL     1      -9.552  10.756  65.186  1.00  0.00    -0.245 C  
HETATM   13  C   UNL     1     -10.918  12.815  66.054  1.00  0.00    -0.306 A  
HETATM   14  C   UNL     1     -10.692  11.755  64.971  1.00  0.00    -0.344 C  
HETATM   15  C   UNL     1     -10.566  12.285  63.533  1.00  0.00    -0.448 C  
HETATM   16  C   UNL     1     -11.573  12.451  67.246  1.00  0.00    -0.435 A  
HETATM   17  O   UNL     1     -11.794  12.846  63.067  1.00  0.00    -0.827 OA 
HETATM   18  O   UNL     1      -9.490   9.685  64.582  1.00  0.00    -0.263 OA 
HETATM   19  C   UNL     1     -11.869  13.397  68.239  1.00  0.00    -0.393 A  
HETATM   20  H   UNL     1     -11.717  13.174  62.179  1.00  0.00     0.000 HD 
HETATM   21  C   UNL     1     -11.519  14.731  68.060  1.00  0.00    -0.351 A  
HETATM   22  C   UNL     1     -10.882  15.117  66.885  1.00  0.00    -0.317 A  
HETATM   23  C   UNL     1     -10.588  14.172  65.891  1.00  0.00    -0.301 A  
ENDBRANCH  11  12
ENDBRANCH   5  11
TORSDOF 2
ENDMDL
MODEL       82
REMARK 921   NORMALIZED FREE ENERGY PREDICTED BY IDOCK:   -5.11 KCAL/MOL
REMARK 922        TOTAL FREE ENERGY PREDICTED BY IDOCK:   -6.21 KCAL/MOL
REMARK 923 INTER-LIGAND FREE ENERGY PREDICTED BY IDOCK:   -5.62 KCAL/MOL
REMARK 924 INTRA-LIGAND FREE ENERGY PREDICTED BY IDOCK:   -0.59 KCAL/MOL
REMARK 927      BINDING AFFINITY PREDICTED BY RF-SCORE:    0.00 PKD
ROOT
HETATM    1  C   UNL     1     -10.001  11.126  65.158  1.00  0.00    -0.272 C  
HETATM    2  N   UNL     1     -10.302  12.219  66.046  1.00  0.00    -0.240 NA 
HETATM    3  C   UNL     1      -9.269  12.645  67.000  1.00  0.00    -0.212 C  
HETATM    4  C   UNL     1      -9.012  11.576  68.084  1.00  0.00    -0.172 C  
HETATM    5  C   UNL     1     -10.275  11.243  68.895  1.00  0.00    -0.180 C  
HETATM    6  C   UNL     1     -11.507  11.107  67.975  1.00  0.00    -0.366 C  
HETATM    7  O   UNL     1     -10.882  13.916  68.566  1.00  0.00    -0.243 OA 
HETATM    8  C   UNL     1     -11.542  12.162  66.832  1.00  0.00    -0.341 C  
HETATM    9  C   UNL     1      -9.985  13.910  67.458  1.00  0.00    -0.240 C  
HETATM   10  C   UNL     1     -11.464  13.606  67.309  1.00  0.00    -0.343 C  
ENDROOT
BRANCH   5  11
HETATM   11  O   UNL     1     -10.126  10.210  69.911  1.00  0.00    -0.244 OA 
BRANCH  11  12
HETATM   12  C   UNL     1     -11.127   9.860  70.741  1.00  0.00    -0.347 C  
HETATM   13  C   UNL     1     -10.522   7.409  70.044  1.00  0.00    -0.233 A  
HETATM   14  C   UNL     1     -11.205   8.359  71.033  1.00  0.00    -0.304 C  
HETATM   15  C   UNL     1     -10.830   8.165  72.512  1.00  0.00    -0.361 C  
HETATM   16  C   UNL     1     -11.157   7.118  68.821  1.00  0.00    -0.019 A  
HETATM   17  O   UNL     1     -11.300   6.914  73.017  1.00  0.00    -0.469 OA 
HETATM   18  O   UNL     1     -11.898  10.673  71.252  1.00  0.00    -0.302 OA 
HETATM   19  C   UNL     1     -10.612   6.201  67.911  1.00  0.00    -0.331 A  
HETATM   20  H   UNL     1     -11.069   6.794  73.930  1.00  0.00     0.000 HD 
HETATM   21  C   UNL     1      -9.419   5.549  68.205  1.00  0.00    -0.133 A  
HETATM   22  C   UNL     1      -8.780   5.810  69.412  1.00  0.00    -0.111 A  
HETATM   23  C   UNL     1      -9.325   6.726  70.324  1.00  0.00    -0.159 A  
ENDBRANCH  11  12
ENDBRANCH   5  11
TORSDOF 2
ENDMDL
MODEL       83
REMARK 921   NORMALIZED FREE ENERGY PREDICTED BY IDOCK:   -5.09 KCAL/MOL
REMARK 922        TOTAL FREE ENERGY PREDICTED BY IDOCK:   -6.19 KCAL/MOL
REMARK 923 INTER-LIGAND FREE ENERGY PREDICTED BY IDOCK:   -5.40 KCAL/MOL
REMARK 924 INTRA-LIGAND FREE ENERGY PREDICTED BY IDOCK:   -0.79 KCAL/MOL
REMARK 927      BINDING AFFINITY PREDICTED BY RF-SCORE:    0.00 PKD
ROOT
HETATM    1  C   UNL     1      -8.711   6.969  66.286  1.00  0.00    -0.146 C  
HETATM    2  N   UNL     1      -8.558   8.389  66.097  1.00  0.00    -0.132 NA 
HETATM    3  C   UNL     1      -7.625   9.111  66.972  1.00  0.00    -0.091 C  
HETATM    4  C   UNL     1      -8.127   9.159  68.432  1.00  0.00    -0.104 C  
HETATM    5  C   UNL     1      -9.498   9.843  68.562  1.00  0.00    -0.146 C  
HETATM    6  C   UNL     1     -10.459   9.378  67.447  1.00  0.00    -0.343 C  
HETATM    7  O   UNL     1      -8.605  11.454  66.507  1.00  0.00    -0.169 OA 
HETATM    8  C   UNL     1      -9.767   9.225  66.062  1.00  0.00    -0.289 C  
HETATM    9  C   UNL     1      -7.666  10.425  66.202  1.00  0.00    -0.129 C  
HETATM   10  C   UNL     1      -9.048  10.477  65.577  1.00  0.00    -0.186 C  
ENDROOT
BRANCH   5  11
HETATM   11  O   UNL     1     -10.061   9.890  69.905  1.00  0.00    -0.230 OA 
BRANCH  11  12
HETATM   12  C   UNL     1     -11.387   9.946  70.133  1.00  0.00    -0.275 C  
HETATM   13  C   UNL     1     -11.140   7.417  70.765  1.00  0.00    -0.285 A  
HETATM   14  C   UNL     1     -11.956   8.712  70.836  1.00  0.00    -0.220 C  
HETATM   15  C   UNL     1     -12.390   9.152  72.245  1.00  0.00    -0.309 C  
HETATM   16  C   UNL     1     -11.167   6.652  69.582  1.00  0.00    -0.397 A  
HETATM   17  O   UNL     1     -13.331   8.242  72.816  1.00  0.00    -0.587 OA 
HETATM   18  O   UNL     1     -12.084  10.917  69.835  1.00  0.00    -0.309 OA 
HETATM   19  C   UNL     1     -10.497   5.423  69.488  1.00  0.00    -0.343 A  
HETATM   20  H   UNL     1     -13.599   8.513  73.686  1.00  0.00     0.000 HD 
HETATM   21  C   UNL     1      -9.786   4.929  70.576  1.00  0.00    -0.297 A  
HETATM   22  C   UNL     1      -9.756   5.661  71.760  1.00  0.00    -0.192 A  
HETATM   23  C   UNL     1     -10.428   6.888  71.856  1.00  0.00    -0.224 A  
ENDBRANCH  11  12
ENDBRANCH   5  11
TORSDOF 2
ENDMDL
MODEL       84
REMARK 921   NORMALIZED FREE ENERGY PREDICTED BY IDOCK:   -5.09 KCAL/MOL
REMARK 922        TOTAL FREE ENERGY PREDICTED BY IDOCK:   -6.19 KCAL/MOL
REMARK 923 INTER-LIGAND FREE ENERGY PREDICTED BY IDOCK:   -5.43 KCAL/MOL
REMARK 924 INTRA-LIGAND FREE ENERGY PREDICTED BY IDOCK:   -0.76 KCAL/MOL
REMARK 927      BINDING AFFINITY PREDICTED BY RF-SCORE:    0.00 PKD
ROOT
HETATM    1  C   UNL     1      -7.717   6.951  68.107  1.00  0.00    -0.113 C  
HETATM    2  N   UNL     1      -8.229   5.843  68.872  1.00  0.00    -0.102 NA 
HETATM    3  C   UNL     1      -9.519   5.262  68.477  1.00  0.00    -0.128 C  
HETATM    4  C   UNL     1     -10.690   6.236  68.731  1.00  0.00    -0.352 C  
HETATM    5  C   UNL     1     -10.807   6.645  70.209  1.00  0.00    -0.271 C  
HETATM    6  C   UNL     1      -9.419   6.957  70.810  1.00  0.00    -0.165 C  
HETATM    7  O   UNL     1      -9.958   4.070  70.725  1.00  0.00    -0.188 OA 
HETATM    8  C   UNL     1      -8.308   5.978  70.333  1.00  0.00    -0.124 C  
HETATM    9  C   UNL     1      -9.438   4.050  69.397  1.00  0.00    -0.189 C  
HETATM   10  C   UNL     1      -8.614   4.508  70.586  1.00  0.00    -0.094 C  
ENDROOT
BRANCH   5  11
HETATM   11  O   UNL     1     -11.862   7.597  70.524  1.00  0.00    -0.210 OA 
BRANCH  11  12
HETATM   12  C   UNL     1     -11.819   8.395  71.609  1.00  0.00    -0.304 C  
HETATM   13  C   UNL     1     -11.184  10.275  69.901  1.00  0.00    -0.360 A  
HETATM   14  C   UNL     1     -11.707   9.887  71.287  1.00  0.00    -0.472 C  
HETATM   15  C   UNL     1     -13.034  10.542  71.708  1.00  0.00    -0.476 C  
HETATM   16  C   UNL     1      -9.801  10.202  69.643  1.00  0.00    -0.254 A  
HETATM   17  O   UNL     1     -12.893  11.952  71.890  1.00  0.00    -0.341 OA 
HETATM   18  O   UNL     1     -11.895   7.972  72.763  1.00  0.00    -0.372 OA 
HETATM   19  C   UNL     1      -9.261  10.613  68.415  1.00  0.00    -0.159 A  
HETATM   20  H   UNL     1     -13.712  12.357  72.150  1.00  0.00     0.000 HD 
HETATM   21  C   UNL     1     -10.091  11.111  67.417  1.00  0.00    -0.213 A  
HETATM   22  C   UNL     1     -11.459  11.205  67.653  1.00  0.00    -0.328 A  
HETATM   23  C   UNL     1     -12.000  10.796  68.881  1.00  0.00    -0.210 A  
ENDBRANCH  11  12
ENDBRANCH   5  11
TORSDOF 2
ENDMDL
MODEL       85
REMARK 921   NORMALIZED FREE ENERGY PREDICTED BY IDOCK:   -5.08 KCAL/MOL
REMARK 922        TOTAL FREE ENERGY PREDICTED BY IDOCK:   -6.18 KCAL/MOL
REMARK 923 INTER-LIGAND FREE ENERGY PREDICTED BY IDOCK:   -5.43 KCAL/MOL
REMARK 924 INTRA-LIGAND FREE ENERGY PREDICTED BY IDOCK:   -0.76 KCAL/MOL
REMARK 927      BINDING AFFINITY PREDICTED BY RF-SCORE:    0.00 PKD
ROOT
HETATM    1  C   UNL     1      -7.642   5.703  71.681  1.00  0.00    -0.099 C  
HETATM    2  N   UNL     1      -8.734   5.033  72.340  1.00  0.00    -0.123 NA 
HETATM    3  C   UNL     1      -9.817   4.488  71.511  1.00  0.00    -0.190 C  
HETATM    4  C   UNL     1     -10.647   5.606  70.843  1.00  0.00    -0.328 C  
HETATM    5  C   UNL     1     -11.288   6.557  71.867  1.00  0.00    -0.285 C  
HETATM    6  C   UNL     1     -10.290   6.922  72.987  1.00  0.00    -0.269 C  
HETATM    7  O   UNL     1     -11.532   4.297  73.433  1.00  0.00    -0.280 OA 
HETATM    8  C   UNL     1      -9.413   5.722  73.446  1.00  0.00    -0.138 C  
HETATM    9  C   UNL     1     -10.504   3.717  72.632  1.00  0.00    -0.116 C  
HETATM   10  C   UNL     1     -10.205   4.501  73.896  1.00  0.00    -0.197 C  
ENDROOT
BRANCH   5  11
HETATM   11  O   UNL     1     -12.053   7.666  71.315  1.00  0.00    -0.302 OA 
BRANCH  11  12
HETATM   12  C   UNL     1     -12.205   8.837  71.963  1.00  0.00    -0.377 C  
HETATM   13  C   UNL     1     -10.316   9.690  70.362  1.00  0.00    -0.350 A  
HETATM   14  C   UNL     1     -11.472  10.013  71.314  1.00  0.00    -0.390 C  
HETATM   15  C   UNL     1     -12.545  10.967  70.762  1.00  0.00    -0.377 C  
HETATM   16  C   UNL     1      -9.068   9.317  70.898  1.00  0.00    -0.288 A  
HETATM   17  O   UNL     1     -12.028  12.283  70.556  1.00  0.00    -0.472 OA 
HETATM   18  O   UNL     1     -12.898   8.966  72.973  1.00  0.00    -0.271 OA 
HETATM   19  C   UNL     1      -7.957   9.080  70.075  1.00  0.00    -0.113 A  
HETATM   20  H   UNL     1     -12.690  12.872  70.215  1.00  0.00     0.000 HD 
HETATM   21  C   UNL     1      -8.068   9.214  68.695  1.00  0.00    -0.102 A  
HETATM   22  C   UNL     1      -9.287   9.593  68.143  1.00  0.00    -0.140 A  
HETATM   23  C   UNL     1     -10.398   9.833  68.966  1.00  0.00    -0.222 A  
ENDBRANCH  11  12
ENDBRANCH   5  11
TORSDOF 2
ENDMDL
MODEL       86
REMARK 921   NORMALIZED FREE ENERGY PREDICTED BY IDOCK:   -5.07 KCAL/MOL
REMARK 922        TOTAL FREE ENERGY PREDICTED BY IDOCK:   -6.17 KCAL/MOL
REMARK 923 INTER-LIGAND FREE ENERGY PREDICTED BY IDOCK:   -5.75 KCAL/MOL
REMARK 924 INTRA-LIGAND FREE ENERGY PREDICTED BY IDOCK:   -0.42 KCAL/MOL
REMARK 927      BINDING AFFINITY PREDICTED BY RF-SCORE:    0.00 PKD
ROOT
HETATM    1  C   UNL     1      -8.705   6.466  71.577  1.00  0.00    -0.134 C  
HETATM    2  N   UNL     1      -9.926   7.230  71.598  1.00  0.00    -0.180 NA 
HETATM    3  C   UNL     1     -10.845   7.104  70.459  1.00  0.00    -0.246 C  
HETATM    4  C   UNL     1     -10.252   7.716  69.172  1.00  0.00    -0.204 C  
HETATM    5  C   UNL     1      -9.918   9.209  69.329  1.00  0.00    -0.187 C  
HETATM    6  C   UNL     1      -9.233   9.487  70.684  1.00  0.00    -0.243 C  
HETATM    7  O   UNL     1     -12.152   9.277  70.950  1.00  0.00    -0.286 OA 
HETATM    8  C   UNL     1      -9.845   8.673  71.861  1.00  0.00    -0.314 C  
HETATM    9  C   UNL     1     -11.999   7.867  71.099  1.00  0.00    -0.285 C  
HETATM   10  C   UNL     1     -11.345   8.860  72.041  1.00  0.00    -0.357 C  
ENDROOT
BRANCH   5  11
HETATM   11  O   UNL     1      -9.314   9.852  68.170  1.00  0.00    -0.131 OA 
BRANCH  11  12
HETATM   12  C   UNL     1      -9.887   9.836  66.951  1.00  0.00    -0.201 C  
HETATM   13  C   UNL     1     -10.569  12.303  67.507  1.00  0.00    -0.242 A  
HETATM   14  C   UNL     1     -10.349  11.209  66.457  1.00  0.00    -0.290 C  
HETATM   15  C   UNL     1      -9.446  11.592  65.272  1.00  0.00    -0.184 C  
HETATM   16  C   UNL     1     -11.742  12.282  68.286  1.00  0.00    -0.392 A  
HETATM   17  O   UNL     1     -10.048  12.595  64.452  1.00  0.00    -0.479 OA 
HETATM   18  O   UNL     1     -10.003   8.816  66.272  1.00  0.00    -0.283 OA 
HETATM   19  C   UNL     1     -12.027  13.297  69.211  1.00  0.00    -0.354 A  
HETATM   20  H   UNL     1      -9.490  12.832  63.720  1.00  0.00     0.000 HD 
HETATM   21  C   UNL     1     -11.146  14.361  69.375  1.00  0.00    -0.294 A  
HETATM   22  C   UNL     1      -9.987  14.410  68.607  1.00  0.00    -0.241 A  
HETATM   23  C   UNL     1      -9.702  13.396  67.681  1.00  0.00    -0.222 A  
ENDBRANCH  11  12
ENDBRANCH   5  11
TORSDOF 2
ENDMDL
MODEL       87
REMARK 921   NORMALIZED FREE ENERGY PREDICTED BY IDOCK:   -5.06 KCAL/MOL
REMARK 922        TOTAL FREE ENERGY PREDICTED BY IDOCK:   -6.15 KCAL/MOL
REMARK 923 INTER-LIGAND FREE ENERGY PREDICTED BY IDOCK:   -5.44 KCAL/MOL
REMARK 924 INTRA-LIGAND FREE ENERGY PREDICTED BY IDOCK:   -0.72 KCAL/MOL
REMARK 927      BINDING AFFINITY PREDICTED BY RF-SCORE:    0.00 PKD
ROOT
HETATM    1  C   UNL     1      -9.672   8.657  66.919  1.00  0.00    -0.214 C  
HETATM    2  N   UNL     1      -9.816   7.258  66.607  1.00  0.00    -0.205 NA 
HETATM    3  C   UNL     1     -11.039   6.571  67.043  1.00  0.00    -0.339 C  
HETATM    4  C   UNL     1     -11.107   6.439  68.580  1.00  0.00    -0.385 C  
HETATM    5  C   UNL     1      -9.914   5.660  69.158  1.00  0.00    -0.183 C  
HETATM    6  C   UNL     1      -8.590   6.098  68.495  1.00  0.00    -0.113 C  
HETATM    7  O   UNL     1     -10.075   4.184  66.831  1.00  0.00    -0.167 OA 
HETATM    8  C   UNL     1      -8.721   6.345  66.964  1.00  0.00    -0.115 C  
HETATM    9  C   UNL     1     -10.785   5.284  66.266  1.00  0.00    -0.196 C  
HETATM   10  C   UNL     1      -9.276   5.162  66.182  1.00  0.00    -0.151 C  
ENDROOT
BRANCH   5  11
HETATM   11  O   UNL     1      -9.882   5.528  70.608  1.00  0.00    -0.174 OA 
BRANCH  11  12
HETATM   12  C   UNL     1      -8.822   5.907  71.348  1.00  0.00    -0.136 C  
HETATM   13  C   UNL     1     -10.213   8.082  71.787  1.00  0.00    -0.260 A  
HETATM   14  C   UNL     1      -9.064   7.156  72.199  1.00  0.00    -0.143 C  
HETATM   15  C   UNL     1      -9.062   6.709  73.671  1.00  0.00    -0.136 C  
HETATM   16  C   UNL     1     -10.032   8.961  70.701  1.00  0.00    -0.265 A  
HETATM   17  O   UNL     1      -8.818   7.803  74.556  1.00  0.00    -0.434 OA 
HETATM   18  O   UNL     1      -7.757   5.290  71.368  1.00  0.00    -0.100 OA 
HETATM   19  C   UNL     1     -11.024   9.879  70.327  1.00  0.00    -0.366 A  
HETATM   20  H   UNL     1      -8.817   7.528  75.465  1.00  0.00     0.000 HD 
HETATM   21  C   UNL     1     -12.220   9.944  71.034  1.00  0.00    -0.446 A  
HETATM   22  C   UNL     1     -12.417   9.094  72.118  1.00  0.00    -0.436 A  
HETATM   23  C   UNL     1     -11.425   8.177  72.494  1.00  0.00    -0.470 A  
ENDBRANCH  11  12
ENDBRANCH   5  11
TORSDOF 2
ENDMDL
MODEL       88
REMARK 921   NORMALIZED FREE ENERGY PREDICTED BY IDOCK:   -5.04 KCAL/MOL
REMARK 922        TOTAL FREE ENERGY PREDICTED BY IDOCK:   -6.14 KCAL/MOL
REMARK 923 INTER-LIGAND FREE ENERGY PREDICTED BY IDOCK:   -5.42 KCAL/MOL
REMARK 924 INTRA-LIGAND FREE ENERGY PREDICTED BY IDOCK:   -0.72 KCAL/MOL
REMARK 927      BINDING AFFINITY PREDICTED BY RF-SCORE:    0.00 PKD
ROOT
HETATM    1  C   UNL     1      -7.179   9.511  69.845  1.00  0.00    -0.093 C  
HETATM    2  N   UNL     1      -7.122   8.921  68.532  1.00  0.00    -0.072 NA 
HETATM    3  C   UNL     1      -6.450   9.670  67.462  1.00  0.00    -0.069 C  
HETATM    4  C   UNL     1      -7.234  10.942  67.073  1.00  0.00    -0.114 C  
HETATM    5  C   UNL     1      -8.660  10.631  66.588  1.00  0.00    -0.139 C  
HETATM    6  C   UNL     1      -9.334   9.573  67.488  1.00  0.00    -0.146 C  
HETATM    7  O   UNL     1      -7.527   8.353  65.519  1.00  0.00    -0.081 OA 
HETATM    8  C   UNL     1      -8.370   8.434  67.928  1.00  0.00    -0.131 C  
HETATM    9  C   UNL     1      -6.457   8.536  66.444  1.00  0.00    -0.058 C  
HETATM   10  C   UNL     1      -7.686   7.711  66.776  1.00  0.00    -0.102 C  
ENDROOT
BRANCH   5  11
HETATM   11  O   UNL     1      -9.480  11.784  66.242  1.00  0.00    -0.214 OA 
BRANCH  11  12
HETATM   12  C   UNL     1     -10.616  11.676  65.526  1.00  0.00    -0.279 C  
HETATM   13  C   UNL     1     -11.731  12.874  67.571  1.00  0.00    -0.422 A  
HETATM   14  C   UNL     1     -11.794  12.473  66.093  1.00  0.00    -0.459 C  
HETATM   15  C   UNL     1     -12.088  13.613  65.103  1.00  0.00    -0.403 C  
HETATM   16  C   UNL     1     -12.017  11.911  68.557  1.00  0.00    -0.273 A  
HETATM   17  O   UNL     1     -13.411  14.128  65.269  1.00  0.00    -0.715 OA 
HETATM   18  O   UNL     1     -10.701  11.022  64.487  1.00  0.00    -0.341 OA 
HETATM   19  C   UNL     1     -12.045  12.242  69.920  1.00  0.00    -0.319 A  
HETATM   20  H   UNL     1     -13.593  14.832  64.658  1.00  0.00     0.000 HD 
HETATM   21  C   UNL     1     -11.791  13.547  70.328  1.00  0.00    -0.327 A  
HETATM   22  C   UNL     1     -11.518  14.519  69.371  1.00  0.00    -0.323 A  
HETATM   23  C   UNL     1     -11.492  14.189  68.008  1.00  0.00    -0.342 A  
ENDBRANCH  11  12
ENDBRANCH   5  11
TORSDOF 2
ENDMDL
MODEL       89
REMARK 921   NORMALIZED FREE ENERGY PREDICTED BY IDOCK:   -5.03 KCAL/MOL
REMARK 922        TOTAL FREE ENERGY PREDICTED BY IDOCK:   -6.12 KCAL/MOL
REMARK 923 INTER-LIGAND FREE ENERGY PREDICTED BY IDOCK:   -5.43 KCAL/MOL
REMARK 924 INTRA-LIGAND FREE ENERGY PREDICTED BY IDOCK:   -0.68 KCAL/MOL
REMARK 927      BINDING AFFINITY PREDICTED BY RF-SCORE:    0.00 PKD
ROOT
HETATM    1  C   UNL     1      -9.822   4.511  65.332  1.00  0.00    -0.191 C  
HETATM    2  N   UNL     1      -9.181   4.961  66.540  1.00  0.00    -0.129 NA 
HETATM    3  C   UNL     1     -10.022   5.243  67.711  1.00  0.00    -0.162 C  
HETATM    4  C   UNL     1     -10.917   6.482  67.489  1.00  0.00    -0.444 C  
HETATM    5  C   UNL     1     -10.103   7.753  67.194  1.00  0.00    -0.258 C  
HETATM    6  C   UNL     1      -8.957   7.461  66.201  1.00  0.00    -0.182 C  
HETATM    7  O   UNL     1      -8.263   6.675  68.946  1.00  0.00    -0.117 OA 
HETATM    8  C   UNL     1      -8.252   6.098  66.459  1.00  0.00    -0.111 C  
HETATM    9  C   UNL     1      -8.873   5.410  68.698  1.00  0.00    -0.103 C  
HETATM   10  C   UNL     1      -7.711   5.928  67.872  1.00  0.00    -0.100 C  
ENDROOT
BRANCH   5  11
HETATM   11  O   UNL     1     -10.877   8.958  66.931  1.00  0.00    -0.162 OA 
BRANCH  11  12
HETATM   12  C   UNL     1     -10.307  10.172  66.800  1.00  0.00    -0.222 C  
HETATM   13  C   UNL     1     -10.701  10.366  69.382  1.00  0.00    -0.277 A  
HETATM   14  C   UNL     1      -9.966  10.851  68.128  1.00  0.00    -0.188 C  
HETATM   15  C   UNL     1      -8.432  10.901  68.231  1.00  0.00    -0.134 C  
HETATM   16  C   UNL     1     -12.027  10.784  69.606  1.00  0.00    -0.385 A  
HETATM   17  O   UNL     1      -7.996  11.891  69.163  1.00  0.00    -0.347 OA 
HETATM   18  O   UNL     1     -10.050  10.684  65.710  1.00  0.00    -0.245 OA 
HETATM   19  C   UNL     1     -12.722  10.428  70.772  1.00  0.00    -0.460 A  
HETATM   20  H   UNL     1      -7.049  11.922  69.227  1.00  0.00     0.000 HD 
HETATM   21  C   UNL     1     -12.104   9.648  71.743  1.00  0.00    -0.446 A  
HETATM   22  C   UNL     1     -10.790   9.234  71.550  1.00  0.00    -0.442 A  
HETATM   23  C   UNL     1     -10.094   9.591  70.386  1.00  0.00    -0.329 A  
ENDBRANCH  11  12
ENDBRANCH   5  11
TORSDOF 2
ENDMDL
MODEL       90
REMARK 921   NORMALIZED FREE ENERGY PREDICTED BY IDOCK:   -5.02 KCAL/MOL
REMARK 922        TOTAL FREE ENERGY PREDICTED BY IDOCK:   -6.12 KCAL/MOL
REMARK 923 INTER-LIGAND FREE ENERGY PREDICTED BY IDOCK:   -5.41 KCAL/MOL
REMARK 924 INTRA-LIGAND FREE ENERGY PREDICTED BY IDOCK:   -0.71 KCAL/MOL
REMARK 927      BINDING AFFINITY PREDICTED BY RF-SCORE:    0.00 PKD
ROOT
HETATM    1  C   UNL     1      -9.696  15.502  65.924  1.00  0.00    -0.357 C  
HETATM    2  N   UNL     1     -10.854  14.778  65.466  1.00  0.00    -0.330 NA 
HETATM    3  C   UNL     1     -11.887  14.425  66.449  1.00  0.00    -0.388 C  
HETATM    4  C   UNL     1     -11.382  13.370  67.459  1.00  0.00    -0.327 C  
HETATM    5  C   UNL     1     -10.935  12.067  66.776  1.00  0.00    -0.285 C  
HETATM    6  C   UNL     1     -10.102  12.361  65.509  1.00  0.00    -0.287 C  
HETATM    7  O   UNL     1     -12.989  12.587  65.007  1.00  0.00    -0.779 OA 
HETATM    8  C   UNL     1     -10.650  13.556  64.676  1.00  0.00    -0.427 C  
HETATM    9  C   UNL     1     -12.918  13.946  65.434  1.00  0.00    -0.326 C  
HETATM   10  C   UNL     1     -12.109  13.418  64.264  1.00  0.00    -0.424 C  
ENDROOT
BRANCH   5  11
HETATM   11  O   UNL     1     -10.404  11.036  67.658  1.00  0.00    -0.179 OA 
BRANCH  11  12
HETATM   12  C   UNL     1      -9.889   9.881  67.195  1.00  0.00    -0.186 C  
HETATM   13  C   UNL     1      -7.632  10.774  68.178  1.00  0.00    -0.093 A  
HETATM   14  C   UNL     1      -8.466   9.591  67.675  1.00  0.00    -0.122 C  
HETATM   15  C   UNL     1      -8.544   8.380  68.620  1.00  0.00    -0.132 C  
HETATM   16  C   UNL     1      -7.048  11.650  67.242  1.00  0.00    -0.134 A  
HETATM   17  O   UNL     1      -7.276   7.738  68.763  1.00  0.00    -0.077 OA 
HETATM   18  O   UNL     1     -10.515   9.103  66.473  1.00  0.00    -0.228 OA 
HETATM   19  C   UNL     1      -6.218  12.707  67.644  1.00  0.00    -0.148 A  
HETATM   20  H   UNL     1      -7.323   6.990  69.347  1.00  0.00     0.000 HD 
HETATM   21  C   UNL     1      -5.949  12.910  68.993  1.00  0.00    -0.084 A  
HETATM   22  C   UNL     1      -6.505  12.050  69.936  1.00  0.00    -0.029 A  
HETATM   23  C   UNL     1      -7.334  10.992  69.534  1.00  0.00    -0.064 A  
ENDBRANCH  11  12
ENDBRANCH   5  11
TORSDOF 2
ENDMDL
MODEL       91
REMARK 921   NORMALIZED FREE ENERGY PREDICTED BY IDOCK:   -5.02 KCAL/MOL
REMARK 922        TOTAL FREE ENERGY PREDICTED BY IDOCK:   -6.11 KCAL/MOL
REMARK 923 INTER-LIGAND FREE ENERGY PREDICTED BY IDOCK:   -5.50 KCAL/MOL
REMARK 924 INTRA-LIGAND FREE ENERGY PREDICTED BY IDOCK:   -0.61 KCAL/MOL
REMARK 927      BINDING AFFINITY PREDICTED BY RF-SCORE:    0.00 PKD
ROOT
HETATM    1  C   UNL     1     -11.776  15.752  64.560  1.00  0.00    -0.191 C  
HETATM    2  N   UNL     1     -11.790  14.334  64.304  1.00  0.00    -0.407 NA 
HETATM    3  C   UNL     1     -12.644  13.485  65.146  1.00  0.00    -0.436 C  
HETATM    4  C   UNL     1     -12.131  13.419  66.601  1.00  0.00    -0.429 C  
HETATM    5  C   UNL     1     -10.699  12.867  66.698  1.00  0.00    -0.265 C  
HETATM    6  C   UNL     1      -9.794  13.475  65.604  1.00  0.00    -0.187 C  
HETATM    7  O   UNL     1     -11.442  11.273  64.570  1.00  0.00    -0.133 OA 
HETATM    8  C   UNL     1     -10.506  13.623  64.229  1.00  0.00    -0.157 C  
HETATM    9  C   UNL     1     -12.478  12.218  64.315  1.00  0.00    -0.413 C  
HETATM   10  C   UNL     1     -11.102  12.331  63.687  1.00  0.00    -0.469 C  
ENDROOT
BRANCH   5  11
HETATM   11  O   UNL     1     -10.126  12.813  68.036  1.00  0.00    -0.217 OA 
BRANCH  11  12
HETATM   12  C   UNL     1     -10.847  13.073  69.144  1.00  0.00    -0.086 C  
HETATM   13  C   UNL     1      -9.546  15.346  69.163  1.00  0.00    -0.253 A  
HETATM   14  C   UNL     1     -10.749  14.520  69.632  1.00  0.00    -0.128 C  
HETATM   15  C   UNL     1     -12.128  15.166  69.415  1.00  0.00    -0.260 C  
HETATM   16  C   UNL     1      -8.293  15.143  69.774  1.00  0.00     0.041 A  
HETATM   17  O   UNL     1     -12.301  16.327  70.229  1.00  0.00    -0.360 OA 
HETATM   18  O   UNL     1     -11.552  12.233  69.704  1.00  0.00    -0.294 OA 
HETATM   19  C   UNL     1      -7.177  15.921  69.434  1.00  0.00    -0.214 A  
HETATM   20  H   UNL     1     -13.153  16.726  70.095  1.00  0.00     0.000 HD 
HETATM   21  C   UNL     1      -7.288  16.923  68.476  1.00  0.00    -0.206 A  
HETATM   22  C   UNL     1      -8.519  17.150  67.867  1.00  0.00    -0.212 A  
HETATM   23  C   UNL     1      -9.636  16.374  68.208  1.00  0.00    -0.221 A  
ENDBRANCH  11  12
ENDBRANCH   5  11
TORSDOF 2
ENDMDL
MODEL       92
REMARK 921   NORMALIZED FREE ENERGY PREDICTED BY IDOCK:   -4.98 KCAL/MOL
REMARK 922        TOTAL FREE ENERGY PREDICTED BY IDOCK:   -6.07 KCAL/MOL
REMARK 923 INTER-LIGAND FREE ENERGY PREDICTED BY IDOCK:   -5.69 KCAL/MOL
REMARK 924 INTRA-LIGAND FREE ENERGY PREDICTED BY IDOCK:   -0.37 KCAL/MOL
REMARK 927      BINDING AFFINITY PREDICTED BY RF-SCORE:    0.00 PKD
ROOT
HETATM    1  C   UNL     1     -10.753  14.775  69.444  1.00  0.00    -0.239 C  
HETATM    2  N   UNL     1     -10.785  14.395  68.055  1.00  0.00    -0.239 NA 
HETATM    3  C   UNL     1     -11.955  13.656  67.563  1.00  0.00    -0.358 C  
HETATM    4  C   UNL     1     -12.027  12.233  68.159  1.00  0.00    -0.256 C  
HETATM    5  C   UNL     1     -10.783  11.392  67.830  1.00  0.00    -0.211 C  
HETATM    6  C   UNL     1      -9.491  12.220  68.003  1.00  0.00    -0.206 C  
HETATM    7  O   UNL     1     -10.806  12.758  65.431  1.00  0.00    -0.277 OA 
HETATM    8  C   UNL     1      -9.626  13.685  67.497  1.00  0.00    -0.220 C  
HETATM    9  C   UNL     1     -11.594  13.750  66.085  1.00  0.00    -0.352 C  
HETATM   10  C   UNL     1     -10.079  13.810  66.049  1.00  0.00    -0.311 C  
ENDROOT
BRANCH   5  11
HETATM   11  O   UNL     1     -10.755  10.049  68.393  1.00  0.00    -0.211 OA 
BRANCH  11  12
HETATM   12  C   UNL     1     -10.003   9.060  67.872  1.00  0.00    -0.178 C  
HETATM   13  C   UNL     1     -10.448   7.851  70.152  1.00  0.00    -0.231 A  
HETATM   14  C   UNL     1     -10.025   7.762  68.682  1.00  0.00    -0.191 C  
HETATM   15  C   UNL     1     -10.766   6.712  67.836  1.00  0.00    -0.274 C  
HETATM   16  C   UNL     1      -9.528   8.330  71.104  1.00  0.00    -0.206 A  
HETATM   17  O   UNL     1     -10.459   5.382  68.256  1.00  0.00    -0.178 OA 
HETATM   18  O   UNL     1      -9.375   9.171  66.819  1.00  0.00    -0.149 OA 
HETATM   19  C   UNL     1      -9.838   8.365  72.471  1.00  0.00    -0.359 A  
HETATM   20  H   UNL     1     -10.916   4.733  67.734  1.00  0.00     0.000 HD 
HETATM   21  C   UNL     1     -11.076   7.917  72.919  1.00  0.00    -0.442 A  
HETATM   22  C   UNL     1     -11.997   7.427  71.999  1.00  0.00    -0.333 A  
HETATM   23  C   UNL     1     -11.687   7.390  70.631  1.00  0.00    -0.270 A  
ENDBRANCH  11  12
ENDBRANCH   5  11
TORSDOF 2
ENDMDL
MODEL       93
REMARK 921   NORMALIZED FREE ENERGY PREDICTED BY IDOCK:   -4.96 KCAL/MOL
REMARK 922        TOTAL FREE ENERGY PREDICTED BY IDOCK:   -6.05 KCAL/MOL
REMARK 923 INTER-LIGAND FREE ENERGY PREDICTED BY IDOCK:   -5.79 KCAL/MOL
REMARK 924 INTRA-LIGAND FREE ENERGY PREDICTED BY IDOCK:   -0.26 KCAL/MOL
REMARK 927      BINDING AFFINITY PREDICTED BY RF-SCORE:    0.00 PKD
ROOT
HETATM    1  C   UNL     1     -12.853  12.407  64.325  1.00  0.00    -0.258 C  
HETATM    2  N   UNL     1     -11.581  11.767  64.540  1.00  0.00    -0.267 NA 
HETATM    3  C   UNL     1     -11.196  11.429  65.917  1.00  0.00    -0.107 C  
HETATM    4  C   UNL     1     -10.926  12.693  66.763  1.00  0.00    -0.296 C  
HETATM    5  C   UNL     1      -9.806  13.568  66.176  1.00  0.00    -0.283 C  
HETATM    6  C   UNL     1      -9.950  13.700  64.644  1.00  0.00    -0.077 C  
HETATM    7  O   UNL     1      -8.676  11.167  65.416  1.00  0.00    -0.158 OA 
HETATM    8  C   UNL     1     -10.381  12.376  63.950  1.00  0.00    -0.423 C  
HETATM    9  C   UNL     1      -9.976  10.596  65.543  1.00  0.00    -0.272 C  
HETATM   10  C   UNL     1      -9.473  11.189  64.241  1.00  0.00    -0.213 C  
ENDROOT
BRANCH   5  11
HETATM   11  O   UNL     1      -9.520  14.802  66.894  1.00  0.00    -0.220 OA 
BRANCH  11  12
HETATM   12  C   UNL     1     -10.064  15.985  66.548  1.00  0.00    -0.287 C  
HETATM   13  C   UNL     1     -11.139  15.912  68.935  1.00  0.00    -0.316 A  
HETATM   14  C   UNL     1     -10.732  16.731  67.705  1.00  0.00    -0.321 C  
HETATM   15  C   UNL     1      -9.883  17.983  67.988  1.00  0.00    -0.323 C  
HETATM   16  C   UNL     1     -12.306  15.125  68.880  1.00  0.00    -0.021 A  
HETATM   17  O   UNL     1     -10.624  18.973  68.702  1.00  0.00    -0.413 OA 
HETATM   18  O   UNL     1     -10.005  16.449  65.409  1.00  0.00    -0.534 OA 
HETATM   19  C   UNL     1     -12.764  14.413  69.998  1.00  0.00    -0.185 A  
HETATM   20  H   UNL     1     -10.101  19.746  68.877  1.00  0.00     0.000 HD 
HETATM   21  C   UNL     1     -12.067  14.475  71.200  1.00  0.00    -0.408 A  
HETATM   22  C   UNL     1     -10.918  15.256  71.282  1.00  0.00    -0.210 A  
HETATM   23  C   UNL     1     -10.461  15.970  70.165  1.00  0.00    -0.198 A  
ENDBRANCH  11  12
ENDBRANCH   5  11
TORSDOF 2
ENDMDL
MODEL       94
REMARK 921   NORMALIZED FREE ENERGY PREDICTED BY IDOCK:   -4.95 KCAL/MOL
REMARK 922        TOTAL FREE ENERGY PREDICTED BY IDOCK:   -6.03 KCAL/MOL
REMARK 923 INTER-LIGAND FREE ENERGY PREDICTED BY IDOCK:   -5.47 KCAL/MOL
REMARK 924 INTRA-LIGAND FREE ENERGY PREDICTED BY IDOCK:   -0.57 KCAL/MOL
REMARK 927      BINDING AFFINITY PREDICTED BY RF-SCORE:    0.00 PKD
ROOT
HETATM    1  C   UNL     1      -9.627   5.891  72.575  1.00  0.00    -0.154 C  
HETATM    2  N   UNL     1     -10.803   6.710  72.427  1.00  0.00    -0.226 NA 
HETATM    3  C   UNL     1     -11.767   6.359  71.376  1.00  0.00    -0.306 C  
HETATM    4  C   UNL     1     -11.186   6.589  69.963  1.00  0.00    -0.453 C  
HETATM    5  C   UNL     1     -10.766   8.050  69.730  1.00  0.00    -0.231 C  
HETATM    6  C   UNL     1     -10.019   8.616  70.957  1.00  0.00    -0.272 C  
HETATM    7  O   UNL     1     -12.934   8.662  71.325  1.00  0.00    -0.285 OA 
HETATM    8  C   UNL     1     -10.633   8.165  72.313  1.00  0.00    -0.309 C  
HETATM    9  C   UNL     1     -12.854   7.328  71.824  1.00  0.00    -0.331 C  
HETATM   10  C   UNL     1     -12.114   8.484  72.470  1.00  0.00    -0.326 C  
ENDROOT
BRANCH   5  11
HETATM   11  O   UNL     1     -10.168   8.341  68.434  1.00  0.00    -0.200 OA 
BRANCH  11  12
HETATM   12  C   UNL     1      -8.850   8.571  68.279  1.00  0.00    -0.142 C  
HETATM   13  C   UNL     1      -9.620  10.778  67.099  1.00  0.00    -0.185 A  
HETATM   14  C   UNL     1      -8.511   9.982  67.795  1.00  0.00    -0.114 C  
HETATM   15  C   UNL     1      -7.801  10.701  68.955  1.00  0.00    -0.137 C  
HETATM   16  C   UNL     1      -9.937  10.485  65.758  1.00  0.00    -0.318 A  
HETATM   17  O   UNL     1      -7.042  11.822  68.498  1.00  0.00    -0.078 OA 
HETATM   18  O   UNL     1      -7.984   7.734  68.534  1.00  0.00    -0.118 OA 
HETATM   19  C   UNL     1     -10.893  11.230  65.051  1.00  0.00    -0.285 A  
HETATM   20  H   UNL     1      -6.604  12.266  69.213  1.00  0.00     0.000 HD 
HETATM   21  C   UNL     1     -11.552  12.288  65.668  1.00  0.00    -0.433 A  
HETATM   22  C   UNL     1     -11.247  12.604  66.988  1.00  0.00    -0.348 A  
HETATM   23  C   UNL     1     -10.289  11.861  67.695  1.00  0.00    -0.217 A  
ENDBRANCH  11  12
ENDBRANCH   5  11
TORSDOF 2
ENDMDL
MODEL       95
REMARK 921   NORMALIZED FREE ENERGY PREDICTED BY IDOCK:   -4.95 KCAL/MOL
REMARK 922        TOTAL FREE ENERGY PREDICTED BY IDOCK:   -6.03 KCAL/MOL
REMARK 923 INTER-LIGAND FREE ENERGY PREDICTED BY IDOCK:   -5.27 KCAL/MOL
REMARK 924 INTRA-LIGAND FREE ENERGY PREDICTED BY IDOCK:   -0.76 KCAL/MOL
REMARK 927      BINDING AFFINITY PREDICTED BY RF-SCORE:    0.00 PKD
ROOT
HETATM    1  C   UNL     1     -11.890  14.374  65.191  1.00  0.00    -0.386 C  
HETATM    2  N   UNL     1     -11.733  14.390  66.623  1.00  0.00    -0.385 NA 
HETATM    3  C   UNL     1     -11.371  15.659  67.268  1.00  0.00    -0.122 C  
HETATM    4  C   UNL     1      -9.934  16.097  66.908  1.00  0.00    -0.258 C  
HETATM    5  C   UNL     1      -8.880  15.056  67.319  1.00  0.00    -0.201 C  
HETATM    6  C   UNL     1      -9.345  13.625  66.970  1.00  0.00    -0.249 C  
HETATM    7  O   UNL     1     -10.545  14.593  69.471  1.00  0.00    -0.222 OA 
HETATM    8  C   UNL     1     -10.858  13.386  67.243  1.00  0.00    -0.269 C  
HETATM    9  C   UNL     1     -11.590  15.180  68.698  1.00  0.00    -0.338 C  
HETATM   10  C   UNL     1     -11.295  13.692  68.669  1.00  0.00    -0.286 C  
ENDROOT
BRANCH   5  11
HETATM   11  O   UNL     1      -7.501  15.375  66.974  1.00  0.00    -0.205 OA 
BRANCH  11  12
HETATM   12  C   UNL     1      -6.527  15.472  67.899  1.00  0.00    -0.154 C  
HETATM   13  C   UNL     1      -6.327  17.950  67.078  1.00  0.00    -0.190 A  
HETATM   14  C   UNL     1      -6.047  16.901  68.159  1.00  0.00    -0.132 C  
HETATM   15  C   UNL     1      -6.490  17.276  69.584  1.00  0.00    -0.165 C  
HETATM   16  C   UNL     1      -5.520  17.980  65.924  1.00  0.00    -0.235 A  
HETATM   17  O   UNL     1      -5.729  18.367  70.104  1.00  0.00    -0.239 OA 
HETATM   18  O   UNL     1      -6.077  14.502  68.510  1.00  0.00    -0.081 OA 
HETATM   19  C   UNL     1      -5.686  18.962  64.937  1.00  0.00    -0.298 A  
HETATM   20  H   UNL     1      -6.002  18.599  70.984  1.00  0.00     0.000 HD 
HETATM   21  C   UNL     1      -6.662  19.943  65.083  1.00  0.00    -0.308 A  
HETATM   22  C   UNL     1      -7.463  19.942  66.221  1.00  0.00    -0.316 A  
HETATM   23  C   UNL     1      -7.296  18.961  67.209  1.00  0.00    -0.234 A  
ENDBRANCH  11  12
ENDBRANCH   5  11
TORSDOF 2
ENDMDL
MODEL       96
REMARK 921   NORMALIZED FREE ENERGY PREDICTED BY IDOCK:   -4.94 KCAL/MOL
REMARK 922        TOTAL FREE ENERGY PREDICTED BY IDOCK:   -6.02 KCAL/MOL
REMARK 923 INTER-LIGAND FREE ENERGY PREDICTED BY IDOCK:   -5.28 KCAL/MOL
REMARK 924 INTRA-LIGAND FREE ENERGY PREDICTED BY IDOCK:   -0.74 KCAL/MOL
REMARK 927      BINDING AFFINITY PREDICTED BY RF-SCORE:    0.00 PKD
ROOT
HETATM    1  C   UNL     1      -7.331   6.010  68.960  1.00  0.00    -0.085 C  
HETATM    2  N   UNL     1      -8.176   5.420  67.953  1.00  0.00    -0.100 NA 
HETATM    3  C   UNL     1      -8.215   6.046  66.624  1.00  0.00    -0.106 C  
HETATM    4  C   UNL     1      -8.894   7.433  66.663  1.00  0.00    -0.157 C  
HETATM    5  C   UNL     1     -10.340   7.368  67.182  1.00  0.00    -0.307 C  
HETATM    6  C   UNL     1     -10.448   6.438  68.410  1.00  0.00    -0.266 C  
HETATM    7  O   UNL     1     -10.426   4.932  65.887  1.00  0.00    -0.264 OA 
HETATM    8  C   UNL     1      -9.582   5.152  68.286  1.00  0.00    -0.135 C  
HETATM    9  C   UNL     1      -9.001   4.931  65.945  1.00  0.00    -0.134 C  
HETATM   10  C   UNL     1      -9.859   4.325  67.039  1.00  0.00    -0.179 C  
ENDROOT
BRANCH   5  11
HETATM   11  O   UNL     1     -11.035   8.643  67.290  1.00  0.00    -0.114 OA 
BRANCH  11  12
HETATM   12  C   UNL     1     -10.407   9.826  67.152  1.00  0.00    -0.248 C  
HETATM   13  C   UNL     1     -10.832  10.078  69.723  1.00  0.00    -0.308 A  
HETATM   14  C   UNL     1     -10.055  10.509  68.475  1.00  0.00    -0.187 C  
HETATM   15  C   UNL     1      -8.522  10.488  68.603  1.00  0.00    -0.138 C  
HETATM   16  C   UNL     1     -12.141  10.562  69.919  1.00  0.00    -0.318 A  
HETATM   17  O   UNL     1      -8.055  11.470  69.529  1.00  0.00    -0.310 OA 
HETATM   18  O   UNL     1     -10.107  10.309  66.059  1.00  0.00    -0.235 OA 
HETATM   19  C   UNL     1     -12.870  10.256  71.077  1.00  0.00    -0.490 A  
HETATM   20  H   UNL     1      -7.108  11.457  69.608  1.00  0.00     0.000 HD 
HETATM   21  C   UNL     1     -12.306   9.463  72.070  1.00  0.00    -0.418 A  
HETATM   22  C   UNL     1     -11.010   8.984  71.905  1.00  0.00    -0.423 A  
HETATM   23  C   UNL     1     -10.279   9.290  70.748  1.00  0.00    -0.353 A  
ENDBRANCH  11  12
ENDBRANCH   5  11
TORSDOF 2
ENDMDL
MODEL       97
REMARK 921   NORMALIZED FREE ENERGY PREDICTED BY IDOCK:   -4.93 KCAL/MOL
REMARK 922        TOTAL FREE ENERGY PREDICTED BY IDOCK:   -6.01 KCAL/MOL
REMARK 923 INTER-LIGAND FREE ENERGY PREDICTED BY IDOCK:   -5.49 KCAL/MOL
REMARK 924 INTRA-LIGAND FREE ENERGY PREDICTED BY IDOCK:   -0.52 KCAL/MOL
REMARK 927      BINDING AFFINITY PREDICTED BY RF-SCORE:    0.00 PKD
ROOT
HETATM    1  C   UNL     1      -7.616   7.056  72.955  1.00  0.00    -0.083 C  
HETATM    2  N   UNL     1      -9.015   6.868  72.666  1.00  0.00    -0.128 NA 
HETATM    3  C   UNL     1      -9.384   6.251  71.385  1.00  0.00    -0.152 C  
HETATM    4  C   UNL     1      -9.057   7.172  70.189  1.00  0.00    -0.152 C  
HETATM    5  C   UNL     1      -9.783   8.525  70.271  1.00  0.00    -0.171 C  
HETATM    6  C   UNL     1      -9.729   9.099  71.704  1.00  0.00    -0.263 C  
HETATM    7  O   UNL     1     -11.834   7.069  71.408  1.00  0.00    -0.282 OA 
HETATM    8  C   UNL     1      -9.920   8.018  72.807  1.00  0.00    -0.294 C  
HETATM    9  C   UNL     1     -10.861   6.072  71.713  1.00  0.00    -0.260 C  
HETATM   10  C   UNL     1     -11.196   7.199  72.671  1.00  0.00    -0.293 C  
ENDROOT
BRANCH   5  11
HETATM   11  O   UNL     1      -9.493   9.468  69.200  1.00  0.00    -0.153 OA 
BRANCH  11  12
HETATM   12  C   UNL     1     -10.178   9.481  68.040  1.00  0.00    -0.201 C  
HETATM   13  C   UNL     1     -11.952  10.863  69.383  1.00  0.00    -0.393 A  
HETATM   14  C   UNL     1     -11.378  10.431  68.030  1.00  0.00    -0.277 C  
HETATM   15  C   UNL     1     -11.045  11.571  67.052  1.00  0.00    -0.307 C  
HETATM   16  C   UNL     1     -12.773   9.969  70.098  1.00  0.00     0.078 A  
HETATM   17  O   UNL     1     -12.223  12.248  66.609  1.00  0.00    -0.574 OA 
HETATM   18  O   UNL     1      -9.855   8.814  67.057  1.00  0.00    -0.177 OA 
HETATM   19  C   UNL     1     -13.382  10.339  71.307  1.00  0.00    -0.369 A  
HETATM   20  H   UNL     1     -12.018  12.952  66.005  1.00  0.00     0.000 HD 
HETATM   21  C   UNL     1     -13.186  11.613  71.827  1.00  0.00    -0.438 A  
HETATM   22  C   UNL     1     -12.389  12.518  71.133  1.00  0.00    -0.241 A  
HETATM   23  C   UNL     1     -11.782  12.150  69.923  1.00  0.00    -0.361 A  
ENDBRANCH  11  12
ENDBRANCH   5  11
TORSDOF 2
ENDMDL
MODEL       98
REMARK 921   NORMALIZED FREE ENERGY PREDICTED BY IDOCK:   -4.91 KCAL/MOL
REMARK 922        TOTAL FREE ENERGY PREDICTED BY IDOCK:   -5.99 KCAL/MOL
REMARK 923 INTER-LIGAND FREE ENERGY PREDICTED BY IDOCK:   -5.19 KCAL/MOL
REMARK 924 INTRA-LIGAND FREE ENERGY PREDICTED BY IDOCK:   -0.80 KCAL/MOL
REMARK 927      BINDING AFFINITY PREDICTED BY RF-SCORE:    0.00 PKD
ROOT
HETATM    1  C   UNL     1     -12.090   9.466  70.963  1.00  0.00    -0.298 C  
HETATM    2  N   UNL     1     -11.792   8.250  71.677  1.00  0.00    -0.284 NA 
HETATM    3  C   UNL     1     -10.415   8.039  72.144  1.00  0.00    -0.265 C  
HETATM    4  C   UNL     1      -9.437   7.823  70.969  1.00  0.00    -0.165 C  
HETATM    5  C   UNL     1      -9.817   6.612  70.100  1.00  0.00    -0.166 C  
HETATM    6  C   UNL     1     -11.338   6.574  69.835  1.00  0.00    -0.469 C  
HETATM    7  O   UNL     1     -10.653   5.489  72.479  1.00  0.00    -0.205 OA 
HETATM    8  C   UNL     1     -12.188   6.969  71.076  1.00  0.00    -0.374 C  
HETATM    9  C   UNL     1     -10.722   6.815  72.998  1.00  0.00    -0.285 C  
HETATM   10  C   UNL     1     -11.903   6.144  72.323  1.00  0.00    -0.275 C  
ENDROOT
BRANCH   5  11
HETATM   11  O   UNL     1      -8.966   6.366  68.944  1.00  0.00    -0.124 OA 
BRANCH  11  12
HETATM   12  C   UNL     1      -9.418   5.767  67.825  1.00  0.00    -0.112 C  
HETATM   13  C   UNL     1      -9.415   8.186  66.820  1.00  0.00    -0.256 A  
HETATM   14  C   UNL     1      -9.431   6.671  66.590  1.00  0.00    -0.201 C  
HETATM   15  C   UNL     1      -8.362   6.132  65.623  1.00  0.00    -0.146 C  
HETATM   16  C   UNL     1     -10.606   8.834  67.203  1.00  0.00    -0.303 A  
HETATM   17  O   UNL     1      -8.585   6.581  64.286  1.00  0.00    -0.339 OA 
HETATM   18  O   UNL     1      -9.764   4.586  67.783  1.00  0.00    -0.161 OA 
HETATM   19  C   UNL     1     -10.665  10.227  67.357  1.00  0.00    -0.339 A  
HETATM   20  H   UNL     1      -7.926   6.248  63.688  1.00  0.00     0.000 HD 
HETATM   21  C   UNL     1      -9.535  11.005  67.129  1.00  0.00    -0.181 A  
HETATM   22  C   UNL     1      -8.351  10.388  66.738  1.00  0.00    -0.126 A  
HETATM   23  C   UNL     1      -8.291   8.995  66.581  1.00  0.00    -0.118 A  
ENDBRANCH  11  12
ENDBRANCH   5  11
TORSDOF 2
ENDMDL
MODEL       99
REMARK 921   NORMALIZED FREE ENERGY PREDICTED BY IDOCK:   -4.87 KCAL/MOL
REMARK 922        TOTAL FREE ENERGY PREDICTED BY IDOCK:   -5.94 KCAL/MOL
REMARK 923 INTER-LIGAND FREE ENERGY PREDICTED BY IDOCK:   -5.26 KCAL/MOL
REMARK 924 INTRA-LIGAND FREE ENERGY PREDICTED BY IDOCK:   -0.68 KCAL/MOL
REMARK 927      BINDING AFFINITY PREDICTED BY RF-SCORE:    0.00 PKD
ROOT
HETATM    1  C   UNL     1      -7.790   9.797  67.443  1.00  0.00    -0.099 C  
HETATM    2  N   UNL     1      -9.205  10.066  67.440  1.00  0.00    -0.137 NA 
HETATM    3  C   UNL     1      -9.787  10.713  66.257  1.00  0.00    -0.214 C  
HETATM    4  C   UNL     1      -9.309  12.174  66.107  1.00  0.00    -0.198 C  
HETATM    5  C   UNL     1      -9.668  13.039  67.326  1.00  0.00    -0.225 C  
HETATM    6  C   UNL     1      -9.393  12.284  68.645  1.00  0.00    -0.016 C  
HETATM    7  O   UNL     1     -11.950  11.490  67.434  1.00  0.00    -0.623 OA 
HETATM    8  C   UNL     1      -9.785  10.780  68.586  1.00  0.00    -0.186 C  
HETATM    9  C   UNL     1     -11.242  10.519  66.667  1.00  0.00     0.209 C  
HETATM   10  C   UNL     1     -11.231  10.522  68.184  1.00  0.00    -0.293 C  
ENDROOT
BRANCH   5  11
HETATM   11  O   UNL     1      -9.213  14.422  67.282  1.00  0.00    -0.193 OA 
BRANCH  11  12
HETATM   12  C   UNL     1      -9.835  15.367  66.550  1.00  0.00    -0.272 C  
HETATM   13  C   UNL     1     -11.211  15.808  68.734  1.00  0.00    -0.342 A  
HETATM   14  C   UNL     1     -10.735  16.300  67.363  1.00  0.00    -0.287 C  
HETATM   15  C   UNL     1     -10.080  17.692  67.344  1.00  0.00    -0.331 C  
HETATM   16  C   UNL     1     -12.263  14.874  68.801  1.00  0.00    -0.122 A  
HETATM   17  O   UNL     1     -11.018  18.722  67.656  1.00  0.00    -0.384 OA 
HETATM   18  O   UNL     1      -9.674  15.496  65.336  1.00  0.00    -0.300 OA 
HETATM   19  C   UNL     1     -12.786  14.445  70.030  1.00  0.00    -0.185 A  
HETATM   20  H   UNL     1     -10.614  19.582  67.644  1.00  0.00     0.000 HD 
HETATM   21  C   UNL     1     -12.271  14.943  71.221  1.00  0.00    -0.383 A  
HETATM   22  C   UNL     1     -11.240  15.877  71.180  1.00  0.00    -0.360 A  
HETATM   23  C   UNL     1     -10.718  16.309  69.952  1.00  0.00    -0.322 A  
ENDBRANCH  11  12
ENDBRANCH   5  11
TORSDOF 2
ENDMDL
MODEL      100
REMARK 921   NORMALIZED FREE ENERGY PREDICTED BY IDOCK:   -4.83 KCAL/MOL
REMARK 922        TOTAL FREE ENERGY PREDICTED BY IDOCK:   -5.90 KCAL/MOL
REMARK 923 INTER-LIGAND FREE ENERGY PREDICTED BY IDOCK:   -5.45 KCAL/MOL
REMARK 924 INTRA-LIGAND FREE ENERGY PREDICTED BY IDOCK:   -0.45 KCAL/MOL
REMARK 927      BINDING AFFINITY PREDICTED BY RF-SCORE:    0.00 PKD
ROOT
HETATM    1  C   UNL     1      -9.081   9.893  65.093  1.00  0.00    -0.211 C  
HETATM    2  N   UNL     1      -8.513  10.149  66.392  1.00  0.00    -0.129 NA 
HETATM    3  C   UNL     1      -9.230   9.654  67.574  1.00  0.00    -0.133 C  
HETATM    4  C   UNL     1     -10.564  10.401  67.791  1.00  0.00    -0.294 C  
HETATM    5  C   UNL     1     -10.369  11.915  67.976  1.00  0.00    -0.196 C  
HETATM    6  C   UNL     1      -9.347  12.471  66.960  1.00  0.00    -0.210 C  
HETATM    7  O   UNL     1      -8.033  11.200  69.261  1.00  0.00    -0.092 OA 
HETATM    8  C   UNL     1      -8.131  11.527  66.731  1.00  0.00    -0.158 C  
HETATM    9  C   UNL     1      -8.120   9.954  68.574  1.00  0.00    -0.101 C  
HETATM   10  C   UNL     1      -7.381  11.149  68.001  1.00  0.00    -0.088 C  
ENDROOT
BRANCH   5  11
HETATM   11  O   UNL     1     -11.585  12.699  68.143  1.00  0.00    -0.295 OA 
BRANCH  11  12
HETATM   12  C   UNL     1     -11.866  13.774  67.382  1.00  0.00    -0.396 C  
HETATM   13  C   UNL     1     -11.985  15.055  69.663  1.00  0.00    -0.356 A  
HETATM   14  C   UNL     1     -11.837  15.104  68.139  1.00  0.00    -0.252 C  
HETATM   15  C   UNL     1     -10.633  15.900  67.610  1.00  0.00    -0.307 C  
HETATM   16  C   UNL     1     -13.263  14.860  70.224  1.00  0.00     0.005 A  
HETATM   17  O   UNL     1     -10.761  17.297  67.884  1.00  0.00    -0.372 OA 
HETATM   18  O   UNL     1     -12.095  13.705  66.174  1.00  0.00    -0.389 OA 
HETATM   19  C   UNL     1     -13.466  14.878  71.611  1.00  0.00    -0.484 A  
HETATM   20  H   UNL     1     -10.017  17.789  67.558  1.00  0.00     0.000 HD 
HETATM   21  C   UNL     1     -12.395  15.096  72.472  1.00  0.00    -0.460 A  
HETATM   22  C   UNL     1     -11.126  15.304  71.941  1.00  0.00    -0.213 A  
HETATM   23  C   UNL     1     -10.922  15.288  70.553  1.00  0.00    -0.318 A  
ENDBRANCH  11  12
ENDBRANCH   5  11
TORSDOF 2
ENDMDL
MODEL      101
REMARK 921   NORMALIZED FREE ENERGY PREDICTED BY IDOCK:   -4.83 KCAL/MOL
REMARK 922        TOTAL FREE ENERGY PREDICTED BY IDOCK:   -5.90 KCAL/MOL
REMARK 923 INTER-LIGAND FREE ENERGY PREDICTED BY IDOCK:   -5.27 KCAL/MOL
REMARK 924 INTRA-LIGAND FREE ENERGY PREDICTED BY IDOCK:   -0.64 KCAL/MOL
REMARK 927      BINDING AFFINITY PREDICTED BY RF-SCORE:    0.00 PKD
ROOT
HETATM    1  C   UNL     1      -7.934   5.083  72.705  1.00  0.00    -0.101 C  
HETATM    2  N   UNL     1      -8.045   4.978  71.273  1.00  0.00    -0.108 NA 
HETATM    3  C   UNL     1      -7.826   6.187  70.468  1.00  0.00    -0.106 C  
HETATM    4  C   UNL     1      -8.948   7.226  70.676  1.00  0.00    -0.156 C  
HETATM    5  C   UNL     1     -10.337   6.677  70.309  1.00  0.00    -0.202 C  
HETATM    6  C   UNL     1     -10.526   5.241  70.845  1.00  0.00    -0.285 C  
HETATM    7  O   UNL     1      -8.986   5.287  68.343  1.00  0.00    -0.107 OA 
HETATM    8  C   UNL     1      -9.252   4.360  70.707  1.00  0.00    -0.138 C  
HETATM    9  C   UNL     1      -7.805   5.479  69.118  1.00  0.00    -0.091 C  
HETATM   10  C   UNL     1      -8.702   4.268  69.290  1.00  0.00    -0.084 C  
ENDROOT
BRANCH   5  11
HETATM   11  O   UNL     1     -11.457   7.584  70.518  1.00  0.00    -0.280 OA 
BRANCH  11  12
HETATM   12  C   UNL     1     -11.550   8.384  71.598  1.00  0.00    -0.289 C  
HETATM   13  C   UNL     1     -11.075  10.322  69.902  1.00  0.00    -0.362 A  
HETATM   14  C   UNL     1     -11.602   9.878  71.270  1.00  0.00    -0.456 C  
HETATM   15  C   UNL     1     -13.012  10.373  71.635  1.00  0.00    -0.475 C  
HETATM   16  C   UNL     1      -9.684  10.412  69.698  1.00  0.00    -0.158 A  
HETATM   17  O   UNL     1     -13.045  11.790  71.813  1.00  0.00    -0.463 OA 
HETATM   18  O   UNL     1     -11.620   7.958  72.751  1.00  0.00    -0.383 OA 
HETATM   19  C   UNL     1      -9.148  10.881  68.489  1.00  0.00    -0.173 A  
HETATM   20  H   UNL     1     -13.916  12.096  72.038  1.00  0.00     0.000 HD 
HETATM   21  C   UNL     1      -9.993  11.275  67.456  1.00  0.00    -0.203 A  
HETATM   22  C   UNL     1     -11.370  11.207  67.639  1.00  0.00    -0.356 A  
HETATM   23  C   UNL     1     -11.907  10.740  68.848  1.00  0.00    -0.287 A  
ENDBRANCH  11  12
ENDBRANCH   5  11
TORSDOF 2
ENDMDL
MODEL      102
REMARK 921   NORMALIZED FREE ENERGY PREDICTED BY IDOCK:   -4.82 KCAL/MOL
REMARK 922        TOTAL FREE ENERGY PREDICTED BY IDOCK:   -5.88 KCAL/MOL
REMARK 923 INTER-LIGAND FREE ENERGY PREDICTED BY IDOCK:   -5.17 KCAL/MOL
REMARK 924 INTRA-LIGAND FREE ENERGY PREDICTED BY IDOCK:   -0.72 KCAL/MOL
REMARK 927      BINDING AFFINITY PREDICTED BY RF-SCORE:    0.00 PKD
ROOT
HETATM    1  C   UNL     1     -12.790   6.777  71.635  1.00  0.00    -0.276 C  
HETATM    2  N   UNL     1     -11.457   7.306  71.773  1.00  0.00    -0.259 NA 
HETATM    3  C   UNL     1     -11.300   8.661  72.319  1.00  0.00    -0.340 C  
HETATM    4  C   UNL     1     -11.840   9.736  71.351  1.00  0.00    -0.488 C  
HETATM    5  C   UNL     1     -11.134   9.709  69.986  1.00  0.00    -0.255 C  
HETATM    6  C   UNL     1     -10.954   8.260  69.482  1.00  0.00    -0.051 C  
HETATM    7  O   UNL     1      -8.896   9.008  71.442  1.00  0.00    -0.242 OA 
HETATM    8  C   UNL     1     -10.561   7.261  70.609  1.00  0.00    -0.226 C  
HETATM    9  C   UNL     1      -9.786   8.595  72.477  1.00  0.00    -0.198 C  
HETATM   10  C   UNL     1      -9.313   7.652  71.388  1.00  0.00    -0.140 C  
ENDROOT
BRANCH   5  11
HETATM   11  O   UNL     1     -11.616  10.666  69.000  1.00  0.00    -0.275 OA 
BRANCH  11  12
HETATM   12  C   UNL     1     -11.111  11.910  68.890  1.00  0.00    -0.247 C  
HETATM   13  C   UNL     1      -9.463  10.828  67.167  1.00  0.00    -0.180 A  
HETATM   14  C   UNL     1     -10.125  12.088  67.734  1.00  0.00    -0.199 C  
HETATM   15  C   UNL     1     -10.797  13.011  66.703  1.00  0.00    -0.275 C  
HETATM   16  C   UNL     1      -8.398  10.234  67.872  1.00  0.00    -0.114 A  
HETATM   17  O   UNL     1      -9.841  13.613  65.829  1.00  0.00    -0.382 OA 
HETATM   18  O   UNL     1     -11.434  12.838  69.632  1.00  0.00    -0.254 OA 
HETATM   19  C   UNL     1      -7.710   9.123  67.364  1.00  0.00    -0.092 A  
HETATM   20  H   UNL     1     -10.255  14.183  65.193  1.00  0.00     0.000 HD 
HETATM   21  C   UNL     1      -8.069   8.580  66.134  1.00  0.00    -0.105 A  
HETATM   22  C   UNL     1      -9.110   9.157  65.413  1.00  0.00    -0.271 A  
HETATM   23  C   UNL     1      -9.797  10.270  65.920  1.00  0.00    -0.298 A  
ENDBRANCH  11  12
ENDBRANCH   5  11
TORSDOF 2
ENDMDL
MODEL      103
REMARK 921   NORMALIZED FREE ENERGY PREDICTED BY IDOCK:   -4.81 KCAL/MOL
REMARK 922        TOTAL FREE ENERGY PREDICTED BY IDOCK:   -5.88 KCAL/MOL
REMARK 923 INTER-LIGAND FREE ENERGY PREDICTED BY IDOCK:   -5.18 KCAL/MOL
REMARK 924 INTRA-LIGAND FREE ENERGY PREDICTED BY IDOCK:   -0.69 KCAL/MOL
REMARK 927      BINDING AFFINITY PREDICTED BY RF-SCORE:    0.00 PKD
ROOT
HETATM    1  C   UNL     1     -10.507   5.984  73.265  1.00  0.00    -0.240 C  
HETATM    2  N   UNL     1     -11.500   6.910  72.785  1.00  0.00    -0.197 NA 
HETATM    3  C   UNL     1     -12.196   6.595  71.530  1.00  0.00    -0.340 C  
HETATM    4  C   UNL     1     -11.248   6.674  70.313  1.00  0.00    -0.408 C  
HETATM    5  C   UNL     1     -10.613   8.065  70.149  1.00  0.00    -0.237 C  
HETATM    6  C   UNL     1     -10.146   8.627  71.509  1.00  0.00    -0.345 C  
HETATM    7  O   UNL     1     -13.031   9.000  71.096  1.00  0.00    -0.262 OA 
HETATM    8  C   UNL     1     -11.137   8.329  72.671  1.00  0.00    -0.330 C  
HETATM    9  C   UNL     1     -13.239   7.700  71.643  1.00  0.00    -0.352 C  
HETATM   10  C   UNL     1     -12.560   8.811  72.422  1.00  0.00    -0.363 C  
ENDROOT
BRANCH   5  11
HETATM   11  O   UNL     1      -9.672   8.209  69.047  1.00  0.00    -0.159 OA 
BRANCH  11  12
HETATM   12  C   UNL     1     -10.061   8.218  67.758  1.00  0.00    -0.206 C  
HETATM   13  C   UNL     1      -8.755   5.954  67.599  1.00  0.00    -0.104 A  
HETATM   14  C   UNL     1      -9.804   6.906  67.014  1.00  0.00    -0.228 C  
HETATM   15  C   UNL     1     -11.176   6.281  66.709  1.00  0.00    -0.022 C  
HETATM   16  C   UNL     1      -7.388   6.234  67.404  1.00  0.00    -0.084 A  
HETATM   17  O   UNL     1     -11.098   5.327  65.649  1.00  0.00    -0.729 OA 
HETATM   18  O   UNL     1     -10.607   9.184  67.223  1.00  0.00    -0.271 OA 
HETATM   19  C   UNL     1      -6.388   5.360  67.856  1.00  0.00    -0.039 A  
HETATM   20  H   UNL     1     -11.945   4.941  65.460  1.00  0.00     0.000 HD 
HETATM   21  C   UNL     1      -6.732   4.182  68.511  1.00  0.00    -0.046 A  
HETATM   22  C   UNL     1      -8.076   3.878  68.704  1.00  0.00    -0.079 A  
HETATM   23  C   UNL     1      -9.077   4.750  68.250  1.00  0.00    -0.145 A  
ENDBRANCH  11  12
ENDBRANCH   5  11
TORSDOF 2
ENDMDL
MODEL      104
REMARK 921   NORMALIZED FREE ENERGY PREDICTED BY IDOCK:   -4.79 KCAL/MOL
REMARK 922        TOTAL FREE ENERGY PREDICTED BY IDOCK:   -5.86 KCAL/MOL
REMARK 923 INTER-LIGAND FREE ENERGY PREDICTED BY IDOCK:   -5.15 KCAL/MOL
REMARK 924 INTRA-LIGAND FREE ENERGY PREDICTED BY IDOCK:   -0.71 KCAL/MOL
REMARK 927      BINDING AFFINITY PREDICTED BY RF-SCORE:    0.00 PKD
ROOT
HETATM    1  C   UNL     1      -6.452  20.061  64.748  1.00  0.00    -0.250 C  
HETATM    2  N   UNL     1      -6.611  19.886  66.169  1.00  0.00    -0.205 NA 
HETATM    3  C   UNL     1      -5.938  18.748  66.810  1.00  0.00    -0.158 C  
HETATM    4  C   UNL     1      -6.551  17.399  66.375  1.00  0.00    -0.292 C  
HETATM    5  C   UNL     1      -8.048  17.295  66.713  1.00  0.00    -0.246 C  
HETATM    6  C   UNL     1      -8.787  18.607  66.371  1.00  0.00    -0.283 C  
HETATM    7  O   UNL     1      -7.386  18.773  68.948  1.00  0.00    -0.303 OA 
HETATM    8  C   UNL     1      -7.971  19.884  66.726  1.00  0.00    -0.310 C  
HETATM    9  C   UNL     1      -6.217  19.184  68.243  1.00  0.00    -0.223 C  
HETATM   10  C   UNL     1      -7.520  19.958  68.178  1.00  0.00    -0.293 C  
ENDROOT
BRANCH   5  11
HETATM   11  O   UNL     1      -8.711  16.068  66.295  1.00  0.00    -0.298 OA 
BRANCH  11  12
HETATM   12  C   UNL     1      -9.800  15.583  66.923  1.00  0.00    -0.237 C  
HETATM   13  C   UNL     1      -8.073  14.525  68.583  1.00  0.00    -0.150 A  
HETATM   14  C   UNL     1      -9.512  14.964  68.292  1.00  0.00    -0.210 C  
HETATM   15  C   UNL     1     -10.157  15.878  69.348  1.00  0.00    -0.267 C  
HETATM   16  C   UNL     1      -7.598  13.318  68.032  1.00  0.00    -0.145 A  
HETATM   17  O   UNL     1     -10.360  15.195  70.586  1.00  0.00    -0.505 OA 
HETATM   18  O   UNL     1     -10.937  15.656  66.456  1.00  0.00    -0.298 OA 
HETATM   19  C   UNL     1      -6.315  12.834  68.324  1.00  0.00    -0.078 A  
HETATM   20  H   UNL     1     -10.758  15.760  71.238  1.00  0.00     0.000 HD 
HETATM   21  C   UNL     1      -5.477  13.543  69.178  1.00  0.00    -0.074 A  
HETATM   22  C   UNL     1      -5.928  14.731  69.744  1.00  0.00    -0.123 A  
HETATM   23  C   UNL     1      -7.213  15.215  69.455  1.00  0.00    -0.198 A  
ENDBRANCH  11  12
ENDBRANCH   5  11
TORSDOF 2
ENDMDL
MODEL      105
REMARK 921   NORMALIZED FREE ENERGY PREDICTED BY IDOCK:   -4.75 KCAL/MOL
REMARK 922        TOTAL FREE ENERGY PREDICTED BY IDOCK:   -5.81 KCAL/MOL
REMARK 923 INTER-LIGAND FREE ENERGY PREDICTED BY IDOCK:   -5.17 KCAL/MOL
REMARK 924 INTRA-LIGAND FREE ENERGY PREDICTED BY IDOCK:   -0.64 KCAL/MOL
REMARK 927      BINDING AFFINITY PREDICTED BY RF-SCORE:    0.00 PKD
ROOT
HETATM    1  C   UNL     1      -8.441   6.160  71.217  1.00  0.00    -0.125 C  
HETATM    2  N   UNL     1      -9.739   6.612  71.650  1.00  0.00    -0.164 NA 
HETATM    3  C   UNL     1     -10.900   6.302  70.805  1.00  0.00    -0.281 C  
HETATM    4  C   UNL     1     -10.858   7.072  69.467  1.00  0.00    -0.265 C  
HETATM    5  C   UNL     1     -10.830   8.597  69.664  1.00  0.00    -0.157 C  
HETATM    6  C   UNL     1      -9.856   8.992  70.795  1.00  0.00    -0.304 C  
HETATM    7  O   UNL     1     -12.449   8.090  71.842  1.00  0.00    -0.308 OA 
HETATM    8  C   UNL     1      -9.903   8.026  72.014  1.00  0.00    -0.211 C  
HETATM    9  C   UNL     1     -11.954   6.753  71.809  1.00  0.00    -0.339 C  
HETATM   10  C   UNL     1     -11.287   7.847  72.621  1.00  0.00    -0.408 C  
ENDROOT
BRANCH   5  11
HETATM   11  O   UNL     1     -10.747   9.395  68.449  1.00  0.00    -0.219 OA 
BRANCH  11  12
HETATM   12  C   UNL     1     -11.291  10.623  68.349  1.00  0.00    -0.283 C  
HETATM   13  C   UNL     1      -9.037  11.264  67.182  1.00  0.00    -0.160 A  
HETATM   14  C   UNL     1     -10.510  11.586  67.453  1.00  0.00    -0.240 C  
HETATM   15  C   UNL     1     -11.375  11.851  66.209  1.00  0.00    -0.334 C  
HETATM   16  C   UNL     1      -8.078  11.544  68.176  1.00  0.00    -0.146 A  
HETATM   17  O   UNL     1     -10.985  13.052  65.540  1.00  0.00    -0.271 OA 
HETATM   18  O   UNL     1     -12.345  10.942  68.902  1.00  0.00    -0.486 OA 
HETATM   19  C   UNL     1      -6.709  11.335  67.953  1.00  0.00    -0.063 A  
HETATM   20  H   UNL     1     -11.519  13.216  64.772  1.00  0.00     0.000 HD 
HETATM   21  C   UNL     1      -6.265  10.845  66.730  1.00  0.00    -0.093 A  
HETATM   22  C   UNL     1      -7.192  10.573  65.729  1.00  0.00    -0.135 A  
HETATM   23  C   UNL     1      -8.562  10.783  65.949  1.00  0.00    -0.182 A  
ENDBRANCH  11  12
ENDBRANCH   5  11
TORSDOF 2
ENDMDL
MODEL      106
REMARK 921   NORMALIZED FREE ENERGY PREDICTED BY IDOCK:   -4.74 KCAL/MOL
REMARK 922        TOTAL FREE ENERGY PREDICTED BY IDOCK:   -5.80 KCAL/MOL
REMARK 923 INTER-LIGAND FREE ENERGY PREDICTED BY IDOCK:   -5.39 KCAL/MOL
REMARK 924 INTRA-LIGAND FREE ENERGY PREDICTED BY IDOCK:   -0.41 KCAL/MOL
REMARK 927      BINDING AFFINITY PREDICTED BY RF-SCORE:    0.00 PKD
ROOT
HETATM    1  C   UNL     1      -9.272  13.415  68.080  1.00  0.00    -0.215 C  
HETATM    2  N   UNL     1      -9.618  12.240  67.323  1.00  0.00    -0.184 NA 
HETATM    3  C   UNL     1     -10.942  11.640  67.538  1.00  0.00    -0.259 C  
HETATM    4  C   UNL     1     -11.066  11.012  68.943  1.00  0.00    -0.295 C  
HETATM    5  C   UNL     1     -10.018   9.914  69.194  1.00  0.00    -0.198 C  
HETATM    6  C   UNL     1      -8.628  10.344  68.678  1.00  0.00    -0.133 C  
HETATM    7  O   UNL     1     -10.345   9.345  66.513  1.00  0.00    -0.251 OA 
HETATM    8  C   UNL     1      -8.684  11.106  67.322  1.00  0.00    -0.139 C  
HETATM    9  C   UNL     1     -10.867  10.665  66.369  1.00  0.00    -0.062 C  
HETATM   10  C   UNL     1      -9.392  10.351  66.206  1.00  0.00    -0.166 C  
ENDROOT
BRANCH   5  11
HETATM   11  O   UNL     1     -10.042   9.301  70.515  1.00  0.00    -0.217 OA 
BRANCH  11  12
HETATM   12  C   UNL     1     -11.188   8.985  71.147  1.00  0.00    -0.305 C  
HETATM   13  C   UNL     1     -10.870   6.636  70.034  1.00  0.00    -0.331 A  
HETATM   14  C   UNL     1     -11.530   7.494  71.119  1.00  0.00    -0.295 C  
HETATM   15  C   UNL     1     -11.395   6.970  72.559  1.00  0.00    -0.263 C  
HETATM   16  C   UNL     1     -11.369   6.690  68.718  1.00  0.00    -0.181 A  
HETATM   17  O   UNL     1     -12.113   5.749  72.747  1.00  0.00    -0.543 OA 
HETATM   18  O   UNL     1     -11.890   9.813  71.729  1.00  0.00    -0.383 OA 
HETATM   19  C   UNL     1     -10.849   5.873  67.702  1.00  0.00    -0.331 A  
HETATM   20  H   UNL     1     -12.030   5.425  73.636  1.00  0.00     0.000 HD 
HETATM   21  C   UNL     1      -9.819   4.980  67.981  1.00  0.00    -0.202 A  
HETATM   22  C   UNL     1      -9.319   4.901  69.277  1.00  0.00    -0.185 A  
HETATM   23  C   UNL     1      -9.840   5.715  70.293  1.00  0.00    -0.254 A  
ENDBRANCH  11  12
ENDBRANCH   5  11
TORSDOF 2
ENDMDL
MODEL      107
REMARK 921   NORMALIZED FREE ENERGY PREDICTED BY IDOCK:   -4.73 KCAL/MOL
REMARK 922        TOTAL FREE ENERGY PREDICTED BY IDOCK:   -5.79 KCAL/MOL
REMARK 923 INTER-LIGAND FREE ENERGY PREDICTED BY IDOCK:   -5.82 KCAL/MOL
REMARK 924 INTRA-LIGAND FREE ENERGY PREDICTED BY IDOCK:    0.03 KCAL/MOL
REMARK 927      BINDING AFFINITY PREDICTED BY RF-SCORE:    0.00 PKD
ROOT
HETATM    1  C   UNL     1     -12.603  13.688  66.249  1.00  0.00    -0.291 C  
HETATM    2  N   UNL     1     -11.310  13.942  66.831  1.00  0.00    -0.316 NA 
HETATM    3  C   UNL     1     -10.241  12.960  66.607  1.00  0.00    -0.247 C  
HETATM    4  C   UNL     1     -10.525  11.626  67.332  1.00  0.00    -0.239 C  
HETATM    5  C   UNL     1     -10.674  11.802  68.852  1.00  0.00    -0.205 C  
HETATM    6  C   UNL     1     -11.530  13.043  69.187  1.00  0.00    -0.353 C  
HETATM    7  O   UNL     1      -8.751  13.760  68.558  1.00  0.00    -0.173 OA 
HETATM    8  C   UNL     1     -11.237  14.260  68.264  1.00  0.00    -0.276 C  
HETATM    9  C   UNL     1      -9.116  13.812  67.181  1.00  0.00    -0.239 C  
HETATM   10  C   UNL     1      -9.776  14.686  68.231  1.00  0.00    -0.215 C  
ENDROOT
BRANCH   5  11
HETATM   11  O   UNL     1     -10.986  10.595  69.605  1.00  0.00    -0.244 OA 
BRANCH  11  12
HETATM   12  C   UNL     1     -12.244  10.264  69.956  1.00  0.00    -0.120 C  
HETATM   13  C   UNL     1     -11.106   8.290  71.246  1.00  0.00    -0.296 A  
HETATM   14  C   UNL     1     -12.331   9.186  71.039  1.00  0.00    -0.273 C  
HETATM   15  C   UNL     1     -12.888   9.860  72.305  1.00  0.00    -0.259 C  
HETATM   16  C   UNL     1     -10.862   7.240  70.340  1.00  0.00    -0.265 A  
HETATM   17  O   UNL     1     -13.440   8.905  73.212  1.00  0.00    -0.972 OA 
HETATM   18  O   UNL     1     -13.243  10.800  69.475  1.00  0.00     0.110 OA 
HETATM   19  C   UNL     1      -9.797   6.345  70.523  1.00  0.00    -0.207 A  
HETATM   20  H   UNL     1     -13.784   9.320  73.994  1.00  0.00     0.000 HD 
HETATM   21  C   UNL     1      -8.953   6.478  71.620  1.00  0.00    -0.143 A  
HETATM   22  C   UNL     1      -9.182   7.500  72.536  1.00  0.00    -0.192 A  
HETATM   23  C   UNL     1     -10.248   8.394  72.355  1.00  0.00    -0.399 A  
ENDBRANCH  11  12
ENDBRANCH   5  11
TORSDOF 2
ENDMDL
MODEL      108
REMARK 921   NORMALIZED FREE ENERGY PREDICTED BY IDOCK:   -4.72 KCAL/MOL
REMARK 922        TOTAL FREE ENERGY PREDICTED BY IDOCK:   -5.78 KCAL/MOL
REMARK 923 INTER-LIGAND FREE ENERGY PREDICTED BY IDOCK:   -5.61 KCAL/MOL
REMARK 924 INTRA-LIGAND FREE ENERGY PREDICTED BY IDOCK:   -0.17 KCAL/MOL
REMARK 927      BINDING AFFINITY PREDICTED BY RF-SCORE:    0.00 PKD
ROOT
HETATM    1  C   UNL     1     -10.575  16.936  65.807  1.00  0.00    -0.230 C  
HETATM    2  N   UNL     1     -10.007  16.711  67.112  1.00  0.00    -0.262 NA 
HETATM    3  C   UNL     1      -8.725  15.998  67.199  1.00  0.00    -0.190 C  
HETATM    4  C   UNL     1      -8.863  14.517  66.786  1.00  0.00    -0.248 C  
HETATM    5  C   UNL     1      -9.873  13.753  67.659  1.00  0.00    -0.234 C  
HETATM    6  C   UNL     1     -11.146  14.592  67.901  1.00  0.00    -0.301 C  
HETATM    7  O   UNL     1      -8.953  15.375  69.695  1.00  0.00    -0.263 OA 
HETATM    8  C   UNL     1     -10.851  16.100  68.148  1.00  0.00    -0.329 C  
HETATM    9  C   UNL     1      -8.493  16.266  68.681  1.00  0.00    -0.221 C  
HETATM   10  C   UNL     1      -9.879  16.372  69.288  1.00  0.00    -0.240 C  
ENDROOT
BRANCH   5  11
HETATM   11  O   UNL     1     -10.092  12.357  67.306  1.00  0.00    -0.207 OA 
BRANCH  11  12
HETATM   12  C   UNL     1     -11.305  11.776  67.369  1.00  0.00    -0.311 C  
HETATM   13  C   UNL     1     -10.071   9.904  68.722  1.00  0.00    -0.186 A  
HETATM   14  C   UNL     1     -11.385  10.590  68.332  1.00  0.00    -0.328 C  
HETATM   15  C   UNL     1     -12.288  11.016  69.502  1.00  0.00    -0.197 C  
HETATM   16  C   UNL     1      -9.463   9.016  67.813  1.00  0.00    -0.162 A  
HETATM   17  O   UNL     1     -12.806   9.887  70.209  1.00  0.00    -0.538 OA 
HETATM   18  O   UNL     1     -12.281  12.177  66.733  1.00  0.00    -0.553 OA 
HETATM   19  C   UNL     1      -8.299   8.308  68.146  1.00  0.00    -0.129 A  
HETATM   20  H   UNL     1     -13.364  10.150  70.931  1.00  0.00     0.000 HD 
HETATM   21  C   UNL     1      -7.717   8.468  69.399  1.00  0.00    -0.092 A  
HETATM   22  C   UNL     1      -8.307   9.331  70.319  1.00  0.00    -0.204 A  
HETATM   23  C   UNL     1      -9.472  10.038  69.987  1.00  0.00    -0.184 A  
ENDBRANCH  11  12
ENDBRANCH   5  11
TORSDOF 2
ENDMDL
MODEL      109
REMARK 921   NORMALIZED FREE ENERGY PREDICTED BY IDOCK:   -4.68 KCAL/MOL
REMARK 922        TOTAL FREE ENERGY PREDICTED BY IDOCK:   -5.73 KCAL/MOL
REMARK 923 INTER-LIGAND FREE ENERGY PREDICTED BY IDOCK:   -5.11 KCAL/MOL
REMARK 924 INTRA-LIGAND FREE ENERGY PREDICTED BY IDOCK:   -0.62 KCAL/MOL
REMARK 927      BINDING AFFINITY PREDICTED BY RF-SCORE:    0.00 PKD
ROOT
HETATM    1  C   UNL     1      -7.668  10.222  67.080  1.00  0.00    -0.092 C  
HETATM    2  N   UNL     1      -8.987  10.766  67.281  1.00  0.00    -0.140 NA 
HETATM    3  C   UNL     1      -9.401  11.098  68.650  1.00  0.00    -0.184 C  
HETATM    4  C   UNL     1      -9.576   9.834  69.520  1.00  0.00    -0.225 C  
HETATM    5  C   UNL     1     -10.622   8.864  68.948  1.00  0.00    -0.165 C  
HETATM    6  C   UNL     1     -10.464   8.714  67.419  1.00  0.00    -0.351 C  
HETATM    7  O   UNL     1     -11.932  11.155  68.140  1.00  0.00    -0.615 OA 
HETATM    8  C   UNL     1     -10.134  10.054  66.700  1.00  0.00    -0.227 C  
HETATM    9  C   UNL     1     -10.681  11.828  68.258  1.00  0.00    -0.214 C  
HETATM   10  C   UNL     1     -11.133  11.173  66.967  1.00  0.00    -0.273 C  
ENDROOT
BRANCH   5  11
HETATM   11  O   UNL     1     -10.815   7.625  69.689  1.00  0.00    -0.242 OA 
BRANCH  11  12
HETATM   12  C   UNL     1     -11.517   7.568  70.836  1.00  0.00    -0.281 C  
HETATM   13  C   UNL     1      -9.669   5.879  71.601  1.00  0.00    -0.185 A  
HETATM   14  C   UNL     1     -10.801   6.840  71.976  1.00  0.00    -0.257 C  
HETATM   15  C   UNL     1     -10.456   7.895  73.042  1.00  0.00    -0.343 C  
HETATM   16  C   UNL     1      -9.989   4.602  71.100  1.00  0.00    -0.265 A  
HETATM   17  O   UNL     1     -10.216   7.298  74.317  1.00  0.00    -0.423 OA 
HETATM   18  O   UNL     1     -12.627   8.083  70.975  1.00  0.00    -0.213 OA 
HETATM   19  C   UNL     1      -8.994   3.657  70.809  1.00  0.00    -0.157 A  
HETATM   20  H   UNL     1     -10.003   7.949  74.975  1.00  0.00     0.000 HD 
HETATM   21  C   UNL     1      -7.654   3.966  71.016  1.00  0.00    -0.048 A  
HETATM   22  C   UNL     1      -7.314   5.216  71.522  1.00  0.00    -0.086 A  
HETATM   23  C   UNL     1      -8.308   6.161  71.816  1.00  0.00    -0.125 A  
ENDBRANCH  11  12
ENDBRANCH   5  11
TORSDOF 2
ENDMDL
MODEL      110
REMARK 921   NORMALIZED FREE ENERGY PREDICTED BY IDOCK:   -4.65 KCAL/MOL
REMARK 922        TOTAL FREE ENERGY PREDICTED BY IDOCK:   -5.70 KCAL/MOL
REMARK 923 INTER-LIGAND FREE ENERGY PREDICTED BY IDOCK:   -5.16 KCAL/MOL
REMARK 924 INTRA-LIGAND FREE ENERGY PREDICTED BY IDOCK:   -0.54 KCAL/MOL
REMARK 927      BINDING AFFINITY PREDICTED BY RF-SCORE:    0.00 PKD
ROOT
HETATM    1  C   UNL     1     -10.229   8.960  66.667  1.00  0.00    -0.268 C  
HETATM    2  N   UNL     1      -9.340   8.028  67.312  1.00  0.00    -0.140 NA 
HETATM    3  C   UNL     1      -9.790   6.639  67.478  1.00  0.00    -0.129 C  
HETATM    4  C   UNL     1     -10.956   6.531  68.486  1.00  0.00    -0.360 C  
HETATM    5  C   UNL     1     -10.582   7.061  69.880  1.00  0.00    -0.229 C  
HETATM    6  C   UNL     1      -9.791   8.383  69.778  1.00  0.00    -0.187 C  
HETATM    7  O   UNL     1      -8.080   6.039  69.317  1.00  0.00    -0.105 OA 
HETATM    8  C   UNL     1      -8.761   8.396  68.612  1.00  0.00    -0.133 C  
HETATM    9  C   UNL     1      -8.447   6.089  67.940  1.00  0.00    -0.115 C  
HETATM   10  C   UNL     1      -7.762   7.247  68.642  1.00  0.00    -0.120 C  
ENDROOT
BRANCH   5  11
HETATM   11  O   UNL     1     -11.642   7.032  70.878  1.00  0.00    -0.294 OA 
BRANCH  11  12
HETATM   12  C   UNL     1     -11.602   7.777  72.000  1.00  0.00    -0.300 C  
HETATM   13  C   UNL     1     -10.421   5.690  73.053  1.00  0.00    -0.246 A  
HETATM   14  C   UNL     1     -10.732   7.189  73.113  1.00  0.00    -0.385 C  
HETATM   15  C   UNL     1      -9.516   8.117  73.275  1.00  0.00    -0.220 C  
HETATM   16  C   UNL     1     -11.408   4.767  73.453  1.00  0.00    -0.397 A  
HETATM   17  O   UNL     1      -8.889   7.950  74.548  1.00  0.00    -0.438 OA 
HETATM   18  O   UNL     1     -12.186   8.854  72.117  1.00  0.00    -0.356 OA 
HETATM   19  C   UNL     1     -11.153   3.388  73.485  1.00  0.00    -0.317 A  
HETATM   20  H   UNL     1      -8.138   8.522  74.649  1.00  0.00     0.000 HD 
HETATM   21  C   UNL     1      -9.902   2.900  73.122  1.00  0.00    -0.169 A  
HETATM   22  C   UNL     1      -8.908   3.793  72.736  1.00  0.00    -0.104 A  
HETATM   23  C   UNL     1      -9.161   5.172  72.705  1.00  0.00    -0.146 A  
ENDBRANCH  11  12
ENDBRANCH   5  11
TORSDOF 2
ENDMDL
MODEL      111
REMARK 921   NORMALIZED FREE ENERGY PREDICTED BY IDOCK:   -4.65 KCAL/MOL
REMARK 922        TOTAL FREE ENERGY PREDICTED BY IDOCK:   -5.70 KCAL/MOL
REMARK 923 INTER-LIGAND FREE ENERGY PREDICTED BY IDOCK:   -5.37 KCAL/MOL
REMARK 924 INTRA-LIGAND FREE ENERGY PREDICTED BY IDOCK:   -0.33 KCAL/MOL
REMARK 927      BINDING AFFINITY PREDICTED BY RF-SCORE:    0.00 PKD
ROOT
HETATM    1  C   UNL     1      -7.330   8.406  66.921  1.00  0.00    -0.083 C  
HETATM    2  N   UNL     1      -8.353   7.593  67.527  1.00  0.00    -0.120 NA 
HETATM    3  C   UNL     1      -9.603   7.381  66.785  1.00  0.00    -0.192 C  
HETATM    4  C   UNL     1     -10.429   8.681  66.667  1.00  0.00    -0.239 C  
HETATM    5  C   UNL     1     -10.803   9.268  68.039  1.00  0.00    -0.106 C  
HETATM    6  C   UNL     1      -9.605   9.218  69.011  1.00  0.00    -0.159 C  
HETATM    7  O   UNL     1     -10.986   6.630  68.833  1.00  0.00    -0.263 OA 
HETATM    8  C   UNL     1      -8.776   7.906  68.899  1.00  0.00    -0.135 C  
HETATM    9  C   UNL     1     -10.162   6.310  67.714  1.00  0.00    -0.170 C  
HETATM   10  C   UNL     1      -9.588   6.631  69.081  1.00  0.00    -0.135 C  
ENDROOT
BRANCH   5  11
HETATM   11  O   UNL     1     -11.547  10.519  68.014  1.00  0.00    -0.442 OA 
BRANCH  11  12
HETATM   12  C   UNL     1     -11.001  11.695  68.380  1.00  0.00    -0.220 C  
HETATM   13  C   UNL     1     -10.861  12.154  65.805  1.00  0.00    -0.319 A  
HETATM   14  C   UNL     1     -10.852  12.701  67.237  1.00  0.00    -0.277 C  
HETATM   15  C   UNL     1     -11.832  13.853  67.517  1.00  0.00    -0.396 C  
HETATM   16  C   UNL     1      -9.701  11.536  65.299  1.00  0.00    -0.268 A  
HETATM   17  O   UNL     1     -11.473  15.038  66.804  1.00  0.00    -0.330 OA 
HETATM   18  O   UNL     1     -10.675  11.958  69.538  1.00  0.00    -0.039 OA 
HETATM   19  C   UNL     1      -9.630  11.082  63.974  1.00  0.00    -0.310 A  
HETATM   20  H   UNL     1     -12.078  15.750  66.977  1.00  0.00     0.000 HD 
HETATM   21  C   UNL     1     -10.718  11.239  63.122  1.00  0.00    -0.173 A  
HETATM   22  C   UNL     1     -11.871  11.858  63.595  1.00  0.00    -0.573 A  
HETATM   23  C   UNL     1     -11.942  12.315  64.920  1.00  0.00    -0.420 A  
ENDBRANCH  11  12
ENDBRANCH   5  11
TORSDOF 2
ENDMDL
MODEL      112
REMARK 921   NORMALIZED FREE ENERGY PREDICTED BY IDOCK:   -4.64 KCAL/MOL
REMARK 922        TOTAL FREE ENERGY PREDICTED BY IDOCK:   -5.69 KCAL/MOL
REMARK 923 INTER-LIGAND FREE ENERGY PREDICTED BY IDOCK:   -5.17 KCAL/MOL
REMARK 924 INTRA-LIGAND FREE ENERGY PREDICTED BY IDOCK:   -0.52 KCAL/MOL
REMARK 927      BINDING AFFINITY PREDICTED BY RF-SCORE:    0.00 PKD
ROOT
HETATM    1  C   UNL     1      -9.966   7.093  68.774  1.00  0.00    -0.163 C  
HETATM    2  N   UNL     1      -8.958   7.765  69.553  1.00  0.00    -0.143 NA 
HETATM    3  C   UNL     1      -9.389   8.787  70.516  1.00  0.00    -0.187 C  
HETATM    4  C   UNL     1      -9.958  10.037  69.810  1.00  0.00    -0.276 C  
HETATM    5  C   UNL     1      -8.939  10.697  68.867  1.00  0.00    -0.168 C  
HETATM    6  C   UNL     1      -8.183   9.638  68.036  1.00  0.00    -0.110 C  
HETATM    7  O   UNL     1      -7.074   9.909  70.744  1.00  0.00    -0.294 OA 
HETATM    8  C   UNL     1      -7.814   8.365  68.851  1.00  0.00    -0.113 C  
HETATM    9  C   UNL     1      -8.033   8.953  71.191  1.00  0.00    -0.144 C  
HETATM   10  C   UNL     1      -7.011   8.638  70.115  1.00  0.00    -0.043 C  
ENDROOT
BRANCH   5  11
HETATM   11  O   UNL     1      -9.414  11.860  68.130  1.00  0.00    -0.184 OA 
BRANCH  11  12
HETATM   12  C   UNL     1      -8.585  12.823  67.683  1.00  0.00    -0.181 C  
HETATM   13  C   UNL     1     -10.356  13.126  65.778  1.00  0.00    -0.294 A  
HETATM   14  C   UNL     1      -9.176  13.694  66.572  1.00  0.00    -0.195 C  
HETATM   15  C   UNL     1      -9.382  15.101  67.160  1.00  0.00    -0.212 C  
HETATM   16  C   UNL     1     -10.112  12.164  64.778  1.00  0.00    -0.276 A  
HETATM   17  O   UNL     1      -9.483  16.092  66.136  1.00  0.00    -0.284 OA 
HETATM   18  O   UNL     1      -7.460  13.015  68.145  1.00  0.00    -0.106 OA 
HETATM   19  C   UNL     1     -11.147  11.663  63.973  1.00  0.00    -0.458 A  
HETATM   20  H   UNL     1      -9.611  16.961  66.499  1.00  0.00     0.000 HD 
HETATM   21  C   UNL     1     -12.450  12.116  64.148  1.00  0.00    -0.497 A  
HETATM   22  C   UNL     1     -12.713  13.076  65.120  1.00  0.00    -0.461 A  
HETATM   23  C   UNL     1     -11.679  13.578  65.924  1.00  0.00    -0.380 A  
ENDBRANCH  11  12
ENDBRANCH   5  11
TORSDOF 2
ENDMDL
MODEL      113
REMARK 921   NORMALIZED FREE ENERGY PREDICTED BY IDOCK:   -4.62 KCAL/MOL
REMARK 922        TOTAL FREE ENERGY PREDICTED BY IDOCK:   -5.67 KCAL/MOL
REMARK 923 INTER-LIGAND FREE ENERGY PREDICTED BY IDOCK:   -5.19 KCAL/MOL
REMARK 924 INTRA-LIGAND FREE ENERGY PREDICTED BY IDOCK:   -0.48 KCAL/MOL
REMARK 927      BINDING AFFINITY PREDICTED BY RF-SCORE:    0.00 PKD
ROOT
HETATM    1  C   UNL     1      -9.621  17.171  68.725  1.00  0.00    -0.269 C  
HETATM    2  N   UNL     1      -8.344  16.586  68.405  1.00  0.00    -0.191 NA 
HETATM    3  C   UNL     1      -8.057  16.269  66.999  1.00  0.00    -0.209 C  
HETATM    4  C   UNL     1      -8.940  15.113  66.480  1.00  0.00    -0.326 C  
HETATM    5  C   UNL     1      -8.753  13.818  67.289  1.00  0.00    -0.219 C  
HETATM    6  C   UNL     1      -8.705  14.112  68.805  1.00  0.00    -0.065 C  
HETATM    7  O   UNL     1      -6.123  14.632  67.501  1.00  0.00    -0.323 OA 
HETATM    8  C   UNL     1      -7.908  15.401  69.157  1.00  0.00    -0.212 C  
HETATM    9  C   UNL     1      -6.581  15.950  67.205  1.00  0.00    -0.097 C  
HETATM   10  C   UNL     1      -6.482  15.424  68.624  1.00  0.00    -0.094 C  
ENDROOT
BRANCH   5  11
HETATM   11  O   UNL     1      -9.583  12.691  66.889  1.00  0.00    -0.218 OA 
BRANCH  11  12
HETATM   12  C   UNL     1     -10.904  12.637  67.143  1.00  0.00    -0.253 C  
HETATM   13  C   UNL     1     -10.453  10.114  67.679  1.00  0.00    -0.293 A  
HETATM   14  C   UNL     1     -11.363  11.339  67.811  1.00  0.00    -0.354 C  
HETATM   15  C   UNL     1     -11.799  11.696  69.243  1.00  0.00    -0.331 C  
HETATM   16  C   UNL     1     -10.446   9.391  66.471  1.00  0.00    -0.199 A  
HETATM   17  O   UNL     1     -12.656  10.698  69.799  1.00  0.00    -0.504 OA 
HETATM   18  O   UNL     1     -11.679  13.561  66.893  1.00  0.00    -0.343 OA 
HETATM   19  C   UNL     1      -9.686   8.221  66.320  1.00  0.00    -0.253 A  
HETATM   20  H   UNL     1     -12.926  10.917  70.683  1.00  0.00     0.000 HD 
HETATM   21  C   UNL     1      -8.917   7.746  67.377  1.00  0.00    -0.128 A  
HETATM   22  C   UNL     1      -8.918   8.437  68.585  1.00  0.00    -0.140 A  
HETATM   23  C   UNL     1      -9.679   9.605  68.737  1.00  0.00    -0.167 A  
ENDBRANCH  11  12
ENDBRANCH   5  11
TORSDOF 2
ENDMDL
MODEL      114
REMARK 921   NORMALIZED FREE ENERGY PREDICTED BY IDOCK:   -4.62 KCAL/MOL
REMARK 922        TOTAL FREE ENERGY PREDICTED BY IDOCK:   -5.67 KCAL/MOL
REMARK 923 INTER-LIGAND FREE ENERGY PREDICTED BY IDOCK:   -5.00 KCAL/MOL
REMARK 924 INTRA-LIGAND FREE ENERGY PREDICTED BY IDOCK:   -0.67 KCAL/MOL
REMARK 927      BINDING AFFINITY PREDICTED BY RF-SCORE:    0.00 PKD
ROOT
HETATM    1  C   UNL     1     -10.562  14.839  64.837  1.00  0.00    -0.406 C  
HETATM    2  N   UNL     1     -10.792  14.840  66.259  1.00  0.00    -0.315 NA 
HETATM    3  C   UNL     1      -9.724  14.342  67.136  1.00  0.00    -0.254 C  
HETATM    4  C   UNL     1      -9.509  12.821  66.972  1.00  0.00    -0.233 C  
HETATM    5  C   UNL     1     -10.776  12.009  67.287  1.00  0.00    -0.232 C  
HETATM    6  C   UNL     1     -12.027  12.668  66.665  1.00  0.00    -0.382 C  
HETATM    7  O   UNL     1     -11.243  13.955  69.188  1.00  0.00    -0.253 OA 
HETATM    8  C   UNL     1     -12.022  14.220  66.771  1.00  0.00    -0.436 C  
HETATM    9  C   UNL     1     -10.364  14.795  68.442  1.00  0.00    -0.233 C  
HETATM   10  C   UNL     1     -11.859  14.753  68.188  1.00  0.00    -0.287 C  
ENDROOT
BRANCH   5  11
HETATM   11  O   UNL     1     -10.668  10.567  67.114  1.00  0.00    -0.256 OA 
BRANCH  11  12
HETATM   12  C   UNL     1      -9.911  10.007  66.151  1.00  0.00    -0.256 C  
HETATM   13  C   UNL     1      -8.500   9.065  68.145  1.00  0.00    -0.129 A  
HETATM   14  C   UNL     1      -8.891   8.990  66.666  1.00  0.00    -0.152 C  
HETATM   15  C   UNL     1      -9.337   7.606  66.163  1.00  0.00    -0.080 C  
HETATM   16  C   UNL     1      -7.595  10.059  68.566  1.00  0.00    -0.087 A  
HETATM   17  O   UNL     1      -8.262   6.666  66.175  1.00  0.00    -0.113 OA 
HETATM   18  O   UNL     1     -10.044  10.262  64.953  1.00  0.00    -0.334 OA 
HETATM   19  C   UNL     1      -7.148  10.129  69.894  1.00  0.00    -0.144 A  
HETATM   20  H   UNL     1      -8.537   5.812  65.865  1.00  0.00     0.000 HD 
HETATM   21  C   UNL     1      -7.592   9.203  70.831  1.00  0.00    -0.146 A  
HETATM   22  C   UNL     1      -8.477   8.204  70.436  1.00  0.00    -0.129 A  
HETATM   23  C   UNL     1      -8.923   8.132  69.108  1.00  0.00    -0.144 A  
ENDBRANCH  11  12
ENDBRANCH   5  11
TORSDOF 2
ENDMDL
MODEL      115
REMARK 921   NORMALIZED FREE ENERGY PREDICTED BY IDOCK:   -4.60 KCAL/MOL
REMARK 922        TOTAL FREE ENERGY PREDICTED BY IDOCK:   -5.64 KCAL/MOL
REMARK 923 INTER-LIGAND FREE ENERGY PREDICTED BY IDOCK:   -4.91 KCAL/MOL
REMARK 924 INTRA-LIGAND FREE ENERGY PREDICTED BY IDOCK:   -0.74 KCAL/MOL
REMARK 927      BINDING AFFINITY PREDICTED BY RF-SCORE:    0.00 PKD
ROOT
HETATM    1  C   UNL     1     -11.991  11.307  68.113  1.00  0.00    -0.110 C  
HETATM    2  N   UNL     1     -11.016  10.985  67.102  1.00  0.00    -0.283 NA 
HETATM    3  C   UNL     1      -9.710  10.471  67.535  1.00  0.00    -0.166 C  
HETATM    4  C   UNL     1      -8.884  11.549  68.271  1.00  0.00    -0.166 C  
HETATM    5  C   UNL     1      -8.622  12.788  67.399  1.00  0.00    -0.194 C  
HETATM    6  C   UNL     1      -9.894  13.205  66.629  1.00  0.00    -0.261 C  
HETATM    7  O   UNL     1      -8.492  10.982  65.316  1.00  0.00    -0.120 OA 
HETATM    8  C   UNL     1     -10.706  11.996  66.082  1.00  0.00    -0.275 C  
HETATM    9  C   UNL     1      -9.223  10.081  66.145  1.00  0.00    -0.165 C  
HETATM   10  C   UNL     1      -9.905  11.049  65.198  1.00  0.00    -0.268 C  
ENDROOT
BRANCH   5  11
HETATM   11  O   UNL     1      -7.885  13.871  68.036  1.00  0.00    -0.126 OA 
BRANCH  11  12
HETATM   12  C   UNL     1      -6.738  14.363  67.529  1.00  0.00    -0.108 C  
HETATM   13  C   UNL     1      -8.044  16.630  67.421  1.00  0.00    -0.187 A  
HETATM   14  C   UNL     1      -6.703  15.890  67.423  1.00  0.00    -0.229 C  
HETATM   15  C   UNL     1      -5.665  16.391  68.441  1.00  0.00    -0.106 C  
HETATM   16  C   UNL     1      -8.817  16.651  66.243  1.00  0.00    -0.348 A  
HETATM   17  O   UNL     1      -5.211  17.709  68.128  1.00  0.00    -0.137 OA 
HETATM   18  O   UNL     1      -5.783  13.656  67.206  1.00  0.00    -0.337 OA 
HETATM   19  C   UNL     1     -10.017  17.373  66.164  1.00  0.00    -0.281 A  
HETATM   20  H   UNL     1      -4.570  18.019  68.756  1.00  0.00     0.000 HD 
HETATM   21  C   UNL     1     -10.471  18.096  67.262  1.00  0.00    -0.407 A  
HETATM   22  C   UNL     1      -9.719  18.101  68.433  1.00  0.00    -0.363 A  
HETATM   23  C   UNL     1      -8.518  17.381  68.511  1.00  0.00    -0.274 A  
ENDBRANCH  11  12
ENDBRANCH   5  11
TORSDOF 2
ENDMDL
MODEL      116
REMARK 921   NORMALIZED FREE ENERGY PREDICTED BY IDOCK:   -4.58 KCAL/MOL
REMARK 922        TOTAL FREE ENERGY PREDICTED BY IDOCK:   -5.62 KCAL/MOL
REMARK 923 INTER-LIGAND FREE ENERGY PREDICTED BY IDOCK:   -5.24 KCAL/MOL
REMARK 924 INTRA-LIGAND FREE ENERGY PREDICTED BY IDOCK:   -0.38 KCAL/MOL
REMARK 927      BINDING AFFINITY PREDICTED BY RF-SCORE:    0.00 PKD
ROOT
HETATM    1  C   UNL     1      -9.492   2.949  68.687  1.00  0.00    -0.124 C  
HETATM    2  N   UNL     1      -9.219   4.000  67.741  1.00  0.00    -0.146 NA 
HETATM    3  C   UNL     1      -8.043   4.851  67.967  1.00  0.00    -0.093 C  
HETATM    4  C   UNL     1      -8.213   5.747  69.214  1.00  0.00    -0.105 C  
HETATM    5  C   UNL     1      -9.437   6.673  69.112  1.00  0.00    -0.136 C  
HETATM    6  C   UNL     1     -10.661   5.918  68.551  1.00  0.00    -0.317 C  
HETATM    7  O   UNL     1      -8.821   6.770  66.423  1.00  0.00    -0.135 OA 
HETATM    8  C   UNL     1     -10.302   4.934  67.400  1.00  0.00    -0.065 C  
HETATM    9  C   UNL     1      -8.095   5.558  66.618  1.00  0.00    -0.105 C  
HETATM   10  C   UNL     1      -9.563   5.574  66.233  1.00  0.00    -0.156 C  
ENDROOT
BRANCH   5  11
HETATM   11  O   UNL     1      -9.691   7.521  70.269  1.00  0.00    -0.179 OA 
BRANCH  11  12
HETATM   12  C   UNL     1      -9.327   7.171  71.518  1.00  0.00    -0.153 C  
HETATM   13  C   UNL     1     -11.845   7.586  72.107  1.00  0.00    -0.338 A  
HETATM   14  C   UNL     1     -10.501   6.950  72.475  1.00  0.00    -0.241 C  
HETATM   15  C   UNL     1     -10.541   5.448  72.804  1.00  0.00    -0.229 C  
HETATM   16  C   UNL     1     -12.036   8.964  72.326  1.00  0.00    -0.392 A  
HETATM   17  O   UNL     1     -11.267   5.189  74.006  1.00  0.00    -0.424 OA 
HETATM   18  O   UNL     1      -8.156   7.010  71.860  1.00  0.00    -0.098 OA 
HETATM   19  C   UNL     1     -13.269   9.583  72.073  1.00  0.00    -0.539 A  
HETATM   20  H   UNL     1     -11.292   4.262  74.210  1.00  0.00     0.000 HD 
HETATM   21  C   UNL     1     -14.343   8.837  71.600  1.00  0.00    -0.387 A  
HETATM   22  C   UNL     1     -14.182   7.471  71.388  1.00  0.00    -0.523 A  
HETATM   23  C   UNL     1     -12.950   6.851  71.642  1.00  0.00    -0.359 A  
ENDBRANCH  11  12
ENDBRANCH   5  11
TORSDOF 2
ENDMDL
MODEL      117
REMARK 921   NORMALIZED FREE ENERGY PREDICTED BY IDOCK:   -4.56 KCAL/MOL
REMARK 922        TOTAL FREE ENERGY PREDICTED BY IDOCK:   -5.60 KCAL/MOL
REMARK 923 INTER-LIGAND FREE ENERGY PREDICTED BY IDOCK:   -5.48 KCAL/MOL
REMARK 924 INTRA-LIGAND FREE ENERGY PREDICTED BY IDOCK:   -0.13 KCAL/MOL
REMARK 927      BINDING AFFINITY PREDICTED BY RF-SCORE:    0.00 PKD
ROOT
HETATM    1  C   UNL     1      -7.088   9.831  65.630  1.00  0.00    -0.105 C  
HETATM    2  N   UNL     1      -8.335  10.523  65.430  1.00  0.00    -0.166 NA 
HETATM    3  C   UNL     1      -8.739  11.528  66.422  1.00  0.00    -0.179 C  
HETATM    4  C   UNL     1      -9.085  10.886  67.783  1.00  0.00    -0.149 C  
HETATM    5  C   UNL     1     -10.227   9.862  67.679  1.00  0.00    -0.208 C  
HETATM    6  C   UNL     1     -10.052   8.958  66.438  1.00  0.00    -0.333 C  
HETATM    7  O   UNL     1     -11.232  11.560  65.748  1.00  0.00    -0.265 OA 
HETATM    8  C   UNL     1      -9.546   9.727  65.184  1.00  0.00    -0.287 C  
HETATM    9  C   UNL     1      -9.911  12.082  65.621  1.00  0.00    -0.243 C  
HETATM   10  C   UNL     1     -10.408  10.917  64.786  1.00  0.00    -0.323 C  
ENDROOT
BRANCH   5  11
HETATM   11  O   UNL     1     -10.585   9.179  68.914  1.00  0.00    -0.222 OA 
BRANCH  11  12
HETATM   12  C   UNL     1      -9.723   8.390  69.583  1.00  0.00    -0.173 C  
HETATM   13  C   UNL     1     -11.768   7.883  71.137  1.00  0.00    -0.306 A  
HETATM   14  C   UNL     1     -10.379   7.484  70.627  1.00  0.00    -0.211 C  
HETATM   15  C   UNL     1     -10.243   6.037  70.122  1.00  0.00    -0.208 C  
HETATM   16  C   UNL     1     -11.880   8.917  72.087  1.00  0.00    -0.417 A  
HETATM   17  O   UNL     1     -10.391   5.091  71.182  1.00  0.00    -0.220 OA 
HETATM   18  O   UNL     1      -8.512   8.369  69.357  1.00  0.00    -0.122 OA 
HETATM   19  C   UNL     1     -13.119   9.273  72.641  1.00  0.00    -0.305 A  
HETATM   20  H   UNL     1     -10.307   4.198  70.871  1.00  0.00     0.000 HD 
HETATM   21  C   UNL     1     -14.275   8.600  72.260  1.00  0.00    -0.497 A  
HETATM   22  C   UNL     1     -14.187   7.567  71.333  1.00  0.00    -0.523 A  
HETATM   23  C   UNL     1     -12.949   7.208  70.780  1.00  0.00    -0.014 A  
ENDBRANCH  11  12
ENDBRANCH   5  11
TORSDOF 2
ENDMDL
MODEL      118
REMARK 921   NORMALIZED FREE ENERGY PREDICTED BY IDOCK:   -4.53 KCAL/MOL
REMARK 922        TOTAL FREE ENERGY PREDICTED BY IDOCK:   -5.57 KCAL/MOL
REMARK 923 INTER-LIGAND FREE ENERGY PREDICTED BY IDOCK:   -4.97 KCAL/MOL
REMARK 924 INTRA-LIGAND FREE ENERGY PREDICTED BY IDOCK:   -0.60 KCAL/MOL
REMARK 927      BINDING AFFINITY PREDICTED BY RF-SCORE:    0.00 PKD
ROOT
HETATM    1  C   UNL     1      -7.514   8.439  69.639  1.00  0.00    -0.073 C  
HETATM    2  N   UNL     1      -7.492   8.689  68.221  1.00  0.00    -0.094 NA 
HETATM    3  C   UNL     1      -6.921   9.956  67.746  1.00  0.00    -0.085 C  
HETATM    4  C   UNL     1      -7.794  11.165  68.146  1.00  0.00    -0.118 C  
HETATM    5  C   UNL     1      -9.224  11.070  67.587  1.00  0.00    -0.149 C  
HETATM    6  C   UNL     1      -9.789   9.643  67.748  1.00  0.00    -0.192 C  
HETATM    7  O   UNL     1      -8.022   9.870  65.412  1.00  0.00    -0.123 OA 
HETATM    8  C   UNL     1      -8.741   8.529  67.462  1.00  0.00    -0.135 C  
HETATM    9  C   UNL     1      -6.917   9.587  66.268  1.00  0.00    -0.091 C  
HETATM   10  C   UNL     1      -8.078   8.626  66.094  1.00  0.00    -0.108 C  
ENDROOT
BRANCH   5  11
HETATM   11  O   UNL     1     -10.125  12.154  67.956  1.00  0.00    -0.192 OA 
BRANCH  11  12
HETATM   12  C   UNL     1     -11.101  12.594  67.140  1.00  0.00    -0.280 C  
HETATM   13  C   UNL     1      -9.884  14.905  67.327  1.00  0.00    -0.229 A  
HETATM   14  C   UNL     1     -10.866  13.998  66.578  1.00  0.00    -0.300 C  
HETATM   15  C   UNL     1     -10.615  13.846  65.068  1.00  0.00    -0.404 C  
HETATM   16  C   UNL     1     -10.303  15.541  68.512  1.00  0.00    -0.225 A  
HETATM   17  O   UNL     1     -10.839  15.072  64.369  1.00  0.00    -0.627 OA 
HETATM   18  O   UNL     1     -12.087  11.919  66.839  1.00  0.00    -0.599 OA 
HETATM   19  C   UNL     1      -9.470  16.436  69.198  1.00  0.00    -0.236 A  
HETATM   20  H   UNL     1     -10.684  14.978  63.437  1.00  0.00     0.000 HD 
HETATM   21  C   UNL     1      -8.198  16.721  68.713  1.00  0.00    -0.250 A  
HETATM   22  C   UNL     1      -7.767  16.114  67.538  1.00  0.00    -0.170 A  
HETATM   23  C   UNL     1      -8.600  15.220  66.849  1.00  0.00    -0.289 A  
ENDBRANCH  11  12
ENDBRANCH   5  11
TORSDOF 2
ENDMDL
MODEL      119
REMARK 921   NORMALIZED FREE ENERGY PREDICTED BY IDOCK:   -4.51 KCAL/MOL
REMARK 922        TOTAL FREE ENERGY PREDICTED BY IDOCK:   -5.54 KCAL/MOL
REMARK 923 INTER-LIGAND FREE ENERGY PREDICTED BY IDOCK:   -4.95 KCAL/MOL
REMARK 924 INTRA-LIGAND FREE ENERGY PREDICTED BY IDOCK:   -0.59 KCAL/MOL
REMARK 927      BINDING AFFINITY PREDICTED BY RF-SCORE:    0.00 PKD
ROOT
HETATM    1  C   UNL     1      -6.537  19.397  67.097  1.00  0.00    -0.195 C  
HETATM    2  N   UNL     1      -7.971  19.526  67.044  1.00  0.00    -0.260 NA 
HETATM    3  C   UNL     1      -8.709  19.612  68.311  1.00  0.00    -0.314 C  
HETATM    4  C   UNL     1      -8.660  18.282  69.095  1.00  0.00     0.094 C  
HETATM    5  C   UNL     1      -9.251  17.106  68.299  1.00  0.00    -0.262 C  
HETATM    6  C   UNL     1      -8.778  17.136  66.830  1.00  0.00    -0.270 C  
HETATM    7  O   UNL     1     -11.006  18.992  67.306  1.00  0.00    -0.459 OA 
HETATM    8  C   UNL     1      -8.731  18.570  66.227  1.00  0.00    -0.203 C  
HETATM    9  C   UNL     1     -10.051  19.979  67.691  1.00  0.00    -0.422 C  
HETATM   10  C   UNL     1     -10.045  19.333  66.318  1.00  0.00    -0.442 C  
ENDROOT
BRANCH   5  11
HETATM   11  O   UNL     1      -9.203  15.806  68.953  1.00  0.00    -0.197 OA 
BRANCH  11  12
HETATM   12  C   UNL     1      -8.059  15.113  69.106  1.00  0.00    -0.214 C  
HETATM   13  C   UNL     1      -9.414  13.120  68.080  1.00  0.00    -0.222 A  
HETATM   14  C   UNL     1      -8.056  13.746  68.418  1.00  0.00    -0.148 C  
HETATM   15  C   UNL     1      -7.050  13.824  67.257  1.00  0.00     0.077 C  
HETATM   16  C   UNL     1     -10.163  12.509  69.105  1.00  0.00     0.224 A  
HETATM   17  O   UNL     1      -6.620  12.526  66.842  1.00  0.00    -0.408 OA 
HETATM   18  O   UNL     1      -7.082  15.547  69.716  1.00  0.00    -0.181 OA 
HETATM   19  C   UNL     1     -11.377  11.859  68.839  1.00  0.00    -0.335 A  
HETATM   20  H   UNL     1      -5.999  12.574  66.125  1.00  0.00     0.000 HD 
HETATM   21  C   UNL     1     -11.869  11.802  67.539  1.00  0.00    -0.227 A  
HETATM   22  C   UNL     1     -11.141  12.387  66.508  1.00  0.00    -0.346 A  
HETATM   23  C   UNL     1      -9.925  13.035  66.773  1.00  0.00    -0.245 A  
ENDBRANCH  11  12
ENDBRANCH   5  11
TORSDOF 2
ENDMDL
MODEL      120
REMARK 921   NORMALIZED FREE ENERGY PREDICTED BY IDOCK:   -4.49 KCAL/MOL
REMARK 922        TOTAL FREE ENERGY PREDICTED BY IDOCK:   -5.53 KCAL/MOL
REMARK 923 INTER-LIGAND FREE ENERGY PREDICTED BY IDOCK:   -4.99 KCAL/MOL
REMARK 924 INTRA-LIGAND FREE ENERGY PREDICTED BY IDOCK:   -0.54 KCAL/MOL
REMARK 927      BINDING AFFINITY PREDICTED BY RF-SCORE:    0.00 PKD
ROOT
HETATM    1  C   UNL     1      -7.711   8.519  65.869  1.00  0.00    -0.097 C  
HETATM    2  N   UNL     1      -8.437   7.855  66.921  1.00  0.00    -0.125 NA 
HETATM    3  C   UNL     1      -9.904   7.931  66.909  1.00  0.00    -0.239 C  
HETATM    4  C   UNL     1     -10.407   9.363  67.195  1.00  0.00    -0.326 C  
HETATM    5  C   UNL     1      -9.932   9.894  68.558  1.00  0.00    -0.159 C  
HETATM    6  C   UNL     1      -8.446   9.551  68.801  1.00  0.00    -0.122 C  
HETATM    7  O   UNL     1     -10.211   7.276  69.388  1.00  0.00    -0.182 OA 
HETATM    8  C   UNL     1      -8.056   8.125  68.314  1.00  0.00    -0.128 C  
HETATM    9  C   UNL     1     -10.128   6.906  68.013  1.00  0.00    -0.166 C  
HETATM   10  C   UNL     1      -8.903   7.006  68.904  1.00  0.00    -0.130 C  
ENDROOT
BRANCH   5  11
HETATM   11  O   UNL     1     -10.329  11.256  68.885  1.00  0.00    -0.201 OA 
BRANCH  11  12
HETATM   12  C   UNL     1     -11.552  11.742  68.602  1.00  0.00    -0.309 C  
HETATM   13  C   UNL     1     -10.269  13.937  67.974  1.00  0.00    -0.246 A  
HETATM   14  C   UNL     1     -11.540  13.088  67.872  1.00  0.00    -0.385 C  
HETATM   15  C   UNL     1     -12.062  12.836  66.448  1.00  0.00    -0.300 C  
HETATM   16  C   UNL     1     -10.024  14.669  69.152  1.00  0.00    -0.149 A  
HETATM   17  O   UNL     1     -12.528  14.040  65.835  1.00  0.00    -0.470 OA 
HETATM   18  O   UNL     1     -12.596  11.148  68.873  1.00  0.00    -0.358 OA 
HETATM   19  C   UNL     1      -8.913  15.518  69.271  1.00  0.00    -0.267 A  
HETATM   20  H   UNL     1     -12.850  13.885  64.955  1.00  0.00     0.000 HD 
HETATM   21  C   UNL     1      -8.023  15.657  68.212  1.00  0.00    -0.129 A  
HETATM   22  C   UNL     1      -8.251  14.954  67.033  1.00  0.00    -0.228 A  
HETATM   23  C   UNL     1      -9.362  14.107  66.913  1.00  0.00    -0.274 A  
ENDBRANCH  11  12
ENDBRANCH   5  11
TORSDOF 2
ENDMDL
MODEL      121
REMARK 921   NORMALIZED FREE ENERGY PREDICTED BY IDOCK:   -4.49 KCAL/MOL
REMARK 922        TOTAL FREE ENERGY PREDICTED BY IDOCK:   -5.52 KCAL/MOL
REMARK 923 INTER-LIGAND FREE ENERGY PREDICTED BY IDOCK:   -4.89 KCAL/MOL
REMARK 924 INTRA-LIGAND FREE ENERGY PREDICTED BY IDOCK:   -0.64 KCAL/MOL
REMARK 927      BINDING AFFINITY PREDICTED BY RF-SCORE:    0.00 PKD
ROOT
HETATM    1  C   UNL     1      -8.120   6.800  65.245  1.00  0.00    -0.130 C  
HETATM    2  N   UNL     1      -8.351   5.498  65.817  1.00  0.00    -0.123 NA 
HETATM    3  C   UNL     1      -9.710   4.942  65.756  1.00  0.00    -0.169 C  
HETATM    4  C   UNL     1     -10.693   5.729  66.651  1.00  0.00    -0.333 C  
HETATM    5  C   UNL     1     -10.268   5.736  68.128  1.00  0.00    -0.190 C  
HETATM    6  C   UNL     1      -8.751   5.987  68.269  1.00  0.00    -0.113 C  
HETATM    7  O   UNL     1      -9.347   3.185  67.613  1.00  0.00    -0.189 OA 
HETATM    8  C   UNL     1      -7.903   5.248  67.194  1.00  0.00    -0.100 C  
HETATM    9  C   UNL     1      -9.334   3.545  66.234  1.00  0.00    -0.166 C  
HETATM   10  C   UNL     1      -8.132   3.744  67.137  1.00  0.00    -0.091 C  
ENDROOT
BRANCH   5  11
HETATM   11  O   UNL     1     -11.122   6.494  69.033  1.00  0.00    -0.302 OA 
BRANCH  11  12
HETATM   12  C   UNL     1     -11.004   6.422  70.372  1.00  0.00    -0.308 C  
HETATM   13  C   UNL     1     -11.039   9.039  70.273  1.00  0.00    -0.263 A  
HETATM   14  C   UNL     1     -11.210   7.756  71.094  1.00  0.00    -0.285 C  
HETATM   15  C   UNL     1     -12.521   7.643  71.890  1.00  0.00    -0.308 C  
HETATM   16  C   UNL     1      -9.741   9.497  69.976  1.00  0.00    -0.271 A  
HETATM   17  O   UNL     1     -12.587   8.610  72.940  1.00  0.00    -0.574 OA 
HETATM   18  O   UNL     1     -10.781   5.372  70.976  1.00  0.00    -0.233 OA 
HETATM   19  C   UNL     1      -9.527  10.702  69.291  1.00  0.00    -0.152 A  
HETATM   20  H   UNL     1     -13.396   8.540  73.432  1.00  0.00     0.000 HD 
HETATM   21  C   UNL     1     -10.607  11.480  68.890  1.00  0.00    -0.236 A  
HETATM   22  C   UNL     1     -11.899  11.054  69.183  1.00  0.00    -0.407 A  
HETATM   23  C   UNL     1     -12.114   9.851  69.870  1.00  0.00     0.061 A  
ENDBRANCH  11  12
ENDBRANCH   5  11
TORSDOF 2
ENDMDL
MODEL      122
REMARK 921   NORMALIZED FREE ENERGY PREDICTED BY IDOCK:   -4.47 KCAL/MOL
REMARK 922        TOTAL FREE ENERGY PREDICTED BY IDOCK:   -5.50 KCAL/MOL
REMARK 923 INTER-LIGAND FREE ENERGY PREDICTED BY IDOCK:   -4.83 KCAL/MOL
REMARK 924 INTRA-LIGAND FREE ENERGY PREDICTED BY IDOCK:   -0.67 KCAL/MOL
REMARK 927      BINDING AFFINITY PREDICTED BY RF-SCORE:    0.00 PKD
ROOT
HETATM    1  C   UNL     1      -6.313  10.120  69.370  1.00  0.00    -0.048 C  
HETATM    2  N   UNL     1      -7.046  10.022  68.134  1.00  0.00    -0.079 NA 
HETATM    3  C   UNL     1      -6.648  10.891  67.018  1.00  0.00    -0.090 C  
HETATM    4  C   UNL     1      -6.951  12.377  67.311  1.00  0.00    -0.129 C  
HETATM    5  C   UNL     1      -8.443  12.633  67.580  1.00  0.00    -0.173 C  
HETATM    6  C   UNL     1      -9.036  11.544  68.501  1.00  0.00    -0.157 C  
HETATM    7  O   UNL     1      -8.860  10.648  65.708  1.00  0.00    -0.171 OA 
HETATM    8  C   UNL     1      -8.512  10.115  68.180  1.00  0.00    -0.118 C  
HETATM    9  C   UNL     1      -7.525  10.219  65.970  1.00  0.00    -0.128 C  
HETATM   10  C   UNL     1      -8.718   9.679  66.736  1.00  0.00    -0.134 C  
ENDROOT
BRANCH   5  11
HETATM   11  O   UNL     1      -8.805  14.005  67.908  1.00  0.00    -0.167 OA 
BRANCH  11  12
HETATM   12  C   UNL     1      -9.450  14.811  67.042  1.00  0.00    -0.231 C  
HETATM   13  C   UNL     1     -11.109  15.213  69.028  1.00  0.00    -0.260 A  
HETATM   14  C   UNL     1     -10.543  15.671  67.680  1.00  0.00    -0.294 C  
HETATM   15  C   UNL     1     -10.064  17.131  67.619  1.00  0.00    -0.305 C  
HETATM   16  C   UNL     1     -12.040  14.156  69.059  1.00  0.00    -0.348 A  
HETATM   17  O   UNL     1     -11.150  18.050  67.749  1.00  0.00    -0.206 OA 
HETATM   18  O   UNL     1      -9.169  14.880  65.845  1.00  0.00    -0.254 OA 
HETATM   19  C   UNL     1     -12.643  13.744  70.257  1.00  0.00    -0.288 A  
HETATM   20  H   UNL     1     -10.855  18.952  67.711  1.00  0.00     0.000 HD 
HETATM   21  C   UNL     1     -12.331  14.383  71.452  1.00  0.00    -0.433 A  
HETATM   22  C   UNL     1     -11.423  15.437  71.445  1.00  0.00    -0.465 A  
HETATM   23  C   UNL     1     -10.822  15.851  70.247  1.00  0.00    -0.349 A  
ENDBRANCH  11  12
ENDBRANCH   5  11
TORSDOF 2
ENDMDL
MODEL      123
REMARK 921   NORMALIZED FREE ENERGY PREDICTED BY IDOCK:   -4.47 KCAL/MOL
REMARK 922        TOTAL FREE ENERGY PREDICTED BY IDOCK:   -5.49 KCAL/MOL
REMARK 923 INTER-LIGAND FREE ENERGY PREDICTED BY IDOCK:   -4.77 KCAL/MOL
REMARK 924 INTRA-LIGAND FREE ENERGY PREDICTED BY IDOCK:   -0.73 KCAL/MOL
REMARK 927      BINDING AFFINITY PREDICTED BY RF-SCORE:    0.00 PKD
ROOT
HETATM    1  C   UNL     1      -8.075  14.344  67.852  1.00  0.00    -0.151 C  
HETATM    2  N   UNL     1      -8.793  13.381  67.058  1.00  0.00    -0.223 NA 
HETATM    3  C   UNL     1     -10.257  13.343  67.167  1.00  0.00    -0.247 C  
HETATM    4  C   UNL     1     -10.717  12.838  68.552  1.00  0.00    -0.275 C  
HETATM    5  C   UNL     1     -10.197  11.425  68.867  1.00  0.00    -0.168 C  
HETATM    6  C   UNL     1      -8.715  11.275  68.461  1.00  0.00    -0.156 C  
HETATM    7  O   UNL     1     -10.522  10.978  66.163  1.00  0.00    -0.246 OA 
HETATM    8  C   UNL     1      -8.372  11.974  67.114  1.00  0.00    -0.181 C  
HETATM    9  C   UNL     1     -10.481  12.393  65.996  1.00  0.00    -0.254 C  
HETATM   10  C   UNL     1      -9.234  11.531  65.939  1.00  0.00    -0.210 C  
ENDROOT
BRANCH   5  11
HETATM   11  O   UNL     1     -10.552  10.893  70.176  1.00  0.00    -0.051 OA 
BRANCH  11  12
HETATM   12  C   UNL     1     -11.645  10.132  70.377  1.00  0.00    -0.316 C  
HETATM   13  C   UNL     1      -9.926   8.246  70.967  1.00  0.00    -0.226 A  
HETATM   14  C   UNL     1     -11.358   8.785  71.044  1.00  0.00    -0.332 C  
HETATM   15  C   UNL     1     -11.977   8.836  72.452  1.00  0.00    -0.299 C  
HETATM   16  C   UNL     1      -9.479   7.653  69.770  1.00  0.00    -0.156 A  
HETATM   17  O   UNL     1     -12.183   7.527  72.986  1.00  0.00    -0.422 OA 
HETATM   18  O   UNL     1     -12.784  10.495  70.082  1.00  0.00    -0.287 OA 
HETATM   19  C   UNL     1      -8.203   7.080  69.667  1.00  0.00    -0.131 A  
HETATM   20  H   UNL     1     -12.565   7.558  73.855  1.00  0.00     0.000 HD 
HETATM   21  C   UNL     1      -7.345   7.083  70.761  1.00  0.00    -0.073 A  
HETATM   22  C   UNL     1      -7.768   7.653  71.957  1.00  0.00    -0.096 A  
HETATM   23  C   UNL     1      -9.045   8.224  72.062  1.00  0.00    -0.267 A  
ENDBRANCH  11  12
ENDBRANCH   5  11
TORSDOF 2
ENDMDL
MODEL      124
REMARK 921   NORMALIZED FREE ENERGY PREDICTED BY IDOCK:   -4.45 KCAL/MOL
REMARK 922        TOTAL FREE ENERGY PREDICTED BY IDOCK:   -5.48 KCAL/MOL
REMARK 923 INTER-LIGAND FREE ENERGY PREDICTED BY IDOCK:   -5.29 KCAL/MOL
REMARK 924 INTRA-LIGAND FREE ENERGY PREDICTED BY IDOCK:   -0.19 KCAL/MOL
REMARK 927      BINDING AFFINITY PREDICTED BY RF-SCORE:    0.00 PKD
ROOT
HETATM    1  C   UNL     1     -10.283  15.370  67.390  1.00  0.00    -0.249 C  
HETATM    2  N   UNL     1     -11.174  15.087  66.294  1.00  0.00    -0.336 NA 
HETATM    3  C   UNL     1     -12.320  14.202  66.541  1.00  0.00    -0.372 C  
HETATM    4  C   UNL     1     -11.875  12.748  66.815  1.00  0.00    -0.452 C  
HETATM    5  C   UNL     1     -11.076  12.147  65.647  1.00  0.00    -0.316 C  
HETATM    6  C   UNL     1     -10.050  13.161  65.095  1.00  0.00    -0.239 C  
HETATM    7  O   UNL     1     -12.755  13.653  64.055  1.00  0.00    -0.666 OA 
HETATM    8  C   UNL     1     -10.599  14.615  65.027  1.00  0.00    -0.439 C  
HETATM    9  C   UNL     1     -13.010  14.455  65.206  1.00  0.00    -0.087 C  
HETATM   10  C   UNL     1     -11.889  14.764  64.232  1.00  0.00    -0.319 C  
ENDROOT
BRANCH   5  11
HETATM   11  O   UNL     1     -10.582  10.791  65.844  1.00  0.00    -0.225 OA 
BRANCH  11  12
HETATM   12  C   UNL     1     -10.290  10.296  67.063  1.00  0.00    -0.243 C  
HETATM   13  C   UNL     1      -8.091   9.446  65.922  1.00  0.00    -0.114 A  
HETATM   14  C   UNL     1      -8.853   9.790  67.206  1.00  0.00    -0.139 C  
HETATM   15  C   UNL     1      -8.131  10.742  68.176  1.00  0.00    -0.117 C  
HETATM   16  C   UNL     1      -8.365   8.229  65.266  1.00  0.00    -0.175 A  
HETATM   17  O   UNL     1      -6.967  10.137  68.741  1.00  0.00    -0.063 OA 
HETATM   18  O   UNL     1     -11.093  10.279  67.996  1.00  0.00    -0.283 OA 
HETATM   19  C   UNL     1      -7.647   7.832  64.128  1.00  0.00    -0.113 A  
HETATM   20  H   UNL     1      -6.521  10.725  69.340  1.00  0.00     0.000 HD 
HETATM   21  C   UNL     1      -6.636   8.641  63.621  1.00  0.00    -0.088 A  
HETATM   22  C   UNL     1      -6.338   9.841  64.260  1.00  0.00    -0.117 A  
HETATM   23  C   UNL     1      -7.054  10.238  65.399  1.00  0.00    -0.139 A  
ENDBRANCH  11  12
ENDBRANCH   5  11
TORSDOF 2
ENDMDL
MODEL      125
REMARK 921   NORMALIZED FREE ENERGY PREDICTED BY IDOCK:   -4.43 KCAL/MOL
REMARK 922        TOTAL FREE ENERGY PREDICTED BY IDOCK:   -5.45 KCAL/MOL
REMARK 923 INTER-LIGAND FREE ENERGY PREDICTED BY IDOCK:   -5.04 KCAL/MOL
REMARK 924 INTRA-LIGAND FREE ENERGY PREDICTED BY IDOCK:   -0.41 KCAL/MOL
REMARK 927      BINDING AFFINITY PREDICTED BY RF-SCORE:    0.00 PKD
ROOT
HETATM    1  C   UNL     1     -13.797   7.450  71.586  1.00  0.00    -0.382 C  
HETATM    2  N   UNL     1     -12.410   7.238  71.912  1.00  0.00    -0.317 NA 
HETATM    3  C   UNL     1     -11.557   8.415  72.125  1.00  0.00    -0.374 C  
HETATM    4  C   UNL     1     -11.334   9.207  70.817  1.00  0.00    -0.337 C  
HETATM    5  C   UNL     1     -10.675   8.356  69.719  1.00  0.00    -0.211 C  
HETATM    6  C   UNL     1     -11.305   6.948  69.653  1.00  0.00    -0.254 C  
HETATM    7  O   UNL     1      -9.319   7.166  71.808  1.00  0.00    -0.148 OA 
HETATM    8  C   UNL     1     -11.617   6.347  71.053  1.00  0.00    -0.325 C  
HETATM    9  C   UNL     1     -10.355   7.648  72.661  1.00  0.00    -0.275 C  
HETATM   10  C   UNL     1     -10.420   6.288  71.993  1.00  0.00    -0.207 C  
ENDROOT
BRANCH   5  11
HETATM   11  O   UNL     1     -10.469   9.019  68.438  1.00  0.00    -0.206 OA 
BRANCH  11  12
HETATM   12  C   UNL     1     -10.787  10.311  68.231  1.00  0.00    -0.255 C  
HETATM   13  C   UNL     1      -8.201  10.712  68.330  1.00  0.00    -0.125 A  
HETATM   14  C   UNL     1      -9.590  11.210  67.916  1.00  0.00    -0.181 C  
HETATM   15  C   UNL     1      -9.729  11.653  66.449  1.00  0.00    -0.214 C  
HETATM   16  C   UNL     1      -7.811  10.809  69.680  1.00  0.00     0.023 A  
HETATM   17  O   UNL     1      -8.961  12.826  66.176  1.00  0.00    -0.430 OA 
HETATM   18  O   UNL     1     -11.943  10.736  68.259  1.00  0.00    -0.520 OA 
HETATM   19  C   UNL     1      -6.527  10.435  70.101  1.00  0.00    -0.137 A  
HETATM   20  H   UNL     1      -9.047  13.101  65.271  1.00  0.00     0.000 HD 
HETATM   21  C   UNL     1      -5.600   9.957  69.181  1.00  0.00    -0.035 A  
HETATM   22  C   UNL     1      -5.958   9.864  67.840  1.00  0.00    -0.043 A  
HETATM   23  C   UNL     1      -7.242  10.240  67.417  1.00  0.00    -0.092 A  
ENDBRANCH  11  12
ENDBRANCH   5  11
TORSDOF 2
ENDMDL
MODEL      126
REMARK 921   NORMALIZED FREE ENERGY PREDICTED BY IDOCK:   -4.39 KCAL/MOL
REMARK 922        TOTAL FREE ENERGY PREDICTED BY IDOCK:   -5.41 KCAL/MOL
REMARK 923 INTER-LIGAND FREE ENERGY PREDICTED BY IDOCK:   -4.83 KCAL/MOL
REMARK 924 INTRA-LIGAND FREE ENERGY PREDICTED BY IDOCK:   -0.58 KCAL/MOL
REMARK 927      BINDING AFFINITY PREDICTED BY RF-SCORE:    0.00 PKD
ROOT
HETATM    1  C   UNL     1      -7.891   6.827  68.232  1.00  0.00    -0.110 C  
HETATM    2  N   UNL     1      -9.133   6.786  68.961  1.00  0.00    -0.138 NA 
HETATM    3  C   UNL     1     -10.369   7.139  68.250  1.00  0.00    -0.195 C  
HETATM    4  C   UNL     1     -10.409   8.637  67.877  1.00  0.00    -0.286 C  
HETATM    5  C   UNL     1     -10.310   9.554  69.108  1.00  0.00    -0.207 C  
HETATM    6  C   UNL     1      -9.235   9.048  70.093  1.00  0.00    -0.212 C  
HETATM    7  O   UNL     1     -11.765   7.581  70.378  1.00  0.00    -0.212 OA 
HETATM    8  C   UNL     1      -9.217   7.499  70.243  1.00  0.00    -0.157 C  
HETATM    9  C   UNL     1     -11.321   6.694  69.353  1.00  0.00    -0.271 C  
HETATM   10  C   UNL     1     -10.553   6.891  70.646  1.00  0.00    -0.222 C  
ENDROOT
BRANCH   5  11
HETATM   11  O   UNL     1     -10.298  10.985  68.837  1.00  0.00    -0.192 OA 
BRANCH  11  12
HETATM   12  C   UNL     1     -10.916  11.525  67.769  1.00  0.00    -0.236 C  
HETATM   13  C   UNL     1      -8.657  12.801  67.412  1.00  0.00    -0.194 A  
HETATM   14  C   UNL     1      -9.990  12.309  66.837  1.00  0.00    -0.223 C  
HETATM   15  C   UNL     1      -9.897  11.519  65.520  1.00  0.00    -0.234 C  
HETATM   16  C   UNL     1      -8.646  13.939  68.242  1.00  0.00    -0.177 A  
HETATM   17  O   UNL     1      -9.458  12.342  64.439  1.00  0.00    -0.477 OA 
HETATM   18  O   UNL     1     -12.117  11.380  67.538  1.00  0.00    -0.592 OA 
HETATM   19  C   UNL     1      -7.447  14.474  68.737  1.00  0.00    -0.132 A  
HETATM   20  H   UNL     1      -9.401  11.855  63.626  1.00  0.00     0.000 HD 
HETATM   21  C   UNL     1      -6.231  13.885  68.409  1.00  0.00    -0.101 A  
HETATM   22  C   UNL     1      -6.216  12.768  67.581  1.00  0.00    -0.153 A  
HETATM   23  C   UNL     1      -7.414  12.233  67.084  1.00  0.00    -0.113 A  
ENDBRANCH  11  12
ENDBRANCH   5  11
TORSDOF 2
ENDMDL
MODEL      127
REMARK 921   NORMALIZED FREE ENERGY PREDICTED BY IDOCK:   -4.39 KCAL/MOL
REMARK 922        TOTAL FREE ENERGY PREDICTED BY IDOCK:   -5.41 KCAL/MOL
REMARK 923 INTER-LIGAND FREE ENERGY PREDICTED BY IDOCK:   -4.64 KCAL/MOL
REMARK 924 INTRA-LIGAND FREE ENERGY PREDICTED BY IDOCK:   -0.76 KCAL/MOL
REMARK 927      BINDING AFFINITY PREDICTED BY RF-SCORE:    0.00 PKD
ROOT
HETATM    1  C   UNL     1      -5.325  18.868  63.367  1.00  0.00    -0.169 C  
HETATM    2  N   UNL     1      -5.272  19.212  64.765  1.00  0.00    -0.169 NA 
HETATM    3  C   UNL     1      -5.575  18.165  65.750  1.00  0.00    -0.199 C  
HETATM    4  C   UNL     1      -7.061  17.748  65.706  1.00  0.00    -0.179 C  
HETATM    5  C   UNL     1      -8.013  18.924  65.980  1.00  0.00    -0.162 C  
HETATM    6  C   UNL     1      -7.560  20.193  65.225  1.00  0.00     0.117 C  
HETATM    7  O   UNL     1      -6.038  19.788  67.705  1.00  0.00    -0.193 OA 
HETATM    8  C   UNL     1      -6.017  20.392  65.225  1.00  0.00    -0.222 C  
HETATM    9  C   UNL     1      -5.135  18.963  66.972  1.00  0.00    -0.140 C  
HETATM   10  C   UNL     1      -5.387  20.415  66.611  1.00  0.00    -0.166 C  
ENDROOT
BRANCH   5  11
HETATM   11  O   UNL     1      -9.435  18.621  65.914  1.00  0.00    -0.477 OA 
BRANCH  11  12
HETATM   12  C   UNL     1     -10.353  19.288  66.641  1.00  0.00    -0.438 C  
HETATM   13  C   UNL     1     -10.135  17.282  68.310  1.00  0.00    -0.321 A  
HETATM   14  C   UNL     1     -10.566  18.728  68.049  1.00  0.00    -0.356 C  
HETATM   15  C   UNL     1     -10.027  19.775  69.039  1.00  0.00    -0.355 C  
HETATM   16  C   UNL     1     -10.954  16.228  67.859  1.00  0.00    -0.310 A  
HETATM   17  O   UNL     1     -10.570  19.594  70.348  1.00  0.00    -0.055 OA 
HETATM   18  O   UNL     1     -10.950  20.282  66.227  1.00  0.00    -0.048 OA 
HETATM   19  C   UNL     1     -10.643  14.888  68.133  1.00  0.00    -0.244 A  
HETATM   20  H   UNL     1     -10.236  20.240  70.959  1.00  0.00     0.000 HD 
HETATM   21  C   UNL     1      -9.507  14.570  68.868  1.00  0.00    -0.144 A  
HETATM   22  C   UNL     1      -8.689  15.594  69.335  1.00  0.00    -0.249 A  
HETATM   23  C   UNL     1      -9.000  16.935  69.064  1.00  0.00    -0.167 A  
ENDBRANCH  11  12
ENDBRANCH   5  11
TORSDOF 2
ENDMDL
MODEL      128
REMARK 921   NORMALIZED FREE ENERGY PREDICTED BY IDOCK:   -4.39 KCAL/MOL
REMARK 922        TOTAL FREE ENERGY PREDICTED BY IDOCK:   -5.41 KCAL/MOL
REMARK 923 INTER-LIGAND FREE ENERGY PREDICTED BY IDOCK:   -4.87 KCAL/MOL
REMARK 924 INTRA-LIGAND FREE ENERGY PREDICTED BY IDOCK:   -0.54 KCAL/MOL
REMARK 927      BINDING AFFINITY PREDICTED BY RF-SCORE:    0.00 PKD
ROOT
HETATM    1  C   UNL     1      -7.376  16.928  66.324  1.00  0.00    -0.213 C  
HETATM    2  N   UNL     1      -8.522  16.990  67.194  1.00  0.00    -0.196 NA 
HETATM    3  C   UNL     1      -8.317  16.761  68.631  1.00  0.00    -0.252 C  
HETATM    4  C   UNL     1      -7.922  15.298  68.929  1.00  0.00    -0.176 C  
HETATM    5  C   UNL     1      -8.982  14.291  68.451  1.00  0.00    -0.189 C  
HETATM    6  C   UNL     1      -9.508  14.662  67.047  1.00  0.00    -0.249 C  
HETATM    7  O   UNL     1     -10.793  16.251  69.159  1.00  0.00    -0.271 OA 
HETATM    8  C   UNL     1      -9.707  16.193  66.849  1.00  0.00    -0.236 C  
HETATM    9  C   UNL     1      -9.717  17.181  69.061  1.00  0.00    -0.212 C  
HETATM   10  C   UNL     1     -10.613  16.848  67.884  1.00  0.00    -0.361 C  
ENDROOT
BRANCH   5  11
HETATM   11  O   UNL     1      -8.664  12.885  68.657  1.00  0.00    -0.081 OA 
BRANCH  11  12
HETATM   12  C   UNL     1      -8.450  12.033  67.636  1.00  0.00    -0.160 C  
HETATM   13  C   UNL     1     -10.364  10.621  68.733  1.00  0.00    -0.210 A  
HETATM   14  C   UNL     1      -9.510  10.937  67.501  1.00  0.00    -0.168 C  
HETATM   15  C   UNL     1     -10.287  11.216  66.203  1.00  0.00    -0.250 C  
HETATM   16  C   UNL     1      -9.813   9.843  69.770  1.00  0.00    -0.268 A  
HETATM   17  O   UNL     1     -10.966  10.050  65.732  1.00  0.00     0.288 OA 
HETATM   18  O   UNL     1      -7.505  12.139  66.854  1.00  0.00    -0.117 OA 
HETATM   19  C   UNL     1     -10.573   9.464  70.886  1.00  0.00    -0.390 A  
HETATM   20  H   UNL     1     -11.446  10.222  64.931  1.00  0.00     0.000 HD 
HETATM   21  C   UNL     1     -11.904   9.852  70.990  1.00  0.00    -0.463 A  
HETATM   22  C   UNL     1     -12.474  10.611  69.972  1.00  0.00    -0.294 A  
HETATM   23  C   UNL     1     -11.716  10.988  68.854  1.00  0.00    -0.400 A  
ENDBRANCH  11  12
ENDBRANCH   5  11
TORSDOF 2
ENDMDL
MODEL      129
REMARK 921   NORMALIZED FREE ENERGY PREDICTED BY IDOCK:   -4.37 KCAL/MOL
REMARK 922        TOTAL FREE ENERGY PREDICTED BY IDOCK:   -5.39 KCAL/MOL
REMARK 923 INTER-LIGAND FREE ENERGY PREDICTED BY IDOCK:   -4.84 KCAL/MOL
REMARK 924 INTRA-LIGAND FREE ENERGY PREDICTED BY IDOCK:   -0.55 KCAL/MOL
REMARK 927      BINDING AFFINITY PREDICTED BY RF-SCORE:    0.00 PKD
ROOT
HETATM    1  C   UNL     1      -8.210   6.091  66.734  1.00  0.00    -0.106 C  
HETATM    2  N   UNL     1      -8.932   6.049  67.980  1.00  0.00    -0.113 NA 
HETATM    3  C   UNL     1     -10.397   5.965  67.932  1.00  0.00    -0.211 C  
HETATM    4  C   UNL     1     -11.029   7.263  67.382  1.00  0.00    -0.257 C  
HETATM    5  C   UNL     1     -10.668   8.498  68.224  1.00  0.00    -0.036 C  
HETATM    6  C   UNL     1      -9.173   8.489  68.611  1.00  0.00    -0.142 C  
HETATM    7  O   UNL     1     -10.774   6.755  70.362  1.00  0.00    -0.222 OA 
HETATM    8  C   UNL     1      -8.644   7.076  68.991  1.00  0.00    -0.129 C  
HETATM    9  C   UNL     1     -10.592   5.700  69.420  1.00  0.00    -0.304 C  
HETATM   10  C   UNL     1      -9.426   6.390  70.103  1.00  0.00    -0.160 C  
ENDROOT
BRANCH   5  11
HETATM   11  O   UNL     1     -11.190   9.770  67.746  1.00  0.00    -0.184 OA 
BRANCH  11  12
HETATM   12  C   UNL     1     -10.792  10.954  68.251  1.00  0.00    -0.225 C  
HETATM   13  C   UNL     1     -10.235  11.553  65.763  1.00  0.00    -0.293 A  
HETATM   14  C   UNL     1     -10.511  12.025  67.194  1.00  0.00    -0.244 C  
HETATM   15  C   UNL     1     -11.597  13.104  67.344  1.00  0.00    -0.356 C  
HETATM   16  C   UNL     1      -8.968  11.027  65.445  1.00  0.00    -0.192 A  
HETATM   17  O   UNL     1     -11.195  14.343  66.756  1.00  0.00    -0.318 OA 
HETATM   18  O   UNL     1     -10.691  11.174  69.458  1.00  0.00    -0.222 OA 
HETATM   19  C   UNL     1      -8.638  10.647  64.136  1.00  0.00    -0.100 A  
HETATM   20  H   UNL     1     -11.865  15.010  66.848  1.00  0.00     0.000 HD 
HETATM   21  C   UNL     1      -9.569  10.788  63.112  1.00  0.00    -0.385 A  
HETATM   22  C   UNL     1     -10.823  11.317  63.399  1.00  0.00    -0.311 A  
HETATM   23  C   UNL     1     -11.153  11.699  64.708  1.00  0.00    -0.328 A  
ENDBRANCH  11  12
ENDBRANCH   5  11
TORSDOF 2
ENDMDL
MODEL      130
REMARK 921   NORMALIZED FREE ENERGY PREDICTED BY IDOCK:   -4.36 KCAL/MOL
REMARK 922        TOTAL FREE ENERGY PREDICTED BY IDOCK:   -5.38 KCAL/MOL
REMARK 923 INTER-LIGAND FREE ENERGY PREDICTED BY IDOCK:   -4.58 KCAL/MOL
REMARK 924 INTRA-LIGAND FREE ENERGY PREDICTED BY IDOCK:   -0.80 KCAL/MOL
REMARK 927      BINDING AFFINITY PREDICTED BY RF-SCORE:    0.00 PKD
ROOT
HETATM    1  C   UNL     1      -9.763   3.233  71.457  1.00  0.00    -0.163 C  
HETATM    2  N   UNL     1      -8.790   2.960  70.431  1.00  0.00    -0.075 NA 
HETATM    3  C   UNL     1      -7.508   3.676  70.482  1.00  0.00    -0.041 C  
HETATM    4  C   UNL     1      -7.680   5.183  70.194  1.00  0.00    -0.071 C  
HETATM    5  C   UNL     1      -8.302   5.453  68.814  1.00  0.00    -0.097 C  
HETATM    6  C   UNL     1      -9.477   4.491  68.535  1.00  0.00    -0.213 C  
HETATM    7  O   UNL     1      -6.874   3.229  68.018  1.00  0.00    -0.047 OA 
HETATM    8  C   UNL     1      -9.212   3.038  69.026  1.00  0.00    -0.156 C  
HETATM    9  C   UNL     1      -6.824   2.857  69.394  1.00  0.00    -0.037 C  
HETATM   10  C   UNL     1      -7.941   2.409  68.471  1.00  0.00    -0.053 C  
ENDROOT
BRANCH   5  11
HETATM   11  O   UNL     1      -8.537   6.852  68.484  1.00  0.00    -0.123 OA 
BRANCH  11  12
HETATM   12  C   UNL     1      -9.521   7.245  67.652  1.00  0.00    -0.131 C  
HETATM   13  C   UNL     1     -10.765   7.948  69.847  1.00  0.00    -0.244 A  
HETATM   14  C   UNL     1     -10.622   8.067  68.326  1.00  0.00    -0.155 C  
HETATM   15  C   UNL     1     -10.520   9.500  67.775  1.00  0.00    -0.254 C  
HETATM   16  C   UNL     1     -11.397   6.812  70.391  1.00  0.00    -0.399 A  
HETATM   17  O   UNL     1     -11.737  10.225  67.960  1.00  0.00    -0.712 OA 
HETATM   18  O   UNL     1      -9.526   6.997  66.446  1.00  0.00    -0.175 OA 
HETATM   19  C   UNL     1     -11.618   6.686  71.770  1.00  0.00    -0.347 A  
HETATM   20  H   UNL     1     -11.675  11.110  67.620  1.00  0.00     0.000 HD 
HETATM   21  C   UNL     1     -11.216   7.695  72.638  1.00  0.00    -0.419 A  
HETATM   22  C   UNL     1     -10.601   8.832  72.123  1.00  0.00    -0.386 A  
HETATM   23  C   UNL     1     -10.382   8.960  70.744  1.00  0.00    -0.283 A  
ENDBRANCH  11  12
ENDBRANCH   5  11
TORSDOF 2
ENDMDL
MODEL      131
REMARK 921   NORMALIZED FREE ENERGY PREDICTED BY IDOCK:   -4.36 KCAL/MOL
REMARK 922        TOTAL FREE ENERGY PREDICTED BY IDOCK:   -5.37 KCAL/MOL
REMARK 923 INTER-LIGAND FREE ENERGY PREDICTED BY IDOCK:   -4.67 KCAL/MOL
REMARK 924 INTRA-LIGAND FREE ENERGY PREDICTED BY IDOCK:   -0.70 KCAL/MOL
REMARK 927      BINDING AFFINITY PREDICTED BY RF-SCORE:    0.00 PKD
ROOT
HETATM    1  C   UNL     1     -10.223   9.205  71.247  1.00  0.00    -0.329 C  
HETATM    2  N   UNL     1      -9.888   8.403  72.395  1.00  0.00    -0.300 NA 
HETATM    3  C   UNL     1      -8.479   8.043  72.605  1.00  0.00    -0.174 C  
HETATM    4  C   UNL     1      -7.970   7.063  71.525  1.00  0.00    -0.103 C  
HETATM    5  C   UNL     1      -8.777   5.755  71.489  1.00  0.00    -0.133 C  
HETATM    6  C   UNL     1     -10.291   6.032  71.606  1.00  0.00    -0.260 C  
HETATM    7  O   UNL     1      -8.957   6.088  74.223  1.00  0.00    -0.125 OA 
HETATM    8  C   UNL     1     -10.634   7.158  72.623  1.00  0.00    -0.256 C  
HETATM    9  C   UNL     1      -8.667   7.467  74.003  1.00  0.00    -0.223 C  
HETATM   10  C   UNL     1     -10.085   6.928  74.024  1.00  0.00    -0.348 C  
ENDROOT
BRANCH   5  11
HETATM   11  O   UNL     1      -8.386   4.794  70.467  1.00  0.00    -0.091 OA 
BRANCH  11  12
HETATM   12  C   UNL     1      -9.159   3.745  70.124  1.00  0.00    -0.125 C  
HETATM   13  C   UNL     1      -9.645   5.125  67.952  1.00  0.00    -0.167 A  
HETATM   14  C   UNL     1      -9.649   3.774  68.674  1.00  0.00    -0.173 C  
HETATM   15  C   UNL     1      -8.948   2.620  67.936  1.00  0.00    -0.162 C  
HETATM   16  C   UNL     1     -10.668   6.054  68.227  1.00  0.00    -0.352 A  
HETATM   17  O   UNL     1      -9.644   2.257  66.742  1.00  0.00    -0.379 OA 
HETATM   18  O   UNL     1      -9.426   2.822  70.894  1.00  0.00    -0.139 OA 
HETATM   19  C   UNL     1     -10.753   7.275  67.543  1.00  0.00    -0.326 A  
HETATM   20  H   UNL     1      -9.211   1.545  66.286  1.00  0.00     0.000 HD 
HETATM   21  C   UNL     1      -9.819   7.595  66.564  1.00  0.00    -0.242 A  
HETATM   22  C   UNL     1      -8.807   6.688  66.265  1.00  0.00    -0.156 A  
HETATM   23  C   UNL     1      -8.722   5.466  66.947  1.00  0.00    -0.112 A  
ENDBRANCH  11  12
ENDBRANCH   5  11
TORSDOF 2
ENDMDL
MODEL      132
REMARK 921   NORMALIZED FREE ENERGY PREDICTED BY IDOCK:   -4.35 KCAL/MOL
REMARK 922        TOTAL FREE ENERGY PREDICTED BY IDOCK:   -5.36 KCAL/MOL
REMARK 923 INTER-LIGAND FREE ENERGY PREDICTED BY IDOCK:   -4.74 KCAL/MOL
REMARK 924 INTRA-LIGAND FREE ENERGY PREDICTED BY IDOCK:   -0.62 KCAL/MOL
REMARK 927      BINDING AFFINITY PREDICTED BY RF-SCORE:    0.00 PKD
ROOT
HETATM    1  C   UNL     1      -7.470   5.750  71.563  1.00  0.00    -0.093 C  
HETATM    2  N   UNL     1      -8.461   6.235  72.489  1.00  0.00    -0.121 NA 
HETATM    3  C   UNL     1      -9.853   5.804  72.306  1.00  0.00    -0.161 C  
HETATM    4  C   UNL     1     -10.474   6.397  71.023  1.00  0.00    -0.268 C  
HETATM    5  C   UNL     1     -10.467   7.935  71.020  1.00  0.00    -0.203 C  
HETATM    6  C   UNL     1      -9.118   8.485  71.532  1.00  0.00    -0.281 C  
HETATM    7  O   UNL     1     -10.890   7.687  73.737  1.00  0.00    -0.268 OA 
HETATM    8  C   UNL     1      -8.542   7.682  72.734  1.00  0.00    -0.131 C  
HETATM    9  C   UNL     1     -10.369   6.364  73.626  1.00  0.00    -0.286 C  
HETATM   10  C   UNL     1      -9.487   7.562  73.921  1.00  0.00    -0.232 C  
ENDROOT
BRANCH   5  11
HETATM   11  O   UNL     1     -10.998   8.572  69.823  1.00  0.00    -0.219 OA 
BRANCH  11  12
HETATM   12  C   UNL     1     -10.272   9.421  69.071  1.00  0.00    -0.205 C  
HETATM   13  C   UNL     1      -9.792   7.316  67.590  1.00  0.00    -0.189 A  
HETATM   14  C   UNL     1      -9.818   8.841  67.730  1.00  0.00    -0.217 C  
HETATM   15  C   UNL     1     -10.578   9.599  66.628  1.00  0.00    -0.103 C  
HETATM   16  C   UNL     1      -8.730   6.591  68.167  1.00  0.00    -0.117 A  
HETATM   17  O   UNL     1      -9.926   9.485  65.362  1.00  0.00    -0.409 OA 
HETATM   18  O   UNL     1     -10.018  10.577  69.411  1.00  0.00    -0.222 OA 
HETATM   19  C   UNL     1      -8.619   5.202  68.008  1.00  0.00    -0.103 A  
HETATM   20  H   UNL     1     -10.395   9.953  64.681  1.00  0.00     0.000 HD 
HETATM   21  C   UNL     1      -9.566   4.504  67.266  1.00  0.00    -0.213 A  
HETATM   22  C   UNL     1     -10.616   5.200  66.676  1.00  0.00    -0.295 A  
HETATM   23  C   UNL     1     -10.727   6.590  66.832  1.00  0.00    -0.403 A  
ENDBRANCH  11  12
ENDBRANCH   5  11
TORSDOF 2
ENDMDL
MODEL      133
REMARK 921   NORMALIZED FREE ENERGY PREDICTED BY IDOCK:   -4.34 KCAL/MOL
REMARK 922        TOTAL FREE ENERGY PREDICTED BY IDOCK:   -5.36 KCAL/MOL
REMARK 923 INTER-LIGAND FREE ENERGY PREDICTED BY IDOCK:   -4.85 KCAL/MOL
REMARK 924 INTRA-LIGAND FREE ENERGY PREDICTED BY IDOCK:   -0.51 KCAL/MOL
REMARK 927      BINDING AFFINITY PREDICTED BY RF-SCORE:    0.00 PKD
ROOT
HETATM    1  C   UNL     1      -7.904  15.929  68.818  1.00  0.00    -0.185 C  
HETATM    2  N   UNL     1      -9.164  15.931  68.119  1.00  0.00    -0.189 NA 
HETATM    3  C   UNL     1     -10.366  15.512  68.852  1.00  0.00    -0.221 C  
HETATM    4  C   UNL     1     -10.333  14.007  69.197  1.00  0.00    -0.064 C  
HETATM    5  C   UNL     1     -10.227  13.118  67.946  1.00  0.00    -0.233 C  
HETATM    6  C   UNL     1      -9.198  13.688  66.946  1.00  0.00    -0.257 C  
HETATM    7  O   UNL     1     -11.794  15.050  66.751  1.00  0.00    -0.245 OA 
HETATM    8  C   UNL     1      -9.249  15.238  66.826  1.00  0.00    -0.250 C  
HETATM    9  C   UNL     1     -11.363  15.937  67.781  1.00  0.00    -0.199 C  
HETATM   10  C   UNL     1     -10.619  15.796  66.467  1.00  0.00    -0.306 C  
ENDROOT
BRANCH   5  11
HETATM   11  O   UNL     1     -10.147  11.684  68.189  1.00  0.00    -0.183 OA 
BRANCH  11  12
HETATM   12  C   UNL     1     -11.215  10.951  68.557  1.00  0.00    -0.274 C  
HETATM   13  C   UNL     1      -9.436   9.234  69.419  1.00  0.00    -0.169 A  
HETATM   14  C   UNL     1     -10.878   9.751  69.444  1.00  0.00    -0.256 C  
HETATM   15  C   UNL     1     -11.459  10.040  70.839  1.00  0.00    -0.371 C  
HETATM   16  C   UNL     1      -9.007   8.445  68.334  1.00  0.00    -0.136 A  
HETATM   17  O   UNL     1     -11.618   8.844  71.604  1.00  0.00    -0.291 OA 
HETATM   18  O   UNL     1     -12.371  11.233  68.238  1.00  0.00    -0.542 OA 
HETATM   19  C   UNL     1      -7.721   7.888  68.295  1.00  0.00    -0.121 A  
HETATM   20  H   UNL     1     -11.977   9.023  72.465  1.00  0.00     0.000 HD 
HETATM   21  C   UNL     1      -6.833   8.103  69.343  1.00  0.00    -0.043 A  
HETATM   22  C   UNL     1      -7.238   8.869  70.432  1.00  0.00    -0.060 A  
HETATM   23  C   UNL     1      -8.525   9.425  70.473  1.00  0.00    -0.251 A  
ENDBRANCH  11  12
ENDBRANCH   5  11
TORSDOF 2
ENDMDL
MODEL      134
REMARK 921   NORMALIZED FREE ENERGY PREDICTED BY IDOCK:   -4.34 KCAL/MOL
REMARK 922        TOTAL FREE ENERGY PREDICTED BY IDOCK:   -5.35 KCAL/MOL
REMARK 923 INTER-LIGAND FREE ENERGY PREDICTED BY IDOCK:   -4.63 KCAL/MOL
REMARK 924 INTRA-LIGAND FREE ENERGY PREDICTED BY IDOCK:   -0.72 KCAL/MOL
REMARK 927      BINDING AFFINITY PREDICTED BY RF-SCORE:    0.00 PKD
ROOT
HETATM    1  C   UNL     1     -10.808  13.736  68.641  1.00  0.00    -0.263 C  
HETATM    2  N   UNL     1     -10.986  13.592  67.219  1.00  0.00    -0.284 NA 
HETATM    3  C   UNL     1     -11.908  12.555  66.736  1.00  0.00    -0.346 C  
HETATM    4  C   UNL     1     -11.370  11.134  67.012  1.00  0.00    -0.216 C  
HETATM    5  C   UNL     1     -10.006  10.880  66.348  1.00  0.00    -0.221 C  
HETATM    6  C   UNL     1      -9.067  12.093  66.527  1.00  0.00    -0.199 C  
HETATM    7  O   UNL     1     -10.975  12.493  64.328  1.00  0.00    -0.313 OA 
HETATM    8  C   UNL     1      -9.792  13.461  66.373  1.00  0.00    -0.296 C  
HETATM    9  C   UNL     1     -11.906  13.005  65.280  1.00  0.00    -0.376 C  
HETATM   10  C   UNL     1     -10.542  13.631  65.059  1.00  0.00    -0.383 C  
ENDROOT
BRANCH   5  11
HETATM   11  O   UNL     1      -9.410   9.575  66.597  1.00  0.00    -0.148 OA 
BRANCH  11  12
HETATM   12  C   UNL     1      -9.995   8.649  67.380  1.00  0.00    -0.210 C  
HETATM   13  C   UNL     1      -8.093   9.237  69.081  1.00  0.00    -0.106 A  
HETATM   14  C   UNL     1      -9.470   8.619  68.817  1.00  0.00    -0.143 C  
HETATM   15  C   UNL     1     -10.608   9.112  69.727  1.00  0.00    -0.229 C  
HETATM   16  C   UNL     1      -6.936   8.513  68.733  1.00  0.00    -0.063 A  
HETATM   17  O   UNL     1     -10.417   8.704  71.082  1.00  0.00    -0.202 OA 
HETATM   18  O   UNL     1     -10.898   7.907  66.992  1.00  0.00    -0.305 OA 
HETATM   19  C   UNL     1      -5.652   9.000  69.017  1.00  0.00    -0.036 A  
HETATM   20  H   UNL     1     -11.120   9.008  71.644  1.00  0.00     0.000 HD 
HETATM   21  C   UNL     1      -5.494  10.223  69.661  1.00  0.00    -0.038 A  
HETATM   22  C   UNL     1      -6.622  10.951  70.026  1.00  0.00    -0.151 A  
HETATM   23  C   UNL     1      -7.907  10.463  69.744  1.00  0.00    -0.108 A  
ENDBRANCH  11  12
ENDBRANCH   5  11
TORSDOF 2
ENDMDL
MODEL      135
REMARK 921   NORMALIZED FREE ENERGY PREDICTED BY IDOCK:   -4.32 KCAL/MOL
REMARK 922        TOTAL FREE ENERGY PREDICTED BY IDOCK:   -5.33 KCAL/MOL
REMARK 923 INTER-LIGAND FREE ENERGY PREDICTED BY IDOCK:   -4.62 KCAL/MOL
REMARK 924 INTRA-LIGAND FREE ENERGY PREDICTED BY IDOCK:   -0.72 KCAL/MOL
REMARK 927      BINDING AFFINITY PREDICTED BY RF-SCORE:    0.00 PKD
ROOT
HETATM    1  C   UNL     1     -10.922  15.559  64.783  1.00  0.00    -0.399 C  
HETATM    2  N   UNL     1     -11.345  14.949  66.018  1.00  0.00    -0.333 NA 
HETATM    3  C   UNL     1     -10.616  15.290  67.247  1.00  0.00    -0.290 C  
HETATM    4  C   UNL     1      -9.177  14.732  67.234  1.00  0.00    -0.211 C  
HETATM    5  C   UNL     1      -9.139  13.201  67.089  1.00  0.00    -0.230 C  
HETATM    6  C   UNL     1     -10.147  12.719  66.023  1.00  0.00    -0.277 C  
HETATM    7  O   UNL     1     -11.446  13.255  68.603  1.00  0.00    -0.260 OA 
HETATM    8  C   UNL     1     -11.498  13.488  66.061  1.00  0.00    -0.325 C  
HETATM    9  C   UNL     1     -11.592  14.616  68.204  1.00  0.00    -0.335 C  
HETATM   10  C   UNL     1     -12.194  13.469  67.415  1.00  0.00    -0.235 C  
ENDROOT
BRANCH   5  11
HETATM   11  O   UNL     1      -7.814  12.600  67.025  1.00  0.00    -0.136 OA 
BRANCH  11  12
HETATM   12  C   UNL     1      -7.113  12.273  68.128  1.00  0.00    -0.091 C  
HETATM   13  C   UNL     1      -8.301   9.951  67.900  1.00  0.00    -0.114 A  
HETATM   14  C   UNL     1      -7.154  10.784  68.480  1.00  0.00    -0.070 C  
HETATM   15  C   UNL     1      -5.739  10.225  68.250  1.00  0.00    -0.041 C  
HETATM   16  C   UNL     1      -9.579  10.038  68.487  1.00  0.00    -0.157 A  
HETATM   17  O   UNL     1      -5.532   9.003  68.961  1.00  0.00    -0.036 OA 
HETATM   18  O   UNL     1      -6.465  13.090  68.783  1.00  0.00    -0.073 OA 
HETATM   19  C   UNL     1     -10.646   9.244  68.042  1.00  0.00    -0.262 A  
HETATM   20  H   UNL     1      -4.659   8.657  68.819  1.00  0.00     0.000 HD 
HETATM   21  C   UNL     1     -10.460   8.341  67.002  1.00  0.00    -0.384 A  
HETATM   22  C   UNL     1      -9.203   8.227  66.415  1.00  0.00    -0.247 A  
HETATM   23  C   UNL     1      -8.135   9.019  66.860  1.00  0.00    -0.112 A  
ENDBRANCH  11  12
ENDBRANCH   5  11
TORSDOF 2
ENDMDL
MODEL      136
REMARK 921   NORMALIZED FREE ENERGY PREDICTED BY IDOCK:   -4.32 KCAL/MOL
REMARK 922        TOTAL FREE ENERGY PREDICTED BY IDOCK:   -5.33 KCAL/MOL
REMARK 923 INTER-LIGAND FREE ENERGY PREDICTED BY IDOCK:   -4.55 KCAL/MOL
REMARK 924 INTRA-LIGAND FREE ENERGY PREDICTED BY IDOCK:   -0.78 KCAL/MOL
REMARK 927      BINDING AFFINITY PREDICTED BY RF-SCORE:    0.00 PKD
ROOT
HETATM    1  C   UNL     1     -14.075   7.476  71.472  1.00  0.00    -0.427 C  
HETATM    2  N   UNL     1     -12.757   7.235  72.001  1.00  0.00    -0.244 NA 
HETATM    3  C   UNL     1     -11.893   8.393  72.268  1.00  0.00    -0.389 C  
HETATM    4  C   UNL     1     -11.457   9.097  70.964  1.00  0.00    -0.372 C  
HETATM    5  C   UNL     1     -10.689   8.160  70.016  1.00  0.00    -0.243 C  
HETATM    6  C   UNL     1     -11.363   6.773  69.938  1.00  0.00    -0.374 C  
HETATM    7  O   UNL     1      -9.688   7.050  72.337  1.00  0.00    -0.153 OA 
HETATM    8  C   UNL     1     -11.891   6.268  71.312  1.00  0.00    -0.182 C  
HETATM    9  C   UNL     1     -10.810   7.618  73.009  1.00  0.00    -0.400 C  
HETATM   10  C   UNL     1     -10.840   6.223  72.412  1.00  0.00    -0.243 C  
ENDROOT
BRANCH   5  11
HETATM   11  O   UNL     1     -10.280   8.738  68.744  1.00  0.00    -0.197 OA 
BRANCH  11  12
HETATM   12  C   UNL     1      -9.077   9.317  68.564  1.00  0.00    -0.132 C  
HETATM   13  C   UNL     1      -8.431   7.056  67.411  1.00  0.00    -0.122 A  
HETATM   14  C   UNL     1      -8.141   8.544  67.632  1.00  0.00    -0.107 C  
HETATM   15  C   UNL     1      -7.972   9.388  66.357  1.00  0.00    -0.108 C  
HETATM   16  C   UNL     1      -8.067   6.130  68.408  1.00  0.00    -0.108 A  
HETATM   17  O   UNL     1      -6.799   9.019  65.630  1.00  0.00    -0.074 OA 
HETATM   18  O   UNL     1      -8.762  10.392  69.074  1.00  0.00    -0.149 OA 
HETATM   19  C   UNL     1      -8.244   4.750  68.228  1.00  0.00    -0.088 A  
HETATM   20  H   UNL     1      -6.694   9.540  64.843  1.00  0.00     0.000 HD 
HETATM   21  C   UNL     1      -8.787   4.264  67.044  1.00  0.00    -0.121 A  
HETATM   22  C   UNL     1      -9.143   5.158  66.039  1.00  0.00    -0.149 A  
HETATM   23  C   UNL     1      -8.964   6.538  66.218  1.00  0.00    -0.168 A  
ENDBRANCH  11  12
ENDBRANCH   5  11
TORSDOF 2
ENDMDL
MODEL      137
REMARK 921   NORMALIZED FREE ENERGY PREDICTED BY IDOCK:   -4.31 KCAL/MOL
REMARK 922        TOTAL FREE ENERGY PREDICTED BY IDOCK:   -5.32 KCAL/MOL
REMARK 923 INTER-LIGAND FREE ENERGY PREDICTED BY IDOCK:   -4.87 KCAL/MOL
REMARK 924 INTRA-LIGAND FREE ENERGY PREDICTED BY IDOCK:   -0.45 KCAL/MOL
REMARK 927      BINDING AFFINITY PREDICTED BY RF-SCORE:    0.00 PKD
ROOT
HETATM    1  C   UNL     1     -10.519  18.421  68.308  1.00  0.00    -0.299 C  
HETATM    2  N   UNL     1      -9.346  17.729  67.836  1.00  0.00    -0.261 NA 
HETATM    3  C   UNL     1      -9.465  16.903  66.628  1.00  0.00    -0.265 C  
HETATM    4  C   UNL     1     -10.346  15.657  66.869  1.00  0.00    -0.293 C  
HETATM    5  C   UNL     1      -9.799  14.755  67.988  1.00  0.00    -0.218 C  
HETATM    6  C   UNL     1      -9.327  15.593  69.196  1.00  0.00    -0.252 C  
HETATM    7  O   UNL     1      -7.320  15.529  67.051  1.00  0.00    -0.207 OA 
HETATM    8  C   UNL     1      -8.591  16.902  68.788  1.00  0.00    -0.246 C  
HETATM    9  C   UNL     1      -7.972  16.650  66.459  1.00  0.00    -0.307 C  
HETATM   10  C   UNL     1      -7.400  16.691  67.863  1.00  0.00    -0.151 C  
ENDROOT
BRANCH   5  11
HETATM   11  O   UNL     1     -10.597  13.579  68.306  1.00  0.00    -0.236 OA 
BRANCH  11  12
HETATM   12  C   UNL     1     -11.021  12.715  67.364  1.00  0.00    -0.254 C  
HETATM   13  C   UNL     1      -8.882  11.346  68.001  1.00  0.00    -0.155 A  
HETATM   14  C   UNL     1     -10.267  11.384  67.348  1.00  0.00    -0.221 C  
HETATM   15  C   UNL     1     -11.254  10.298  67.810  1.00  0.00    -0.190 C  
HETATM   16  C   UNL     1      -7.780  11.882  67.307  1.00  0.00    -0.164 A  
HETATM   17  O   UNL     1     -10.833   8.994  67.407  1.00  0.00    -0.424 OA 
HETATM   18  O   UNL     1     -11.956  12.954  66.599  1.00  0.00    -0.397 OA 
HETATM   19  C   UNL     1      -6.479  11.810  67.828  1.00  0.00    -0.075 A  
HETATM   20  H   UNL     1     -11.441   8.323  67.693  1.00  0.00     0.000 HD 
HETATM   21  C   UNL     1      -6.250  11.195  69.054  1.00  0.00    -0.047 A  
HETATM   22  C   UNL     1      -7.321  10.647  69.752  1.00  0.00    -0.115 A  
HETATM   23  C   UNL     1      -8.622  10.717  69.232  1.00  0.00    -0.096 A  
ENDBRANCH  11  12
ENDBRANCH   5  11
TORSDOF 2
ENDMDL
MODEL      138
REMARK 921   NORMALIZED FREE ENERGY PREDICTED BY IDOCK:   -4.30 KCAL/MOL
REMARK 922        TOTAL FREE ENERGY PREDICTED BY IDOCK:   -5.31 KCAL/MOL
REMARK 923 INTER-LIGAND FREE ENERGY PREDICTED BY IDOCK:   -4.67 KCAL/MOL
REMARK 924 INTRA-LIGAND FREE ENERGY PREDICTED BY IDOCK:   -0.65 KCAL/MOL
REMARK 927      BINDING AFFINITY PREDICTED BY RF-SCORE:    0.00 PKD
ROOT
HETATM    1  C   UNL     1     -13.332   7.333  71.533  1.00  0.00    -0.369 C  
HETATM    2  N   UNL     1     -12.092   7.092  72.225  1.00  0.00    -0.226 NA 
HETATM    3  C   UNL     1     -11.149   8.209  72.373  1.00  0.00    -0.369 C  
HETATM    4  C   UNL     1     -10.540   8.630  71.018  1.00  0.00    -0.278 C  
HETATM    5  C   UNL     1      -9.785   7.482  70.329  1.00  0.00    -0.179 C  
HETATM    6  C   UNL     1     -10.576   6.159  70.424  1.00  0.00    -0.317 C  
HETATM    7  O   UNL     1      -9.093   6.736  72.895  1.00  0.00    -0.128 OA 
HETATM    8  C   UNL     1     -11.265   5.953  71.804  1.00  0.00    -0.250 C  
HETATM    9  C   UNL     1     -10.211   7.500  73.342  1.00  0.00    -0.343 C  
HETATM   10  C   UNL     1     -10.320   6.027  72.996  1.00  0.00    -0.204 C  
ENDROOT
BRANCH   5  11
HETATM   11  O   UNL     1      -9.216   7.787  69.023  1.00  0.00    -0.144 OA 
BRANCH  11  12
HETATM   12  C   UNL     1      -9.974   7.946  67.922  1.00  0.00    -0.178 C  
HETATM   13  C   UNL     1      -8.623   5.905  66.992  1.00  0.00    -0.110 A  
HETATM   14  C   UNL     1      -9.862   6.802  66.911  1.00  0.00    -0.229 C  
HETATM   15  C   UNL     1     -11.216   6.072  66.902  1.00  0.00     0.002 C  
HETATM   16  C   UNL     1      -7.401   6.372  66.470  1.00  0.00    -0.078 A  
HETATM   17  O   UNL     1     -11.395   5.306  65.709  1.00  0.00    -0.792 OA 
HETATM   18  O   UNL     1     -10.721   8.910  67.748  1.00  0.00    -0.223 OA 
HETATM   19  C   UNL     1      -6.254   5.565  66.454  1.00  0.00    -0.034 A  
HETATM   20  H   UNL     1     -12.231   4.855  65.702  1.00  0.00     0.000 HD 
HETATM   21  C   UNL     1      -6.303   4.269  66.955  1.00  0.00    -0.040 A  
HETATM   22  C   UNL     1      -7.502   3.780  67.464  1.00  0.00    -0.067 A  
HETATM   23  C   UNL     1      -8.650   4.586  67.479  1.00  0.00    -0.105 A  
ENDBRANCH  11  12
ENDBRANCH   5  11
TORSDOF 2
ENDMDL
MODEL      139
REMARK 921   NORMALIZED FREE ENERGY PREDICTED BY IDOCK:   -4.29 KCAL/MOL
REMARK 922        TOTAL FREE ENERGY PREDICTED BY IDOCK:   -5.30 KCAL/MOL
REMARK 923 INTER-LIGAND FREE ENERGY PREDICTED BY IDOCK:   -4.58 KCAL/MOL
REMARK 924 INTRA-LIGAND FREE ENERGY PREDICTED BY IDOCK:   -0.71 KCAL/MOL
REMARK 927      BINDING AFFINITY PREDICTED BY RF-SCORE:    0.00 PKD
ROOT
HETATM    1  C   UNL     1     -11.470  15.076  67.016  1.00  0.00    -0.284 C  
HETATM    2  N   UNL     1     -11.531  14.163  65.902  1.00  0.00    -0.331 NA 
HETATM    3  C   UNL     1     -12.363  12.960  66.034  1.00  0.00    -0.262 C  
HETATM    4  C   UNL     1     -11.783  11.971  67.068  1.00  0.00    -0.341 C  
HETATM    5  C   UNL     1     -10.362  11.507  66.708  1.00  0.00    -0.226 C  
HETATM    6  C   UNL     1      -9.496  12.692  66.226  1.00  0.00    -0.207 C  
HETATM    7  O   UNL     1     -11.245  11.668  64.098  1.00  0.00    -0.352 OA 
HETATM    8  C   UNL     1     -10.270  13.689  65.316  1.00  0.00    -0.323 C  
HETATM    9  C   UNL     1     -12.269  12.539  64.573  1.00  0.00    -0.453 C  
HETATM   10  C   UNL     1     -10.923  13.051  64.097  1.00  0.00    -0.408 C  
ENDROOT
BRANCH   5  11
HETATM   11  O   UNL     1      -9.727  10.604  67.658  1.00  0.00    -0.162 OA 
BRANCH  11  12
HETATM   12  C   UNL     1      -9.923   9.272  67.634  1.00  0.00    -0.196 C  
HETATM   13  C   UNL     1      -7.853   9.241  66.030  1.00  0.00    -0.102 A  
HETATM   14  C   UNL     1      -8.788   8.482  66.977  1.00  0.00    -0.144 C  
HETATM   15  C   UNL     1      -8.100   7.670  68.087  1.00  0.00    -0.124 C  
HETATM   16  C   UNL     1      -8.289   9.537  64.724  1.00  0.00    -0.155 A  
HETATM   17  O   UNL     1      -7.355   6.573  67.555  1.00  0.00    -0.090 OA 
HETATM   18  O   UNL     1     -10.911   8.725  68.125  1.00  0.00    -0.120 OA 
HETATM   19  C   UNL     1      -7.448  10.165  63.794  1.00  0.00    -0.126 A  
HETATM   20  H   UNL     1      -6.930   6.071  68.240  1.00  0.00     0.000 HD 
HETATM   21  C   UNL     1      -6.148  10.509  64.148  1.00  0.00    -0.016 A  
HETATM   22  C   UNL     1      -5.690  10.215  65.428  1.00  0.00    -0.091 A  
HETATM   23  C   UNL     1      -6.529   9.585  66.358  1.00  0.00    -0.070 A  
ENDBRANCH  11  12
ENDBRANCH   5  11
TORSDOF 2
ENDMDL
MODEL      140
REMARK 921   NORMALIZED FREE ENERGY PREDICTED BY IDOCK:   -4.28 KCAL/MOL
REMARK 922        TOTAL FREE ENERGY PREDICTED BY IDOCK:   -5.28 KCAL/MOL
REMARK 923 INTER-LIGAND FREE ENERGY PREDICTED BY IDOCK:   -4.49 KCAL/MOL
REMARK 924 INTRA-LIGAND FREE ENERGY PREDICTED BY IDOCK:   -0.79 KCAL/MOL
REMARK 927      BINDING AFFINITY PREDICTED BY RF-SCORE:    0.00 PKD
ROOT
HETATM    1  C   UNL     1     -10.219  10.778  64.309  1.00  0.00    -0.354 C  
HETATM    2  N   UNL     1      -9.689  11.586  65.378  1.00  0.00    -0.229 NA 
HETATM    3  C   UNL     1      -8.675  10.993  66.260  1.00  0.00    -0.176 C  
HETATM    4  C   UNL     1      -9.265   9.866  67.137  1.00  0.00    -0.158 C  
HETATM    5  C   UNL     1     -10.418  10.356  68.028  1.00  0.00    -0.196 C  
HETATM    6  C   UNL     1     -11.372  11.282  67.244  1.00  0.00    -0.329 C  
HETATM    7  O   UNL     1      -8.973  12.704  68.171  1.00  0.00    -0.191 OA 
HETATM    8  C   UNL     1     -10.632  12.256  66.283  1.00  0.00    -0.251 C  
HETATM    9  C   UNL     1      -8.312  12.286  66.979  1.00  0.00    -0.168 C  
HETATM   10  C   UNL     1      -9.577  13.123  66.956  1.00  0.00    -0.241 C  
ENDROOT
BRANCH   5  11
HETATM   11  O   UNL     1     -11.057   9.342  68.856  1.00  0.00    -0.112 OA 
BRANCH  11  12
HETATM   12  C   UNL     1     -10.965   9.340  70.200  1.00  0.00    -0.246 C  
HETATM   13  C   UNL     1      -9.608   7.126  69.860  1.00  0.00    -0.163 A  
HETATM   14  C   UNL     1      -9.984   8.308  70.760  1.00  0.00    -0.217 C  
HETATM   15  C   UNL     1      -8.804   9.087  71.366  1.00  0.00    -0.150 C  
HETATM   16  C   UNL     1     -10.516   6.058  69.714  1.00  0.00    -0.320 A  
HETATM   17  O   UNL     1      -8.072   8.294  72.303  1.00  0.00    -0.131 OA 
HETATM   18  O   UNL     1     -11.588  10.119  70.921  1.00  0.00    -0.324 OA 
HETATM   19  C   UNL     1     -10.194   4.920  68.960  1.00  0.00    -0.164 A  
HETATM   20  H   UNL     1      -7.344   8.775  72.677  1.00  0.00     0.000 HD 
HETATM   21  C   UNL     1      -8.954   4.820  68.338  1.00  0.00    -0.134 A  
HETATM   22  C   UNL     1      -8.036   5.856  68.479  1.00  0.00    -0.102 A  
HETATM   23  C   UNL     1      -8.356   6.994  69.234  1.00  0.00    -0.129 A  
ENDBRANCH  11  12
ENDBRANCH   5  11
TORSDOF 2
ENDMDL
MODEL      141
REMARK 921   NORMALIZED FREE ENERGY PREDICTED BY IDOCK:   -4.27 KCAL/MOL
REMARK 922        TOTAL FREE ENERGY PREDICTED BY IDOCK:   -5.27 KCAL/MOL
REMARK 923 INTER-LIGAND FREE ENERGY PREDICTED BY IDOCK:   -4.67 KCAL/MOL
REMARK 924 INTRA-LIGAND FREE ENERGY PREDICTED BY IDOCK:   -0.60 KCAL/MOL
REMARK 927      BINDING AFFINITY PREDICTED BY RF-SCORE:    0.00 PKD
ROOT
HETATM    1  C   UNL     1      -9.281   9.078  70.959  1.00  0.00    -0.264 C  
HETATM    2  N   UNL     1      -9.439   7.712  70.530  1.00  0.00    -0.164 NA 
HETATM    3  C   UNL     1      -8.382   7.116  69.702  1.00  0.00    -0.133 C  
HETATM    4  C   UNL     1      -8.322   7.758  68.299  1.00  0.00    -0.125 C  
HETATM    5  C   UNL     1      -9.645   7.613  67.527  1.00  0.00    -0.143 C  
HETATM    6  C   UNL     1     -10.856   7.903  68.441  1.00  0.00     0.025 C  
HETATM    7  O   UNL     1      -9.829   5.174  68.806  1.00  0.00    -0.146 OA 
HETATM    8  C   UNL     1     -10.696   7.324  69.876  1.00  0.00    -0.242 C  
HETATM    9  C   UNL     1      -8.911   5.689  69.768  1.00  0.00    -0.127 C  
HETATM   10  C   UNL     1     -10.414   5.828  69.922  1.00  0.00    -0.290 C  
ENDROOT
BRANCH   5  11
HETATM   11  O   UNL     1      -9.684   8.231  66.209  1.00  0.00    -0.230 OA 
BRANCH  11  12
HETATM   12  C   UNL     1      -8.599   8.317  65.416  1.00  0.00    -0.151 C  
HETATM   13  C   UNL     1      -9.300  10.824  65.138  1.00  0.00    -0.254 A  
HETATM   14  C   UNL     1      -8.217   9.747  65.027  1.00  0.00    -0.142 C  
HETATM   15  C   UNL     1      -6.883  10.066  65.725  1.00  0.00    -0.111 C  
HETATM   16  C   UNL     1     -10.291  10.908  64.140  1.00  0.00    -0.432 A  
HETATM   17  O   UNL     1      -6.205  11.154  65.096  1.00  0.00    -0.342 OA 
HETATM   18  O   UNL     1      -7.945   7.337  65.057  1.00  0.00    -0.119 OA 
HETATM   19  C   UNL     1     -11.263  11.919  64.155  1.00  0.00    -0.446 A  
HETATM   20  H   UNL     1      -5.382  11.352  65.527  1.00  0.00     0.000 HD 
HETATM   21  C   UNL     1     -11.264  12.874  65.166  1.00  0.00    -0.319 A  
HETATM   22  C   UNL     1     -10.288  12.819  66.155  1.00  0.00    -0.283 A  
HETATM   23  C   UNL     1      -9.314  11.810  66.141  1.00  0.00    -0.236 A  
ENDBRANCH  11  12
ENDBRANCH   5  11
TORSDOF 2
ENDMDL
MODEL      142
REMARK 921   NORMALIZED FREE ENERGY PREDICTED BY IDOCK:   -4.25 KCAL/MOL
REMARK 922        TOTAL FREE ENERGY PREDICTED BY IDOCK:   -5.25 KCAL/MOL
REMARK 923 INTER-LIGAND FREE ENERGY PREDICTED BY IDOCK:   -4.84 KCAL/MOL
REMARK 924 INTRA-LIGAND FREE ENERGY PREDICTED BY IDOCK:   -0.41 KCAL/MOL
REMARK 927      BINDING AFFINITY PREDICTED BY RF-SCORE:    0.00 PKD
ROOT
HETATM    1  C   UNL     1      -9.919   6.498  68.409  1.00  0.00    -0.141 C  
HETATM    2  N   UNL     1      -9.135   7.239  69.364  1.00  0.00    -0.143 NA 
HETATM    3  C   UNL     1      -9.805   8.279  70.156  1.00  0.00    -0.184 C  
HETATM    4  C   UNL     1     -10.237   9.477  69.283  1.00  0.00    -0.212 C  
HETATM    5  C   UNL     1      -9.051  10.142  68.565  1.00  0.00    -0.134 C  
HETATM    6  C   UNL     1      -8.093   9.083  67.976  1.00  0.00    -0.105 C  
HETATM    7  O   UNL     1      -7.639   9.502  70.849  1.00  0.00    -0.270 OA 
HETATM    8  C   UNL     1      -7.881   7.858  68.911  1.00  0.00    -0.117 C  
HETATM    9  C   UNL     1      -8.644   8.526  71.112  1.00  0.00    -0.169 C  
HETATM   10  C   UNL     1      -7.395   8.211  70.310  1.00  0.00    -0.059 C  
ENDROOT
BRANCH   5  11
HETATM   11  O   UNL     1      -9.381  11.256  67.687  1.00  0.00    -0.156 OA 
BRANCH  11  12
HETATM   12  C   UNL     1     -10.228  11.132  66.647  1.00  0.00    -0.232 C  
HETATM   13  C   UNL     1     -11.191  13.424  67.472  1.00  0.00    -0.309 A  
HETATM   14  C   UNL     1     -11.044  12.392  66.349  1.00  0.00    -0.343 C  
HETATM   15  C   UNL     1     -10.553  12.941  64.998  1.00  0.00    -0.315 C  
HETATM   16  C   UNL     1     -12.106  13.179  68.514  1.00  0.00    -0.217 A  
HETATM   17  O   UNL     1     -11.515  13.812  64.401  1.00  0.00    -0.372 OA 
HETATM   18  O   UNL     1     -10.321  10.109  65.968  1.00  0.00    -0.232 OA 
HETATM   19  C   UNL     1     -12.332  14.121  69.528  1.00  0.00    -0.275 A  
HETATM   20  H   UNL     1     -11.213  14.152  63.567  1.00  0.00     0.000 HD 
HETATM   21  C   UNL     1     -11.649  15.333  69.522  1.00  0.00    -0.339 A  
HETATM   22  C   UNL     1     -10.749  15.602  68.496  1.00  0.00    -0.264 A  
HETATM   23  C   UNL     1     -10.524  14.662  67.480  1.00  0.00    -0.247 A  
ENDBRANCH  11  12
ENDBRANCH   5  11
TORSDOF 2
ENDMDL
MODEL      143
REMARK 921   NORMALIZED FREE ENERGY PREDICTED BY IDOCK:   -4.23 KCAL/MOL
REMARK 922        TOTAL FREE ENERGY PREDICTED BY IDOCK:   -5.23 KCAL/MOL
REMARK 923 INTER-LIGAND FREE ENERGY PREDICTED BY IDOCK:   -4.57 KCAL/MOL
REMARK 924 INTRA-LIGAND FREE ENERGY PREDICTED BY IDOCK:   -0.66 KCAL/MOL
REMARK 927      BINDING AFFINITY PREDICTED BY RF-SCORE:    0.00 PKD
ROOT
HETATM    1  C   UNL     1     -12.415  15.461  64.512  1.00  0.00     0.057 C  
HETATM    2  N   UNL     1     -12.054  14.079  64.706  1.00  0.00    -0.414 NA 
HETATM    3  C   UNL     1     -12.527  13.401  65.921  1.00  0.00    -0.408 C  
HETATM    4  C   UNL     1     -11.851  13.962  67.191  1.00  0.00    -0.445 C  
HETATM    5  C   UNL     1     -10.320  13.822  67.155  1.00  0.00    -0.261 C  
HETATM    6  C   UNL     1      -9.759  14.205  65.768  1.00  0.00    -0.246 C  
HETATM    7  O   UNL     1     -10.821  11.466  65.807  1.00  0.00    -0.275 OA 
HETATM    8  C   UNL     1     -10.639  13.701  64.588  1.00  0.00    -0.430 C  
HETATM    9  C   UNL     1     -12.106  12.000  65.496  1.00  0.00     0.010 C  
HETATM   10  C   UNL     1     -10.902  12.202  64.595  1.00  0.00    -0.306 C  
ENDROOT
BRANCH   5  11
HETATM   11  O   UNL     1      -9.603  14.366  68.300  1.00  0.00    -0.199 OA 
BRANCH  11  12
HETATM   12  C   UNL     1      -8.397  13.907  68.685  1.00  0.00    -0.088 C  
HETATM   13  C   UNL     1      -7.572  16.335  68.152  1.00  0.00    -0.151 A  
HETATM   14  C   UNL     1      -7.337  14.997  68.861  1.00  0.00    -0.139 C  
HETATM   15  C   UNL     1      -7.021  15.084  70.364  1.00  0.00     0.206 C  
HETATM   16  C   UNL     1      -7.323  16.433  66.770  1.00  0.00    -0.261 A  
HETATM   17  O   UNL     1      -5.759  15.708  70.604  1.00  0.00    -0.125 OA 
HETATM   18  O   UNL     1      -8.167  12.719  68.911  1.00  0.00     0.061 OA 
HETATM   19  C   UNL     1      -7.453  17.651  66.085  1.00  0.00    -0.334 A  
HETATM   20  H   UNL     1      -5.563  15.762  71.531  1.00  0.00     0.000 HD 
HETATM   21  C   UNL     1      -7.832  18.800  66.769  1.00  0.00    -0.255 A  
HETATM   22  C   UNL     1      -8.072  18.731  68.138  1.00  0.00    -0.327 A  
HETATM   23  C   UNL     1      -7.940  17.514  68.824  1.00  0.00    -0.238 A  
ENDBRANCH  11  12
ENDBRANCH   5  11
TORSDOF 2
ENDMDL
MODEL      144
REMARK 921   NORMALIZED FREE ENERGY PREDICTED BY IDOCK:   -4.23 KCAL/MOL
REMARK 922        TOTAL FREE ENERGY PREDICTED BY IDOCK:   -5.23 KCAL/MOL
REMARK 923 INTER-LIGAND FREE ENERGY PREDICTED BY IDOCK:   -4.52 KCAL/MOL
REMARK 924 INTRA-LIGAND FREE ENERGY PREDICTED BY IDOCK:   -0.71 KCAL/MOL
REMARK 927      BINDING AFFINITY PREDICTED BY RF-SCORE:    0.00 PKD
ROOT
HETATM    1  C   UNL     1      -9.509   5.661  71.750  1.00  0.00    -0.149 C  
HETATM    2  N   UNL     1     -10.607   6.586  71.875  1.00  0.00    -0.207 NA 
HETATM    3  C   UNL     1     -11.791   6.379  71.030  1.00  0.00    -0.258 C  
HETATM    4  C   UNL     1     -11.484   6.638  69.539  1.00  0.00    -0.323 C  
HETATM    5  C   UNL     1     -10.981   8.068  69.280  1.00  0.00     0.039 C  
HETATM    6  C   UNL     1      -9.953   8.498  70.349  1.00  0.00    -0.203 C  
HETATM    7  O   UNL     1     -12.718   8.774  71.306  1.00  0.00    -0.305 OA 
HETATM    8  C   UNL     1     -10.324   8.025  71.784  1.00  0.00    -0.217 C  
HETATM    9  C   UNL     1     -12.668   7.412  71.727  1.00  0.00    -0.334 C  
HETATM   10  C   UNL     1     -11.706   8.461  72.252  1.00  0.00    -0.385 C  
ENDROOT
BRANCH   5  11
HETATM   11  O   UNL     1     -10.628   8.379  67.902  1.00  0.00    -0.220 OA 
BRANCH  11  12
HETATM   12  C   UNL     1     -10.569   9.641  67.436  1.00  0.00    -0.268 C  
HETATM   13  C   UNL     1      -8.128   9.008  66.729  1.00  0.00    -0.111 A  
HETATM   14  C   UNL     1      -9.337   9.937  66.576  1.00  0.00    -0.206 C  
HETATM   15  C   UNL     1      -9.832  10.158  65.137  1.00  0.00    -0.325 C  
HETATM   16  C   UNL     1      -7.281   9.160  67.844  1.00  0.00    -0.080 A  
HETATM   17  O   UNL     1      -8.877  10.877  64.354  1.00  0.00    -0.298 OA 
HETATM   18  O   UNL     1     -11.442  10.483  67.650  1.00  0.00    -0.444 OA 
HETATM   19  C   UNL     1      -6.122   8.386  67.996  1.00  0.00    -0.051 A  
HETATM   20  H   UNL     1      -9.181  11.014  63.465  1.00  0.00     0.000 HD 
HETATM   21  C   UNL     1      -5.779   7.443  67.033  1.00  0.00    -0.030 A  
HETATM   22  C   UNL     1      -6.593   7.283  65.916  1.00  0.00    -0.052 A  
HETATM   23  C   UNL     1      -7.752   8.059  65.762  1.00  0.00    -0.093 A  
ENDBRANCH  11  12
ENDBRANCH   5  11
TORSDOF 2
ENDMDL
MODEL      145
REMARK 921   NORMALIZED FREE ENERGY PREDICTED BY IDOCK:   -4.21 KCAL/MOL
REMARK 922        TOTAL FREE ENERGY PREDICTED BY IDOCK:   -5.21 KCAL/MOL
REMARK 923 INTER-LIGAND FREE ENERGY PREDICTED BY IDOCK:   -4.54 KCAL/MOL
REMARK 924 INTRA-LIGAND FREE ENERGY PREDICTED BY IDOCK:   -0.67 KCAL/MOL
REMARK 927      BINDING AFFINITY PREDICTED BY RF-SCORE:    0.00 PKD
ROOT
HETATM    1  C   UNL     1      -6.912   6.863  67.652  1.00  0.00    -0.083 C  
HETATM    2  N   UNL     1      -7.853   7.882  67.263  1.00  0.00    -0.111 NA 
HETATM    3  C   UNL     1      -8.058   9.022  68.167  1.00  0.00    -0.105 C  
HETATM    4  C   UNL     1      -8.758   8.597  69.476  1.00  0.00    -0.139 C  
HETATM    5  C   UNL     1     -10.133   7.956  69.229  1.00  0.00    -0.197 C  
HETATM    6  C   UNL     1     -10.080   6.967  68.044  1.00  0.00    -0.193 C  
HETATM    7  O   UNL     1     -10.312   9.754  67.142  1.00  0.00    -0.222 OA 
HETATM    8  C   UNL     1      -9.205   7.471  66.861  1.00  0.00    -0.149 C  
HETATM    9  C   UNL     1      -8.891   9.850  67.196  1.00  0.00    -0.138 C  
HETATM   10  C   UNL     1      -9.605   8.837  66.320  1.00  0.00    -0.259 C  
ENDROOT
BRANCH   5  11
HETATM   11  O   UNL     1     -10.840   7.488  70.413  1.00  0.00    -0.235 OA 
BRANCH  11  12
HETATM   12  C   UNL     1     -10.920   8.215  71.544  1.00  0.00    -0.243 C  
HETATM   13  C   UNL     1     -10.167   6.006  72.730  1.00  0.00    -0.209 A  
HETATM   14  C   UNL     1     -10.325   7.529  72.775  1.00  0.00    -0.331 C  
HETATM   15  C   UNL     1      -9.066   8.319  73.171  1.00  0.00    -0.235 C  
HETATM   16  C   UNL     1     -11.299   5.191  72.928  1.00  0.00    -0.354 A  
HETATM   17  O   UNL     1      -8.693   8.076  74.528  1.00  0.00    -0.436 OA 
HETATM   18  O   UNL     1     -11.400   9.349  71.586  1.00  0.00    -0.372 OA 
HETATM   19  C   UNL     1     -11.200   3.793  72.968  1.00  0.00    -0.071 A  
HETATM   20  H   UNL     1      -7.915   8.563  74.772  1.00  0.00     0.000 HD 
HETATM   21  C   UNL     1      -9.963   3.175  72.815  1.00  0.00    -0.213 A  
HETATM   22  C   UNL     1      -8.828   3.959  72.631  1.00  0.00    -0.113 A  
HETATM   23  C   UNL     1      -8.927   5.358  72.593  1.00  0.00    -0.133 A  
ENDBRANCH  11  12
ENDBRANCH   5  11
TORSDOF 2
ENDMDL
MODEL      146
REMARK 921   NORMALIZED FREE ENERGY PREDICTED BY IDOCK:   -4.21 KCAL/MOL
REMARK 922        TOTAL FREE ENERGY PREDICTED BY IDOCK:   -5.20 KCAL/MOL
REMARK 923 INTER-LIGAND FREE ENERGY PREDICTED BY IDOCK:   -4.57 KCAL/MOL
REMARK 924 INTRA-LIGAND FREE ENERGY PREDICTED BY IDOCK:   -0.63 KCAL/MOL
REMARK 927      BINDING AFFINITY PREDICTED BY RF-SCORE:    0.00 PKD
ROOT
HETATM    1  C   UNL     1     -12.133  14.279  68.459  1.00  0.00    -0.260 C  
HETATM    2  N   UNL     1     -11.561  14.359  67.139  1.00  0.00    -0.369 NA 
HETATM    3  C   UNL     1     -12.089  13.469  66.097  1.00  0.00    -0.436 C  
HETATM    4  C   UNL     1     -11.739  11.990  66.374  1.00  0.00    -0.326 C  
HETATM    5  C   UNL     1     -10.223  11.749  66.458  1.00  0.00    -0.208 C  
HETATM    6  C   UNL     1      -9.528  12.857  67.278  1.00  0.00    -0.216 C  
HETATM    7  O   UNL     1     -10.061  13.704  64.515  1.00  0.00    -0.349 OA 
HETATM    8  C   UNL     1     -10.100  14.277  67.003  1.00  0.00    -0.260 C  
HETATM    9  C   UNL     1     -11.355  14.129  64.936  1.00  0.00    -0.365 C  
HETATM   10  C   UNL     1     -10.080  14.689  65.537  1.00  0.00    -0.377 C  
ENDROOT
BRANCH   5  11
HETATM   11  O   UNL     1      -9.811  10.384  66.759  1.00  0.00    -0.181 OA 
BRANCH  11  12
HETATM   12  C   UNL     1      -9.196   9.597  65.856  1.00  0.00    -0.194 C  
HETATM   13  C   UNL     1      -7.577   9.013  67.830  1.00  0.00    -0.093 A  
HETATM   14  C   UNL     1      -8.150   8.654  66.455  1.00  0.00    -0.103 C  
HETATM   15  C   UNL     1      -8.695   7.223  66.312  1.00  0.00    -0.149 C  
HETATM   16  C   UNL     1      -6.598  10.022  67.925  1.00  0.00    -0.063 A  
HETATM   17  O   UNL     1      -7.653   6.249  66.401  1.00  0.00    -0.091 OA 
HETATM   18  O   UNL     1      -9.467   9.605  64.655  1.00  0.00    -0.263 OA 
HETATM   19  C   UNL     1      -5.989  10.341  69.147  1.00  0.00    -0.037 A  
HETATM   20  H   UNL     1      -7.989   5.365  66.312  1.00  0.00     0.000 HD 
HETATM   21  C   UNL     1      -6.342   9.655  70.304  1.00  0.00    -0.076 A  
HETATM   22  C   UNL     1      -7.297   8.646  70.234  1.00  0.00    -0.054 A  
HETATM   23  C   UNL     1      -7.905   8.324  69.011  1.00  0.00    -0.103 A  
ENDBRANCH  11  12
ENDBRANCH   5  11
TORSDOF 2
ENDMDL
MODEL      147
REMARK 921   NORMALIZED FREE ENERGY PREDICTED BY IDOCK:   -4.20 KCAL/MOL
REMARK 922        TOTAL FREE ENERGY PREDICTED BY IDOCK:   -5.19 KCAL/MOL
REMARK 923 INTER-LIGAND FREE ENERGY PREDICTED BY IDOCK:   -4.64 KCAL/MOL
REMARK 924 INTRA-LIGAND FREE ENERGY PREDICTED BY IDOCK:   -0.56 KCAL/MOL
REMARK 927      BINDING AFFINITY PREDICTED BY RF-SCORE:    0.00 PKD
ROOT
HETATM    1  C   UNL     1      -8.088   7.424  63.763  1.00  0.00    -0.017 C  
HETATM    2  N   UNL     1      -7.929   7.189  65.176  1.00  0.00    -0.124 NA 
HETATM    3  C   UNL     1      -9.109   7.326  66.040  1.00  0.00    -0.075 C  
HETATM    4  C   UNL     1      -9.584   8.793  66.136  1.00  0.00    -0.323 C  
HETATM    5  C   UNL     1      -8.498   9.729  66.692  1.00  0.00    -0.124 C  
HETATM    6  C   UNL     1      -7.122   9.419  66.064  1.00  0.00    -0.091 C  
HETATM    7  O   UNL     1      -7.781   7.561  68.243  1.00  0.00    -0.114 OA 
HETATM    8  C   UNL     1      -6.855   7.896  65.887  1.00  0.00    -0.057 C  
HETATM    9  C   UNL     1      -8.460   6.745  67.290  1.00  0.00    -0.120 C  
HETATM   10  C   UNL     1      -6.986   7.082  67.167  1.00  0.00    -0.078 C  
ENDROOT
BRANCH   5  11
HETATM   11  O   UNL     1      -8.853  11.139  66.774  1.00  0.00    -0.152 OA 
BRANCH  11  12
HETATM   12  C   UNL     1      -9.025  11.776  67.948  1.00  0.00    -0.180 C  
HETATM   13  C   UNL     1     -10.851  13.143  66.660  1.00  0.00    -0.292 A  
HETATM   14  C   UNL     1     -10.259  12.681  67.996  1.00  0.00    -0.230 C  
HETATM   15  C   UNL     1     -11.252  12.042  68.981  1.00  0.00    -0.258 C  
HETATM   16  C   UNL     1     -10.219  14.184  65.951  1.00  0.00    -0.332 A  
HETATM   17  O   UNL     1     -12.208  12.990  69.458  1.00  0.00    -0.248 OA 
HETATM   18  O   UNL     1      -8.279  11.625  68.915  1.00  0.00    -0.096 OA 
HETATM   19  C   UNL     1     -10.759  14.693  64.761  1.00  0.00    -0.399 A  
HETATM   20  H   UNL     1     -12.822  12.596  70.066  1.00  0.00     0.000 HD 
HETATM   21  C   UNL     1     -11.945  14.176  64.253  1.00  0.00    -0.460 A  
HETATM   22  C   UNL     1     -12.594  13.156  64.942  1.00  0.00    -0.468 A  
HETATM   23  C   UNL     1     -12.057  12.648  66.134  1.00  0.00    -0.399 A  
ENDBRANCH  11  12
ENDBRANCH   5  11
TORSDOF 2
ENDMDL
MODEL      148
REMARK 921   NORMALIZED FREE ENERGY PREDICTED BY IDOCK:   -4.16 KCAL/MOL
REMARK 922        TOTAL FREE ENERGY PREDICTED BY IDOCK:   -5.15 KCAL/MOL
REMARK 923 INTER-LIGAND FREE ENERGY PREDICTED BY IDOCK:   -4.43 KCAL/MOL
REMARK 924 INTRA-LIGAND FREE ENERGY PREDICTED BY IDOCK:   -0.72 KCAL/MOL
REMARK 927      BINDING AFFINITY PREDICTED BY RF-SCORE:    0.00 PKD
ROOT
HETATM    1  C   UNL     1      -7.535  11.015  68.558  1.00  0.00    -0.106 C  
HETATM    2  N   UNL     1      -8.872  10.749  68.091  1.00  0.00    -0.129 NA 
HETATM    3  C   UNL     1      -9.159  10.933  66.662  1.00  0.00    -0.162 C  
HETATM    4  C   UNL     1      -9.097  12.420  66.251  1.00  0.00    -0.099 C  
HETATM    5  C   UNL     1     -10.095  13.290  67.033  1.00  0.00    -0.242 C  
HETATM    6  C   UNL     1     -10.099  12.920  68.532  1.00  0.00    -0.193 C  
HETATM    7  O   UNL     1     -11.723  11.063  66.935  1.00  0.00    -0.336 OA 
HETATM    8  C   UNL     1      -9.997  11.388  68.788  1.00  0.00    -0.177 C  
HETATM    9  C   UNL     1     -10.544  10.299  66.694  1.00  0.00    -0.162 C  
HETATM   10  C   UNL     1     -11.070  10.562  68.092  1.00  0.00    -0.287 C  
ENDROOT
BRANCH   5  11
HETATM   11  O   UNL     1     -10.069  14.715  66.733  1.00  0.00    -0.256 OA 
BRANCH  11  12
HETATM   12  C   UNL     1     -10.648  15.634  67.530  1.00  0.00    -0.297 C  
HETATM   13  C   UNL     1      -8.190  16.260  68.184  1.00  0.00    -0.163 A  
HETATM   14  C   UNL     1      -9.671  16.648  68.131  1.00  0.00    -0.244 C  
HETATM   15  C   UNL     1      -9.981  18.011  67.489  1.00  0.00    -0.327 C  
HETATM   16  C   UNL     1      -7.749  15.369  69.183  1.00  0.00    -0.207 A  
HETATM   17  O   UNL     1      -9.477  19.092  68.275  1.00  0.00    -0.317 OA 
HETATM   18  O   UNL     1     -11.860  15.682  67.737  1.00  0.00    -0.153 OA 
HETATM   19  C   UNL     1      -6.393  15.036  69.321  1.00  0.00    -0.116 A  
HETATM   20  H   UNL     1      -9.668  19.934  67.879  1.00  0.00     0.000 HD 
HETATM   21  C   UNL     1      -5.446  15.589  68.466  1.00  0.00    -0.102 A  
HETATM   22  C   UNL     1      -5.856  16.480  67.480  1.00  0.00    -0.175 A  
HETATM   23  C   UNL     1      -7.211  16.816  67.341  1.00  0.00    -0.187 A  
ENDBRANCH  11  12
ENDBRANCH   5  11
TORSDOF 2
ENDMDL
MODEL      149
REMARK 921   NORMALIZED FREE ENERGY PREDICTED BY IDOCK:   -4.14 KCAL/MOL
REMARK 922        TOTAL FREE ENERGY PREDICTED BY IDOCK:   -5.13 KCAL/MOL
REMARK 923 INTER-LIGAND FREE ENERGY PREDICTED BY IDOCK:   -5.14 KCAL/MOL
REMARK 924 INTRA-LIGAND FREE ENERGY PREDICTED BY IDOCK:    0.01 KCAL/MOL
REMARK 927      BINDING AFFINITY PREDICTED BY RF-SCORE:    0.00 PKD
ROOT
HETATM    1  C   UNL     1      -6.928  10.000  70.262  1.00  0.00    -0.150 C  
HETATM    2  N   UNL     1      -6.581   9.815  68.876  1.00  0.00    -0.046 NA 
HETATM    3  C   UNL     1      -6.042  10.964  68.135  1.00  0.00    -0.049 C  
HETATM    4  C   UNL     1      -7.106  12.064  67.928  1.00  0.00    -0.097 C  
HETATM    5  C   UNL     1      -8.336  11.557  67.156  1.00  0.00    -0.160 C  
HETATM    6  C   UNL     1      -8.775  10.166  67.662  1.00  0.00    -0.121 C  
HETATM    7  O   UNL     1      -6.518   9.994  65.789  1.00  0.00    -0.085 OA 
HETATM    8  C   UNL     1      -7.581   9.221  67.977  1.00  0.00    -0.084 C  
HETATM    9  C   UNL     1      -5.636  10.178  66.894  1.00  0.00    -0.046 C  
HETATM   10  C   UNL     1      -6.614   9.020  66.818  1.00  0.00    -0.064 C  
ENDROOT
BRANCH   5  11
HETATM   11  O   UNL     1      -9.406  12.525  66.956  1.00  0.00    -0.197 OA 
BRANCH  11  12
HETATM   12  C   UNL     1     -10.498  12.257  66.214  1.00  0.00    -0.238 C  
HETATM   13  C   UNL     1     -11.158  14.739  66.726  1.00  0.00    -0.338 A  
HETATM   14  C   UNL     1     -11.333  13.488  65.859  1.00  0.00    -0.321 C  
HETATM   15  C   UNL     1     -11.199  13.704  64.341  1.00  0.00    -0.367 C  
HETATM   16  C   UNL     1     -11.776  14.789  67.991  1.00  0.00    -0.360 A  
HETATM   17  O   UNL     1     -12.263  14.506  63.826  1.00  0.00    -0.947 OA 
HETATM   18  O   UNL     1     -10.788  11.126  65.824  1.00  0.00    -0.238 OA 
HETATM   19  C   UNL     1     -11.707  15.936  68.796  1.00  0.00    -0.355 A  
HETATM   20  H   UNL     1     -12.180  14.640  62.889  1.00  0.00     0.000 HD 
HETATM   21  C   UNL     1     -11.021  17.062  68.352  1.00  0.00    -0.263 A  
HETATM   22  C   UNL     1     -10.414  17.040  67.101  1.00  0.00    -0.291 A  
HETATM   23  C   UNL     1     -10.484  15.894  66.294  1.00  0.00    -0.324 A  
ENDBRANCH  11  12
ENDBRANCH   5  11
TORSDOF 2
ENDMDL
MODEL      150
REMARK 921   NORMALIZED FREE ENERGY PREDICTED BY IDOCK:   -4.13 KCAL/MOL
REMARK 922        TOTAL FREE ENERGY PREDICTED BY IDOCK:   -5.12 KCAL/MOL
REMARK 923 INTER-LIGAND FREE ENERGY PREDICTED BY IDOCK:   -4.50 KCAL/MOL
REMARK 924 INTRA-LIGAND FREE ENERGY PREDICTED BY IDOCK:   -0.62 KCAL/MOL
REMARK 927      BINDING AFFINITY PREDICTED BY RF-SCORE:    0.00 PKD
ROOT
HETATM    1  C   UNL     1      -6.387   9.149  67.556  1.00  0.00    -0.063 C  
HETATM    2  N   UNL     1      -6.881   8.735  66.267  1.00  0.00    -0.073 NA 
HETATM    3  C   UNL     1      -6.943   9.735  65.192  1.00  0.00    -0.117 C  
HETATM    4  C   UNL     1      -8.010  10.815  65.475  1.00  0.00    -0.064 C  
HETATM    5  C   UNL     1      -9.421  10.224  65.633  1.00  0.00    -0.221 C  
HETATM    6  C   UNL     1      -9.394   8.944  66.496  1.00  0.00    -0.252 C  
HETATM    7  O   UNL     1      -8.601   8.414  63.717  1.00  0.00    -0.047 OA 
HETATM    8  C   UNL     1      -8.169   8.031  66.204  1.00  0.00    -0.116 C  
HETATM    9  C   UNL     1      -7.262   8.749  64.075  1.00  0.00    -0.095 C  
HETATM   10  C   UNL     1      -8.024   7.621  64.745  1.00  0.00    -0.137 C  
ENDROOT
BRANCH   5  11
HETATM   11  O   UNL     1     -10.479  11.175  65.944  1.00  0.00    -0.252 OA 
BRANCH  11  12
HETATM   12  C   UNL     1     -10.229  12.461  66.257  1.00  0.00    -0.238 C  
HETATM   13  C   UNL     1     -10.506  11.658  68.734  1.00  0.00    -0.226 A  
HETATM   14  C   UNL     1      -9.985  12.708  67.748  1.00  0.00    -0.218 C  
HETATM   15  C   UNL     1      -8.505  13.097  67.907  1.00  0.00    -0.181 C  
HETATM   16  C   UNL     1     -11.879  11.632  69.049  1.00  0.00    -0.391 A  
HETATM   17  O   UNL     1      -8.269  13.784  69.137  1.00  0.00    -0.336 OA 
HETATM   18  O   UNL     1     -10.167  13.362  65.420  1.00  0.00    -0.302 OA 
HETATM   19  C   UNL     1     -12.397  10.739  69.999  1.00  0.00    -0.371 A  
HETATM   20  H   UNL     1      -7.355  14.025  69.236  1.00  0.00     0.000 HD 
HETATM   21  C   UNL     1     -11.554   9.853  70.659  1.00  0.00    -0.413 A  
HETATM   22  C   UNL     1     -10.192   9.868  70.374  1.00  0.00    -0.299 A  
HETATM   23  C   UNL     1      -9.672  10.762  69.426  1.00  0.00    -0.088 A  
ENDBRANCH  11  12
ENDBRANCH   5  11
TORSDOF 2
ENDMDL
MODEL      151
REMARK 921   NORMALIZED FREE ENERGY PREDICTED BY IDOCK:   -4.12 KCAL/MOL
REMARK 922        TOTAL FREE ENERGY PREDICTED BY IDOCK:   -5.10 KCAL/MOL
REMARK 923 INTER-LIGAND FREE ENERGY PREDICTED BY IDOCK:   -4.30 KCAL/MOL
REMARK 924 INTRA-LIGAND FREE ENERGY PREDICTED BY IDOCK:   -0.81 KCAL/MOL
REMARK 927      BINDING AFFINITY PREDICTED BY RF-SCORE:    0.00 PKD
ROOT
HETATM    1  C   UNL     1     -10.607  12.255  65.246  1.00  0.00    -0.287 C  
HETATM    2  N   UNL     1     -10.925  12.983  66.447  1.00  0.00    -0.278 NA 
HETATM    3  C   UNL     1      -9.817  13.509  67.256  1.00  0.00    -0.237 C  
HETATM    4  C   UNL     1      -9.004  12.377  67.921  1.00  0.00    -0.184 C  
HETATM    5  C   UNL     1      -9.864  11.494  68.841  1.00  0.00    -0.075 C  
HETATM    6  C   UNL     1     -11.222  11.165  68.184  1.00  0.00    -0.356 C  
HETATM    7  O   UNL     1     -11.210  13.837  69.406  1.00  0.00    -0.249 OA 
HETATM    8  C   UNL     1     -11.842  12.367  67.417  1.00  0.00    -0.289 C  
HETATM    9  C   UNL     1     -10.683  14.351  68.185  1.00  0.00    -0.236 C  
HETATM   10  C   UNL     1     -12.014  13.627  68.255  1.00  0.00    -0.350 C  
ENDROOT
BRANCH   5  11
HETATM   11  O   UNL     1      -9.178  10.376  69.473  1.00  0.00    -0.194 OA 
BRANCH  11  12
HETATM   12  C   UNL     1      -9.774   9.188  69.689  1.00  0.00    -0.176 C  
HETATM   13  C   UNL     1      -8.516   8.436  67.519  1.00  0.00    -0.129 A  
HETATM   14  C   UNL     1      -9.248   8.052  68.809  1.00  0.00    -0.143 C  
HETATM   15  C   UNL     1      -8.505   7.071  69.732  1.00  0.00    -0.137 C  
HETATM   16  C   UNL     1      -9.266   8.843  66.398  1.00  0.00    -0.240 A  
HETATM   17  O   UNL     1      -8.375   5.779  69.135  1.00  0.00    -0.103 OA 
HETATM   18  O   UNL     1     -10.646   9.014  70.541  1.00  0.00    -0.203 OA 
HETATM   19  C   UNL     1      -8.652   9.137  65.172  1.00  0.00    -0.200 A  
HETATM   20  H   UNL     1      -7.916   5.173  69.705  1.00  0.00     0.000 HD 
HETATM   21  C   UNL     1      -7.273   9.026  65.036  1.00  0.00    -0.092 A  
HETATM   22  C   UNL     1      -6.512   8.614  66.126  1.00  0.00    -0.057 A  
HETATM   23  C   UNL     1      -7.125   8.318  67.352  1.00  0.00    -0.080 A  
ENDBRANCH  11  12
ENDBRANCH   5  11
TORSDOF 2
ENDMDL
MODEL      152
REMARK 921   NORMALIZED FREE ENERGY PREDICTED BY IDOCK:   -4.11 KCAL/MOL
REMARK 922        TOTAL FREE ENERGY PREDICTED BY IDOCK:   -5.10 KCAL/MOL
REMARK 923 INTER-LIGAND FREE ENERGY PREDICTED BY IDOCK:   -4.41 KCAL/MOL
REMARK 924 INTRA-LIGAND FREE ENERGY PREDICTED BY IDOCK:   -0.69 KCAL/MOL
REMARK 927      BINDING AFFINITY PREDICTED BY RF-SCORE:    0.00 PKD
ROOT
HETATM    1  C   UNL     1     -10.279  12.705  67.091  1.00  0.00    -0.225 C  
HETATM    2  N   UNL     1      -9.802  11.650  66.234  1.00  0.00    -0.213 NA 
HETATM    3  C   UNL     1     -10.511  10.364  66.254  1.00  0.00    -0.159 C  
HETATM    4  C   UNL     1     -10.324   9.626  67.598  1.00  0.00    -0.290 C  
HETATM    5  C   UNL     1      -8.846   9.339  67.912  1.00  0.00    -0.124 C  
HETATM    6  C   UNL     1      -7.962  10.564  67.592  1.00  0.00    -0.106 C  
HETATM    7  O   UNL     1      -8.594   9.004  65.184  1.00  0.00    -0.160 OA 
HETATM    8  C   UNL     1      -8.377  11.297  66.284  1.00  0.00    -0.142 C  
HETATM    9  C   UNL     1      -9.793   9.765  65.051  1.00  0.00    -0.173 C  
HETATM   10  C   UNL     1      -8.417  10.406  65.050  1.00  0.00    -0.176 C  
ENDROOT
BRANCH   5  11
HETATM   11  O   UNL     1      -8.581   8.683  69.185  1.00  0.00    -0.126 OA 
BRANCH  11  12
HETATM   12  C   UNL     1      -8.069   7.440  69.267  1.00  0.00    -0.123 C  
HETATM   13  C   UNL     1     -10.121   6.958  70.820  1.00  0.00    -0.208 A  
HETATM   14  C   UNL     1      -8.999   6.419  69.927  1.00  0.00    -0.142 C  
HETATM   15  C   UNL     1      -9.433   5.428  68.834  1.00  0.00    -0.133 C  
HETATM   16  C   UNL     1      -9.813   7.394  72.124  1.00  0.00    -0.205 A  
HETATM   17  O   UNL     1      -9.907   4.201  69.392  1.00  0.00    -0.197 OA 
HETATM   18  O   UNL     1      -6.962   7.134  68.822  1.00  0.00    -0.076 OA 
HETATM   19  C   UNL     1     -10.812   7.829  73.008  1.00  0.00    -0.451 A  
HETATM   20  H   UNL     1     -10.175   3.588  68.717  1.00  0.00     0.000 HD 
HETATM   21  C   UNL     1     -12.144   7.834  72.609  1.00  0.00    -0.191 A  
HETATM   22  C   UNL     1     -12.475   7.395  71.331  1.00  0.00    -0.402 A  
HETATM   23  C   UNL     1     -11.477   6.958  70.447  1.00  0.00    -0.387 A  
ENDBRANCH  11  12
ENDBRANCH   5  11
TORSDOF 2
ENDMDL
MODEL      153
REMARK 921   NORMALIZED FREE ENERGY PREDICTED BY IDOCK:   -4.11 KCAL/MOL
REMARK 922        TOTAL FREE ENERGY PREDICTED BY IDOCK:   -5.10 KCAL/MOL
REMARK 923 INTER-LIGAND FREE ENERGY PREDICTED BY IDOCK:   -4.45 KCAL/MOL
REMARK 924 INTRA-LIGAND FREE ENERGY PREDICTED BY IDOCK:   -0.65 KCAL/MOL
REMARK 927      BINDING AFFINITY PREDICTED BY RF-SCORE:    0.00 PKD
ROOT
HETATM    1  C   UNL     1     -11.411  11.295  67.816  1.00  0.00    -0.275 C  
HETATM    2  N   UNL     1     -10.221  10.639  67.338  1.00  0.00    -0.194 NA 
HETATM    3  C   UNL     1     -10.268   9.188  67.116  1.00  0.00    -0.261 C  
HETATM    4  C   UNL     1     -10.404   8.408  68.442  1.00  0.00    -0.239 C  
HETATM    5  C   UNL     1      -9.243   8.685  69.412  1.00  0.00    -0.150 C  
HETATM    6  C   UNL     1      -8.899  10.190  69.451  1.00  0.00    -0.197 C  
HETATM    7  O   UNL     1      -7.708   8.849  67.123  1.00  0.00    -0.094 OA 
HETATM    8  C   UNL     1      -8.958  10.872  68.053  1.00  0.00    -0.145 C  
HETATM    9  C   UNL     1      -8.920   9.089  66.412  1.00  0.00    -0.155 C  
HETATM   10  C   UNL     1      -8.084  10.212  66.995  1.00  0.00    -0.117 C  
ENDROOT
BRANCH   5  11
HETATM   11  O   UNL     1      -9.320   8.020  70.704  1.00  0.00    -0.156 OA 
BRANCH  11  12
HETATM   12  C   UNL     1     -10.491   7.744  71.310  1.00  0.00    -0.206 C  
HETATM   13  C   UNL     1      -9.805   5.241  70.962  1.00  0.00    -0.254 A  
HETATM   14  C   UNL     1     -10.670   6.274  71.693  1.00  0.00    -0.284 C  
HETATM   15  C   UNL     1     -10.645   6.199  73.229  1.00  0.00    -0.258 C  
HETATM   16  C   UNL     1     -10.154   4.855  69.653  1.00  0.00    -0.300 A  
HETATM   17  O   UNL     1     -11.248   4.996  73.710  1.00  0.00    -0.391 OA 
HETATM   18  O   UNL     1     -11.337   8.601  71.566  1.00  0.00    -0.253 OA 
HETATM   19  C   UNL     1      -9.439   3.863  68.966  1.00  0.00    -0.240 A  
HETATM   20  H   UNL     1     -11.233   4.950  74.658  1.00  0.00     0.000 HD 
HETATM   21  C   UNL     1      -8.361   3.230  69.574  1.00  0.00    -0.087 A  
HETATM   22  C   UNL     1      -8.005   3.585  70.871  1.00  0.00    -0.058 A  
HETATM   23  C   UNL     1      -8.720   4.576  71.560  1.00  0.00    -0.139 A  
ENDBRANCH  11  12
ENDBRANCH   5  11
TORSDOF 2
ENDMDL
MODEL      154
REMARK 921   NORMALIZED FREE ENERGY PREDICTED BY IDOCK:   -4.10 KCAL/MOL
REMARK 922        TOTAL FREE ENERGY PREDICTED BY IDOCK:   -5.08 KCAL/MOL
REMARK 923 INTER-LIGAND FREE ENERGY PREDICTED BY IDOCK:   -4.36 KCAL/MOL
REMARK 924 INTRA-LIGAND FREE ENERGY PREDICTED BY IDOCK:   -0.72 KCAL/MOL
REMARK 927      BINDING AFFINITY PREDICTED BY RF-SCORE:    0.00 PKD
ROOT
HETATM    1  C   UNL     1     -10.859   6.760  71.086  1.00  0.00    -0.238 C  
HETATM    2  N   UNL     1      -9.677   6.461  70.318  1.00  0.00    -0.167 NA 
HETATM    3  C   UNL     1      -8.491   7.306  70.511  1.00  0.00    -0.138 C  
HETATM    4  C   UNL     1      -8.714   8.739  69.980  1.00  0.00    -0.146 C  
HETATM    5  C   UNL     1      -9.057   8.767  68.481  1.00  0.00    -0.138 C  
HETATM    6  C   UNL     1     -10.073   7.661  68.124  1.00  0.00    -0.220 C  
HETATM    7  O   UNL     1      -7.332   6.619  68.308  1.00  0.00    -0.085 OA 
HETATM    8  C   UNL     1      -9.806   6.317  68.861  1.00  0.00    -0.134 C  
HETATM    9  C   UNL     1      -7.538   6.431  69.706  1.00  0.00    -0.093 C  
HETATM   10  C   UNL     1      -8.404   5.757  68.659  1.00  0.00    -0.107 C  
ENDROOT
BRANCH   5  11
HETATM   11  O   UNL     1      -9.325  10.081  67.913  1.00  0.00    -0.140 OA 
BRANCH  11  12
HETATM   12  C   UNL     1     -10.134  10.260  66.852  1.00  0.00    -0.221 C  
HETATM   13  C   UNL     1     -11.755  11.372  68.582  1.00  0.00    -0.394 A  
HETATM   14  C   UNL     1     -11.333  11.172  67.122  1.00  0.00    -0.257 C  
HETATM   15  C   UNL     1     -11.116  12.459  66.308  1.00  0.00    -0.303 C  
HETATM   16  C   UNL     1     -12.488  10.358  69.230  1.00  0.00     0.390 A  
HETATM   17  O   UNL     1     -12.339  13.171  66.109  1.00  0.00    -0.404 OA 
HETATM   18  O   UNL     1      -9.918   9.764  65.746  1.00  0.00    -0.284 OA 
HETATM   19  C   UNL     1     -12.961  10.519  70.540  1.00  0.00    -0.289 A  
HETATM   20  H   UNL     1     -12.206  13.966  65.606  1.00  0.00     0.000 HD 
HETATM   21  C   UNL     1     -12.716  11.700  71.233  1.00  0.00    -0.444 A  
HETATM   22  C   UNL     1     -12.006  12.721  70.609  1.00  0.00    -0.199 A  
HETATM   23  C   UNL     1     -11.534  12.562  69.298  1.00  0.00    -0.353 A  
ENDBRANCH  11  12
ENDBRANCH   5  11
TORSDOF 2
ENDMDL
MODEL      155
REMARK 921   NORMALIZED FREE ENERGY PREDICTED BY IDOCK:   -4.10 KCAL/MOL
REMARK 922        TOTAL FREE ENERGY PREDICTED BY IDOCK:   -5.08 KCAL/MOL
REMARK 923 INTER-LIGAND FREE ENERGY PREDICTED BY IDOCK:   -4.39 KCAL/MOL
REMARK 924 INTRA-LIGAND FREE ENERGY PREDICTED BY IDOCK:   -0.69 KCAL/MOL
REMARK 927      BINDING AFFINITY PREDICTED BY RF-SCORE:    0.00 PKD
ROOT
HETATM    1  C   UNL     1      -9.438   3.890  67.981  1.00  0.00    -0.165 C  
HETATM    2  N   UNL     1      -9.098   3.928  69.380  1.00  0.00    -0.116 NA 
HETATM    3  C   UNL     1      -9.998   4.642  70.295  1.00  0.00    -0.239 C  
HETATM    4  C   UNL     1      -9.980   6.166  70.046  1.00  0.00    -0.217 C  
HETATM    5  C   UNL     1      -8.578   6.774  70.216  1.00  0.00    -0.140 C  
HETATM    6  C   UNL     1      -7.503   5.886  69.553  1.00  0.00    -0.076 C  
HETATM    7  O   UNL     1      -8.276   4.883  72.205  1.00  0.00    -0.111 OA 
HETATM    8  C   UNL     1      -7.747   4.364  69.762  1.00  0.00    -0.054 C  
HETATM    9  C   UNL     1      -9.335   4.161  71.580  1.00  0.00    -0.141 C  
HETATM   10  C   UNL     1      -7.878   3.942  71.219  1.00  0.00    -0.060 C  
ENDROOT
BRANCH   5  11
HETATM   11  O   UNL     1      -8.468   8.203  69.956  1.00  0.00    -0.124 OA 
BRANCH  11  12
HETATM   12  C   UNL     1      -9.225   9.116  70.594  1.00  0.00    -0.258 C  
HETATM   13  C   UNL     1      -9.616  10.107  68.202  1.00  0.00    -0.151 A  
HETATM   14  C   UNL     1     -10.059  10.000  69.665  1.00  0.00    -0.263 C  
HETATM   15  C   UNL     1     -11.535   9.629  69.890  1.00  0.00    -0.100 C  
HETATM   16  C   UNL     1      -8.526  10.936  67.874  1.00  0.00    -0.129 A  
HETATM   17  O   UNL     1     -12.414  10.664  69.447  1.00  0.00    -0.655 OA 
HETATM   18  O   UNL     1      -9.273   9.217  71.821  1.00  0.00    -0.338 OA 
HETATM   19  C   UNL     1      -8.123  11.126  66.543  1.00  0.00    -0.163 A  
HETATM   20  H   UNL     1     -13.326  10.435  69.585  1.00  0.00     0.000 HD 
HETATM   21  C   UNL     1      -8.805  10.494  65.509  1.00  0.00    -0.200 A  
HETATM   22  C   UNL     1      -9.893   9.680  65.808  1.00  0.00    -0.373 A  
HETATM   23  C   UNL     1     -10.298   9.491  67.138  1.00  0.00    -0.320 A  
ENDBRANCH  11  12
ENDBRANCH   5  11
TORSDOF 2
ENDMDL
MODEL      156
REMARK 921   NORMALIZED FREE ENERGY PREDICTED BY IDOCK:   -4.09 KCAL/MOL
REMARK 922        TOTAL FREE ENERGY PREDICTED BY IDOCK:   -5.07 KCAL/MOL
REMARK 923 INTER-LIGAND FREE ENERGY PREDICTED BY IDOCK:   -4.72 KCAL/MOL
REMARK 924 INTRA-LIGAND FREE ENERGY PREDICTED BY IDOCK:   -0.36 KCAL/MOL
REMARK 927      BINDING AFFINITY PREDICTED BY RF-SCORE:    0.00 PKD
ROOT
HETATM    1  C   UNL     1      -8.203   4.086  67.203  1.00  0.00    -0.099 C  
HETATM    2  N   UNL     1      -9.050   4.874  68.061  1.00  0.00    -0.110 NA 
HETATM    3  C   UNL     1     -10.409   5.187  67.600  1.00  0.00    -0.110 C  
HETATM    4  C   UNL     1     -10.398   6.152  66.394  1.00  0.00    -0.102 C  
HETATM    5  C   UNL     1      -9.704   7.486  66.712  1.00  0.00    -0.216 C  
HETATM    6  C   UNL     1      -8.402   7.259  67.510  1.00  0.00    -0.116 C  
HETATM    7  O   UNL     1     -10.781   7.154  69.231  1.00  0.00    -0.224 OA 
HETATM    8  C   UNL     1      -8.527   6.143  68.587  1.00  0.00    -0.114 C  
HETATM    9  C   UNL     1     -10.897   5.767  68.922  1.00  0.00    -0.235 C  
HETATM   10  C   UNL     1      -9.662   6.353  69.580  1.00  0.00    -0.150 C  
ENDROOT
BRANCH   5  11
HETATM   11  O   UNL     1      -9.614   8.436  65.611  1.00  0.00    -0.047 OA 
BRANCH  11  12
HETATM   12  C   UNL     1      -8.472   9.078  65.299  1.00  0.00    -0.166 C  
HETATM   13  C   UNL     1      -9.908  11.252  65.565  1.00  0.00    -0.274 A  
HETATM   14  C   UNL     1      -8.526  10.593  65.511  1.00  0.00    -0.177 C  
HETATM   15  C   UNL     1      -7.584  10.921  66.682  1.00  0.00    -0.139 C  
HETATM   16  C   UNL     1     -10.608  11.481  64.364  1.00  0.00    -0.392 A  
HETATM   17  O   UNL     1      -7.195  12.295  66.680  1.00  0.00    -0.376 OA 
HETATM   18  O   UNL     1      -7.457   8.502  64.907  1.00  0.00    -0.087 OA 
HETATM   19  C   UNL     1     -11.844  12.144  64.350  1.00  0.00    -0.436 A  
HETATM   20  H   UNL     1      -6.613  12.498  67.403  1.00  0.00     0.000 HD 
HETATM   21  C   UNL     1     -12.407  12.599  65.537  1.00  0.00    -0.455 A  
HETATM   22  C   UNL     1     -11.729  12.396  66.735  1.00  0.00    -0.430 A  
HETATM   23  C   UNL     1     -10.492  11.735  66.750  1.00  0.00    -0.260 A  
ENDBRANCH  11  12
ENDBRANCH   5  11
TORSDOF 2
ENDMDL
MODEL      157
REMARK 921   NORMALIZED FREE ENERGY PREDICTED BY IDOCK:   -4.09 KCAL/MOL
REMARK 922        TOTAL FREE ENERGY PREDICTED BY IDOCK:   -5.07 KCAL/MOL
REMARK 923 INTER-LIGAND FREE ENERGY PREDICTED BY IDOCK:   -4.64 KCAL/MOL
REMARK 924 INTRA-LIGAND FREE ENERGY PREDICTED BY IDOCK:   -0.43 KCAL/MOL
REMARK 927      BINDING AFFINITY PREDICTED BY RF-SCORE:    0.00 PKD
ROOT
HETATM    1  C   UNL     1     -10.468   8.766  67.151  1.00  0.00    -0.283 C  
HETATM    2  N   UNL     1     -10.918   9.679  68.171  1.00  0.00    -0.183 NA 
HETATM    3  C   UNL     1     -11.736  10.829  67.762  1.00  0.00     0.111 C  
HETATM    4  C   UNL     1     -10.922  11.846  66.932  1.00  0.00    -0.335 C  
HETATM    5  C   UNL     1      -9.708  12.397  67.699  1.00  0.00    -0.195 C  
HETATM    6  C   UNL     1      -8.968  11.269  68.451  1.00  0.00    -0.167 C  
HETATM    7  O   UNL     1     -11.340  12.197  69.916  1.00  0.00    -0.173 OA 
HETATM    8  C   UNL     1      -9.927  10.232  69.104  1.00  0.00    -0.222 C  
HETATM    9  C   UNL     1     -12.119  11.263  69.171  1.00  0.00    -0.279 C  
HETATM   10  C   UNL     1     -10.957  10.836  70.049  1.00  0.00    -0.211 C  
ENDROOT
BRANCH   5  11
HETATM   11  O   UNL     1      -8.863  13.331  66.968  1.00  0.00    -0.218 OA 
BRANCH  11  12
HETATM   12  C   UNL     1      -7.604  13.620  67.348  1.00  0.00    -0.130 C  
HETATM   13  C   UNL     1      -8.565  15.998  67.873  1.00  0.00    -0.165 A  
HETATM   14  C   UNL     1      -7.458  14.959  68.075  1.00  0.00    -0.133 C  
HETATM   15  C   UNL     1      -7.096  14.644  69.537  1.00  0.00    -0.152 C  
HETATM   16  C   UNL     1      -8.597  16.746  66.680  1.00  0.00    -0.287 A  
HETATM   17  O   UNL     1      -6.494  15.766  70.185  1.00  0.00    -0.118 OA 
HETATM   18  O   UNL     1      -6.651  12.863  67.161  1.00  0.00    -0.165 OA 
HETATM   19  C   UNL     1      -9.545  17.759  66.473  1.00  0.00    -0.315 A  
HETATM   20  H   UNL     1      -6.270  15.572  71.088  1.00  0.00     0.000 HD 
HETATM   21  C   UNL     1     -10.482  18.052  67.458  1.00  0.00    -0.408 A  
HETATM   22  C   UNL     1     -10.462  17.335  68.651  1.00  0.00    -0.356 A  
HETATM   23  C   UNL     1      -9.514  16.323  68.859  1.00  0.00    -0.252 A  
ENDBRANCH  11  12
ENDBRANCH   5  11
TORSDOF 2
ENDMDL
MODEL      158
REMARK 921   NORMALIZED FREE ENERGY PREDICTED BY IDOCK:   -4.07 KCAL/MOL
REMARK 922        TOTAL FREE ENERGY PREDICTED BY IDOCK:   -5.05 KCAL/MOL
REMARK 923 INTER-LIGAND FREE ENERGY PREDICTED BY IDOCK:   -4.56 KCAL/MOL
REMARK 924 INTRA-LIGAND FREE ENERGY PREDICTED BY IDOCK:   -0.49 KCAL/MOL
REMARK 927      BINDING AFFINITY PREDICTED BY RF-SCORE:    0.00 PKD
ROOT
HETATM    1  C   UNL     1      -8.148   3.153  72.397  1.00  0.00    -0.063 C  
HETATM    2  N   UNL     1      -8.271   3.057  70.965  1.00  0.00    -0.057 NA 
HETATM    3  C   UNL     1      -7.230   3.677  70.134  1.00  0.00    -0.041 C  
HETATM    4  C   UNL     1      -7.260   5.218  70.232  1.00  0.00    -0.062 C  
HETATM    5  C   UNL     1      -8.610   5.810  69.793  1.00  0.00    -0.127 C  
HETATM    6  C   UNL     1      -9.788   4.993  70.365  1.00  0.00    -0.301 C  
HETATM    7  O   UNL     1      -8.639   3.737  67.970  1.00  0.00    -0.092 OA 
HETATM    8  C   UNL     1      -9.541   3.457  70.342  1.00  0.00    -0.157 C  
HETATM    9  C   UNL     1      -7.699   3.076  68.815  1.00  0.00    -0.047 C  
HETATM   10  C   UNL     1      -9.197   2.896  68.969  1.00  0.00    -0.156 C  
ENDROOT
BRANCH   5  11
HETATM   11  O   UNL     1      -8.734   7.258  69.896  1.00  0.00    -0.140 OA 
BRANCH  11  12
HETATM   12  C   UNL     1      -7.950   7.997  70.705  1.00  0.00    -0.096 C  
HETATM   13  C   UNL     1     -10.207   8.751  71.799  1.00  0.00    -0.408 A  
HETATM   14  C   UNL     1      -8.684   8.613  71.898  1.00  0.00    -0.256 C  
HETATM   15  C   UNL     1      -8.158   7.916  73.164  1.00  0.00    -0.162 C  
HETATM   16  C   UNL     1     -10.753   9.797  71.029  1.00  0.00    -0.342 A  
HETATM   17  O   UNL     1      -8.406   8.692  74.337  1.00  0.00    -0.385 OA 
HETATM   18  O   UNL     1      -6.741   8.142  70.526  1.00  0.00    -0.037 OA 
HETATM   19  C   UNL     1     -12.138  10.013  70.963  1.00  0.00    -0.469 A  
HETATM   20  H   UNL     1      -8.081   8.262  75.119  1.00  0.00     0.000 HD 
HETATM   21  C   UNL     1     -13.009   9.189  71.667  1.00  0.00    -0.431 A  
HETATM   22  C   UNL     1     -12.492   8.157  72.444  1.00  0.00    -0.309 A  
HETATM   23  C   UNL     1     -11.107   7.942  72.513  1.00  0.00    -0.423 A  
ENDBRANCH  11  12
ENDBRANCH   5  11
TORSDOF 2
ENDMDL
MODEL      159
REMARK 921   NORMALIZED FREE ENERGY PREDICTED BY IDOCK:   -4.02 KCAL/MOL
REMARK 922        TOTAL FREE ENERGY PREDICTED BY IDOCK:   -4.99 KCAL/MOL
REMARK 923 INTER-LIGAND FREE ENERGY PREDICTED BY IDOCK:   -4.49 KCAL/MOL
REMARK 924 INTRA-LIGAND FREE ENERGY PREDICTED BY IDOCK:   -0.50 KCAL/MOL
REMARK 927      BINDING AFFINITY PREDICTED BY RF-SCORE:    0.00 PKD
ROOT
HETATM    1  C   UNL     1      -9.466   5.695  70.810  1.00  0.00    -0.165 C  
HETATM    2  N   UNL     1      -9.849   5.846  69.429  1.00  0.00    -0.153 NA 
HETATM    3  C   UNL     1      -8.786   5.967  68.422  1.00  0.00    -0.112 C  
HETATM    4  C   UNL     1      -8.014   7.297  68.559  1.00  0.00    -0.124 C  
HETATM    5  C   UNL     1      -8.927   8.527  68.412  1.00  0.00    -0.139 C  
HETATM    6  C   UNL     1     -10.247   8.335  69.190  1.00  0.00    -0.223 C  
HETATM    7  O   UNL     1     -10.296   6.976  66.585  1.00  0.00    -0.218 OA 
HETATM    8  C   UNL     1     -10.820   6.893  69.082  1.00  0.00    -0.228 C  
HETATM    9  C   UNL     1      -9.700   5.840  67.209  1.00  0.00    -0.129 C  
HETATM   10  C   UNL     1     -11.035   6.406  67.655  1.00  0.00    -0.349 C  
ENDROOT
BRANCH   5  11
HETATM   11  O   UNL     1      -8.280   9.822  68.571  1.00  0.00    -0.103 OA 
BRANCH  11  12
HETATM   12  C   UNL     1      -7.459  10.342  67.639  1.00  0.00    -0.089 C  
HETATM   13  C   UNL     1      -9.287  12.205  67.418  1.00  0.00    -0.181 A  
HETATM   14  C   UNL     1      -7.843  11.751  67.180  1.00  0.00    -0.166 C  
HETATM   15  C   UNL     1      -6.750  12.707  67.687  1.00  0.00    -0.144 C  
HETATM   16  C   UNL     1     -10.304  11.740  66.562  1.00  0.00    -0.258 A  
HETATM   17  O   UNL     1      -6.740  13.934  66.957  1.00  0.00    -0.384 OA 
HETATM   18  O   UNL     1      -6.465   9.756  67.211  1.00  0.00    -0.067 OA 
HETATM   19  C   UNL     1     -11.630  12.180  66.690  1.00  0.00    -0.416 A  
HETATM   20  H   UNL     1      -6.065  14.525  67.270  1.00  0.00     0.000 HD 
HETATM   21  C   UNL     1     -11.969  13.098  67.678  1.00  0.00    -0.363 A  
HETATM   22  C   UNL     1     -10.979  13.582  68.528  1.00  0.00    -0.291 A  
HETATM   23  C   UNL     1      -9.653  13.144  68.398  1.00  0.00    -0.186 A  
ENDBRANCH  11  12
ENDBRANCH   5  11
TORSDOF 2
ENDMDL
MODEL      160
REMARK 921   NORMALIZED FREE ENERGY PREDICTED BY IDOCK:   -4.00 KCAL/MOL
REMARK 922        TOTAL FREE ENERGY PREDICTED BY IDOCK:   -4.98 KCAL/MOL
REMARK 923 INTER-LIGAND FREE ENERGY PREDICTED BY IDOCK:   -4.63 KCAL/MOL
REMARK 924 INTRA-LIGAND FREE ENERGY PREDICTED BY IDOCK:   -0.34 KCAL/MOL
REMARK 927      BINDING AFFINITY PREDICTED BY RF-SCORE:    0.00 PKD
ROOT
HETATM    1  C   UNL     1      -7.656   5.880  65.612  1.00  0.00    -0.084 C  
HETATM    2  N   UNL     1      -8.184   5.219  66.778  1.00  0.00    -0.108 NA 
HETATM    3  C   UNL     1      -9.620   5.348  67.060  1.00  0.00    -0.139 C  
HETATM    4  C   UNL     1      -9.999   6.790  67.462  1.00  0.00    -0.180 C  
HETATM    5  C   UNL     1      -9.242   7.273  68.710  1.00  0.00    -0.137 C  
HETATM    6  C   UNL     1      -7.752   6.872  68.647  1.00  0.00    -0.113 C  
HETATM    7  O   UNL     1      -9.453   4.649  69.540  1.00  0.00    -0.133 OA 
HETATM    8  C   UNL     1      -7.523   5.445  68.071  1.00  0.00    -0.077 C  
HETATM    9  C   UNL     1      -9.659   4.307  68.172  1.00  0.00    -0.137 C  
HETATM   10  C   UNL     1      -8.280   4.344  68.801  1.00  0.00    -0.080 C  
ENDROOT
BRANCH   5  11
HETATM   11  O   UNL     1      -9.513   8.641  69.130  1.00  0.00    -0.156 OA 
BRANCH  11  12
HETATM   12  C   UNL     1     -10.724   9.214  68.996  1.00  0.00    -0.153 C  
HETATM   13  C   UNL     1     -11.226   8.128  71.326  1.00  0.00    -0.297 A  
HETATM   14  C   UNL     1     -11.581   9.174  70.264  1.00  0.00    -0.116 C  
HETATM   15  C   UNL     1     -11.713  10.621  70.769  1.00  0.00    -0.335 C  
HETATM   16  C   UNL     1     -11.609   6.787  71.125  1.00  0.00    -0.377 A  
HETATM   17  O   UNL     1     -12.832  10.776  71.643  1.00  0.00    -0.421 OA 
HETATM   18  O   UNL     1     -11.105   9.755  67.958  1.00  0.00    -0.222 OA 
HETATM   19  C   UNL     1     -11.373   5.804  72.097  1.00  0.00    -0.317 A  
HETATM   20  H   UNL     1     -12.913  11.669  71.955  1.00  0.00     0.000 HD 
HETATM   21  C   UNL     1     -10.751   6.139  73.295  1.00  0.00    -0.282 A  
HETATM   22  C   UNL     1     -10.375   7.460  73.521  1.00  0.00    -0.405 A  
HETATM   23  C   UNL     1     -10.613   8.444  72.551  1.00  0.00    -0.368 A  
ENDBRANCH  11  12
ENDBRANCH   5  11
TORSDOF 2
ENDMDL
MODEL      161
REMARK 921   NORMALIZED FREE ENERGY PREDICTED BY IDOCK:   -3.98 KCAL/MOL
REMARK 922        TOTAL FREE ENERGY PREDICTED BY IDOCK:   -4.95 KCAL/MOL
REMARK 923 INTER-LIGAND FREE ENERGY PREDICTED BY IDOCK:   -4.43 KCAL/MOL
REMARK 924 INTRA-LIGAND FREE ENERGY PREDICTED BY IDOCK:   -0.53 KCAL/MOL
REMARK 927      BINDING AFFINITY PREDICTED BY RF-SCORE:    0.00 PKD
ROOT
HETATM    1  C   UNL     1      -8.086   7.099  69.192  1.00  0.00    -0.121 C  
HETATM    2  N   UNL     1      -8.721   7.582  67.992  1.00  0.00    -0.122 NA 
HETATM    3  C   UNL     1      -7.885   8.244  66.982  1.00  0.00    -0.096 C  
HETATM    4  C   UNL     1      -7.347   9.603  67.482  1.00  0.00    -0.090 C  
HETATM    5  C   UNL     1      -8.473  10.581  67.857  1.00  0.00    -0.119 C  
HETATM    6  C   UNL     1      -9.586   9.868  68.655  1.00  0.00    -0.159 C  
HETATM    7  O   UNL     1      -9.840   9.411  65.764  1.00  0.00    -0.297 OA 
HETATM    8  C   UNL     1      -9.906   8.441  68.124  1.00  0.00    -0.169 C  
HETATM    9  C   UNL     1      -8.956   8.300  65.900  1.00  0.00    -0.163 C  
HETATM   10  C   UNL     1     -10.273   8.387  66.647  1.00  0.00    -0.265 C  
ENDROOT
BRANCH   5  11
HETATM   11  O   UNL     1      -8.047  11.872  68.379  1.00  0.00    -0.147 OA 
BRANCH  11  12
HETATM   12  C   UNL     1      -7.287  12.726  67.668  1.00  0.00    -0.144 C  
HETATM   13  C   UNL     1      -9.573  13.773  66.935  1.00  0.00    -0.263 A  
HETATM   14  C   UNL     1      -8.054  13.914  67.083  1.00  0.00    -0.103 C  
HETATM   15  C   UNL     1      -7.570  15.174  67.820  1.00  0.00    -0.155 C  
HETATM   16  C   UNL     1     -10.092  13.018  65.865  1.00  0.00    -0.291 A  
HETATM   17  O   UNL     1      -7.851  16.362  67.078  1.00  0.00    -0.169 OA 
HETATM   18  O   UNL     1      -6.072  12.589  67.522  1.00  0.00    -0.126 OA 
HETATM   19  C   UNL     1     -11.473  12.916  65.641  1.00  0.00    -0.368 A  
HETATM   20  H   UNL     1      -7.552  17.140  67.533  1.00  0.00     0.000 HD 
HETATM   21  C   UNL     1     -12.368  13.568  66.482  1.00  0.00    -0.382 A  
HETATM   22  C   UNL     1     -11.879  14.329  67.539  1.00  0.00    -0.429 A  
HETATM   23  C   UNL     1     -10.498  14.435  67.762  1.00  0.00    -0.245 A  
ENDBRANCH  11  12
ENDBRANCH   5  11
TORSDOF 2
ENDMDL
MODEL      162
REMARK 921   NORMALIZED FREE ENERGY PREDICTED BY IDOCK:   -3.96 KCAL/MOL
REMARK 922        TOTAL FREE ENERGY PREDICTED BY IDOCK:   -4.93 KCAL/MOL
REMARK 923 INTER-LIGAND FREE ENERGY PREDICTED BY IDOCK:   -4.22 KCAL/MOL
REMARK 924 INTRA-LIGAND FREE ENERGY PREDICTED BY IDOCK:   -0.71 KCAL/MOL
REMARK 927      BINDING AFFINITY PREDICTED BY RF-SCORE:    0.00 PKD
ROOT
HETATM    1  C   UNL     1      -9.872   9.200  65.854  1.00  0.00    -0.235 C  
HETATM    2  N   UNL     1      -9.853  10.524  66.421  1.00  0.00    -0.202 NA 
HETATM    3  C   UNL     1      -8.567  11.066  66.880  1.00  0.00    -0.143 C  
HETATM    4  C   UNL     1      -8.036  10.312  68.119  1.00  0.00    -0.109 C  
HETATM    5  C   UNL     1      -9.009  10.374  69.308  1.00  0.00    -0.163 C  
HETATM    6  C   UNL     1     -10.464  10.141  68.848  1.00  0.00    -0.230 C  
HETATM    7  O   UNL     1      -9.589  12.906  68.376  1.00  0.00    -0.221 OA 
HETATM    8  C   UNL     1     -10.802  10.838  67.499  1.00  0.00    -0.288 C  
HETATM    9  C   UNL     1      -9.067  12.485  67.117  1.00  0.00    -0.205 C  
HETATM   10  C   UNL     1     -10.532  12.336  67.480  1.00  0.00    -0.213 C  
ENDROOT
BRANCH   5  11
HETATM   11  O   UNL     1      -8.599   9.650  70.504  1.00  0.00    -0.205 OA 
BRANCH  11  12
HETATM   12  C   UNL     1      -7.643   8.701  70.485  1.00  0.00    -0.077 C  
HETATM   13  C   UNL     1      -9.613   7.050  70.990  1.00  0.00    -0.170 A  
HETATM   14  C   UNL     1      -8.181   7.268  70.490  1.00  0.00    -0.124 C  
HETATM   15  C   UNL     1      -7.852   6.656  69.118  1.00  0.00    -0.111 C  
HETATM   16  C   UNL     1      -9.866   7.061  72.375  1.00  0.00    -0.172 A  
HETATM   17  O   UNL     1      -7.879   5.228  69.156  1.00  0.00    -0.083 OA 
HETATM   18  O   UNL     1      -6.440   8.955  70.436  1.00  0.00    -0.038 OA 
HETATM   19  C   UNL     1     -11.144   6.796  72.889  1.00  0.00    -0.277 A  
HETATM   20  H   UNL     1      -7.676   4.849  68.309  1.00  0.00     0.000 HD 
HETATM   21  C   UNL     1     -12.199   6.510  72.029  1.00  0.00    -0.343 A  
HETATM   22  C   UNL     1     -11.970   6.482  70.657  1.00  0.00    -0.345 A  
HETATM   23  C   UNL     1     -10.692   6.745  70.142  1.00  0.00    -0.274 A  
ENDBRANCH  11  12
ENDBRANCH   5  11
TORSDOF 2
ENDMDL
MODEL      163
REMARK 921   NORMALIZED FREE ENERGY PREDICTED BY IDOCK:   -3.94 KCAL/MOL
REMARK 922        TOTAL FREE ENERGY PREDICTED BY IDOCK:   -4.90 KCAL/MOL
REMARK 923 INTER-LIGAND FREE ENERGY PREDICTED BY IDOCK:   -4.48 KCAL/MOL
REMARK 924 INTRA-LIGAND FREE ENERGY PREDICTED BY IDOCK:   -0.42 KCAL/MOL
REMARK 927      BINDING AFFINITY PREDICTED BY RF-SCORE:    0.00 PKD
ROOT
HETATM    1  C   UNL     1      -7.994  18.160  68.990  1.00  0.00    -0.069 C  
HETATM    2  N   UNL     1      -8.913  17.618  68.021  1.00  0.00    -0.258 NA 
HETATM    3  C   UNL     1      -9.711  16.445  68.401  1.00  0.00    -0.229 C  
HETATM    4  C   UNL     1      -8.835  15.184  68.570  1.00  0.00    -0.185 C  
HETATM    5  C   UNL     1      -8.070  14.821  67.286  1.00  0.00    -0.207 C  
HETATM    6  C   UNL     1      -7.466  16.079  66.625  1.00  0.00    -0.158 C  
HETATM    7  O   UNL     1     -10.316  15.760  65.986  1.00  0.00    -0.302 OA 
HETATM    8  C   UNL     1      -8.411  17.314  66.674  1.00  0.00    -0.260 C  
HETATM    9  C   UNL     1     -10.625  16.471  67.182  1.00  0.00    -0.270 C  
HETATM   10  C   UNL     1      -9.789  17.076  66.070  1.00  0.00    -0.241 C  
ENDROOT
BRANCH   5  11
HETATM   11  O   UNL     1      -7.187  13.667  67.376  1.00  0.00    -0.165 OA 
BRANCH  11  12
HETATM   12  C   UNL     1      -7.190  12.832  68.433  1.00  0.00    -0.115 C  
HETATM   13  C   UNL     1      -9.044  11.546  67.103  1.00  0.00    -0.167 A  
HETATM   14  C   UNL     1      -7.989  11.544  68.214  1.00  0.00    -0.142 C  
HETATM   15  C   UNL     1      -6.978  10.386  68.173  1.00  0.00    -0.073 C  
HETATM   16  C   UNL     1     -10.283  12.175  67.333  1.00  0.00    -0.211 A  
HETATM   17  O   UNL     1      -7.604   9.128  68.434  1.00  0.00    -0.081 OA 
HETATM   18  O   UNL     1      -6.580  13.061  69.478  1.00  0.00    -0.103 OA 
HETATM   19  C   UNL     1     -11.310  12.145  66.378  1.00  0.00    -0.411 A  
HETATM   20  H   UNL     1      -6.980   8.413  68.409  1.00  0.00     0.000 HD 
HETATM   21  C   UNL     1     -11.123  11.480  65.170  1.00  0.00    -0.260 A  
HETATM   22  C   UNL     1      -9.912  10.840  64.926  1.00  0.00    -0.374 A  
HETATM   23  C   UNL     1      -8.885  10.868  65.881  1.00  0.00    -0.197 A  
ENDBRANCH  11  12
ENDBRANCH   5  11
TORSDOF 2
ENDMDL
MODEL      164
REMARK 921   NORMALIZED FREE ENERGY PREDICTED BY IDOCK:   -3.92 KCAL/MOL
REMARK 922        TOTAL FREE ENERGY PREDICTED BY IDOCK:   -4.88 KCAL/MOL
REMARK 923 INTER-LIGAND FREE ENERGY PREDICTED BY IDOCK:   -4.40 KCAL/MOL
REMARK 924 INTRA-LIGAND FREE ENERGY PREDICTED BY IDOCK:   -0.48 KCAL/MOL
REMARK 927      BINDING AFFINITY PREDICTED BY RF-SCORE:    0.00 PKD
ROOT
HETATM    1  C   UNL     1     -12.516  13.867  65.767  1.00  0.00    -0.495 C  
HETATM    2  N   UNL     1     -11.225  14.381  66.148  1.00  0.00    -0.330 NA 
HETATM    3  C   UNL     1     -10.046  13.926  65.399  1.00  0.00    -0.305 C  
HETATM    4  C   UNL     1      -9.746  12.432  65.652  1.00  0.00    -0.183 C  
HETATM    5  C   UNL     1      -9.492  12.125  67.138  1.00  0.00    -0.190 C  
HETATM    6  C   UNL     1     -10.511  12.855  68.039  1.00  0.00    -0.237 C  
HETATM    7  O   UNL     1      -8.324  14.626  67.192  1.00  0.00    -0.200 OA 
HETATM    8  C   UNL     1     -10.830  14.302  67.561  1.00  0.00    -0.280 C  
HETATM    9  C   UNL     1      -9.071  14.923  66.014  1.00  0.00    -0.074 C  
HETATM   10  C   UNL     1      -9.607  15.196  67.407  1.00  0.00    -0.208 C  
ENDROOT
BRANCH   5  11
HETATM   11  O   UNL     1      -9.243  10.728  67.466  1.00  0.00    -0.143 OA 
BRANCH  11  12
HETATM   12  C   UNL     1      -8.003  10.238  67.656  1.00  0.00    -0.102 C  
HETATM   13  C   UNL     1      -9.226   7.951  68.019  1.00  0.00    -0.134 A  
HETATM   14  C   UNL     1      -7.933   8.710  67.705  1.00  0.00    -0.107 C  
HETATM   15  C   UNL     1      -7.179   8.250  66.445  1.00  0.00    -0.075 C  
HETATM   16  C   UNL     1      -9.679   7.888  69.352  1.00  0.00    -0.170 A  
HETATM   17  O   UNL     1      -6.652   6.931  66.596  1.00  0.00    -0.045 OA 
HETATM   18  O   UNL     1      -7.003  10.949  67.751  1.00  0.00    -0.075 OA 
HETATM   19  C   UNL     1     -10.817   7.148  69.706  1.00  0.00    -0.261 A  
HETATM   20  H   UNL     1      -6.186   6.647  65.819  1.00  0.00     0.000 HD 
HETATM   21  C   UNL     1     -11.526   6.448  68.735  1.00  0.00    -0.087 A  
HETATM   22  C   UNL     1     -11.090   6.485  67.414  1.00  0.00    -0.411 A  
HETATM   23  C   UNL     1      -9.952   7.223  67.059  1.00  0.00    -0.293 A  
ENDBRANCH  11  12
ENDBRANCH   5  11
TORSDOF 2
ENDMDL
MODEL      165
REMARK 921   NORMALIZED FREE ENERGY PREDICTED BY IDOCK:   -3.91 KCAL/MOL
REMARK 922        TOTAL FREE ENERGY PREDICTED BY IDOCK:   -4.87 KCAL/MOL
REMARK 923 INTER-LIGAND FREE ENERGY PREDICTED BY IDOCK:   -4.33 KCAL/MOL
REMARK 924 INTRA-LIGAND FREE ENERGY PREDICTED BY IDOCK:   -0.54 KCAL/MOL
REMARK 927      BINDING AFFINITY PREDICTED BY RF-SCORE:    0.00 PKD
ROOT
HETATM    1  C   UNL     1      -9.238   5.297  71.291  1.00  0.00    -0.146 C  
HETATM    2  N   UNL     1      -9.082   5.270  69.859  1.00  0.00    -0.127 NA 
HETATM    3  C   UNL     1      -8.329   6.359  69.222  1.00  0.00    -0.122 C  
HETATM    4  C   UNL     1      -9.078   7.706  69.314  1.00  0.00    -0.145 C  
HETATM    5  C   UNL     1     -10.464   7.657  68.648  1.00  0.00    -0.177 C  
HETATM    6  C   UNL     1     -11.207   6.352  69.008  1.00  0.00    -0.402 C  
HETATM    7  O   UNL     1      -9.257   5.949  66.847  1.00  0.00    -0.120 OA 
HETATM    8  C   UNL     1     -10.282   5.102  69.027  1.00  0.00    -0.171 C  
HETATM    9  C   UNL     1      -8.261   5.719  67.840  1.00  0.00    -0.101 C  
HETATM   10  C   UNL     1      -9.513   4.869  67.733  1.00  0.00    -0.138 C  
ENDROOT
BRANCH   5  11
HETATM   11  O   UNL     1     -11.253   8.878  68.730  1.00  0.00     0.136 OA 
BRANCH  11  12
HETATM   12  C   UNL     1     -10.885   9.930  69.487  1.00  0.00    -0.246 C  
HETATM   13  C   UNL     1     -10.154  11.003  67.213  1.00  0.00    -0.222 A  
HETATM   14  C   UNL     1     -10.527  11.185  68.688  1.00  0.00    -0.220 C  
HETATM   15  C   UNL     1     -11.615  12.233  68.977  1.00  0.00    -0.316 C  
HETATM   16  C   UNL     1      -8.869  10.528  66.883  1.00  0.00    -0.143 A  
HETATM   17  O   UNL     1     -11.167  13.556  68.677  1.00  0.00    -0.249 OA 
HETATM   18  O   UNL     1     -10.868   9.903  70.718  1.00  0.00    -0.309 OA 
HETATM   19  C   UNL     1      -8.451  10.410  65.549  1.00  0.00    -0.171 A  
HETATM   20  H   UNL     1     -11.839  14.203  68.856  1.00  0.00     0.000 HD 
HETATM   21  C   UNL     1      -9.307  10.770  64.514  1.00  0.00    -0.273 A  
HETATM   22  C   UNL     1     -10.576  11.254  64.816  1.00  0.00    -0.376 A  
HETATM   23  C   UNL     1     -10.995  11.373  66.149  1.00  0.00    -0.294 A  
ENDBRANCH  11  12
ENDBRANCH   5  11
TORSDOF 2
ENDMDL
MODEL      166
REMARK 921   NORMALIZED FREE ENERGY PREDICTED BY IDOCK:   -3.91 KCAL/MOL
REMARK 922        TOTAL FREE ENERGY PREDICTED BY IDOCK:   -4.87 KCAL/MOL
REMARK 923 INTER-LIGAND FREE ENERGY PREDICTED BY IDOCK:   -4.25 KCAL/MOL
REMARK 924 INTRA-LIGAND FREE ENERGY PREDICTED BY IDOCK:   -0.62 KCAL/MOL
REMARK 927      BINDING AFFINITY PREDICTED BY RF-SCORE:    0.00 PKD
ROOT
HETATM    1  C   UNL     1     -13.886   7.493  71.596  1.00  0.00    -0.387 C  
HETATM    2  N   UNL     1     -12.626   7.248  72.249  1.00  0.00    -0.105 NA 
HETATM    3  C   UNL     1     -11.655   8.348  72.323  1.00  0.00    -0.383 C  
HETATM    4  C   UNL     1     -11.089   8.709  70.932  1.00  0.00    -0.310 C  
HETATM    5  C   UNL     1     -10.385   7.521  70.255  1.00  0.00    -0.213 C  
HETATM    6  C   UNL     1     -11.200   6.220  70.427  1.00  0.00    -0.439 C  
HETATM    7  O   UNL     1      -9.612   6.847  72.818  1.00  0.00    -0.145 OA 
HETATM    8  C   UNL     1     -11.840   6.076  71.837  1.00  0.00    -0.181 C  
HETATM    9  C   UNL     1     -10.696   7.651  73.280  1.00  0.00    -0.350 C  
HETATM   10  C   UNL     1     -10.849   6.170  72.990  1.00  0.00    -0.257 C  
ENDROOT
BRANCH   5  11
HETATM   11  O   UNL     1      -9.860   7.768  68.919  1.00  0.00    -0.159 OA 
BRANCH  11  12
HETATM   12  C   UNL     1      -8.561   8.039  68.690  1.00  0.00    -0.128 C  
HETATM   13  C   UNL     1      -8.334   5.455  68.336  1.00  0.00    -0.094 A  
HETATM   14  C   UNL     1      -7.764   6.861  68.127  1.00  0.00    -0.113 C  
HETATM   15  C   UNL     1      -7.386   7.220  66.679  1.00  0.00    -0.080 C  
HETATM   16  C   UNL     1      -8.196   4.838  69.595  1.00  0.00    -0.072 A  
HETATM   17  O   UNL     1      -6.283   6.441  66.212  1.00  0.00    -0.035 OA 
HETATM   18  O   UNL     1      -8.058   9.147  68.882  1.00  0.00    -0.097 OA 
HETATM   19  C   UNL     1      -8.636   3.525  69.821  1.00  0.00    -0.107 A  
HETATM   20  H   UNL     1      -6.049   6.661  65.319  1.00  0.00     0.000 HD 
HETATM   21  C   UNL     1      -9.221   2.797  68.791  1.00  0.00    -0.231 A  
HETATM   22  C   UNL     1      -9.357   3.380  67.535  1.00  0.00    -0.248 A  
HETATM   23  C   UNL     1      -8.916   4.692  67.308  1.00  0.00    -0.120 A  
ENDBRANCH  11  12
ENDBRANCH   5  11
TORSDOF 2
ENDMDL
MODEL      167
REMARK 921   NORMALIZED FREE ENERGY PREDICTED BY IDOCK:   -3.87 KCAL/MOL
REMARK 922        TOTAL FREE ENERGY PREDICTED BY IDOCK:   -4.83 KCAL/MOL
REMARK 923 INTER-LIGAND FREE ENERGY PREDICTED BY IDOCK:   -4.09 KCAL/MOL
REMARK 924 INTRA-LIGAND FREE ENERGY PREDICTED BY IDOCK:   -0.74 KCAL/MOL
REMARK 927      BINDING AFFINITY PREDICTED BY RF-SCORE:    0.00 PKD
ROOT
HETATM    1  C   UNL     1     -12.531   7.294  71.522  1.00  0.00    -0.373 C  
HETATM    2  N   UNL     1     -11.407   7.046  72.390  1.00  0.00    -0.264 NA 
HETATM    3  C   UNL     1     -10.465   8.145  72.637  1.00  0.00    -0.330 C  
HETATM    4  C   UNL     1      -9.660   8.508  71.370  1.00  0.00    -0.282 C  
HETATM    5  C   UNL     1      -8.847   7.320  70.828  1.00  0.00    -0.150 C  
HETATM    6  C   UNL     1      -9.680   6.021  70.849  1.00  0.00    -0.207 C  
HETATM    7  O   UNL     1      -8.544   6.642  73.486  1.00  0.00    -0.121 OA 
HETATM    8  C   UNL     1     -10.561   5.875  72.123  1.00  0.00    -0.219 C  
HETATM    9  C   UNL     1      -9.692   7.446  73.749  1.00  0.00    -0.280 C  
HETATM   10  C   UNL     1      -9.792   5.966  73.433  1.00  0.00    -0.163 C  
ENDROOT
BRANCH   5  11
HETATM   11  O   UNL     1      -8.092   7.570  69.607  1.00  0.00    -0.122 OA 
BRANCH  11  12
HETATM   12  C   UNL     1      -6.953   8.287  69.593  1.00  0.00    -0.045 C  
HETATM   13  C   UNL     1      -8.135   9.674  67.712  1.00  0.00    -0.113 A  
HETATM   14  C   UNL     1      -7.032   9.576  68.772  1.00  0.00    -0.067 C  
HETATM   15  C   UNL     1      -6.952  10.751  69.762  1.00  0.00    -0.141 C  
HETATM   16  C   UNL     1      -7.970   9.002  66.485  1.00  0.00    -0.103 A  
HETATM   17  O   UNL     1      -6.557  11.961  69.114  1.00  0.00    -0.088 OA 
HETATM   18  O   UNL     1      -5.940   7.960  70.212  1.00  0.00    -0.029 OA 
HETATM   19  C   UNL     1      -8.914   9.115  65.454  1.00  0.00    -0.255 A  
HETATM   20  H   UNL     1      -6.507  12.687  69.725  1.00  0.00     0.000 HD 
HETATM   21  C   UNL     1     -10.044   9.908  65.624  1.00  0.00    -0.307 A  
HETATM   22  C   UNL     1     -10.222  10.591  66.823  1.00  0.00    -0.288 A  
HETATM   23  C   UNL     1      -9.278  10.480  67.854  1.00  0.00    -0.143 A  
ENDBRANCH  11  12
ENDBRANCH   5  11
TORSDOF 2
ENDMDL
MODEL      168
REMARK 921   NORMALIZED FREE ENERGY PREDICTED BY IDOCK:   -3.86 KCAL/MOL
REMARK 922        TOTAL FREE ENERGY PREDICTED BY IDOCK:   -4.81 KCAL/MOL
REMARK 923 INTER-LIGAND FREE ENERGY PREDICTED BY IDOCK:   -4.17 KCAL/MOL
REMARK 924 INTRA-LIGAND FREE ENERGY PREDICTED BY IDOCK:   -0.65 KCAL/MOL
REMARK 927      BINDING AFFINITY PREDICTED BY RF-SCORE:    0.00 PKD
ROOT
HETATM    1  C   UNL     1     -11.285   5.329  72.869  1.00  0.00    -0.312 C  
HETATM    2  N   UNL     1     -11.653   6.649  72.424  1.00  0.00    -0.266 NA 
HETATM    3  C   UNL     1     -12.394   6.776  71.162  1.00  0.00    -0.333 C  
HETATM    4  C   UNL     1     -11.524   6.393  69.945  1.00  0.00    -0.483 C  
HETATM    5  C   UNL     1     -10.261   7.263  69.824  1.00  0.00    -0.210 C  
HETATM    6  C   UNL     1      -9.591   7.462  71.201  1.00  0.00    -0.162 C  
HETATM    7  O   UNL     1     -11.866   9.280  70.812  1.00  0.00    -0.281 OA 
HETATM    8  C   UNL     1     -10.610   7.682  72.356  1.00  0.00    -0.260 C  
HETATM    9  C   UNL     1     -12.721   8.256  71.316  1.00  0.00    -0.197 C  
HETATM   10  C   UNL     1     -11.578   8.834  72.129  1.00  0.00    -0.364 C  
ENDROOT
BRANCH   5  11
HETATM   11  O   UNL     1      -9.365   6.936  68.724  1.00  0.00    -0.132 OA 
BRANCH  11  12
HETATM   12  C   UNL     1      -9.623   7.287  67.450  1.00  0.00    -0.142 C  
HETATM   13  C   UNL     1      -7.792   9.119  67.840  1.00  0.00    -0.100 A  
HETATM   14  C   UNL     1      -8.625   8.286  66.860  1.00  0.00    -0.122 C  
HETATM   15  C   UNL     1      -7.830   7.544  65.772  1.00  0.00    -0.107 C  
HETATM   16  C   UNL     1      -8.387  10.222  68.483  1.00  0.00    -0.116 A  
HETATM   17  O   UNL     1      -7.215   8.451  64.855  1.00  0.00    -0.081 OA 
HETATM   18  O   UNL     1     -10.559   6.825  66.798  1.00  0.00    -0.269 OA 
HETATM   19  C   UNL     1      -7.652  11.060  69.334  1.00  0.00    -0.058 A  
HETATM   20  H   UNL     1      -6.724   7.993  64.183  1.00  0.00     0.000 HD 
HETATM   21  C   UNL     1      -6.301  10.816  69.560  1.00  0.00    -0.079 A  
HETATM   22  C   UNL     1      -5.688   9.740  68.926  1.00  0.00    -0.035 A  
HETATM   23  C   UNL     1      -6.422   8.902  68.073  1.00  0.00    -0.057 A  
ENDBRANCH  11  12
ENDBRANCH   5  11
TORSDOF 2
ENDMDL
MODEL      169
REMARK 921   NORMALIZED FREE ENERGY PREDICTED BY IDOCK:   -3.85 KCAL/MOL
REMARK 922        TOTAL FREE ENERGY PREDICTED BY IDOCK:   -4.80 KCAL/MOL
REMARK 923 INTER-LIGAND FREE ENERGY PREDICTED BY IDOCK:   -4.25 KCAL/MOL
REMARK 924 INTRA-LIGAND FREE ENERGY PREDICTED BY IDOCK:   -0.55 KCAL/MOL
REMARK 927      BINDING AFFINITY PREDICTED BY RF-SCORE:    0.00 PKD
ROOT
HETATM    1  C   UNL     1      -8.039   2.597  73.517  1.00  0.00    -0.063 C  
HETATM    2  N   UNL     1      -8.394   2.808  72.137  1.00  0.00    -0.058 NA 
HETATM    3  C   UNL     1      -7.558   3.710  71.334  1.00  0.00    -0.055 C  
HETATM    4  C   UNL     1      -7.687   5.178  71.798  1.00  0.00    -0.108 C  
HETATM    5  C   UNL     1      -9.132   5.698  71.715  1.00  0.00    -0.135 C  
HETATM    6  C   UNL     1     -10.132   4.647  72.244  1.00  0.00    -0.250 C  
HETATM    7  O   UNL     1      -9.312   4.091  69.477  1.00  0.00    -0.139 OA 
HETATM    8  C   UNL     1      -9.777   3.192  71.821  1.00  0.00    -0.164 C  
HETATM    9  C   UNL     1      -8.196   3.369  69.993  1.00  0.00    -0.048 C  
HETATM   10  C   UNL     1      -9.629   2.993  70.318  1.00  0.00    -0.090 C  
ENDROOT
BRANCH   5  11
HETATM   11  O   UNL     1      -9.345   7.063  72.176  1.00  0.00    -0.136 OA 
BRANCH  11  12
HETATM   12  C   UNL     1     -10.528   7.489  72.657  1.00  0.00    -0.271 C  
HETATM   13  C   UNL     1     -10.839   8.546  70.282  1.00  0.00    -0.249 A  
HETATM   14  C   UNL     1     -11.466   8.070  71.596  1.00  0.00    -0.310 C  
HETATM   15  C   UNL     1     -12.650   7.098  71.457  1.00  0.00    -0.390 C  
HETATM   16  C   UNL     1     -10.171   9.786  70.249  1.00  0.00    -0.346 A  
HETATM   17  O   UNL     1     -13.786   7.731  70.865  1.00  0.00    -0.597 OA 
HETATM   18  O   UNL     1     -10.849   7.394  73.842  1.00  0.00    -0.281 OA 
HETATM   19  C   UNL     1      -9.642  10.303  69.057  1.00  0.00    -0.210 A  
HETATM   20  H   UNL     1     -14.518   7.131  70.779  1.00  0.00     0.000 HD 
HETATM   21  C   UNL     1      -9.772   9.593  67.868  1.00  0.00    -0.169 A  
HETATM   22  C   UNL     1     -10.439   8.372  67.873  1.00  0.00    -0.255 A  
HETATM   23  C   UNL     1     -10.971   7.855  69.064  1.00  0.00     0.073 A  
ENDBRANCH  11  12
ENDBRANCH   5  11
TORSDOF 2
ENDMDL
MODEL      170
REMARK 921   NORMALIZED FREE ENERGY PREDICTED BY IDOCK:   -3.84 KCAL/MOL
REMARK 922        TOTAL FREE ENERGY PREDICTED BY IDOCK:   -4.79 KCAL/MOL
REMARK 923 INTER-LIGAND FREE ENERGY PREDICTED BY IDOCK:   -4.21 KCAL/MOL
REMARK 924 INTRA-LIGAND FREE ENERGY PREDICTED BY IDOCK:   -0.58 KCAL/MOL
REMARK 927      BINDING AFFINITY PREDICTED BY RF-SCORE:    0.00 PKD
ROOT
HETATM    1  C   UNL     1     -10.968   6.288  70.879  1.00  0.00    -0.286 C  
HETATM    2  N   UNL     1     -10.299   6.226  69.604  1.00  0.00    -0.198 NA 
HETATM    3  C   UNL     1      -8.874   6.578  69.550  1.00  0.00    -0.138 C  
HETATM    4  C   UNL     1      -8.644   8.081  69.821  1.00  0.00    -0.131 C  
HETATM    5  C   UNL     1      -9.377   8.982  68.814  1.00  0.00    -0.140 C  
HETATM    6  C   UNL     1     -10.811   8.472  68.553  1.00  0.00     0.020 C  
HETATM    7  O   UNL     1      -8.813   6.980  66.999  1.00  0.00    -0.119 OA 
HETATM    8  C   UNL     1     -10.905   6.921  68.460  1.00  0.00    -0.180 C  
HETATM    9  C   UNL     1      -8.648   6.110  68.117  1.00  0.00    -0.115 C  
HETATM   10  C   UNL     1      -9.983   6.297  67.422  1.00  0.00    -0.139 C  
ENDROOT
BRANCH   5  11
HETATM   11  O   UNL     1      -9.244  10.416  69.027  1.00  0.00    -0.169 OA 
BRANCH  11  12
HETATM   12  C   UNL     1      -8.073  11.066  68.884  1.00  0.00    -0.135 C  
HETATM   13  C   UNL     1      -8.924  11.563  66.458  1.00  0.00    -0.190 A  
HETATM   14  C   UNL     1      -7.973  11.906  67.609  1.00  0.00    -0.146 C  
HETATM   15  C   UNL     1      -7.953  13.383  68.040  1.00  0.00    -0.148 C  
HETATM   16  C   UNL     1      -8.644  10.448  65.643  1.00  0.00    -0.175 A  
HETATM   17  O   UNL     1      -7.410  14.223  67.020  1.00  0.00    -0.322 OA 
HETATM   18  O   UNL     1      -7.168  11.019  69.717  1.00  0.00    -0.113 OA 
HETATM   19  C   UNL     1      -9.441  10.131  64.534  1.00  0.00    -0.364 A  
HETATM   20  H   UNL     1      -7.397  15.135  67.286  1.00  0.00     0.000 HD 
HETATM   21  C   UNL     1     -10.536  10.924  64.209  1.00  0.00    -0.405 A  
HETATM   22  C   UNL     1     -10.826  12.038  64.991  1.00  0.00    -0.351 A  
HETATM   23  C   UNL     1     -10.028  12.357  66.100  1.00  0.00    -0.267 A  
ENDBRANCH  11  12
ENDBRANCH   5  11
TORSDOF 2
ENDMDL
MODEL      171
REMARK 921   NORMALIZED FREE ENERGY PREDICTED BY IDOCK:   -3.84 KCAL/MOL
REMARK 922        TOTAL FREE ENERGY PREDICTED BY IDOCK:   -4.79 KCAL/MOL
REMARK 923 INTER-LIGAND FREE ENERGY PREDICTED BY IDOCK:   -4.35 KCAL/MOL
REMARK 924 INTRA-LIGAND FREE ENERGY PREDICTED BY IDOCK:   -0.44 KCAL/MOL
REMARK 927      BINDING AFFINITY PREDICTED BY RF-SCORE:    0.00 PKD
ROOT
HETATM    1  C   UNL     1      -8.943   8.387  72.822  1.00  0.00    -0.221 C  
HETATM    2  N   UNL     1     -10.287   7.939  72.561  1.00  0.00    -0.260 NA 
HETATM    3  C   UNL     1     -10.470   6.642  71.894  1.00  0.00    -0.201 C  
HETATM    4  C   UNL     1      -9.985   6.677  70.428  1.00  0.00    -0.193 C  
HETATM    5  C   UNL     1     -10.722   7.733  69.588  1.00  0.00    -0.223 C  
HETATM    6  C   UNL     1     -10.871   9.058  70.366  1.00  0.00    -0.284 C  
HETATM    7  O   UNL     1     -12.903   7.085  71.150  1.00  0.00    -0.374 OA 
HETATM    8  C   UNL     1     -11.208   8.852  71.871  1.00  0.00    -0.377 C  
HETATM    9  C   UNL     1     -11.978   6.567  72.103  1.00  0.00    -0.290 C  
HETATM   10  C   UNL     1     -12.449   8.009  72.128  1.00  0.00    -0.296 C  
ENDROOT
BRANCH   5  11
HETATM   11  O   UNL     1     -10.291   7.857  68.202  1.00  0.00    -0.199 OA 
BRANCH  11  12
HETATM   12  C   UNL     1      -9.084   8.347  67.859  1.00  0.00    -0.133 C  
HETATM   13  C   UNL     1      -8.644   5.941  66.923  1.00  0.00    -0.111 A  
HETATM   14  C   UNL     1      -8.269   7.427  66.948  1.00  0.00    -0.121 C  
HETATM   15  C   UNL     1      -8.175   8.115  65.575  1.00  0.00    -0.144 C  
HETATM   16  C   UNL     1      -8.236   5.111  67.985  1.00  0.00    -0.098 A  
HETATM   17  O   UNL     1      -7.087   7.605  64.802  1.00  0.00    -0.060 OA 
HETATM   18  O   UNL     1      -8.677   9.453  68.217  1.00  0.00    -0.124 OA 
HETATM   19  C   UNL     1      -8.490   3.732  67.978  1.00  0.00    -0.107 A  
HETATM   20  H   UNL     1      -7.029   8.030  63.954  1.00  0.00     0.000 HD 
HETATM   21  C   UNL     1      -9.156   3.149  66.905  1.00  0.00    -0.191 A  
HETATM   22  C   UNL     1      -9.558   3.946  65.838  1.00  0.00    -0.185 A  
HETATM   23  C   UNL     1      -9.302   5.326  65.843  1.00  0.00    -0.165 A  
ENDBRANCH  11  12
ENDBRANCH   5  11
TORSDOF 2
ENDMDL
MODEL      172
REMARK 921   NORMALIZED FREE ENERGY PREDICTED BY IDOCK:   -3.84 KCAL/MOL
REMARK 922        TOTAL FREE ENERGY PREDICTED BY IDOCK:   -4.79 KCAL/MOL
REMARK 923 INTER-LIGAND FREE ENERGY PREDICTED BY IDOCK:   -4.25 KCAL/MOL
REMARK 924 INTRA-LIGAND FREE ENERGY PREDICTED BY IDOCK:   -0.54 KCAL/MOL
REMARK 927      BINDING AFFINITY PREDICTED BY RF-SCORE:    0.00 PKD
ROOT
HETATM    1  C   UNL     1     -11.264  15.309  71.685  1.00  0.00    -0.301 C  
HETATM    2  N   UNL     1     -10.926  15.729  70.349  1.00  0.00    -0.336 NA 
HETATM    3  C   UNL     1     -11.993  15.765  69.340  1.00  0.00    -0.305 C  
HETATM    4  C   UNL     1     -12.491  14.348  68.981  1.00  0.00     0.029 C  
HETATM    5  C   UNL     1     -11.370  13.451  68.430  1.00  0.00    -0.294 C  
HETATM    6  C   UNL     1     -10.075  13.611  69.255  1.00  0.00     0.279 C  
HETATM    7  O   UNL     1     -10.410  15.779  67.300  1.00  0.00    -0.276 OA 
HETATM    8  C   UNL     1      -9.791  15.081  69.677  1.00  0.00    -0.081 C  
HETATM    9  C   UNL     1     -11.180  16.484  68.271  1.00  0.00    -0.265 C  
HETATM   10  C   UNL     1      -9.742  16.069  68.519  1.00  0.00    -0.214 C  
ENDROOT
BRANCH   5  11
HETATM   11  O   UNL     1     -11.751  12.083  68.107  1.00  0.00    -0.320 OA 
BRANCH  11  12
HETATM   12  C   UNL     1     -10.845  11.118  67.858  1.00  0.00    -0.235 C  
HETATM   13  C   UNL     1     -10.950  11.991  65.392  1.00  0.00    -0.347 A  
HETATM   14  C   UNL     1     -10.204  11.200  66.471  1.00  0.00    -0.275 C  
HETATM   15  C   UNL     1      -8.727  11.580  66.676  1.00  0.00    -0.182 C  
HETATM   16  C   UNL     1     -12.059  11.403  64.752  1.00  0.00     0.511 A  
HETATM   17  O   UNL     1      -7.932  11.243  65.538  1.00  0.00    -0.367 OA 
HETATM   18  O   UNL     1     -10.529  10.259  68.682  1.00  0.00    -0.174 OA 
HETATM   19  C   UNL     1     -12.734  12.053  63.708  1.00  0.00    -0.516 A  
HETATM   20  H   UNL     1      -7.020  11.477  65.663  1.00  0.00     0.000 HD 
HETATM   21  C   UNL     1     -12.313  13.306  63.277  1.00  0.00    -0.317 A  
HETATM   22  C   UNL     1     -11.213  13.902  63.885  1.00  0.00     0.120 A  
HETATM   23  C   UNL     1     -10.536  13.252  64.927  1.00  0.00    -0.387 A  
ENDBRANCH  11  12
ENDBRANCH   5  11
TORSDOF 2
ENDMDL
MODEL      173
REMARK 921   NORMALIZED FREE ENERGY PREDICTED BY IDOCK:   -3.83 KCAL/MOL
REMARK 922        TOTAL FREE ENERGY PREDICTED BY IDOCK:   -4.78 KCAL/MOL
REMARK 923 INTER-LIGAND FREE ENERGY PREDICTED BY IDOCK:   -4.85 KCAL/MOL
REMARK 924 INTRA-LIGAND FREE ENERGY PREDICTED BY IDOCK:    0.07 KCAL/MOL
REMARK 927      BINDING AFFINITY PREDICTED BY RF-SCORE:    0.00 PKD
ROOT
HETATM    1  C   UNL     1      -8.083  19.834  66.090  1.00  0.00    -0.342 C  
HETATM    2  N   UNL     1      -7.405  19.068  67.104  1.00  0.00    -0.216 NA 
HETATM    3  C   UNL     1      -6.604  17.912  66.682  1.00  0.00    -0.194 C  
HETATM    4  C   UNL     1      -7.487  16.771  66.130  1.00  0.00    -0.119 C  
HETATM    5  C   UNL     1      -8.511  16.267  67.161  1.00  0.00    -0.187 C  
HETATM    6  C   UNL     1      -9.175  17.445  67.907  1.00  0.00    -0.256 C  
HETATM    7  O   UNL     1      -6.530  16.794  69.009  1.00  0.00    -0.170 OA 
HETATM    8  C   UNL     1      -8.181  18.590  68.257  1.00  0.00    -0.314 C  
HETATM    9  C   UNL     1      -5.953  17.664  68.037  1.00  0.00    -0.158 C  
HETATM   10  C   UNL     1      -6.966  18.145  69.059  1.00  0.00    -0.254 C  
ENDROOT
BRANCH   5  11
HETATM   11  O   UNL     1      -9.413  15.219  66.703  1.00  0.00    -0.229 OA 
BRANCH  11  12
HETATM   12  C   UNL     1     -10.655  15.063  67.200  1.00  0.00    -0.295 C  
HETATM   13  C   UNL     1     -10.110  12.503  67.101  1.00  0.00    -0.219 A  
HETATM   14  C   UNL     1     -10.971  13.639  67.663  1.00  0.00    -0.283 C  
HETATM   15  C   UNL     1     -11.105  13.680  69.195  1.00  0.00    -0.231 C  
HETATM   16  C   UNL     1     -10.352  12.041  65.793  1.00  0.00    -0.289 A  
HETATM   17  O   UNL     1     -11.834  12.557  69.692  1.00  0.00    -0.309 OA 
HETATM   18  O   UNL     1     -11.461  15.987  67.306  1.00  0.00    -0.039 OA 
HETATM   19  C   UNL     1      -9.642  10.957  65.255  1.00  0.00    -0.276 A  
HETATM   20  H   UNL     1     -11.917  12.582  70.638  1.00  0.00     0.000 HD 
HETATM   21  C   UNL     1      -8.675  10.307  66.015  1.00  0.00    -0.162 A  
HETATM   22  C   UNL     1      -8.428  10.738  67.315  1.00  0.00    -0.124 A  
HETATM   23  C   UNL     1      -9.139  11.820  67.854  1.00  0.00    -0.181 A  
ENDBRANCH  11  12
ENDBRANCH   5  11
TORSDOF 2
ENDMDL
MODEL      174
REMARK 921   NORMALIZED FREE ENERGY PREDICTED BY IDOCK:   -3.82 KCAL/MOL
REMARK 922        TOTAL FREE ENERGY PREDICTED BY IDOCK:   -4.77 KCAL/MOL
REMARK 923 INTER-LIGAND FREE ENERGY PREDICTED BY IDOCK:   -4.04 KCAL/MOL
REMARK 924 INTRA-LIGAND FREE ENERGY PREDICTED BY IDOCK:   -0.74 KCAL/MOL
REMARK 927      BINDING AFFINITY PREDICTED BY RF-SCORE:    0.00 PKD
ROOT
HETATM    1  C   UNL     1      -9.354   3.282  69.964  1.00  0.00    -0.168 C  
HETATM    2  N   UNL     1      -8.161   3.573  70.718  1.00  0.00    -0.063 NA 
HETATM    3  C   UNL     1      -8.308   3.996  72.117  1.00  0.00    -0.100 C  
HETATM    4  C   UNL     1      -8.958   5.393  72.229  1.00  0.00    -0.134 C  
HETATM    5  C   UNL     1      -8.147   6.481  71.504  1.00  0.00    -0.112 C  
HETATM    6  C   UNL     1      -7.656   5.983  70.127  1.00  0.00    -0.095 C  
HETATM    7  O   UNL     1      -5.948   5.024  72.317  1.00  0.00    -0.022 OA 
HETATM    8  C   UNL     1      -7.179   4.502  70.143  1.00  0.00    -0.049 C  
HETATM    9  C   UNL     1      -6.828   3.912  72.466  1.00  0.00    -0.045 C  
HETATM   10  C   UNL     1      -6.095   4.202  71.170  1.00  0.00    -0.014 C  
ENDROOT
BRANCH   5  11
HETATM   11  O   UNL     1      -8.717   7.821  71.527  1.00  0.00    -0.117 OA 
BRANCH  11  12
HETATM   12  C   UNL     1      -9.935   8.082  72.038  1.00  0.00    -0.213 C  
HETATM   13  C   UNL     1     -10.621   8.510  69.548  1.00  0.00    -0.215 A  
HETATM   14  C   UNL     1     -11.042   8.209  70.990  1.00  0.00    -0.281 C  
HETATM   15  C   UNL     1     -11.980   7.003  71.173  1.00  0.00    -0.356 C  
HETATM   16  C   UNL     1     -10.257   9.826  69.199  1.00  0.00    -0.211 A  
HETATM   17  O   UNL     1     -13.264   7.239  70.592  1.00  0.00    -0.578 OA 
HETATM   18  O   UNL     1     -10.154   8.181  73.246  1.00  0.00    -0.257 OA 
HETATM   19  C   UNL     1      -9.933  10.172  67.879  1.00  0.00    -0.190 A  
HETATM   20  H   UNL     1     -13.843   6.495  70.705  1.00  0.00     0.000 HD 
HETATM   21  C   UNL     1      -9.969   9.210  66.875  1.00  0.00    -0.304 A  
HETATM   22  C   UNL     1     -10.337   7.907  67.193  1.00  0.00    -0.398 A  
HETATM   23  C   UNL     1     -10.664   7.560  68.512  1.00  0.00    -0.115 A  
ENDBRANCH  11  12
ENDBRANCH   5  11
TORSDOF 2
ENDMDL
MODEL      175
REMARK 921   NORMALIZED FREE ENERGY PREDICTED BY IDOCK:   -3.82 KCAL/MOL
REMARK 922        TOTAL FREE ENERGY PREDICTED BY IDOCK:   -4.77 KCAL/MOL
REMARK 923 INTER-LIGAND FREE ENERGY PREDICTED BY IDOCK:   -4.09 KCAL/MOL
REMARK 924 INTRA-LIGAND FREE ENERGY PREDICTED BY IDOCK:   -0.68 KCAL/MOL
REMARK 927      BINDING AFFINITY PREDICTED BY RF-SCORE:    0.00 PKD
ROOT
HETATM    1  C   UNL     1      -9.742  10.705  63.926  1.00  0.00    -0.321 C  
HETATM    2  N   UNL     1      -8.647  10.156  64.684  1.00  0.00    -0.172 NA 
HETATM    3  C   UNL     1      -8.721   8.747  65.092  1.00  0.00    -0.167 C  
HETATM    4  C   UNL     1      -9.828   8.511  66.143  1.00  0.00    -0.227 C  
HETATM    5  C   UNL     1      -9.619   9.346  67.418  1.00  0.00    -0.145 C  
HETATM    6  C   UNL     1      -9.200  10.792  67.072  1.00  0.00    -0.166 C  
HETATM    7  O   UNL     1      -6.932   8.928  66.945  1.00  0.00    -0.076 OA 
HETATM    8  C   UNL     1      -8.198  10.875  65.885  1.00  0.00    -0.133 C  
HETATM    9  C   UNL     1      -7.285   8.649  65.592  1.00  0.00    -0.084 C  
HETATM   10  C   UNL     1      -6.934  10.046  66.070  1.00  0.00    -0.110 C  
ENDROOT
BRANCH   5  11
HETATM   11  O   UNL     1     -10.645   9.212  68.442  1.00  0.00    -0.214 OA 
BRANCH  11  12
HETATM   12  C   UNL     1     -10.453   9.606  69.716  1.00  0.00    -0.238 C  
HETATM   13  C   UNL     1      -9.382   7.237  70.031  1.00  0.00    -0.154 A  
HETATM   14  C   UNL     1      -9.554   8.674  70.532  1.00  0.00    -0.210 C  
HETATM   15  C   UNL     1      -8.252   9.441  70.823  1.00  0.00    -0.127 C  
HETATM   16  C   UNL     1     -10.412   6.302  70.257  1.00  0.00    -0.276 A  
HETATM   17  O   UNL     1      -7.546   8.882  71.932  1.00  0.00    -0.303 OA 
HETATM   18  O   UNL     1     -10.930  10.641  70.183  1.00  0.00    -0.282 OA 
HETATM   19  C   UNL     1     -10.277   4.957  69.883  1.00  0.00    -0.299 A  
HETATM   20  H   UNL     1      -6.742   9.355  72.112  1.00  0.00     0.000 HD 
HETATM   21  C   UNL     1      -9.106   4.514  69.277  1.00  0.00    -0.167 A  
HETATM   22  C   UNL     1      -8.070   5.416  69.055  1.00  0.00    -0.094 A  
HETATM   23  C   UNL     1      -8.203   6.761  69.431  1.00  0.00    -0.128 A  
ENDBRANCH  11  12
ENDBRANCH   5  11
TORSDOF 2
ENDMDL
MODEL      176
REMARK 921   NORMALIZED FREE ENERGY PREDICTED BY IDOCK:   -3.81 KCAL/MOL
REMARK 922        TOTAL FREE ENERGY PREDICTED BY IDOCK:   -4.76 KCAL/MOL
REMARK 923 INTER-LIGAND FREE ENERGY PREDICTED BY IDOCK:   -3.92 KCAL/MOL
REMARK 924 INTRA-LIGAND FREE ENERGY PREDICTED BY IDOCK:   -0.84 KCAL/MOL
REMARK 927      BINDING AFFINITY PREDICTED BY RF-SCORE:    0.00 PKD
ROOT
HETATM    1  C   UNL     1     -10.958  10.997  69.689  1.00  0.00    -0.225 C  
HETATM    2  N   UNL     1     -10.513  11.397  68.379  1.00  0.00    -0.192 NA 
HETATM    3  C   UNL     1     -10.989  10.631  67.219  1.00  0.00    -0.284 C  
HETATM    4  C   UNL     1     -10.406   9.201  67.198  1.00  0.00    -0.337 C  
HETATM    5  C   UNL     1      -8.869   9.191  67.154  1.00  0.00    -0.119 C  
HETATM    6  C   UNL     1      -8.279  10.234  68.128  1.00  0.00    -0.114 C  
HETATM    7  O   UNL     1      -9.152  11.456  65.602  1.00  0.00    -0.209 OA 
HETATM    8  C   UNL     1      -9.072  11.572  68.151  1.00  0.00    -0.181 C  
HETATM    9  C   UNL     1     -10.456  11.591  66.163  1.00  0.00    -0.251 C  
HETATM   10  C   UNL     1      -9.232  12.232  66.789  1.00  0.00    -0.210 C  
ENDROOT
BRANCH   5  11
HETATM   11  O   UNL     1      -8.240   7.877  67.175  1.00  0.00    -0.115 OA 
BRANCH  11  12
HETATM   12  C   UNL     1      -7.109   7.626  67.861  1.00  0.00    -0.085 C  
HETATM   13  C   UNL     1      -8.714   6.606  69.661  1.00  0.00    -0.140 A  
HETATM   14  C   UNL     1      -7.301   6.721  69.080  1.00  0.00    -0.093 C  
HETATM   15  C   UNL     1      -6.596   5.389  68.772  1.00  0.00    -0.051 C  
HETATM   16  C   UNL     1      -9.215   7.650  70.463  1.00  0.00    -0.159 A  
HETATM   17  O   UNL     1      -6.308   4.655  69.963  1.00  0.00    -0.028 OA 
HETATM   18  O   UNL     1      -6.005   8.057  67.526  1.00  0.00    -0.043 OA 
HETATM   19  C   UNL     1     -10.473   7.565  71.078  1.00  0.00    -0.222 A  
HETATM   20  H   UNL     1      -5.872   3.833  69.773  1.00  0.00     0.000 HD 
HETATM   21  C   UNL     1     -11.259   6.431  70.908  1.00  0.00    -0.384 A  
HETATM   22  C   UNL     1     -10.781   5.381  70.130  1.00  0.00    -0.295 A  
HETATM   23  C   UNL     1      -9.522   5.464  69.517  1.00  0.00    -0.182 A  
ENDBRANCH  11  12
ENDBRANCH   5  11
TORSDOF 2
ENDMDL
MODEL      177
REMARK 921   NORMALIZED FREE ENERGY PREDICTED BY IDOCK:   -3.80 KCAL/MOL
REMARK 922        TOTAL FREE ENERGY PREDICTED BY IDOCK:   -4.75 KCAL/MOL
REMARK 923 INTER-LIGAND FREE ENERGY PREDICTED BY IDOCK:   -4.28 KCAL/MOL
REMARK 924 INTRA-LIGAND FREE ENERGY PREDICTED BY IDOCK:   -0.47 KCAL/MOL
REMARK 927      BINDING AFFINITY PREDICTED BY RF-SCORE:    0.00 PKD
ROOT
HETATM    1  C   UNL     1      -8.763  12.292  67.879  1.00  0.00    -0.177 C  
HETATM    2  N   UNL     1      -9.815  13.228  67.577  1.00  0.00    -0.216 NA 
HETATM    3  C   UNL     1      -9.493  14.389  66.736  1.00  0.00    -0.267 C  
HETATM    4  C   UNL     1      -8.551  15.377  67.458  1.00  0.00    -0.187 C  
HETATM    5  C   UNL     1      -9.150  15.913  68.769  1.00  0.00    -0.219 C  
HETATM    6  C   UNL     1      -9.822  14.781  69.577  1.00  0.00    -0.003 C  
HETATM    7  O   UNL     1     -11.558  15.778  67.425  1.00  0.00    -0.111 OA 
HETATM    8  C   UNL     1     -10.607  13.774  68.688  1.00  0.00    -0.253 C  
HETATM    9  C   UNL     1     -10.932  14.850  66.542  1.00  0.00    -0.327 C  
HETATM   10  C   UNL     1     -11.664  14.412  67.797  1.00  0.00    -0.376 C  
ENDROOT
BRANCH   5  11
HETATM   11  O   UNL     1      -8.304  16.820  69.532  1.00  0.00     0.068 OA 
BRANCH  11  12
HETATM   12  C   UNL     1      -7.021  17.063  69.203  1.00  0.00    -0.228 C  
HETATM   13  C   UNL     1      -7.987  19.166  67.978  1.00  0.00    -0.331 A  
HETATM   14  C   UNL     1      -6.781  18.443  68.587  1.00  0.00    -0.265 C  
HETATM   15  C   UNL     1      -5.958  19.256  69.601  1.00  0.00    -0.259 C  
HETATM   16  C   UNL     1      -8.454  18.774  66.709  1.00  0.00    -0.292 A  
HETATM   17  O   UNL     1      -5.291  20.356  68.980  1.00  0.00    -0.214 OA 
HETATM   18  O   UNL     1      -6.107  16.263  69.407  1.00  0.00    -0.146 OA 
HETATM   19  C   UNL     1      -9.508  19.448  66.074  1.00  0.00    -0.251 A  
HETATM   20  H   UNL     1      -4.782  20.858  69.606  1.00  0.00     0.000 HD 
HETATM   21  C   UNL     1     -10.118  20.534  66.694  1.00  0.00    -0.322 A  
HETATM   22  C   UNL     1      -9.665  20.948  67.943  1.00  0.00    -0.092 A  
HETATM   23  C   UNL     1      -8.610  20.276  68.577  1.00  0.00     0.185 A  
ENDBRANCH  11  12
ENDBRANCH   5  11
TORSDOF 2
ENDMDL
MODEL      178
REMARK 921   NORMALIZED FREE ENERGY PREDICTED BY IDOCK:   -3.77 KCAL/MOL
REMARK 922        TOTAL FREE ENERGY PREDICTED BY IDOCK:   -4.72 KCAL/MOL
REMARK 923 INTER-LIGAND FREE ENERGY PREDICTED BY IDOCK:   -4.91 KCAL/MOL
REMARK 924 INTRA-LIGAND FREE ENERGY PREDICTED BY IDOCK:    0.19 KCAL/MOL
REMARK 927      BINDING AFFINITY PREDICTED BY RF-SCORE:    0.00 PKD
ROOT
HETATM    1  C   UNL     1     -10.845  12.925  64.656  1.00  0.00    -0.342 C  
HETATM    2  N   UNL     1     -11.044  12.786  66.076  1.00  0.00    -0.278 NA 
HETATM    3  C   UNL     1     -11.838  13.808  66.771  1.00  0.00    -0.420 C  
HETATM    4  C   UNL     1     -11.114  15.172  66.806  1.00  0.00    -0.307 C  
HETATM    5  C   UNL     1      -9.748  15.096  67.509  1.00  0.00    -0.205 C  
HETATM    6  C   UNL     1      -8.968  13.837  67.075  1.00  0.00    -0.247 C  
HETATM    7  O   UNL     1     -10.974  13.233  69.136  1.00  0.00    -0.236 OA 
HETATM    8  C   UNL     1      -9.867  12.575  66.931  1.00  0.00    -0.227 C  
HETATM    9  C   UNL     1     -11.935  13.063  68.096  1.00  0.00    -0.280 C  
HETATM   10  C   UNL     1     -10.670  12.230  68.178  1.00  0.00    -0.216 C  
ENDROOT
BRANCH   5  11
HETATM   11  O   UNL     1      -8.982  16.334  67.547  1.00  0.00    -0.186 OA 
BRANCH  11  12
HETATM   12  C   UNL     1      -8.938  17.191  66.509  1.00  0.00    -0.272 C  
HETATM   13  C   UNL     1      -7.182  18.482  67.961  1.00  0.00    -0.257 A  
HETATM   14  C   UNL     1      -7.802  18.214  66.586  1.00  0.00    -0.268 C  
HETATM   15  C   UNL     1      -6.810  17.876  65.461  1.00  0.00     0.002 C  
HETATM   16  C   UNL     1      -7.870  19.302  68.877  1.00  0.00    -0.367 A  
HETATM   17  O   UNL     1      -5.978  18.990  65.137  1.00  0.00    -0.218 OA 
HETATM   18  O   UNL     1      -9.720  17.143  65.559  1.00  0.00    -0.532 OA 
HETATM   19  C   UNL     1      -7.316  19.637  70.122  1.00  0.00     0.385 A  
HETATM   20  H   UNL     1      -5.364  18.782  64.442  1.00  0.00     0.000 HD 
HETATM   21  C   UNL     1      -6.058  19.163  70.478  1.00  0.00    -0.059 A  
HETATM   22  C   UNL     1      -5.354  18.361  69.584  1.00  0.00    -0.201 A  
HETATM   23  C   UNL     1      -5.906  18.027  68.339  1.00  0.00    -0.177 A  
ENDBRANCH  11  12
ENDBRANCH   5  11
TORSDOF 2
ENDMDL
MODEL      179
REMARK 921   NORMALIZED FREE ENERGY PREDICTED BY IDOCK:   -3.75 KCAL/MOL
REMARK 922        TOTAL FREE ENERGY PREDICTED BY IDOCK:   -4.70 KCAL/MOL
REMARK 923 INTER-LIGAND FREE ENERGY PREDICTED BY IDOCK:   -4.09 KCAL/MOL
REMARK 924 INTRA-LIGAND FREE ENERGY PREDICTED BY IDOCK:   -0.61 KCAL/MOL
REMARK 927      BINDING AFFINITY PREDICTED BY RF-SCORE:    0.00 PKD
ROOT
HETATM    1  C   UNL     1      -7.861   7.647  72.575  1.00  0.00    -0.101 C  
HETATM    2  N   UNL     1      -9.177   7.362  72.062  1.00  0.00    -0.132 NA 
HETATM    3  C   UNL     1      -9.300   6.397  70.961  1.00  0.00    -0.164 C  
HETATM    4  C   UNL     1      -8.690   6.941  69.650  1.00  0.00    -0.141 C  
HETATM    5  C   UNL     1      -9.354   8.249  69.189  1.00  0.00    -0.151 C  
HETATM    6  C   UNL     1      -9.573   9.211  70.377  1.00  0.00    -0.268 C  
HETATM    7  O   UNL     1     -11.661   7.148  70.231  1.00  0.00    -0.277 OA 
HETATM    8  C   UNL     1     -10.037   8.489  71.675  1.00  0.00    -0.268 C  
HETATM    9  C   UNL     1     -10.819   6.296  71.006  1.00  0.00    -0.271 C  
HETATM   10  C   UNL     1     -11.294   7.646  71.510  1.00  0.00    -0.255 C  
ENDROOT
BRANCH   5  11
HETATM   11  O   UNL     1      -8.806   8.850  67.981  1.00  0.00    -0.133 OA 
BRANCH  11  12
HETATM   12  C   UNL     1      -9.578   9.230  66.945  1.00  0.00    -0.174 C  
HETATM   13  C   UNL     1      -7.993  11.311  66.839  1.00  0.00    -0.155 A  
HETATM   14  C   UNL     1      -9.024  10.413  66.148  1.00  0.00    -0.175 C  
HETATM   15  C   UNL     1      -8.622   9.878  64.763  1.00  0.00    -0.178 C  
HETATM   16  C   UNL     1      -8.431  12.261  67.783  1.00  0.00    -0.163 A  
HETATM   17  O   UNL     1      -8.531  10.927  63.798  1.00  0.00    -0.356 OA 
HETATM   18  O   UNL     1     -10.626   8.659  66.639  1.00  0.00    -0.240 OA 
HETATM   19  C   UNL     1      -7.540  13.156  68.391  1.00  0.00    -0.133 A  
HETATM   20  H   UNL     1      -8.283  10.597  62.942  1.00  0.00     0.000 HD 
HETATM   21  C   UNL     1      -6.188  13.125  68.068  1.00  0.00    -0.117 A  
HETATM   22  C   UNL     1      -5.733  12.205  67.129  1.00  0.00    -0.131 A  
HETATM   23  C   UNL     1      -6.624  11.310  66.518  1.00  0.00    -0.108 A  
ENDBRANCH  11  12
ENDBRANCH   5  11
TORSDOF 2
ENDMDL
MODEL      180
REMARK 921   NORMALIZED FREE ENERGY PREDICTED BY IDOCK:   -3.71 KCAL/MOL
REMARK 922        TOTAL FREE ENERGY PREDICTED BY IDOCK:   -4.64 KCAL/MOL
REMARK 923 INTER-LIGAND FREE ENERGY PREDICTED BY IDOCK:   -4.22 KCAL/MOL
REMARK 924 INTRA-LIGAND FREE ENERGY PREDICTED BY IDOCK:   -0.42 KCAL/MOL
REMARK 927      BINDING AFFINITY PREDICTED BY RF-SCORE:    0.00 PKD
ROOT
HETATM    1  C   UNL     1      -9.732   9.799  66.436  1.00  0.00    -0.216 C  
HETATM    2  N   UNL     1      -9.949   8.375  66.460  1.00  0.00    -0.273 NA 
HETATM    3  C   UNL     1     -10.716   7.808  67.578  1.00  0.00    -0.195 C  
HETATM    4  C   UNL     1      -9.947   7.914  68.913  1.00  0.00    -0.194 C  
HETATM    5  C   UNL     1      -8.592   7.188  68.873  1.00  0.00    -0.129 C  
HETATM    6  C   UNL     1      -7.849   7.471  67.549  1.00  0.00    -0.116 C  
HETATM    7  O   UNL     1      -9.894   5.383  67.241  1.00  0.00    -0.135 OA 
HETATM    8  C   UNL     1      -8.788   7.487  66.309  1.00  0.00    -0.160 C  
HETATM    9  C   UNL     1     -10.850   6.410  66.987  1.00  0.00    -0.392 C  
HETATM   10  C   UNL     1      -9.614   6.220  66.129  1.00  0.00    -0.015 C  
ENDROOT
BRANCH   5  11
HETATM   11  O   UNL     1      -7.786   7.278  70.083  1.00  0.00    -0.088 OA 
BRANCH  11  12
HETATM   12  C   UNL     1      -7.689   8.408  70.808  1.00  0.00    -0.083 C  
HETATM   13  C   UNL     1      -9.353   7.216  72.441  1.00  0.00    -0.155 A  
HETATM   14  C   UNL     1      -8.314   8.316  72.202  1.00  0.00    -0.232 C  
HETATM   15  C   UNL     1      -7.163   8.380  73.220  1.00  0.00    -0.065 C  
HETATM   16  C   UNL     1     -10.665   7.393  71.957  1.00  0.00    -0.254 A  
HETATM   17  O   UNL     1      -7.624   8.762  74.517  1.00  0.00    -0.407 OA 
HETATM   18  O   UNL     1      -7.120   9.423  70.405  1.00  0.00    -0.075 OA 
HETATM   19  C   UNL     1     -11.673   6.451  72.209  1.00  0.00    -0.333 A  
HETATM   20  H   UNL     1      -6.913   8.801  75.146  1.00  0.00     0.000 HD 
HETATM   21  C   UNL     1     -11.394   5.311  72.956  1.00  0.00    -0.376 A  
HETATM   22  C   UNL     1     -10.110   5.121  73.455  1.00  0.00    -0.205 A  
HETATM   23  C   UNL     1      -9.101   6.063  73.205  1.00  0.00    -0.130 A  
ENDBRANCH  11  12
ENDBRANCH   5  11
TORSDOF 2
ENDMDL
MODEL      181
REMARK 921   NORMALIZED FREE ENERGY PREDICTED BY IDOCK:   -3.70 KCAL/MOL
REMARK 922        TOTAL FREE ENERGY PREDICTED BY IDOCK:   -4.63 KCAL/MOL
REMARK 923 INTER-LIGAND FREE ENERGY PREDICTED BY IDOCK:   -3.94 KCAL/MOL
REMARK 924 INTRA-LIGAND FREE ENERGY PREDICTED BY IDOCK:   -0.69 KCAL/MOL
REMARK 927      BINDING AFFINITY PREDICTED BY RF-SCORE:    0.00 PKD
ROOT
HETATM    1  C   UNL     1     -11.999   8.103  71.068  1.00  0.00    -0.240 C  
HETATM    2  N   UNL     1     -10.929   7.725  71.955  1.00  0.00    -0.240 NA 
HETATM    3  C   UNL     1      -9.800   8.651  72.117  1.00  0.00    -0.317 C  
HETATM    4  C   UNL     1      -8.958   8.760  70.827  1.00  0.00    -0.231 C  
HETATM    5  C   UNL     1      -8.380   7.406  70.383  1.00  0.00    -0.129 C  
HETATM    6  C   UNL     1      -9.434   6.285  70.505  1.00  0.00    -0.175 C  
HETATM    7  O   UNL     1      -8.173   6.896  73.088  1.00  0.00    -0.106 OA 
HETATM    8  C   UNL     1     -10.312   6.402  71.785  1.00  0.00    -0.203 C  
HETATM    9  C   UNL     1      -9.154   7.913  73.283  1.00  0.00    -0.278 C  
HETATM   10  C   UNL     1      -9.523   6.455  73.086  1.00  0.00    -0.138 C  
ENDROOT
BRANCH   5  11
HETATM   11  O   UNL     1      -7.607   7.417  69.149  1.00  0.00    -0.100 OA 
BRANCH  11  12
HETATM   12  C   UNL     1      -7.568   8.484  68.327  1.00  0.00    -0.097 C  
HETATM   13  C   UNL     1      -8.799   6.915  66.630  1.00  0.00    -0.140 A  
HETATM   14  C   UNL     1      -8.419   8.334  67.064  1.00  0.00    -0.122 C  
HETATM   15  C   UNL     1      -9.585   9.331  67.182  1.00  0.00    -0.159 C  
HETATM   16  C   UNL     1      -7.840   6.116  65.976  1.00  0.00    -0.106 A  
HETATM   17  O   UNL     1     -10.167   9.616  65.909  1.00  0.00    -0.259 OA 
HETATM   18  O   UNL     1      -6.933   9.508  68.578  1.00  0.00    -0.064 OA 
HETATM   19  C   UNL     1      -8.155   4.838  65.494  1.00  0.00    -0.111 A  
HETATM   20  H   UNL     1     -10.887  10.231  65.982  1.00  0.00     0.000 HD 
HETATM   21  C   UNL     1      -9.439   4.328  65.651  1.00  0.00    -0.176 A  
HETATM   22  C   UNL     1     -10.407   5.103  66.282  1.00  0.00    -0.313 A  
HETATM   23  C   UNL     1     -10.094   6.383  66.762  1.00  0.00    -0.239 A  
ENDBRANCH  11  12
ENDBRANCH   5  11
TORSDOF 2
ENDMDL
MODEL      182
REMARK 921   NORMALIZED FREE ENERGY PREDICTED BY IDOCK:   -3.69 KCAL/MOL
REMARK 922        TOTAL FREE ENERGY PREDICTED BY IDOCK:   -4.63 KCAL/MOL
REMARK 923 INTER-LIGAND FREE ENERGY PREDICTED BY IDOCK:   -4.20 KCAL/MOL
REMARK 924 INTRA-LIGAND FREE ENERGY PREDICTED BY IDOCK:   -0.43 KCAL/MOL
REMARK 927      BINDING AFFINITY PREDICTED BY RF-SCORE:    0.00 PKD
ROOT
HETATM    1  C   UNL     1      -9.157   2.424  67.377  1.00  0.00    -0.163 C  
HETATM    2  N   UNL     1      -8.735   3.332  66.341  1.00  0.00    -0.122 NA 
HETATM    3  C   UNL     1      -7.857   4.450  66.712  1.00  0.00    -0.098 C  
HETATM    4  C   UNL     1      -8.586   5.484  67.596  1.00  0.00    -0.108 C  
HETATM    5  C   UNL     1      -9.823   6.083  66.905  1.00  0.00    -0.158 C  
HETATM    6  C   UNL     1     -10.643   4.989  66.188  1.00  0.00    -0.321 C  
HETATM    7  O   UNL     1      -8.329   5.852  64.595  1.00  0.00    -0.136 OA 
HETATM    8  C   UNL     1      -9.759   3.927  65.472  1.00  0.00    -0.176 C  
HETATM    9  C   UNL     1      -7.541   4.885  65.286  1.00  0.00    -0.078 C  
HETATM   10  C   UNL     1      -8.765   4.506  64.474  1.00  0.00    -0.148 C  
ENDROOT
BRANCH   5  11
HETATM   11  O   UNL     1     -10.591   7.038  67.691  1.00  0.00    -0.212 OA 
BRANCH  11  12
HETATM   12  C   UNL     1     -10.074   7.687  68.752  1.00  0.00    -0.194 C  
HETATM   13  C   UNL     1      -9.405   9.515  67.001  1.00  0.00    -0.183 A  
HETATM   14  C   UNL     1      -9.655   9.130  68.463  1.00  0.00    -0.156 C  
HETATM   15  C   UNL     1     -10.617  10.046  69.240  1.00  0.00    -0.227 C  
HETATM   16  C   UNL     1      -8.198   9.131  66.386  1.00  0.00    -0.114 A  
HETATM   17  O   UNL     1     -10.068  11.351  69.426  1.00  0.00    -0.428 OA 
HETATM   18  O   UNL     1      -9.973   7.181  69.870  1.00  0.00    -0.179 OA 
HETATM   19  C   UNL     1      -7.887   9.518  65.074  1.00  0.00    -0.117 A  
HETATM   20  H   UNL     1     -10.662  11.917  69.905  1.00  0.00     0.000 HD 
HETATM   21  C   UNL     1      -8.776  10.303  64.347  1.00  0.00    -0.209 A  
HETATM   22  C   UNL     1      -9.969  10.706  64.938  1.00  0.00    -0.382 A  
HETATM   23  C   UNL     1     -10.280  10.321  66.251  1.00  0.00    -0.287 A  
ENDBRANCH  11  12
ENDBRANCH   5  11
TORSDOF 2
ENDMDL
MODEL      183
REMARK 921   NORMALIZED FREE ENERGY PREDICTED BY IDOCK:   -3.69 KCAL/MOL
REMARK 922        TOTAL FREE ENERGY PREDICTED BY IDOCK:   -4.63 KCAL/MOL
REMARK 923 INTER-LIGAND FREE ENERGY PREDICTED BY IDOCK:   -4.01 KCAL/MOL
REMARK 924 INTRA-LIGAND FREE ENERGY PREDICTED BY IDOCK:   -0.62 KCAL/MOL
REMARK 927      BINDING AFFINITY PREDICTED BY RF-SCORE:    0.00 PKD
ROOT
HETATM    1  C   UNL     1      -7.993   2.494  68.630  1.00  0.00    -0.053 C  
HETATM    2  N   UNL     1      -7.287   3.674  69.058  1.00  0.00    -0.053 NA 
HETATM    3  C   UNL     1      -7.811   4.419  70.211  1.00  0.00    -0.059 C  
HETATM    4  C   UNL     1      -9.159   5.102  69.888  1.00  0.00    -0.162 C  
HETATM    5  C   UNL     1      -9.054   6.089  68.714  1.00  0.00    -0.124 C  
HETATM    6  C   UNL     1      -8.211   5.497  67.564  1.00  0.00    -0.101 C  
HETATM    7  O   UNL     1      -6.528   6.602  69.704  1.00  0.00    -0.040 OA 
HETATM    8  C   UNL     1      -6.968   4.702  68.057  1.00  0.00    -0.057 C  
HETATM    9  C   UNL     1      -6.609   5.342  70.366  1.00  0.00    -0.035 C  
HETATM   10  C   UNL     1      -6.038   5.491  68.968  1.00  0.00    -0.025 C  
ENDROOT
BRANCH   5  11
HETATM   11  O   UNL     1     -10.293   6.744  68.320  1.00  0.00    -0.165 OA 
BRANCH  11  12
HETATM   12  C   UNL     1     -10.342   8.034  67.938  1.00  0.00    -0.222 C  
HETATM   13  C   UNL     1     -10.310   8.543  70.507  1.00  0.00    -0.226 A  
HETATM   14  C   UNL     1     -10.098   9.034  69.071  1.00  0.00    -0.204 C  
HETATM   15  C   UNL     1      -8.748   9.716  68.790  1.00  0.00    -0.126 C  
HETATM   16  C   UNL     1     -11.621   8.426  71.006  1.00  0.00    -0.307 A  
HETATM   17  O   UNL     1      -8.627  10.956  69.489  1.00  0.00    -0.383 OA 
HETATM   18  O   UNL     1     -10.534   8.388  66.774  1.00  0.00    -0.314 OA 
HETATM   19  C   UNL     1     -11.870   8.051  72.335  1.00  0.00    -0.429 A  
HETATM   20  H   UNL     1      -7.793  11.377  69.316  1.00  0.00     0.000 HD 
HETATM   21  C   UNL     1     -10.810   7.787  73.197  1.00  0.00    -0.401 A  
HETATM   22  C   UNL     1      -9.505   7.908  72.729  1.00  0.00    -0.304 A  
HETATM   23  C   UNL     1      -9.256   8.286  71.402  1.00  0.00    -0.218 A  
ENDBRANCH  11  12
ENDBRANCH   5  11
TORSDOF 2
ENDMDL
MODEL      184
REMARK 921   NORMALIZED FREE ENERGY PREDICTED BY IDOCK:   -3.64 KCAL/MOL
REMARK 922        TOTAL FREE ENERGY PREDICTED BY IDOCK:   -4.57 KCAL/MOL
REMARK 923 INTER-LIGAND FREE ENERGY PREDICTED BY IDOCK:   -4.02 KCAL/MOL
REMARK 924 INTRA-LIGAND FREE ENERGY PREDICTED BY IDOCK:   -0.55 KCAL/MOL
REMARK 927      BINDING AFFINITY PREDICTED BY RF-SCORE:    0.00 PKD
ROOT
HETATM    1  C   UNL     1     -10.679  12.138  65.813  1.00  0.00    -0.267 C  
HETATM    2  N   UNL     1     -11.209  12.321  67.139  1.00  0.00    -0.288 NA 
HETATM    3  C   UNL     1     -10.367  12.994  68.138  1.00  0.00    -0.240 C  
HETATM    4  C   UNL     1      -9.146  12.135  68.531  1.00  0.00    -0.091 C  
HETATM    5  C   UNL     1      -9.548  10.770  69.115  1.00  0.00    -0.151 C  
HETATM    6  C   UNL     1     -10.690  10.130  68.297  1.00  0.00    -0.277 C  
HETATM    7  O   UNL     1     -11.686  12.146  70.190  1.00  0.00    -0.303 OA 
HETATM    8  C   UNL     1     -11.767  11.155  67.838  1.00  0.00    -0.182 C  
HETATM    9  C   UNL     1     -11.456  13.139  69.194  1.00  0.00    -0.305 C  
HETATM   10  C   UNL     1     -12.388  11.964  68.969  1.00  0.00     0.149 C  
ENDROOT
BRANCH   5  11
HETATM   11  O   UNL     1      -8.450   9.882  69.472  1.00  0.00    -0.146 OA 
BRANCH  11  12
HETATM   12  C   UNL     1      -8.226   8.716  68.837  1.00  0.00    -0.123 C  
HETATM   13  C   UNL     1      -8.649   7.635  71.185  1.00  0.00    -0.132 A  
HETATM   14  C   UNL     1      -8.571   7.474  69.663  1.00  0.00    -0.136 C  
HETATM   15  C   UNL     1      -9.790   6.812  68.998  1.00  0.00    -0.149 C  
HETATM   16  C   UNL     1      -7.456   7.697  71.931  1.00  0.00    -0.083 A  
HETATM   17  O   UNL     1      -9.920   5.442  69.379  1.00  0.00    -0.172 OA 
HETATM   18  O   UNL     1      -7.809   8.644  67.680  1.00  0.00    -0.101 OA 
HETATM   19  C   UNL     1      -7.471   7.772  73.332  1.00  0.00    -0.144 A  
HETATM   20  H   UNL     1     -10.673   5.032  68.968  1.00  0.00     0.000 HD 
HETATM   21  C   UNL     1      -8.679   7.783  74.019  1.00  0.00    -0.316 A  
HETATM   22  C   UNL     1      -9.871   7.711  73.304  1.00  0.00    -0.360 A  
HETATM   23  C   UNL     1      -9.858   7.634  71.904  1.00  0.00    -0.205 A  
ENDBRANCH  11  12
ENDBRANCH   5  11
TORSDOF 2
ENDMDL
MODEL      185
REMARK 921   NORMALIZED FREE ENERGY PREDICTED BY IDOCK:   -3.63 KCAL/MOL
REMARK 922        TOTAL FREE ENERGY PREDICTED BY IDOCK:   -4.56 KCAL/MOL
REMARK 923 INTER-LIGAND FREE ENERGY PREDICTED BY IDOCK:   -4.05 KCAL/MOL
REMARK 924 INTRA-LIGAND FREE ENERGY PREDICTED BY IDOCK:   -0.51 KCAL/MOL
REMARK 927      BINDING AFFINITY PREDICTED BY RF-SCORE:    0.00 PKD
ROOT
HETATM    1  C   UNL     1     -10.189   8.164  66.824  1.00  0.00    -0.302 C  
HETATM    2  N   UNL     1      -9.353   8.703  67.867  1.00  0.00    -0.141 NA 
HETATM    3  C   UNL     1     -10.000   9.413  68.979  1.00  0.00    -0.177 C  
HETATM    4  C   UNL     1     -10.629  10.746  68.520  1.00  0.00    -0.223 C  
HETATM    5  C   UNL     1      -9.597  11.705  67.903  1.00  0.00    -0.180 C  
HETATM    6  C   UNL     1      -8.639  10.954  66.953  1.00  0.00    -0.136 C  
HETATM    7  O   UNL     1      -7.868  10.635  69.771  1.00  0.00    -0.106 OA 
HETATM    8  C   UNL     1      -8.217   9.554  67.485  1.00  0.00    -0.121 C  
HETATM    9  C   UNL     1      -8.753   9.520  69.847  1.00  0.00    -0.210 C  
HETATM   10  C   UNL     1      -7.592   9.570  68.873  1.00  0.00    -0.075 C  
ENDROOT
BRANCH   5  11
HETATM   11  O   UNL     1     -10.119  12.970  67.406  1.00  0.00    -0.227 OA 
BRANCH  11  12
HETATM   12  C   UNL     1     -10.772  13.845  68.195  1.00  0.00    -0.250 C  
HETATM   13  C   UNL     1      -8.442  15.022  68.405  1.00  0.00    -0.153 A  
HETATM   14  C   UNL     1      -9.966  15.098  68.544  1.00  0.00    -0.223 C  
HETATM   15  C   UNL     1     -10.643  16.284  67.836  1.00  0.00    -0.318 C  
HETATM   16  C   UNL     1      -7.693  14.366  69.401  1.00  0.00     0.061 A  
HETATM   17  O   UNL     1     -10.284  17.531  68.433  1.00  0.00    -0.327 OA 
HETATM   18  O   UNL     1     -11.929  13.675  68.580  1.00  0.00    -0.350 OA 
HETATM   19  C   UNL     1      -6.292  14.328  69.360  1.00  0.00    -0.120 A  
HETATM   20  H   UNL     1     -10.702  18.264  67.996  1.00  0.00     0.000 HD 
HETATM   21  C   UNL     1      -5.605  14.951  68.323  1.00  0.00    -0.116 A  
HETATM   22  C   UNL     1      -6.323  15.617  67.334  1.00  0.00    -0.144 A  
HETATM   23  C   UNL     1      -7.725  15.656  67.375  1.00  0.00    -0.215 A  
ENDBRANCH  11  12
ENDBRANCH   5  11
TORSDOF 2
ENDMDL
MODEL      186
REMARK 921   NORMALIZED FREE ENERGY PREDICTED BY IDOCK:   -3.62 KCAL/MOL
REMARK 922        TOTAL FREE ENERGY PREDICTED BY IDOCK:   -4.55 KCAL/MOL
REMARK 923 INTER-LIGAND FREE ENERGY PREDICTED BY IDOCK:   -4.07 KCAL/MOL
REMARK 924 INTRA-LIGAND FREE ENERGY PREDICTED BY IDOCK:   -0.47 KCAL/MOL
REMARK 927      BINDING AFFINITY PREDICTED BY RF-SCORE:    0.00 PKD
ROOT
HETATM    1  C   UNL     1     -11.160  15.689  70.600  1.00  0.00    -0.359 C  
HETATM    2  N   UNL     1     -10.457  15.918  69.364  1.00  0.00    -0.243 NA 
HETATM    3  C   UNL     1     -11.053  15.411  68.121  1.00  0.00    -0.309 C  
HETATM    4  C   UNL     1     -11.046  13.867  68.068  1.00  0.00    -0.279 C  
HETATM    5  C   UNL     1      -9.629  13.280  68.169  1.00  0.00    -0.227 C  
HETATM    6  C   UNL     1      -8.803  14.004  69.255  1.00  0.00     0.441 C  
HETATM    7  O   UNL     1      -8.875  15.516  66.737  1.00  0.00    -0.221 OA 
HETATM    8  C   UNL     1      -9.039  15.542  69.284  1.00  0.00    -0.266 C  
HETATM    9  C   UNL     1     -10.088  16.121  67.179  1.00  0.00    -0.269 C  
HETATM   10  C   UNL     1      -8.790  16.241  67.955  1.00  0.00    -0.183 C  
ENDROOT
BRANCH   5  11
HETATM   11  O   UNL     1      -9.540  11.827  68.171  1.00  0.00    -0.181 OA 
BRANCH  11  12
HETATM   12  C   UNL     1      -9.280  11.115  67.057  1.00  0.00    -0.163 C  
HETATM   13  C   UNL     1      -8.878   9.127  68.713  1.00  0.00    -0.132 A  
HETATM   14  C   UNL     1      -9.168   9.606  67.287  1.00  0.00    -0.154 C  
HETATM   15  C   UNL     1     -10.377   8.952  66.596  1.00  0.00    -0.223 C  
HETATM   16  C   UNL     1      -7.564   9.215  69.213  1.00  0.00    -0.079 A  
HETATM   17  O   UNL     1     -10.153   7.564  66.342  1.00  0.00    -0.450 OA 
HETATM   18  O   UNL     1      -9.171  11.623  65.940  1.00  0.00    -0.224 OA 
HETATM   19  C   UNL     1      -7.229   8.725  70.484  1.00  0.00    -0.059 A  
HETATM   20  H   UNL     1     -10.899   7.160  65.915  1.00  0.00     0.000 HD 
HETATM   21  C   UNL     1      -8.200   8.132  71.284  1.00  0.00    -0.132 A  
HETATM   22  C   UNL     1      -9.502   8.022  70.806  1.00  0.00    -0.173 A  
HETATM   23  C   UNL     1      -9.838   8.510  69.534  1.00  0.00    -0.187 A  
ENDBRANCH  11  12
ENDBRANCH   5  11
TORSDOF 2
ENDMDL
MODEL      187
REMARK 921   NORMALIZED FREE ENERGY PREDICTED BY IDOCK:   -3.62 KCAL/MOL
REMARK 922        TOTAL FREE ENERGY PREDICTED BY IDOCK:   -4.55 KCAL/MOL
REMARK 923 INTER-LIGAND FREE ENERGY PREDICTED BY IDOCK:   -4.24 KCAL/MOL
REMARK 924 INTRA-LIGAND FREE ENERGY PREDICTED BY IDOCK:   -0.31 KCAL/MOL
REMARK 927      BINDING AFFINITY PREDICTED BY RF-SCORE:    0.00 PKD
ROOT
HETATM    1  C   UNL     1     -10.425  11.524  67.865  1.00  0.00    -0.184 C  
HETATM    2  N   UNL     1      -9.140  10.961  67.539  1.00  0.00    -0.140 NA 
HETATM    3  C   UNL     1      -9.104   9.696  66.792  1.00  0.00    -0.146 C  
HETATM    4  C   UNL     1      -9.629   8.515  67.637  1.00  0.00    -0.187 C  
HETATM    5  C   UNL     1      -8.818   8.307  68.927  1.00  0.00    -0.140 C  
HETATM    6  C   UNL     1      -8.516   9.656  69.617  1.00  0.00    -0.181 C  
HETATM    7  O   UNL     1      -6.663   9.113  67.401  1.00  0.00    -0.067 OA 
HETATM    8  C   UNL     1      -8.155  10.791  68.616  1.00  0.00    -0.136 C  
HETATM    9  C   UNL     1      -7.606   9.715  66.516  1.00  0.00    -0.098 C  
HETATM   10  C   UNL     1      -6.995  10.464  67.686  1.00  0.00    -0.083 C  
ENDROOT
BRANCH   5  11
HETATM   11  O   UNL     1      -9.277   7.237  69.802  1.00  0.00    -0.142 OA 
BRANCH  11  12
HETATM   12  C   UNL     1     -10.577   7.051  70.100  1.00  0.00    -0.228 C  
HETATM   13  C   UNL     1      -9.734   6.868  72.573  1.00  0.00    -0.169 A  
HETATM   14  C   UNL     1     -10.892   7.102  71.597  1.00  0.00    -0.250 C  
HETATM   15  C   UNL     1     -11.726   8.371  71.842  1.00  0.00    -0.334 C  
HETATM   16  C   UNL     1      -9.281   5.553  72.798  1.00  0.00    -0.137 A  
HETATM   17  O   UNL     1     -12.456   8.296  73.068  1.00  0.00    -0.673 OA 
HETATM   18  O   UNL     1     -11.449   6.887  69.246  1.00  0.00    -0.134 OA 
HETATM   19  C   UNL     1      -8.274   5.275  73.734  1.00  0.00    -0.112 A  
HETATM   20  H   UNL     1     -12.970   9.079  73.220  1.00  0.00     0.000 HD 
HETATM   21  C   UNL     1      -7.698   6.305  74.469  1.00  0.00    -0.102 A  
HETATM   22  C   UNL     1      -8.138   7.610  74.273  1.00  0.00    -0.248 A  
HETATM   23  C   UNL     1      -9.147   7.890  73.339  1.00  0.00    -0.347 A  
ENDBRANCH  11  12
ENDBRANCH   5  11
TORSDOF 2
ENDMDL
MODEL      188
REMARK 921   NORMALIZED FREE ENERGY PREDICTED BY IDOCK:   -3.60 KCAL/MOL
REMARK 922        TOTAL FREE ENERGY PREDICTED BY IDOCK:   -4.53 KCAL/MOL
REMARK 923 INTER-LIGAND FREE ENERGY PREDICTED BY IDOCK:   -4.24 KCAL/MOL
REMARK 924 INTRA-LIGAND FREE ENERGY PREDICTED BY IDOCK:   -0.29 KCAL/MOL
REMARK 927      BINDING AFFINITY PREDICTED BY RF-SCORE:    0.00 PKD
ROOT
HETATM    1  C   UNL     1      -8.968  12.094  65.937  1.00  0.00     0.087 C  
HETATM    2  N   UNL     1      -9.879  11.747  66.998  1.00  0.00    -0.196 NA 
HETATM    3  C   UNL     1      -9.351  11.654  68.366  1.00  0.00    -0.191 C  
HETATM    4  C   UNL     1      -8.390  10.456  68.531  1.00  0.00    -0.124 C  
HETATM    5  C   UNL     1      -9.063   9.112  68.207  1.00  0.00    -0.132 C  
HETATM    6  C   UNL     1      -9.931   9.216  66.934  1.00  0.00    -0.304 C  
HETATM    7  O   UNL     1     -11.319  10.268  69.301  1.00  0.00    -0.229 OA 
HETATM    8  C   UNL     1     -10.720  10.553  66.836  1.00  0.00    -0.219 C  
HETATM    9  C   UNL     1     -10.706  11.531  69.052  1.00  0.00    -0.193 C  
HETATM   10  C   UNL     1     -11.606  10.851  68.038  1.00  0.00    -0.215 C  
ENDROOT
BRANCH   5  11
HETATM   11  O   UNL     1      -8.210   7.935  68.298  1.00  0.00    -0.121 OA 
BRANCH  11  12
HETATM   12  C   UNL     1      -8.262   6.931  67.401  1.00  0.00    -0.119 C  
HETATM   13  C   UNL     1      -9.920   5.824  69.099  1.00  0.00    -0.232 A  
HETATM   14  C   UNL     1      -9.359   5.900  67.675  1.00  0.00    -0.107 C  
HETATM   15  C   UNL     1     -10.402   6.039  66.553  1.00  0.00    -0.149 C  
HETATM   16  C   UNL     1      -9.173   5.169  70.097  1.00  0.00    -0.188 A  
HETATM   17  O   UNL     1     -11.207   4.865  66.431  1.00  0.00    -0.388 OA 
HETATM   18  O   UNL     1      -7.516   6.859  66.424  1.00  0.00    -0.072 OA 
HETATM   19  C   UNL     1      -9.671   5.008  71.399  1.00  0.00    -0.231 A  
HETATM   20  H   UNL     1     -11.851   4.950  65.738  1.00  0.00     0.000 HD 
HETATM   21  C   UNL     1     -10.930   5.494  71.731  1.00  0.00    -0.249 A  
HETATM   22  C   UNL     1     -11.692   6.133  70.758  1.00  0.00    -0.168 A  
HETATM   23  C   UNL     1     -11.196   6.293  69.456  1.00  0.00    -0.500 A  
ENDBRANCH  11  12
ENDBRANCH   5  11
TORSDOF 2
ENDMDL
MODEL      189
REMARK 921   NORMALIZED FREE ENERGY PREDICTED BY IDOCK:   -3.60 KCAL/MOL
REMARK 922        TOTAL FREE ENERGY PREDICTED BY IDOCK:   -4.53 KCAL/MOL
REMARK 923 INTER-LIGAND FREE ENERGY PREDICTED BY IDOCK:   -4.31 KCAL/MOL
REMARK 924 INTRA-LIGAND FREE ENERGY PREDICTED BY IDOCK:   -0.22 KCAL/MOL
REMARK 927      BINDING AFFINITY PREDICTED BY RF-SCORE:    0.00 PKD
ROOT
HETATM    1  C   UNL     1      -7.560  12.415  66.855  1.00  0.00     0.042 C  
HETATM    2  N   UNL     1      -8.970  12.526  66.582  1.00  0.00    -0.204 NA 
HETATM    3  C   UNL     1      -9.881  12.755  67.712  1.00  0.00    -0.220 C  
HETATM    4  C   UNL     1      -9.957  11.527  68.645  1.00  0.00    -0.207 C  
HETATM    5  C   UNL     1     -10.440  10.261  67.917  1.00  0.00    -0.212 C  
HETATM    6  C   UNL     1      -9.761  10.122  66.537  1.00  0.00    -0.252 C  
HETATM    7  O   UNL     1     -12.016  12.004  66.468  1.00  0.00    -0.616 OA 
HETATM    8  C   UNL     1      -9.614  11.475  65.783  1.00  0.00    -0.235 C  
HETATM    9  C   UNL     1     -11.117  13.036  66.866  1.00  0.00    -0.277 C  
HETATM   10  C   UNL     1     -10.921  12.234  65.594  1.00  0.00    -0.299 C  
ENDROOT
BRANCH   5  11
HETATM   11  O   UNL     1     -10.498   9.048  68.719  1.00  0.00    -0.216 OA 
BRANCH  11  12
HETATM   12  C   UNL     1     -10.517   7.817  68.173  1.00  0.00    -0.176 C  
HETATM   13  C   UNL     1      -8.795   7.220  70.053  1.00  0.00    -0.141 A  
HETATM   14  C   UNL     1      -9.813   6.747  69.010  1.00  0.00    -0.152 C  
HETATM   15  C   UNL     1     -10.899   5.787  69.525  1.00  0.00    -0.340 C  
HETATM   16  C   UNL     1      -7.510   7.613  69.630  1.00  0.00    -0.091 A  
HETATM   17  O   UNL     1     -10.350   4.527  69.913  1.00  0.00    -0.130 OA 
HETATM   18  O   UNL     1     -11.078   7.559  67.108  1.00  0.00    -0.216 OA 
HETATM   19  C   UNL     1      -6.518   7.986  70.548  1.00  0.00    -0.037 A  
HETATM   20  H   UNL     1     -11.020   3.933  70.231  1.00  0.00     0.000 HD 
HETATM   21  C   UNL     1      -6.786   7.970  71.913  1.00  0.00    -0.067 A  
HETATM   22  C   UNL     1      -8.043   7.573  72.356  1.00  0.00    -0.121 A  
HETATM   23  C   UNL     1      -9.036   7.198  71.438  1.00  0.00    -0.143 A  
ENDBRANCH  11  12
ENDBRANCH   5  11
TORSDOF 2
ENDMDL
MODEL      190
REMARK 921   NORMALIZED FREE ENERGY PREDICTED BY IDOCK:   -3.60 KCAL/MOL
REMARK 922        TOTAL FREE ENERGY PREDICTED BY IDOCK:   -4.52 KCAL/MOL
REMARK 923 INTER-LIGAND FREE ENERGY PREDICTED BY IDOCK:   -3.84 KCAL/MOL
REMARK 924 INTRA-LIGAND FREE ENERGY PREDICTED BY IDOCK:   -0.68 KCAL/MOL
REMARK 927      BINDING AFFINITY PREDICTED BY RF-SCORE:    0.00 PKD
ROOT
HETATM    1  C   UNL     1      -8.830   4.772  64.097  1.00  0.00    -0.122 C  
HETATM    2  N   UNL     1      -8.113   4.327  65.265  1.00  0.00    -0.100 NA 
HETATM    3  C   UNL     1      -8.860   4.161  66.519  1.00  0.00    -0.118 C  
HETATM    4  C   UNL     1      -9.339   5.515  67.085  1.00  0.00    -0.115 C  
HETATM    5  C   UNL     1      -8.176   6.480  67.370  1.00  0.00    -0.121 C  
HETATM    6  C   UNL     1      -7.146   6.463  66.220  1.00  0.00    -0.068 C  
HETATM    7  O   UNL     1      -6.784   4.196  68.055  1.00  0.00    -0.045 OA 
HETATM    8  C   UNL     1      -6.886   5.039  65.647  1.00  0.00    -0.061 C  
HETATM    9  C   UNL     1      -7.739   3.469  67.284  1.00  0.00    -0.079 C  
HETATM   10  C   UNL     1      -6.455   4.013  66.686  1.00  0.00    -0.041 C  
ENDROOT
BRANCH   5  11
HETATM   11  O   UNL     1      -8.548   7.797  67.867  1.00  0.00    -0.122 OA 
BRANCH  11  12
HETATM   12  C   UNL     1      -9.628   8.464  67.417  1.00  0.00    -0.157 C  
HETATM   13  C   UNL     1     -10.570   8.080  69.830  1.00  0.00    -0.238 A  
HETATM   14  C   UNL     1     -10.625   8.855  68.510  1.00  0.00    -0.183 C  
HETATM   15  C   UNL     1     -10.584  10.388  68.633  1.00  0.00    -0.209 C  
HETATM   16  C   UNL     1     -11.135   6.791  69.894  1.00  0.00    -0.374 A  
HETATM   17  O   UNL     1     -11.760  10.900  69.262  1.00  0.00    -0.283 OA 
HETATM   18  O   UNL     1      -9.792   8.765  66.234  1.00  0.00    -0.268 OA 
HETATM   19  C   UNL     1     -11.176   6.066  71.094  1.00  0.00    -0.328 A  
HETATM   20  H   UNL     1     -11.734  11.846  69.339  1.00  0.00     0.000 HD 
HETATM   21  C   UNL     1     -10.655   6.616  72.261  1.00  0.00    -0.241 A  
HETATM   22  C   UNL     1     -10.103   7.893  72.225  1.00  0.00    -0.297 A  
HETATM   23  C   UNL     1     -10.064   8.619  71.026  1.00  0.00    -0.273 A  
ENDBRANCH  11  12
ENDBRANCH   5  11
TORSDOF 2
ENDMDL
MODEL      191
REMARK 921   NORMALIZED FREE ENERGY PREDICTED BY IDOCK:   -3.59 KCAL/MOL
REMARK 922        TOTAL FREE ENERGY PREDICTED BY IDOCK:   -4.51 KCAL/MOL
REMARK 923 INTER-LIGAND FREE ENERGY PREDICTED BY IDOCK:   -3.68 KCAL/MOL
REMARK 924 INTRA-LIGAND FREE ENERGY PREDICTED BY IDOCK:   -0.83 KCAL/MOL
REMARK 927      BINDING AFFINITY PREDICTED BY RF-SCORE:    0.00 PKD
ROOT
HETATM    1  C   UNL     1     -10.953   9.129  69.681  1.00  0.00    -0.153 C  
HETATM    2  N   UNL     1     -11.202   8.278  70.816  1.00  0.00    -0.263 NA 
HETATM    3  C   UNL     1     -10.095   8.016  71.746  1.00  0.00    -0.191 C  
HETATM    4  C   UNL     1      -8.989   7.157  71.094  1.00  0.00    -0.145 C  
HETATM    5  C   UNL     1      -9.511   5.795  70.607  1.00  0.00    -0.164 C  
HETATM    6  C   UNL     1     -10.872   5.943  69.895  1.00  0.00    -0.439 C  
HETATM    7  O   UNL     1     -11.158   5.921  72.819  1.00  0.00    -0.253 OA 
HETATM    8  C   UNL     1     -11.821   6.965  70.585  1.00  0.00    -0.368 C  
HETATM    9  C   UNL     1     -10.940   7.330  72.813  1.00  0.00    -0.323 C  
HETATM   10  C   UNL     1     -12.084   6.681  72.058  1.00  0.00    -0.310 C  
ENDROOT
BRANCH   5  11
HETATM   11  O   UNL     1      -8.537   4.941  69.941  1.00  0.00    -0.085 OA 
BRANCH  11  12
HETATM   12  C   UNL     1      -8.863   4.132  68.915  1.00  0.00    -0.102 C  
HETATM   13  C   UNL     1      -7.779   5.991  67.422  1.00  0.00    -0.097 A  
HETATM   14  C   UNL     1      -8.250   4.541  67.574  1.00  0.00    -0.100 C  
HETATM   15  C   UNL     1      -7.219   3.462  67.199  1.00  0.00    -0.059 C  
HETATM   16  C   UNL     1      -8.733   7.003  67.199  1.00  0.00    -0.121 A  
HETATM   17  O   UNL     1      -6.925   3.474  65.801  1.00  0.00    -0.055 OA 
HETATM   18  O   UNL     1      -9.567   3.130  69.042  1.00  0.00    -0.153 OA 
HETATM   19  C   UNL     1      -8.351   8.335  66.982  1.00  0.00    -0.122 A  
HETATM   20  H   UNL     1      -6.289   2.808  65.569  1.00  0.00     0.000 HD 
HETATM   21  C   UNL     1      -7.006   8.686  66.980  1.00  0.00    -0.074 A  
HETATM   22  C   UNL     1      -6.045   7.702  67.186  1.00  0.00    -0.052 A  
HETATM   23  C   UNL     1      -6.425   6.369  67.401  1.00  0.00    -0.049 A  
ENDBRANCH  11  12
ENDBRANCH   5  11
TORSDOF 2
ENDMDL
MODEL      192
REMARK 921   NORMALIZED FREE ENERGY PREDICTED BY IDOCK:   -3.58 KCAL/MOL
REMARK 922        TOTAL FREE ENERGY PREDICTED BY IDOCK:   -4.51 KCAL/MOL
REMARK 923 INTER-LIGAND FREE ENERGY PREDICTED BY IDOCK:   -4.00 KCAL/MOL
REMARK 924 INTRA-LIGAND FREE ENERGY PREDICTED BY IDOCK:   -0.50 KCAL/MOL
REMARK 927      BINDING AFFINITY PREDICTED BY RF-SCORE:    0.00 PKD
ROOT
HETATM    1  C   UNL     1     -10.403  15.920  65.664  1.00  0.00    -0.390 C  
HETATM    2  N   UNL     1     -11.130  14.743  65.261  1.00  0.00    -0.350 NA 
HETATM    3  C   UNL     1     -12.137  14.198  66.182  1.00  0.00    -0.435 C  
HETATM    4  C   UNL     1     -11.491  13.606  67.454  1.00  0.00    -0.365 C  
HETATM    5  C   UNL     1     -10.499  12.474  67.139  1.00  0.00    -0.224 C  
HETATM    6  C   UNL     1      -9.603  12.839  65.936  1.00  0.00    -0.143 C  
HETATM    7  O   UNL     1     -12.241  11.862  65.087  1.00  0.00    -0.334 OA 
HETATM    8  C   UNL     1     -10.369  13.574  64.798  1.00  0.00    -0.385 C  
HETATM    9  C   UNL     1     -12.729  13.197  65.198  1.00  0.00    -0.405 C  
HETATM   10  C   UNL     1     -11.586  12.823  64.273  1.00  0.00    -0.376 C  
ENDROOT
BRANCH   5  11
HETATM   11  O   UNL     1      -9.814  11.891  68.284  1.00  0.00    -0.190 OA 
BRANCH  11  12
HETATM   12  C   UNL     1      -9.067  10.774  68.191  1.00  0.00    -0.151 C  
HETATM   13  C   UNL     1      -7.039  12.392  68.547  1.00  0.00    -0.100 A  
HETATM   14  C   UNL     1      -7.599  10.967  68.578  1.00  0.00    -0.111 C  
HETATM   15  C   UNL     1      -7.368  10.187  69.884  1.00  0.00    -0.165 C  
HETATM   16  C   UNL     1      -6.701  12.971  67.308  1.00  0.00    -0.020 A  
HETATM   17  O   UNL     1      -5.983   9.906  70.094  1.00  0.00    -0.046 OA 
HETATM   18  O   UNL     1      -9.524   9.681  67.856  1.00  0.00    -0.132 OA 
HETATM   19  C   UNL     1      -6.119  14.245  67.227  1.00  0.00     0.471 A  
HETATM   20  H   UNL     1      -5.840   9.425  70.900  1.00  0.00     0.000 HD 
HETATM   21  C   UNL     1      -5.857  14.969  68.385  1.00  0.00    -0.109 A  
HETATM   22  C   UNL     1      -6.171  14.413  69.622  1.00  0.00    -0.126 A  
HETATM   23  C   UNL     1      -6.751  13.138  69.703  1.00  0.00     0.081 A  
ENDBRANCH  11  12
ENDBRANCH   5  11
TORSDOF 2
ENDMDL
MODEL      193
REMARK 921   NORMALIZED FREE ENERGY PREDICTED BY IDOCK:   -3.58 KCAL/MOL
REMARK 922        TOTAL FREE ENERGY PREDICTED BY IDOCK:   -4.50 KCAL/MOL
REMARK 923 INTER-LIGAND FREE ENERGY PREDICTED BY IDOCK:   -3.87 KCAL/MOL
REMARK 924 INTRA-LIGAND FREE ENERGY PREDICTED BY IDOCK:   -0.63 KCAL/MOL
REMARK 927      BINDING AFFINITY PREDICTED BY RF-SCORE:    0.00 PKD
ROOT
HETATM    1  C   UNL     1      -7.738  12.409  66.898  1.00  0.00     0.021 C  
HETATM    2  N   UNL     1      -9.160  12.498  67.105  1.00  0.00    -0.197 NA 
HETATM    3  C   UNL     1      -9.711  11.997  68.372  1.00  0.00    -0.199 C  
HETATM    4  C   UNL     1      -9.591  10.461  68.482  1.00  0.00    -0.161 C  
HETATM    5  C   UNL     1     -10.321   9.729  67.343  1.00  0.00    -0.240 C  
HETATM    6  C   UNL     1     -10.058  10.413  65.984  1.00  0.00    -0.307 C  
HETATM    7  O   UNL     1     -12.143  11.795  67.526  1.00  0.00    -0.599 OA 
HETATM    8  C   UNL     1     -10.054  11.967  66.067  1.00  0.00    -0.231 C  
HETATM    9  C   UNL     1     -11.116  12.550  68.166  1.00  0.00    -0.243 C  
HETATM   10  C   UNL     1     -11.321  12.567  66.663  1.00  0.00    -0.334 C  
ENDROOT
BRANCH   5  11
HETATM   11  O   UNL     1     -10.219   8.276  67.351  1.00  0.00    -0.212 OA 
BRANCH  11  12
HETATM   12  C   UNL     1     -10.142   7.562  68.490  1.00  0.00    -0.184 C  
HETATM   13  C   UNL     1      -8.044   6.464  67.372  1.00  0.00    -0.116 A  
HETATM   14  C   UNL     1      -8.845   6.763  68.643  1.00  0.00    -0.123 C  
HETATM   15  C   UNL     1      -8.053   7.400  69.797  1.00  0.00    -0.127 C  
HETATM   16  C   UNL     1      -8.477   5.435  66.512  1.00  0.00    -0.113 A  
HETATM   17  O   UNL     1      -7.082   6.499  70.332  1.00  0.00    -0.068 OA 
HETATM   18  O   UNL     1     -11.018   7.569  69.354  1.00  0.00    -0.193 OA 
HETATM   19  C   UNL     1      -7.742   5.072  65.373  1.00  0.00    -0.087 A  
HETATM   20  H   UNL     1      -6.592   6.892  71.045  1.00  0.00     0.000 HD 
HETATM   21  C   UNL     1      -6.553   5.727  65.070  1.00  0.00    -0.043 A  
HETATM   22  C   UNL     1      -6.098   6.738  65.911  1.00  0.00    -0.038 A  
HETATM   23  C   UNL     1      -6.831   7.100  67.051  1.00  0.00    -0.072 A  
ENDBRANCH  11  12
ENDBRANCH   5  11
TORSDOF 2
ENDMDL
MODEL      194
REMARK 921   NORMALIZED FREE ENERGY PREDICTED BY IDOCK:   -3.56 KCAL/MOL
REMARK 922        TOTAL FREE ENERGY PREDICTED BY IDOCK:   -4.48 KCAL/MOL
REMARK 923 INTER-LIGAND FREE ENERGY PREDICTED BY IDOCK:   -3.66 KCAL/MOL
REMARK 924 INTRA-LIGAND FREE ENERGY PREDICTED BY IDOCK:   -0.82 KCAL/MOL
REMARK 927      BINDING AFFINITY PREDICTED BY RF-SCORE:    0.00 PKD
ROOT
HETATM    1  C   UNL     1      -6.155   8.776  66.191  1.00  0.00    -0.052 C  
HETATM    2  N   UNL     1      -7.175   9.594  66.796  1.00  0.00    -0.089 NA 
HETATM    3  C   UNL     1      -7.162   9.754  68.257  1.00  0.00    -0.078 C  
HETATM    4  C   UNL     1      -7.510   8.436  68.982  1.00  0.00    -0.093 C  
HETATM    5  C   UNL     1      -8.896   7.897  68.593  1.00  0.00    -0.134 C  
HETATM    6  C   UNL     1      -9.128   8.006  67.070  1.00  0.00    -0.170 C  
HETATM    7  O   UNL     1      -9.609  10.559  68.443  1.00  0.00    -0.150 OA 
HETATM    8  C   UNL     1      -8.580   9.327  66.458  1.00  0.00    -0.130 C  
HETATM    9  C   UNL     1      -8.220  10.850  68.307  1.00  0.00    -0.127 C  
HETATM   10  C   UNL     1      -9.117  10.593  67.111  1.00  0.00    -0.143 C  
ENDROOT
BRANCH   5  11
HETATM   11  O   UNL     1      -9.281   6.632  69.203  1.00  0.00    -0.137 OA 
BRANCH  11  12
HETATM   12  C   UNL     1     -10.463   6.457  69.827  1.00  0.00    -0.215 C  
HETATM   13  C   UNL     1      -9.057   6.661  72.026  1.00  0.00    -0.139 A  
HETATM   14  C   UNL     1     -10.422   6.718  71.334  1.00  0.00    -0.238 C  
HETATM   15  C   UNL     1     -11.250   7.988  71.597  1.00  0.00    -0.255 C  
HETATM   16  C   UNL     1      -8.485   5.406  72.314  1.00  0.00    -0.122 A  
HETATM   17  O   UNL     1     -11.668   8.074  72.960  1.00  0.00    -0.566 OA 
HETATM   18  O   UNL     1     -11.498   6.146  69.238  1.00  0.00    -0.404 OA 
HETATM   19  C   UNL     1      -7.272   5.294  73.010  1.00  0.00    -0.090 A  
HETATM   20  H   UNL     1     -12.180   8.857  73.123  1.00  0.00     0.000 HD 
HETATM   21  C   UNL     1      -6.604   6.436  73.438  1.00  0.00    -0.073 A  
HETATM   22  C   UNL     1      -7.155   7.687  73.177  1.00  0.00    -0.086 A  
HETATM   23  C   UNL     1      -8.369   7.799  72.483  1.00  0.00    -0.170 A  
ENDBRANCH  11  12
ENDBRANCH   5  11
TORSDOF 2
ENDMDL
MODEL      195
REMARK 921   NORMALIZED FREE ENERGY PREDICTED BY IDOCK:   -3.52 KCAL/MOL
REMARK 922        TOTAL FREE ENERGY PREDICTED BY IDOCK:   -4.44 KCAL/MOL
REMARK 923 INTER-LIGAND FREE ENERGY PREDICTED BY IDOCK:   -3.70 KCAL/MOL
REMARK 924 INTRA-LIGAND FREE ENERGY PREDICTED BY IDOCK:   -0.73 KCAL/MOL
REMARK 927      BINDING AFFINITY PREDICTED BY RF-SCORE:    0.00 PKD
ROOT
HETATM    1  C   UNL     1     -10.291   6.916  71.791  1.00  0.00    -0.198 C  
HETATM    2  N   UNL     1      -9.552   5.776  71.311  1.00  0.00    -0.164 NA 
HETATM    3  C   UNL     1      -8.101   5.914  71.130  1.00  0.00    -0.121 C  
HETATM    4  C   UNL     1      -7.755   6.875  69.972  1.00  0.00    -0.101 C  
HETATM    5  C   UNL     1      -8.343   6.414  68.627  1.00  0.00    -0.121 C  
HETATM    6  C   UNL     1      -9.797   5.924  68.795  1.00  0.00    -0.177 C  
HETATM    7  O   UNL     1      -7.846   3.869  69.574  1.00  0.00    -0.052 OA 
HETATM    8  C   UNL     1     -10.022   5.098  70.095  1.00  0.00    -0.253 C  
HETATM    9  C   UNL     1      -7.829   4.435  70.882  1.00  0.00    -0.067 C  
HETATM   10  C   UNL     1      -9.097   3.898  70.245  1.00  0.00    -0.119 C  
ENDROOT
BRANCH   5  11
HETATM   11  O   UNL     1      -8.097   7.291  67.491  1.00  0.00    -0.111 OA 
BRANCH  11  12
HETATM   12  C   UNL     1      -8.800   7.206  66.345  1.00  0.00    -0.145 C  
HETATM   13  C   UNL     1      -9.863   9.473  67.113  1.00  0.00    -0.239 A  
HETATM   14  C   UNL     1      -9.569   8.479  65.985  1.00  0.00    -0.236 C  
HETATM   15  C   UNL     1      -8.905   9.071  64.730  1.00  0.00    -0.122 C  
HETATM   16  C   UNL     1     -10.908   9.197  68.017  1.00  0.00    -0.135 A  
HETATM   17  O   UNL     1      -9.779   9.966  64.041  1.00  0.00    -0.391 OA 
HETATM   18  O   UNL     1      -8.803   6.207  65.626  1.00  0.00    -0.153 OA 
HETATM   19  C   UNL     1     -11.265  10.106  69.024  1.00  0.00    -0.223 A  
HETATM   20  H   UNL     1      -9.369  10.332  63.266  1.00  0.00     0.000 HD 
HETATM   21  C   UNL     1     -10.588  11.314  69.149  1.00  0.00    -0.222 A  
HETATM   22  C   UNL     1      -9.560  11.614  68.260  1.00  0.00    -0.198 A  
HETATM   23  C   UNL     1      -9.203  10.707  67.251  1.00  0.00    -0.155 A  
ENDBRANCH  11  12
ENDBRANCH   5  11
TORSDOF 2
ENDMDL
MODEL      196
REMARK 921   NORMALIZED FREE ENERGY PREDICTED BY IDOCK:   -3.52 KCAL/MOL
REMARK 922        TOTAL FREE ENERGY PREDICTED BY IDOCK:   -4.43 KCAL/MOL
REMARK 923 INTER-LIGAND FREE ENERGY PREDICTED BY IDOCK:   -3.67 KCAL/MOL
REMARK 924 INTRA-LIGAND FREE ENERGY PREDICTED BY IDOCK:   -0.76 KCAL/MOL
REMARK 927      BINDING AFFINITY PREDICTED BY RF-SCORE:    0.00 PKD
ROOT
HETATM    1  C   UNL     1      -9.067  10.519  66.013  1.00  0.00    -0.168 C  
HETATM    2  N   UNL     1      -8.145  10.462  67.119  1.00  0.00    -0.114 NA 
HETATM    3  C   UNL     1      -7.746   9.142  67.625  1.00  0.00    -0.089 C  
HETATM    4  C   UNL     1      -8.921   8.412  68.311  1.00  0.00    -0.139 C  
HETATM    5  C   UNL     1      -9.496   9.204  69.498  1.00  0.00    -0.168 C  
HETATM    6  C   UNL     1      -9.635  10.702  69.151  1.00  0.00    -0.193 C  
HETATM    7  O   UNL     1      -6.883   9.998  69.904  1.00  0.00    -0.076 OA 
HETATM    8  C   UNL     1      -8.442  11.255  68.320  1.00  0.00    -0.152 C  
HETATM    9  C   UNL     1      -6.641   9.650  68.543  1.00  0.00    -0.052 C  
HETATM   10  C   UNL     1      -7.077  11.041  68.960  1.00  0.00    -0.106 C  
ENDROOT
BRANCH   5  11
HETATM   11  O   UNL     1     -10.637   8.601  70.173  1.00  0.00    -0.215 OA 
BRANCH  11  12
HETATM   12  C   UNL     1     -10.794   8.644  71.510  1.00  0.00    -0.282 C  
HETATM   13  C   UNL     1      -9.435   6.406  71.498  1.00  0.00    -0.162 A  
HETATM   14  C   UNL     1      -9.950   7.622  72.275  1.00  0.00    -0.242 C  
HETATM   15  C   UNL     1      -8.889   8.409  73.063  1.00  0.00    -0.163 C  
HETATM   16  C   UNL     1     -10.317   5.343  71.221  1.00  0.00    -0.296 A  
HETATM   17  O   UNL     1      -8.356   7.642  74.144  1.00  0.00    -0.184 OA 
HETATM   18  O   UNL     1     -11.527   9.454  72.079  1.00  0.00    -0.328 OA 
HETATM   19  C   UNL     1      -9.881   4.176  70.577  1.00  0.00    -0.252 A  
HETATM   20  H   UNL     1      -7.701   8.128  74.631  1.00  0.00     0.000 HD 
HETATM   21  C   UNL     1      -8.549   4.042  70.199  1.00  0.00    -0.103 A  
HETATM   22  C   UNL     1      -7.656   5.073  70.473  1.00  0.00    -0.070 A  
HETATM   23  C   UNL     1      -8.091   6.240  71.119  1.00  0.00    -0.118 A  
ENDBRANCH  11  12
ENDBRANCH   5  11
TORSDOF 2
ENDMDL
MODEL      197
REMARK 921   NORMALIZED FREE ENERGY PREDICTED BY IDOCK:   -3.51 KCAL/MOL
REMARK 922        TOTAL FREE ENERGY PREDICTED BY IDOCK:   -4.43 KCAL/MOL
REMARK 923 INTER-LIGAND FREE ENERGY PREDICTED BY IDOCK:   -3.77 KCAL/MOL
REMARK 924 INTRA-LIGAND FREE ENERGY PREDICTED BY IDOCK:   -0.66 KCAL/MOL
REMARK 927      BINDING AFFINITY PREDICTED BY RF-SCORE:    0.00 PKD
ROOT
HETATM    1  C   UNL     1      -9.206   1.505  65.889  1.00  0.00     0.020 C  
HETATM    2  N   UNL     1      -8.986   2.513  64.884  1.00  0.00    -0.123 NA 
HETATM    3  C   UNL     1      -7.656   3.131  64.799  1.00  0.00    -0.077 C  
HETATM    4  C   UNL     1      -7.353   4.012  66.031  1.00  0.00    -0.076 C  
HETATM    5  C   UNL     1      -8.375   5.146  66.211  1.00  0.00    -0.113 C  
HETATM    6  C   UNL     1      -9.815   4.639  65.979  1.00  0.00    -0.236 C  
HETATM    7  O   UNL     1      -8.425   5.195  63.451  1.00  0.00    -0.127 OA 
HETATM    8  C   UNL     1      -9.931   3.634  64.797  1.00  0.00    -0.160 C  
HETATM    9  C   UNL     1      -7.905   3.868  63.489  1.00  0.00    -0.078 C  
HETATM   10  C   UNL     1      -9.394   4.158  63.472  1.00  0.00    -0.140 C  
ENDROOT
BRANCH   5  11
HETATM   11  O   UNL     1      -8.183   5.998  67.377  1.00  0.00    -0.106 OA 
BRANCH  11  12
HETATM   12  C   UNL     1      -8.751   5.734  68.568  1.00  0.00    -0.111 C  
HETATM   13  C   UNL     1      -9.664   8.182  68.402  1.00  0.00    -0.172 A  
HETATM   14  C   UNL     1      -9.759   6.788  69.031  1.00  0.00    -0.145 C  
HETATM   15  C   UNL     1     -11.150   6.133  68.995  1.00  0.00    -0.367 C  
HETATM   16  C   UNL     1      -8.662   9.068  68.844  1.00  0.00    -0.136 A  
HETATM   17  O   UNL     1     -12.086   6.832  69.817  1.00  0.00    -0.648 OA 
HETATM   18  O   UNL     1      -8.512   4.718  69.222  1.00  0.00    -0.080 OA 
HETATM   19  C   UNL     1      -8.575  10.380  68.354  1.00  0.00    -0.128 A  
HETATM   20  H   UNL     1     -12.945   6.428  69.795  1.00  0.00     0.000 HD 
HETATM   21  C   UNL     1      -9.491  10.838  67.413  1.00  0.00    -0.171 A  
HETATM   22  C   UNL     1     -10.497   9.985  66.971  1.00  0.00    -0.302 A  
HETATM   23  C   UNL     1     -10.587   8.674  67.462  1.00  0.00    -0.292 A  
ENDBRANCH  11  12
ENDBRANCH   5  11
TORSDOF 2
ENDMDL
MODEL      198
REMARK 921   NORMALIZED FREE ENERGY PREDICTED BY IDOCK:   -3.51 KCAL/MOL
REMARK 922        TOTAL FREE ENERGY PREDICTED BY IDOCK:   -4.42 KCAL/MOL
REMARK 923 INTER-LIGAND FREE ENERGY PREDICTED BY IDOCK:   -3.82 KCAL/MOL
REMARK 924 INTRA-LIGAND FREE ENERGY PREDICTED BY IDOCK:   -0.60 KCAL/MOL
REMARK 927      BINDING AFFINITY PREDICTED BY RF-SCORE:    0.00 PKD
ROOT
HETATM    1  C   UNL     1      -9.355   4.567  72.339  1.00  0.00    -0.126 C  
HETATM    2  N   UNL     1     -10.127   5.678  71.845  1.00  0.00    -0.184 NA 
HETATM    3  C   UNL     1     -10.670   5.596  70.482  1.00  0.00    -0.274 C  
HETATM    4  C   UNL     1      -9.554   5.640  69.416  1.00  0.00    -0.187 C  
HETATM    5  C   UNL     1      -8.712   6.925  69.496  1.00  0.00    -0.133 C  
HETATM    6  C   UNL     1      -8.373   7.276  70.961  1.00  0.00    -0.119 C  
HETATM    7  O   UNL     1     -11.086   8.131  70.224  1.00  0.00    -0.256 OA 
HETATM    8  C   UNL     1      -9.555   7.028  71.943  1.00  0.00    -0.150 C  
HETATM    9  C   UNL     1     -11.553   6.834  70.586  1.00  0.00    -0.370 C  
HETATM   10  C   UNL     1     -10.844   7.746  71.569  1.00  0.00    -0.227 C  
ENDROOT
BRANCH   5  11
HETATM   11  O   UNL     1      -7.610   7.024  68.550  1.00  0.00    -0.108 OA 
BRANCH  11  12
HETATM   12  C   UNL     1      -7.484   8.053  67.689  1.00  0.00    -0.097 C  
HETATM   13  C   UNL     1      -8.787   6.506  66.027  1.00  0.00    -0.154 A  
HETATM   14  C   UNL     1      -8.320   7.912  66.415  1.00  0.00    -0.129 C  
HETATM   15  C   UNL     1      -9.417   8.989  66.471  1.00  0.00    -0.206 C  
HETATM   16  C   UNL     1      -7.873   5.619  65.424  1.00  0.00    -0.102 A  
HETATM   17  O   UNL     1      -9.955   9.263  65.176  1.00  0.00    -0.395 OA 
HETATM   18  O   UNL     1      -6.784   9.041  67.915  1.00  0.00    -0.067 OA 
HETATM   19  C   UNL     1      -8.266   4.347  64.984  1.00  0.00    -0.104 A  
HETATM   20  H   UNL     1     -10.632   9.928  65.210  1.00  0.00     0.000 HD 
HETATM   21  C   UNL     1      -9.585   3.932  65.133  1.00  0.00    -0.181 A  
HETATM   22  C   UNL     1     -10.509   4.794  65.714  1.00  0.00    -0.275 A  
HETATM   23  C   UNL     1     -10.118   6.068  66.152  1.00  0.00     0.025 A  
ENDBRANCH  11  12
ENDBRANCH   5  11
TORSDOF 2
ENDMDL
MODEL      199
REMARK 921   NORMALIZED FREE ENERGY PREDICTED BY IDOCK:   -3.50 KCAL/MOL
REMARK 922        TOTAL FREE ENERGY PREDICTED BY IDOCK:   -4.41 KCAL/MOL
REMARK 923 INTER-LIGAND FREE ENERGY PREDICTED BY IDOCK:   -3.82 KCAL/MOL
REMARK 924 INTRA-LIGAND FREE ENERGY PREDICTED BY IDOCK:   -0.59 KCAL/MOL
REMARK 927      BINDING AFFINITY PREDICTED BY RF-SCORE:    0.00 PKD
ROOT
HETATM    1  C   UNL     1      -7.816   9.252  70.442  1.00  0.00    -0.148 C  
HETATM    2  N   UNL     1      -9.035   8.509  70.637  1.00  0.00    -0.150 NA 
HETATM    3  C   UNL     1      -9.708   7.955  69.455  1.00  0.00    -0.173 C  
HETATM    4  C   UNL     1     -10.294   9.064  68.555  1.00  0.00    -0.233 C  
HETATM    5  C   UNL     1     -11.317   9.944  69.294  1.00  0.00    -0.067 C  
HETATM    6  C   UNL     1     -10.819  10.304  70.711  1.00  0.00    -0.116 C  
HETATM    7  O   UNL     1     -11.994   7.612  70.606  1.00  0.00    -0.223 OA 
HETATM    8  C   UNL     1     -10.109   9.122  71.432  1.00  0.00    -0.322 C  
HETATM    9  C   UNL     1     -10.715   7.110  70.226  1.00  0.00    -0.238 C  
HETATM   10  C   UNL     1     -10.943   7.852  71.529  1.00  0.00    -0.231 C  
ENDROOT
BRANCH   5  11
HETATM   11  O   UNL     1     -11.885  11.043  68.525  1.00  0.00    -0.460 OA 
BRANCH  11  12
HETATM   12  C   UNL     1     -11.393  11.421  67.329  1.00  0.00    -0.275 C  
HETATM   13  C   UNL     1     -10.947  13.715  68.511  1.00  0.00    -0.289 A  
HETATM   14  C   UNL     1     -10.651  12.759  67.350  1.00  0.00    -0.241 C  
HETATM   15  C   UNL     1      -9.165  12.458  67.096  1.00  0.00    -0.199 C  
HETATM   16  C   UNL     1     -12.135  14.470  68.494  1.00  0.00    -0.257 A  
HETATM   17  O   UNL     1      -8.461  13.614  66.640  1.00  0.00    -0.437 OA 
HETATM   18  O   UNL     1     -11.499  10.740  66.309  1.00  0.00     0.022 OA 
HETATM   19  C   UNL     1     -12.421  15.412  69.494  1.00  0.00    -0.110 A  
HETATM   20  H   UNL     1      -7.543  13.428  66.483  1.00  0.00     0.000 HD 
HETATM   21  C   UNL     1     -11.522  15.622  70.533  1.00  0.00    -0.380 A  
HETATM   22  C   UNL     1     -10.335  14.897  70.565  1.00  0.00     0.257 A  
HETATM   23  C   UNL     1     -10.047  13.957  69.565  1.00  0.00     0.448 A  
ENDBRANCH  11  12
ENDBRANCH   5  11
TORSDOF 2
ENDMDL
MODEL      200
REMARK 921   NORMALIZED FREE ENERGY PREDICTED BY IDOCK:   -3.47 KCAL/MOL
REMARK 922        TOTAL FREE ENERGY PREDICTED BY IDOCK:   -4.38 KCAL/MOL
REMARK 923 INTER-LIGAND FREE ENERGY PREDICTED BY IDOCK:   -4.31 KCAL/MOL
REMARK 924 INTRA-LIGAND FREE ENERGY PREDICTED BY IDOCK:   -0.07 KCAL/MOL
REMARK 927      BINDING AFFINITY PREDICTED BY RF-SCORE:    0.00 PKD
ROOT
HETATM    1  C   UNL     1     -12.329  14.370  66.295  1.00  0.00    -0.301 C  
HETATM    2  N   UNL     1     -10.957  14.664  66.621  1.00  0.00    -0.316 NA 
HETATM    3  C   UNL     1      -9.904  14.125  65.750  1.00  0.00    -0.271 C  
HETATM    4  C   UNL     1      -9.805  12.587  65.853  1.00  0.00    -0.257 C  
HETATM    5  C   UNL     1      -9.505  12.110  67.284  1.00  0.00    -0.184 C  
HETATM    6  C   UNL     1     -10.352  12.884  68.317  1.00  0.00    -0.248 C  
HETATM    7  O   UNL     1      -7.991  14.411  67.462  1.00  0.00    -0.164 OA 
HETATM    8  C   UNL     1     -10.489  14.399  67.989  1.00  0.00    -0.237 C  
HETATM    9  C   UNL     1      -8.760  14.916  66.372  1.00  0.00    -0.082 C  
HETATM   10  C   UNL     1      -9.163  15.128  67.819  1.00  0.00    -0.180 C  
ENDROOT
BRANCH   5  11
HETATM   11  O   UNL     1      -9.439  10.667  67.473  1.00  0.00    -0.152 OA 
BRANCH  11  12
HETATM   12  C   UNL     1     -10.539   9.901  67.600  1.00  0.00    -0.270 C  
HETATM   13  C   UNL     1      -8.903   7.903  67.167  1.00  0.00    -0.137 A  
HETATM   14  C   UNL     1     -10.253   8.401  67.695  1.00  0.00    -0.298 C  
HETATM   15  C   UNL     1     -10.616   7.959  69.123  1.00  0.00    -0.173 C  
HETATM   16  C   UNL     1      -8.717   7.766  65.778  1.00  0.00    -0.160 A  
HETATM   17  O   UNL     1     -10.833   6.549  69.200  1.00  0.00    -0.244 OA 
HETATM   18  O   UNL     1     -11.679  10.362  67.669  1.00  0.00    -0.309 OA 
HETATM   19  C   UNL     1      -7.528   7.247  65.245  1.00  0.00    -0.089 A  
HETATM   20  H   UNL     1     -11.057   6.275  70.082  1.00  0.00     0.000 HD 
HETATM   21  C   UNL     1      -6.497   6.849  66.090  1.00  0.00    -0.051 A  
HETATM   22  C   UNL     1      -6.663   6.963  67.467  1.00  0.00    -0.067 A  
HETATM   23  C   UNL     1      -7.853   7.480  68.001  1.00  0.00    -0.121 A  
ENDBRANCH  11  12
ENDBRANCH   5  11
TORSDOF 2
ENDMDL
MODEL      201
REMARK 921   NORMALIZED FREE ENERGY PREDICTED BY IDOCK:   -3.46 KCAL/MOL
REMARK 922        TOTAL FREE ENERGY PREDICTED BY IDOCK:   -4.37 KCAL/MOL
REMARK 923 INTER-LIGAND FREE ENERGY PREDICTED BY IDOCK:   -3.87 KCAL/MOL
REMARK 924 INTRA-LIGAND FREE ENERGY PREDICTED BY IDOCK:   -0.50 KCAL/MOL
REMARK 927      BINDING AFFINITY PREDICTED BY RF-SCORE:    0.00 PKD
ROOT
HETATM    1  C   UNL     1      -7.768   5.880  65.533  1.00  0.00    -0.091 C  
HETATM    2  N   UNL     1      -7.829   7.306  65.725  1.00  0.00    -0.102 NA 
HETATM    3  C   UNL     1      -6.920   7.916  66.705  1.00  0.00    -0.073 C  
HETATM    4  C   UNL     1      -7.278   7.507  68.151  1.00  0.00    -0.090 C  
HETATM    5  C   UNL     1      -8.710   7.910  68.541  1.00  0.00    -0.131 C  
HETATM    6  C   UNL     1      -9.704   7.603  67.400  1.00  0.00    -0.208 C  
HETATM    7  O   UNL     1      -8.250  10.116  66.946  1.00  0.00    -0.120 OA 
HETATM    8  C   UNL     1      -9.137   7.923  65.987  1.00  0.00    -0.132 C  
HETATM    9  C   UNL     1      -7.215   9.360  66.321  1.00  0.00    -0.092 C  
HETATM   10  C   UNL     1      -8.646   9.354  65.816  1.00  0.00    -0.145 C  
ENDROOT
BRANCH   5  11
HETATM   11  O   UNL     1      -9.139   7.521  69.877  1.00  0.00    -0.144 OA 
BRANCH  11  12
HETATM   12  C   UNL     1     -10.437   7.428  70.223  1.00  0.00    -0.221 C  
HETATM   13  C   UNL     1      -9.844   4.954  70.844  1.00  0.00    -0.277 A  
HETATM   14  C   UNL     1     -10.795   6.148  70.981  1.00  0.00    -0.338 C  
HETATM   15  C   UNL     1     -11.150   6.557  72.420  1.00  0.00    -0.259 C  
HETATM   16  C   UNL     1      -9.887   4.173  69.673  1.00  0.00    -0.208 A  
HETATM   17  O   UNL     1     -11.926   5.554  73.079  1.00  0.00    -0.554 OA 
HETATM   18  O   UNL     1     -11.265   8.308  69.983  1.00  0.00    -0.203 OA 
HETATM   19  C   UNL     1      -9.089   3.028  69.525  1.00  0.00    -0.198 A  
HETATM   20  H   UNL     1     -12.146   5.807  73.968  1.00  0.00     0.000 HD 
HETATM   21  C   UNL     1      -8.233   2.636  70.548  1.00  0.00    -0.067 A  
HETATM   22  C   UNL     1      -8.183   3.385  71.720  1.00  0.00    -0.067 A  
HETATM   23  C   UNL     1      -8.982   4.528  71.869  1.00  0.00    -0.148 A  
ENDBRANCH  11  12
ENDBRANCH   5  11
TORSDOF 2
ENDMDL
MODEL      202
REMARK 921   NORMALIZED FREE ENERGY PREDICTED BY IDOCK:   -3.46 KCAL/MOL
REMARK 922        TOTAL FREE ENERGY PREDICTED BY IDOCK:   -4.36 KCAL/MOL
REMARK 923 INTER-LIGAND FREE ENERGY PREDICTED BY IDOCK:   -4.28 KCAL/MOL
REMARK 924 INTRA-LIGAND FREE ENERGY PREDICTED BY IDOCK:   -0.08 KCAL/MOL
REMARK 927      BINDING AFFINITY PREDICTED BY RF-SCORE:    0.00 PKD
ROOT
HETATM    1  C   UNL     1      -5.954  10.628  65.245  1.00  0.00    -0.090 C  
HETATM    2  N   UNL     1      -6.981   9.618  65.276  1.00  0.00    -0.095 NA 
HETATM    3  C   UNL     1      -8.290   9.939  64.690  1.00  0.00    -0.163 C  
HETATM    4  C   UNL     1      -9.040  11.009  65.512  1.00  0.00    -0.225 C  
HETATM    5  C   UNL     1      -9.285  10.571  66.966  1.00  0.00    -0.150 C  
HETATM    6  C   UNL     1      -8.028   9.901  67.563  1.00  0.00    -0.106 C  
HETATM    7  O   UNL     1      -9.573   8.046  65.888  1.00  0.00    -0.070 OA 
HETATM    8  C   UNL     1      -7.290   8.971  66.558  1.00  0.00    -0.085 C  
HETATM    9  C   UNL     1      -8.848   8.523  64.757  1.00  0.00     0.062 C  
HETATM   10  C   UNL     1      -8.164   7.883  65.951  1.00  0.00    -0.126 C  
ENDROOT
BRANCH   5  11
HETATM   11  O   UNL     1      -9.951  11.544  67.821  1.00  0.00    -0.177 OA 
BRANCH  11  12
HETATM   12  C   UNL     1     -11.283  11.541  68.022  1.00  0.00    -0.269 C  
HETATM   13  C   UNL     1     -10.794   9.514  69.607  1.00  0.00    -0.255 A  
HETATM   14  C   UNL     1     -11.743  10.633  69.165  1.00  0.00    -0.324 C  
HETATM   15  C   UNL     1     -12.267  11.546  70.286  1.00  0.00    -0.332 C  
HETATM   16  C   UNL     1     -10.700   8.344  68.828  1.00  0.00    -0.086 A  
HETATM   17  O   UNL     1     -13.128  10.841  71.183  1.00  0.00    -0.361 OA 
HETATM   18  O   UNL     1     -12.067  12.230  67.369  1.00  0.00    -0.533 OA 
HETATM   19  C   UNL     1      -9.902   7.261  69.224  1.00  0.00    -0.166 A  
HETATM   20  H   UNL     1     -13.452  11.404  71.875  1.00  0.00     0.000 HD 
HETATM   21  C   UNL     1      -9.181   7.321  70.411  1.00  0.00    -0.158 A  
HETATM   22  C   UNL     1      -9.268   8.461  71.204  1.00  0.00    -0.218 A  
HETATM   23  C   UNL     1     -10.067   9.544  70.810  1.00  0.00    -0.352 A  
ENDBRANCH  11  12
ENDBRANCH   5  11
TORSDOF 2
ENDMDL
MODEL      203
REMARK 921   NORMALIZED FREE ENERGY PREDICTED BY IDOCK:   -3.45 KCAL/MOL
REMARK 922        TOTAL FREE ENERGY PREDICTED BY IDOCK:   -4.36 KCAL/MOL
REMARK 923 INTER-LIGAND FREE ENERGY PREDICTED BY IDOCK:   -3.75 KCAL/MOL
REMARK 924 INTRA-LIGAND FREE ENERGY PREDICTED BY IDOCK:   -0.60 KCAL/MOL
REMARK 927      BINDING AFFINITY PREDICTED BY RF-SCORE:    0.00 PKD
ROOT
HETATM    1  C   UNL     1     -10.215   3.115  71.881  1.00  0.00     0.007 C  
HETATM    2  N   UNL     1      -9.305   4.217  71.700  1.00  0.00    -0.132 NA 
HETATM    3  C   UNL     1      -9.796   5.575  71.970  1.00  0.00    -0.166 C  
HETATM    4  C   UNL     1     -10.853   6.020  70.936  1.00  0.00    -0.349 C  
HETATM    5  C   UNL     1     -10.311   6.006  69.496  1.00  0.00    -0.233 C  
HETATM    6  C   UNL     1      -9.479   4.734  69.228  1.00  0.00    -0.221 C  
HETATM    7  O   UNL     1      -7.929   6.783  70.655  1.00  0.00    -0.107 OA 
HETATM    8  C   UNL     1      -8.577   4.324  70.428  1.00  0.00    -0.073 C  
HETATM    9  C   UNL     1      -8.436   6.258  71.881  1.00  0.00    -0.124 C  
HETATM   10  C   UNL     1      -7.632   5.417  70.907  1.00  0.00    -0.089 C  
ENDROOT
BRANCH   5  11
HETATM   11  O   UNL     1     -11.261   6.373  68.455  1.00  0.00    -0.328 OA 
BRANCH  11  12
HETATM   12  C   UNL     1     -10.940   6.373  67.148  1.00  0.00    -0.399 C  
HETATM   13  C   UNL     1     -10.074   8.801  67.609  1.00  0.00    -0.273 A  
HETATM   14  C   UNL     1     -10.074   7.558  66.714  1.00  0.00    -0.313 C  
HETATM   15  C   UNL     1      -8.688   6.997  66.351  1.00  0.00    -0.142 C  
HETATM   16  C   UNL     1     -11.167   9.688  67.553  1.00  0.00     0.159 A  
HETATM   17  O   UNL     1      -7.957   7.896  65.515  1.00  0.00    -0.104 OA 
HETATM   18  O   UNL     1     -11.281   5.484  66.367  1.00  0.00    -0.065 OA 
HETATM   19  C   UNL     1     -11.186  10.877  68.297  1.00  0.00    -0.347 A  
HETATM   20  H   UNL     1      -7.101   7.550  65.290  1.00  0.00     0.000 HD 
HETATM   21  C   UNL     1     -10.110  11.208  69.113  1.00  0.00    -0.134 A  
HETATM   22  C   UNL     1      -9.014  10.354  69.176  1.00  0.00    -0.188 A  
HETATM   23  C   UNL     1      -8.992   9.166  68.430  1.00  0.00    -0.133 A  
ENDBRANCH  11  12
ENDBRANCH   5  11
TORSDOF 2
ENDMDL
MODEL      204
REMARK 921   NORMALIZED FREE ENERGY PREDICTED BY IDOCK:   -3.42 KCAL/MOL
REMARK 922        TOTAL FREE ENERGY PREDICTED BY IDOCK:   -4.33 KCAL/MOL
REMARK 923 INTER-LIGAND FREE ENERGY PREDICTED BY IDOCK:   -3.58 KCAL/MOL
REMARK 924 INTRA-LIGAND FREE ENERGY PREDICTED BY IDOCK:   -0.75 KCAL/MOL
REMARK 927      BINDING AFFINITY PREDICTED BY RF-SCORE:    0.00 PKD
ROOT
HETATM    1  C   UNL     1      -5.637   1.986  68.423  1.00  0.00    -0.018 C  
HETATM    2  N   UNL     1      -5.504   3.347  67.970  1.00  0.00    -0.016 NA 
HETATM    3  C   UNL     1      -5.884   4.427  68.891  1.00  0.00    -0.022 C  
HETATM    4  C   UNL     1      -7.406   4.453  69.148  1.00  0.00    -0.055 C  
HETATM    5  C   UNL     1      -8.219   4.645  67.857  1.00  0.00    -0.099 C  
HETATM    6  C   UNL     1      -7.660   3.771  66.713  1.00  0.00    -0.080 C  
HETATM    7  O   UNL     1      -6.111   6.242  67.069  1.00  0.00    -0.023 OA 
HETATM    8  C   UNL     1      -6.106   3.719  66.682  1.00  0.00    -0.024 C  
HETATM    9  C   UNL     1      -5.324   5.563  68.045  1.00  0.00    -0.004 C  
HETATM   10  C   UNL     1      -5.432   5.083  66.610  1.00  0.00    -0.013 C  
ENDROOT
BRANCH   5  11
HETATM   11  O   UNL     1      -9.668   4.637  68.010  1.00  0.00    -0.152 OA 
BRANCH  11  12
HETATM   12  C   UNL     1     -10.482   5.384  67.240  1.00  0.00    -0.210 C  
HETATM   13  C   UNL     1     -10.694   6.905  69.362  1.00  0.00    -0.275 A  
HETATM   14  C   UNL     1     -10.850   6.740  67.846  1.00  0.00    -0.320 C  
HETATM   15  C   UNL     1     -10.175   7.821  66.985  1.00  0.00    -0.305 C  
HETATM   16  C   UNL     1     -11.669   6.353  70.216  1.00  0.00    -0.389 A  
HETATM   17  O   UNL     1     -10.795   9.096  67.153  1.00  0.00    -0.318 OA 
HETATM   18  O   UNL     1     -10.874   5.029  66.128  1.00  0.00    -0.294 OA 
HETATM   19  C   UNL     1     -11.613   6.534  71.606  1.00  0.00    -0.357 A  
HETATM   20  H   UNL     1     -10.379   9.764  66.622  1.00  0.00     0.000 HD 
HETATM   21  C   UNL     1     -10.583   7.277  72.174  1.00  0.00    -0.242 A  
HETATM   22  C   UNL     1      -9.616   7.842  71.349  1.00  0.00    -0.187 A  
HETATM   23  C   UNL     1      -9.672   7.663  69.959  1.00  0.00    -0.172 A  
ENDBRANCH  11  12
ENDBRANCH   5  11
TORSDOF 2
ENDMDL
MODEL      205
REMARK 921   NORMALIZED FREE ENERGY PREDICTED BY IDOCK:   -3.41 KCAL/MOL
REMARK 922        TOTAL FREE ENERGY PREDICTED BY IDOCK:   -4.31 KCAL/MOL
REMARK 923 INTER-LIGAND FREE ENERGY PREDICTED BY IDOCK:   -4.36 KCAL/MOL
REMARK 924 INTRA-LIGAND FREE ENERGY PREDICTED BY IDOCK:    0.05 KCAL/MOL
REMARK 927      BINDING AFFINITY PREDICTED BY RF-SCORE:    0.00 PKD
ROOT
HETATM    1  C   UNL     1     -11.388  14.989  70.592  1.00  0.00    -0.271 C  
HETATM    2  N   UNL     1     -10.981  15.721  69.420  1.00  0.00    -0.271 NA 
HETATM    3  C   UNL     1     -11.538  15.320  68.121  1.00  0.00    -0.330 C  
HETATM    4  C   UNL     1     -11.019  13.935  67.677  1.00  0.00    -0.278 C  
HETATM    5  C   UNL     1      -9.487  13.891  67.553  1.00  0.00    -0.216 C  
HETATM    6  C   UNL     1      -8.812  14.606  68.743  1.00  0.00    -0.166 C  
HETATM    7  O   UNL     1      -9.736  16.504  66.700  1.00  0.00    -0.237 OA 
HETATM    8  C   UNL     1      -9.545  15.908  69.175  1.00  0.00    -0.253 C  
HETATM    9  C   UNL     1     -11.008  16.519  67.343  1.00  0.00    -0.121 C  
HETATM   10  C   UNL     1      -9.732  16.924  68.056  1.00  0.00    -0.256 C  
ENDROOT
BRANCH   5  11
HETATM   11  O   UNL     1      -8.916  12.605  67.179  1.00  0.00    -0.191 OA 
BRANCH  11  12
HETATM   12  C   UNL     1      -7.629  12.286  67.417  1.00  0.00    -0.159 C  
HETATM   13  C   UNL     1      -8.529   9.837  67.641  1.00  0.00    -0.122 A  
HETATM   14  C   UNL     1      -7.344  10.783  67.419  1.00  0.00    -0.094 C  
HETATM   15  C   UNL     1      -6.473  10.485  66.187  1.00  0.00    -0.122 C  
HETATM   16  C   UNL     1      -9.031   9.658  68.945  1.00  0.00    -0.144 A  
HETATM   17  O   UNL     1      -5.772   9.247  66.321  1.00  0.00    -0.051 OA 
HETATM   18  O   UNL     1      -6.745  13.127  67.588  1.00  0.00    -0.136 OA 
HETATM   19  C   UNL     1     -10.066   8.752  69.215  1.00  0.00    -0.206 A  
HETATM   20  H   UNL     1      -5.235   9.063  65.561  1.00  0.00     0.000 HD 
HETATM   21  C   UNL     1     -10.623   7.999  68.186  1.00  0.00    -0.174 A  
HETATM   22  C   UNL     1     -10.135   8.149  66.892  1.00  0.00    -0.367 A  
HETATM   23  C   UNL     1      -9.098   9.054  66.621  1.00  0.00    -0.196 A  
ENDBRANCH  11  12
ENDBRANCH   5  11
TORSDOF 2
ENDMDL
MODEL      206
REMARK 921   NORMALIZED FREE ENERGY PREDICTED BY IDOCK:   -3.39 KCAL/MOL
REMARK 922        TOTAL FREE ENERGY PREDICTED BY IDOCK:   -4.29 KCAL/MOL
REMARK 923 INTER-LIGAND FREE ENERGY PREDICTED BY IDOCK:   -3.66 KCAL/MOL
REMARK 924 INTRA-LIGAND FREE ENERGY PREDICTED BY IDOCK:   -0.63 KCAL/MOL
REMARK 927      BINDING AFFINITY PREDICTED BY RF-SCORE:    0.00 PKD
ROOT
HETATM    1  C   UNL     1     -10.812  10.849  69.148  1.00  0.00    -0.235 C  
HETATM    2  N   UNL     1      -9.679  10.515  68.324  1.00  0.00    -0.150 NA 
HETATM    3  C   UNL     1      -9.930   9.927  67.001  1.00  0.00    -0.200 C  
HETATM    4  C   UNL     1     -10.521   8.505  67.108  1.00  0.00    -0.370 C  
HETATM    5  C   UNL     1      -9.600   7.539  67.871  1.00  0.00    -0.143 C  
HETATM    6  C   UNL     1      -9.012   8.210  69.131  1.00  0.00    -0.144 C  
HETATM    7  O   UNL     1      -7.551   8.968  66.697  1.00  0.00    -0.088 OA 
HETATM    8  C   UNL     1      -8.607   9.695  68.905  1.00  0.00    -0.127 C  
HETATM    9  C   UNL     1      -8.491  10.023  66.507  1.00  0.00    -0.126 C  
HETATM   10  C   UNL     1      -7.634   9.913  67.754  1.00  0.00    -0.090 C  
ENDROOT
BRANCH   5  11
HETATM   11  O   UNL     1     -10.107   6.185  68.053  1.00  0.00    -0.133 OA 
BRANCH  11  12
HETATM   12  C   UNL     1     -10.739   5.793  69.175  1.00  0.00    -0.300 C  
HETATM   13  C   UNL     1      -9.017   3.820  69.165  1.00  0.00    -0.176 A  
HETATM   14  C   UNL     1     -10.027   4.674  69.939  1.00  0.00    -0.296 C  
HETATM   15  C   UNL     1      -9.517   5.279  71.258  1.00  0.00    -0.151 C  
HETATM   16  C   UNL     1      -9.488   2.814  68.300  1.00  0.00    -0.216 A  
HETATM   17  O   UNL     1      -9.256   4.271  72.236  1.00  0.00    -0.114 OA 
HETATM   18  O   UNL     1     -11.784   6.305  69.577  1.00  0.00    -0.360 OA 
HETATM   19  C   UNL     1      -8.608   1.957  67.623  1.00  0.00    -0.106 A  
HETATM   20  H   UNL     1      -8.942   4.644  73.051  1.00  0.00     0.000 HD 
HETATM   21  C   UNL     1      -7.234   2.084  67.799  1.00  0.00    -0.047 A  
HETATM   22  C   UNL     1      -6.745   3.062  68.659  1.00  0.00    -0.040 A  
HETATM   23  C   UNL     1      -7.624   3.918  69.338  1.00  0.00    -0.053 A  
ENDBRANCH  11  12
ENDBRANCH   5  11
TORSDOF 2
ENDMDL
MODEL      207
REMARK 921   NORMALIZED FREE ENERGY PREDICTED BY IDOCK:   -3.36 KCAL/MOL
REMARK 922        TOTAL FREE ENERGY PREDICTED BY IDOCK:   -4.25 KCAL/MOL
REMARK 923 INTER-LIGAND FREE ENERGY PREDICTED BY IDOCK:   -3.65 KCAL/MOL
REMARK 924 INTRA-LIGAND FREE ENERGY PREDICTED BY IDOCK:   -0.61 KCAL/MOL
REMARK 927      BINDING AFFINITY PREDICTED BY RF-SCORE:    0.00 PKD
ROOT
HETATM    1  C   UNL     1      -6.654   2.085  69.085  1.00  0.00    -0.029 C  
HETATM    2  N   UNL     1      -6.483   2.476  70.461  1.00  0.00    -0.027 NA 
HETATM    3  C   UNL     1      -7.407   1.925  71.461  1.00  0.00    -0.032 C  
HETATM    4  C   UNL     1      -8.841   2.469  71.279  1.00  0.00    -0.130 C  
HETATM    5  C   UNL     1      -8.909   4.001  71.387  1.00  0.00    -0.104 C  
HETATM    6  C   UNL     1      -7.746   4.665  70.619  1.00  0.00    -0.054 C  
HETATM    7  O   UNL     1      -6.911   3.703  73.267  1.00  0.00    -0.037 OA 
HETATM    8  C   UNL     1      -6.395   3.909  70.776  1.00  0.00    -0.022 C  
HETATM    9  C   UNL     1      -6.645   2.431  72.679  1.00  0.00    -0.018 C  
HETATM   10  C   UNL     1      -5.954   3.701  72.218  1.00  0.00    -0.009 C  
ENDROOT
BRANCH   5  11
HETATM   11  O   UNL     1     -10.223   4.596  71.184  1.00  0.00    -0.192 OA 
BRANCH  11  12
HETATM   12  C   UNL     1     -10.656   5.656  71.891  1.00  0.00    -0.232 C  
HETATM   13  C   UNL     1     -10.600   6.908  69.592  1.00  0.00    -0.258 A  
HETATM   14  C   UNL     1     -11.111   6.840  71.035  1.00  0.00    -0.317 C  
HETATM   15  C   UNL     1     -12.633   6.969  71.211  1.00  0.00    -0.373 C  
HETATM   16  C   UNL     1      -9.283   7.345  69.348  1.00  0.00    -0.145 A  
HETATM   17  O   UNL     1     -13.098   8.271  70.851  1.00  0.00    -0.503 OA 
HETATM   18  O   UNL     1     -10.716   5.670  73.121  1.00  0.00    -0.230 OA 
HETATM   19  C   UNL     1      -8.789   7.494  68.044  1.00  0.00    -0.127 A  
HETATM   20  H   UNL     1     -14.039   8.352  70.960  1.00  0.00     0.000 HD 
HETATM   21  C   UNL     1      -9.601   7.212  66.952  1.00  0.00    -0.216 A  
HETATM   22  C   UNL     1     -10.910   6.789  67.166  1.00  0.00    -0.462 A  
HETATM   23  C   UNL     1     -11.406   6.643  68.470  1.00  0.00    -0.128 A  
ENDBRANCH  11  12
ENDBRANCH   5  11
TORSDOF 2
ENDMDL
MODEL      208
REMARK 921   NORMALIZED FREE ENERGY PREDICTED BY IDOCK:   -3.33 KCAL/MOL
REMARK 922        TOTAL FREE ENERGY PREDICTED BY IDOCK:   -4.23 KCAL/MOL
REMARK 923 INTER-LIGAND FREE ENERGY PREDICTED BY IDOCK:   -3.65 KCAL/MOL
REMARK 924 INTRA-LIGAND FREE ENERGY PREDICTED BY IDOCK:   -0.58 KCAL/MOL
REMARK 927      BINDING AFFINITY PREDICTED BY RF-SCORE:    0.00 PKD
ROOT
HETATM    1  C   UNL     1      -6.676   2.881  70.145  1.00  0.00    -0.033 C  
HETATM    2  N   UNL     1      -6.549   3.940  71.114  1.00  0.00    -0.026 NA 
HETATM    3  C   UNL     1      -7.323   3.841  72.358  1.00  0.00    -0.050 C  
HETATM    4  C   UNL     1      -8.840   3.988  72.103  1.00  0.00    -0.129 C  
HETATM    5  C   UNL     1      -9.200   5.330  71.445  1.00  0.00    -0.146 C  
HETATM    6  C   UNL     1      -8.206   5.680  70.316  1.00  0.00    -0.104 C  
HETATM    7  O   UNL     1      -7.134   6.343  72.971  1.00  0.00    -0.081 OA 
HETATM    8  C   UNL     1      -6.731   5.327  70.664  1.00  0.00    -0.043 C  
HETATM    9  C   UNL     1      -6.643   5.007  73.064  1.00  0.00    -0.061 C  
HETATM   10  C   UNL     1      -6.222   5.953  71.955  1.00  0.00    -0.044 C  
ENDROOT
BRANCH   5  11
HETATM   11  O   UNL     1     -10.608   5.529  71.133  1.00  0.00    -0.240 OA 
BRANCH  11  12
HETATM   12  C   UNL     1     -11.464   6.123  71.987  1.00  0.00    -0.313 C  
HETATM   13  C   UNL     1     -10.562   8.355  70.956  1.00  0.00    -0.258 A  
HETATM   14  C   UNL     1     -11.652   7.622  71.746  1.00  0.00    -0.307 C  
HETATM   15  C   UNL     1     -13.091   7.824  71.243  1.00  0.00    -0.206 C  
HETATM   16  C   UNL     1      -9.357   8.696  71.601  1.00  0.00    -0.333 A  
HETATM   17  O   UNL     1     -13.530   9.171  71.421  1.00  0.00    -0.418 OA 
HETATM   18  O   UNL     1     -12.071   5.514  72.868  1.00  0.00    -0.155 OA 
HETATM   19  C   UNL     1      -8.356   9.429  70.946  1.00  0.00    -0.112 A  
HETATM   20  H   UNL     1     -14.419   9.296  71.110  1.00  0.00     0.000 HD 
HETATM   21  C   UNL     1      -8.539   9.842  69.631  1.00  0.00    -0.207 A  
HETATM   22  C   UNL     1      -9.727   9.529  68.977  1.00  0.00    -0.170 A  
HETATM   23  C   UNL     1     -10.729   8.798  69.632  1.00  0.00    -0.212 A  
ENDBRANCH  11  12
ENDBRANCH   5  11
TORSDOF 2
ENDMDL
MODEL      209
REMARK 921   NORMALIZED FREE ENERGY PREDICTED BY IDOCK:   -3.33 KCAL/MOL
REMARK 922        TOTAL FREE ENERGY PREDICTED BY IDOCK:   -4.23 KCAL/MOL
REMARK 923 INTER-LIGAND FREE ENERGY PREDICTED BY IDOCK:   -3.57 KCAL/MOL
REMARK 924 INTRA-LIGAND FREE ENERGY PREDICTED BY IDOCK:   -0.66 KCAL/MOL
REMARK 927      BINDING AFFINITY PREDICTED BY RF-SCORE:    0.00 PKD
ROOT
HETATM    1  C   UNL     1     -11.222  10.426  70.349  1.00  0.00    -0.321 C  
HETATM    2  N   UNL     1     -10.372  10.619  69.201  1.00  0.00    -0.212 NA 
HETATM    3  C   UNL     1     -10.628   9.809  68.003  1.00  0.00    -0.243 C  
HETATM    4  C   UNL     1     -10.307   8.317  68.238  1.00  0.00    -0.242 C  
HETATM    5  C   UNL     1      -8.841   8.086  68.642  1.00  0.00    -0.134 C  
HETATM    6  C   UNL     1      -8.379   9.132  69.679  1.00  0.00    -0.130 C  
HETATM    7  O   UNL     1      -8.306  10.193  66.940  1.00  0.00    -0.121 OA 
HETATM    8  C   UNL     1      -8.916  10.564  69.391  1.00  0.00    -0.093 C  
HETATM    9  C   UNL     1      -9.673  10.568  67.090  1.00  0.00    -0.171 C  
HETATM   10  C   UNL     1      -8.581  11.093  68.003  1.00  0.00    -0.140 C  
ENDROOT
BRANCH   5  11
HETATM   11  O   UNL     1      -8.468   6.707  68.924  1.00  0.00    -0.122 OA 
BRANCH  11  12
HETATM   12  C   UNL     1      -9.178   5.919  69.754  1.00  0.00    -0.145 C  
HETATM   13  C   UNL     1      -9.545   4.429  67.632  1.00  0.00    -0.212 A  
HETATM   14  C   UNL     1      -9.558   4.562  69.158  1.00  0.00    -0.251 C  
HETATM   15  C   UNL     1      -8.767   3.491  69.928  1.00  0.00    -0.079 C  
HETATM   16  C   UNL     1     -10.616   4.961  66.887  1.00  0.00    -0.119 A  
HETATM   17  O   UNL     1      -9.359   2.198  69.794  1.00  0.00    -0.111 OA 
HETATM   18  O   UNL     1      -9.472   6.241  70.905  1.00  0.00    -0.170 OA 
HETATM   19  C   UNL     1     -10.690   4.805  65.495  1.00  0.00    -0.140 A  
HETATM   20  H   UNL     1      -8.870   1.536  70.270  1.00  0.00     0.000 HD 
HETATM   21  C   UNL     1      -9.696   4.109  64.815  1.00  0.00    -0.187 A  
HETATM   22  C   UNL     1      -8.635   3.563  65.531  1.00  0.00    -0.114 A  
HETATM   23  C   UNL     1      -8.561   3.717  66.924  1.00  0.00    -0.112 A  
ENDBRANCH  11  12
ENDBRANCH   5  11
TORSDOF 2
ENDMDL
MODEL      210
REMARK 921   NORMALIZED FREE ENERGY PREDICTED BY IDOCK:   -3.29 KCAL/MOL
REMARK 922        TOTAL FREE ENERGY PREDICTED BY IDOCK:   -4.18 KCAL/MOL
REMARK 923 INTER-LIGAND FREE ENERGY PREDICTED BY IDOCK:   -4.57 KCAL/MOL
REMARK 924 INTRA-LIGAND FREE ENERGY PREDICTED BY IDOCK:    0.39 KCAL/MOL
REMARK 927      BINDING AFFINITY PREDICTED BY RF-SCORE:    0.00 PKD
ROOT
HETATM    1  C   UNL     1     -11.012  14.506  68.907  1.00  0.00    -0.256 C  
HETATM    2  N   UNL     1     -11.009  13.898  67.601  1.00  0.00    -0.261 NA 
HETATM    3  C   UNL     1     -11.905  12.758  67.363  1.00  0.00    -0.342 C  
HETATM    4  C   UNL     1     -11.472  11.510  68.162  1.00  0.00    -0.385 C  
HETATM    5  C   UNL     1     -10.046  11.052  67.814  1.00  0.00    -0.177 C  
HETATM    6  C   UNL     1      -9.085  12.257  67.712  1.00  0.00    -0.191 C  
HETATM    7  O   UNL     1     -10.669  11.902  65.263  1.00  0.00    -0.267 OA 
HETATM    8  C   UNL     1      -9.722  13.495  67.018  1.00  0.00    -0.251 C  
HETATM    9  C   UNL     1     -11.692  12.699  65.855  1.00  0.00    -0.420 C  
HETATM   10  C   UNL     1     -10.284  13.218  65.631  1.00  0.00    -0.289 C  
ENDROOT
BRANCH   5  11
HETATM   11  O   UNL     1      -9.546   9.904  68.558  1.00  0.00    -0.149 OA 
BRANCH  11  12
HETATM   12  C   UNL     1     -10.139   9.453  69.680  1.00  0.00    -0.206 C  
HETATM   13  C   UNL     1      -8.854   7.228  69.175  1.00  0.00    -0.136 A  
HETATM   14  C   UNL     1      -9.598   8.112  70.181  1.00  0.00    -0.168 C  
HETATM   15  C   UNL     1      -8.860   8.387  71.502  1.00  0.00    -0.185 C  
HETATM   16  C   UNL     1      -9.595   6.483  68.236  1.00  0.00    -0.131 A  
HETATM   17  O   UNL     1      -8.717   7.200  72.285  1.00  0.00    -0.120 OA 
HETATM   18  O   UNL     1     -11.019  10.075  70.276  1.00  0.00    -0.271 OA 
HETATM   19  C   UNL     1      -8.970   5.603  67.340  1.00  0.00    -0.107 A  
HETATM   20  H   UNL     1      -8.261   7.368  73.101  1.00  0.00     0.000 HD 
HETATM   21  C   UNL     1      -7.588   5.445  67.364  1.00  0.00    -0.088 A  
HETATM   22  C   UNL     1      -6.837   6.161  68.291  1.00  0.00    -0.074 A  
HETATM   23  C   UNL     1      -7.461   7.039  69.189  1.00  0.00    -0.095 A  
ENDBRANCH  11  12
ENDBRANCH   5  11
TORSDOF 2
ENDMDL
MODEL      211
REMARK 921   NORMALIZED FREE ENERGY PREDICTED BY IDOCK:   -3.23 KCAL/MOL
REMARK 922        TOTAL FREE ENERGY PREDICTED BY IDOCK:   -4.12 KCAL/MOL
REMARK 923 INTER-LIGAND FREE ENERGY PREDICTED BY IDOCK:   -3.87 KCAL/MOL
REMARK 924 INTRA-LIGAND FREE ENERGY PREDICTED BY IDOCK:   -0.25 KCAL/MOL
REMARK 927      BINDING AFFINITY PREDICTED BY RF-SCORE:    0.00 PKD
ROOT
HETATM    1  C   UNL     1      -9.005   4.707  64.214  1.00  0.00    -0.136 C  
HETATM    2  N   UNL     1      -8.923   4.154  65.541  1.00  0.00    -0.126 NA 
HETATM    3  C   UNL     1     -10.014   4.440  66.483  1.00  0.00    -0.223 C  
HETATM    4  C   UNL     1     -10.044   5.930  66.891  1.00  0.00    -0.228 C  
HETATM    5  C   UNL     1      -8.735   6.386  67.555  1.00  0.00    -0.113 C  
HETATM    6  C   UNL     1      -7.506   5.833  66.800  1.00  0.00    -0.084 C  
HETATM    7  O   UNL     1      -8.677   3.835  68.608  1.00  0.00    -0.090 OA 
HETATM    8  C   UNL     1      -7.691   4.367  66.314  1.00  0.00    -0.094 C  
HETATM    9  C   UNL     1      -9.562   3.457  67.555  1.00  0.00    -0.101 C  
HETATM   10  C   UNL     1      -8.054   3.380  67.416  1.00  0.00    -0.082 C  
ENDROOT
BRANCH   5  11
HETATM   11  O   UNL     1      -8.667   7.791  67.931  1.00  0.00    -0.125 OA 
BRANCH  11  12
HETATM   12  C   UNL     1      -7.690   8.286  68.715  1.00  0.00    -0.114 C  
HETATM   13  C   UNL     1      -9.643   9.491  69.976  1.00  0.00    -0.272 A  
HETATM   14  C   UNL     1      -8.193   8.997  69.973  1.00  0.00    -0.128 C  
HETATM   15  C   UNL     1      -7.779   8.134  71.178  1.00  0.00    -0.091 C  
HETATM   16  C   UNL     1      -9.968  10.672  69.281  1.00  0.00    -0.215 A  
HETATM   17  O   UNL     1      -7.775   8.887  72.391  1.00  0.00    -0.360 OA 
HETATM   18  O   UNL     1      -6.491   8.154  68.465  1.00  0.00    -0.051 OA 
HETATM   19  C   UNL     1     -11.265  11.207  69.309  1.00  0.00    -0.331 A  
HETATM   20  H   UNL     1      -7.520   8.355  73.135  1.00  0.00     0.000 HD 
HETATM   21  C   UNL     1     -12.266  10.575  70.038  1.00  0.00    -0.323 A  
HETATM   22  C   UNL     1     -11.967   9.413  70.743  1.00  0.00    -0.298 A  
HETATM   23  C   UNL     1     -10.670   8.879  70.717  1.00  0.00    -0.287 A  
ENDBRANCH  11  12
ENDBRANCH   5  11
TORSDOF 2
ENDMDL
MODEL      212
REMARK 921   NORMALIZED FREE ENERGY PREDICTED BY IDOCK:   -3.23 KCAL/MOL
REMARK 922        TOTAL FREE ENERGY PREDICTED BY IDOCK:   -4.11 KCAL/MOL
REMARK 923 INTER-LIGAND FREE ENERGY PREDICTED BY IDOCK:   -3.43 KCAL/MOL
REMARK 924 INTRA-LIGAND FREE ENERGY PREDICTED BY IDOCK:   -0.68 KCAL/MOL
REMARK 927      BINDING AFFINITY PREDICTED BY RF-SCORE:    0.00 PKD
ROOT
HETATM    1  C   UNL     1      -8.952   7.670  66.356  1.00  0.00    -0.167 C  
HETATM    2  N   UNL     1      -9.012   6.257  66.081  1.00  0.00    -0.156 NA 
HETATM    3  C   UNL     1     -10.306   5.575  66.221  1.00  0.00    -0.163 C  
HETATM    4  C   UNL     1     -10.764   5.510  67.695  1.00  0.00    -0.198 C  
HETATM    5  C   UNL     1      -9.757   4.771  68.593  1.00  0.00    -0.157 C  
HETATM    6  C   UNL     1      -8.308   5.194  68.269  1.00  0.00    -0.096 C  
HETATM    7  O   UNL     1      -9.321   3.193  66.370  1.00  0.00    -0.157 OA 
HETATM    8  C   UNL     1      -8.045   5.372  66.745  1.00  0.00    -0.105 C  
HETATM    9  C   UNL     1      -9.864   4.259  65.594  1.00  0.00    -0.218 C  
HETATM   10  C   UNL     1      -8.382   4.150  65.902  1.00  0.00    -0.109 C  
ENDROOT
BRANCH   5  11
HETATM   11  O   UNL     1     -10.096   4.703  70.007  1.00  0.00    -0.238 OA 
BRANCH  11  12
HETATM   12  C   UNL     1      -9.716   3.678  70.795  1.00  0.00    -0.152 C  
HETATM   13  C   UNL     1      -8.851   5.554  72.404  1.00  0.00    -0.135 A  
HETATM   14  C   UNL     1      -9.275   4.096  72.200  1.00  0.00    -0.166 C  
HETATM   15  C   UNL     1     -10.330   3.564  73.184  1.00  0.00    -0.162 C  
HETATM   16  C   UNL     1      -7.575   5.966  71.972  1.00  0.00    -0.097 A  
HETATM   17  O   UNL     1      -9.817   3.481  74.515  1.00  0.00    -0.114 OA 
HETATM   18  O   UNL     1      -9.749   2.501  70.436  1.00  0.00    -0.092 OA 
HETATM   19  C   UNL     1      -7.108   7.269  72.198  1.00  0.00    -0.067 A  
HETATM   20  H   UNL     1     -10.468   3.152  75.123  1.00  0.00     0.000 HD 
HETATM   21  C   UNL     1      -7.906   8.192  72.866  1.00  0.00    -0.202 A  
HETATM   22  C   UNL     1      -9.166   7.805  73.314  1.00  0.00    -0.318 A  
HETATM   23  C   UNL     1      -9.632   6.501  73.090  1.00  0.00    -0.164 A  
ENDBRANCH  11  12
ENDBRANCH   5  11
TORSDOF 2
ENDMDL
MODEL      213
REMARK 921   NORMALIZED FREE ENERGY PREDICTED BY IDOCK:   -3.23 KCAL/MOL
REMARK 922        TOTAL FREE ENERGY PREDICTED BY IDOCK:   -4.11 KCAL/MOL
REMARK 923 INTER-LIGAND FREE ENERGY PREDICTED BY IDOCK:   -3.58 KCAL/MOL
REMARK 924 INTRA-LIGAND FREE ENERGY PREDICTED BY IDOCK:   -0.53 KCAL/MOL
REMARK 927      BINDING AFFINITY PREDICTED BY RF-SCORE:    0.00 PKD
ROOT
HETATM    1  C   UNL     1      -5.906   8.264  64.675  1.00  0.00    -0.048 C  
HETATM    2  N   UNL     1      -7.155   8.982  64.699  1.00  0.00    -0.088 NA 
HETATM    3  C   UNL     1      -7.249  10.186  65.534  1.00  0.00    -0.142 C  
HETATM    4  C   UNL     1      -7.188   9.847  67.040  1.00  0.00    -0.090 C  
HETATM    5  C   UNL     1      -8.316   8.897  67.476  1.00  0.00    -0.109 C  
HETATM    6  C   UNL     1      -8.512   7.759  66.452  1.00  0.00    -0.136 C  
HETATM    7  O   UNL     1      -9.830  10.244  65.601  1.00  0.00    -0.231 OA 
HETATM    8  C   UNL     1      -8.388   8.232  64.975  1.00  0.00    -0.148 C  
HETATM    9  C   UNL     1      -8.601  10.646  65.001  1.00  0.00    -0.160 C  
HETATM   10  C   UNL     1      -9.324   9.374  64.600  1.00  0.00    -0.044 C  
ENDROOT
BRANCH   5  11
HETATM   11  O   UNL     1      -8.303   8.494  68.876  1.00  0.00    -0.116 OA 
BRANCH  11  12
HETATM   12  C   UNL     1      -7.506   7.514  69.341  1.00  0.00    -0.087 C  
HETATM   13  C   UNL     1      -9.591   6.824  70.766  1.00  0.00    -0.173 A  
HETATM   14  C   UNL     1      -8.234   6.449  70.163  1.00  0.00    -0.129 C  
HETATM   15  C   UNL     1      -8.204   5.146  69.346  1.00  0.00    -0.087 C  
HETATM   16  C   UNL     1      -9.631   7.625  71.924  1.00  0.00    -0.191 A  
HETATM   17  O   UNL     1      -8.427   4.000  70.169  1.00  0.00    -0.063 OA 
HETATM   18  O   UNL     1      -6.299   7.454  69.103  1.00  0.00    -0.034 OA 
HETATM   19  C   UNL     1     -10.842   7.939  72.558  1.00  0.00    -0.403 A  
HETATM   20  H   UNL     1      -8.409   3.195  69.665  1.00  0.00     0.000 HD 
HETATM   21  C   UNL     1     -12.043   7.457  72.050  1.00  0.00    -0.325 A  
HETATM   22  C   UNL     1     -12.029   6.653  70.914  1.00  0.00    -0.413 A  
HETATM   23  C   UNL     1     -10.818   6.337  70.281  1.00  0.00    -0.366 A  
ENDBRANCH  11  12
ENDBRANCH   5  11
TORSDOF 2
ENDMDL
MODEL      214
REMARK 921   NORMALIZED FREE ENERGY PREDICTED BY IDOCK:   -3.23 KCAL/MOL
REMARK 922        TOTAL FREE ENERGY PREDICTED BY IDOCK:   -4.11 KCAL/MOL
REMARK 923 INTER-LIGAND FREE ENERGY PREDICTED BY IDOCK:   -3.31 KCAL/MOL
REMARK 924 INTRA-LIGAND FREE ENERGY PREDICTED BY IDOCK:   -0.80 KCAL/MOL
REMARK 927      BINDING AFFINITY PREDICTED BY RF-SCORE:    0.00 PKD
ROOT
HETATM    1  C   UNL     1      -5.503   3.096  68.845  1.00  0.00    -0.013 C  
HETATM    2  N   UNL     1      -5.597   4.431  68.312  1.00  0.00    -0.016 NA 
HETATM    3  C   UNL     1      -5.850   5.536  69.245  1.00  0.00    -0.016 C  
HETATM    4  C   UNL     1      -7.269   5.465  69.850  1.00  0.00    -0.064 C  
HETATM    5  C   UNL     1      -8.370   5.511  68.777  1.00  0.00    -0.102 C  
HETATM    6  C   UNL     1      -8.013   4.610  67.575  1.00  0.00    -0.097 C  
HETATM    7  O   UNL     1      -6.647   7.208  67.446  1.00  0.00    -0.054 OA 
HETATM    8  C   UNL     1      -6.508   4.672  67.184  1.00  0.00    -0.042 C  
HETATM    9  C   UNL     1      -5.601   6.655  68.241  1.00  0.00    -0.016 C  
HETATM   10  C   UNL     1      -5.992   6.075  66.895  1.00  0.00    -0.018 C  
ENDROOT
BRANCH   5  11
HETATM   11  O   UNL     1      -9.738   5.406  69.263  1.00  0.00    -0.140 OA 
BRANCH  11  12
HETATM   12  C   UNL     1     -10.630   6.408  69.144  1.00  0.00    -0.255 C  
HETATM   13  C   UNL     1     -10.529   6.485  71.760  1.00  0.00    -0.239 A  
HETATM   14  C   UNL     1     -10.886   7.179  70.441  1.00  0.00    -0.269 C  
HETATM   15  C   UNL     1     -10.306   8.591  70.252  1.00  0.00    -0.205 C  
HETATM   16  C   UNL     1     -11.395   5.499  72.274  1.00  0.00    -0.257 A  
HETATM   17  O   UNL     1     -10.871   9.523  71.175  1.00  0.00    -0.315 OA 
HETATM   18  O   UNL     1     -11.173   6.707  68.080  1.00  0.00    -0.239 OA 
HETATM   19  C   UNL     1     -11.154   4.884  73.511  1.00  0.00    -0.405 A  
HETATM   20  H   UNL     1     -10.513  10.395  71.058  1.00  0.00     0.000 HD 
HETATM   21  C   UNL     1     -10.042   5.243  74.266  1.00  0.00    -0.262 A  
HETATM   22  C   UNL     1      -9.179   6.223  73.785  1.00  0.00    -0.139 A  
HETATM   23  C   UNL     1      -9.421   6.840  72.549  1.00  0.00    -0.151 A  
ENDBRANCH  11  12
ENDBRANCH   5  11
TORSDOF 2
ENDMDL
MODEL      215
REMARK 921   NORMALIZED FREE ENERGY PREDICTED BY IDOCK:   -3.21 KCAL/MOL
REMARK 922        TOTAL FREE ENERGY PREDICTED BY IDOCK:   -4.09 KCAL/MOL
REMARK 923 INTER-LIGAND FREE ENERGY PREDICTED BY IDOCK:   -3.39 KCAL/MOL
REMARK 924 INTRA-LIGAND FREE ENERGY PREDICTED BY IDOCK:   -0.70 KCAL/MOL
REMARK 927      BINDING AFFINITY PREDICTED BY RF-SCORE:    0.00 PKD
ROOT
HETATM    1  C   UNL     1      -5.923   3.846  70.803  1.00  0.00    -0.014 C  
HETATM    2  N   UNL     1      -7.357   3.960  70.720  1.00  0.00    -0.040 NA 
HETATM    3  C   UNL     1      -8.026   3.452  69.515  1.00  0.00    -0.049 C  
HETATM    4  C   UNL     1      -7.688   4.302  68.270  1.00  0.00    -0.075 C  
HETATM    5  C   UNL     1      -8.095   5.776  68.434  1.00  0.00    -0.108 C  
HETATM    6  C   UNL     1      -7.719   6.304  69.835  1.00  0.00    -0.105 C  
HETATM    7  O   UNL     1     -10.221   4.764  69.875  1.00  0.00    -0.252 OA 
HETATM    8  C   UNL     1      -7.971   5.271  70.971  1.00  0.00    -0.103 C  
HETATM    9  C   UNL     1      -9.445   3.581  70.053  1.00  0.00    -0.183 C  
HETATM   10  C   UNL     1      -9.397   4.739  71.031  1.00  0.00    -0.148 C  
ENDROOT
BRANCH   5  11
HETATM   11  O   UNL     1      -7.771   6.654  67.318  1.00  0.00    -0.101 OA 
BRANCH  11  12
HETATM   12  C   UNL     1      -8.580   6.798  66.251  1.00  0.00    -0.139 C  
HETATM   13  C   UNL     1      -9.707   8.692  67.664  1.00  0.00    -0.201 A  
HETATM   14  C   UNL     1      -9.465   8.045  66.296  1.00  0.00    -0.241 C  
HETATM   15  C   UNL     1      -8.972   8.992  65.188  1.00  0.00    -0.165 C  
HETATM   16  C   UNL     1     -10.634   8.105  68.547  1.00  0.00    -0.142 A  
HETATM   17  O   UNL     1      -9.969   9.949  64.828  1.00  0.00    -0.395 OA 
HETATM   18  O   UNL     1      -8.589   6.015  65.300  1.00  0.00    -0.151 OA 
HETATM   19  C   UNL     1     -10.947   8.695  69.781  1.00  0.00    -0.132 A  
HETATM   20  H   UNL     1      -9.666  10.534  64.144  1.00  0.00     0.000 HD 
HETATM   21  C   UNL     1     -10.342   9.888  70.159  1.00  0.00    -0.336 A  
HETATM   22  C   UNL     1      -9.432  10.494  69.298  1.00  0.00    -0.191 A  
HETATM   23  C   UNL     1      -9.120   9.906  68.063  1.00  0.00    -0.123 A  
ENDBRANCH  11  12
ENDBRANCH   5  11
TORSDOF 2
ENDMDL
MODEL      216
REMARK 921   NORMALIZED FREE ENERGY PREDICTED BY IDOCK:   -3.20 KCAL/MOL
REMARK 922        TOTAL FREE ENERGY PREDICTED BY IDOCK:   -4.08 KCAL/MOL
REMARK 923 INTER-LIGAND FREE ENERGY PREDICTED BY IDOCK:   -3.78 KCAL/MOL
REMARK 924 INTRA-LIGAND FREE ENERGY PREDICTED BY IDOCK:   -0.30 KCAL/MOL
REMARK 927      BINDING AFFINITY PREDICTED BY RF-SCORE:    0.00 PKD
ROOT
HETATM    1  C   UNL     1      -8.223   1.776  66.337  1.00  0.00    -0.085 C  
HETATM    2  N   UNL     1      -7.830   3.162  66.345  1.00  0.00    -0.077 NA 
HETATM    3  C   UNL     1      -7.129   3.679  67.527  1.00  0.00    -0.059 C  
HETATM    4  C   UNL     1      -8.051   3.728  68.765  1.00  0.00    -0.076 C  
HETATM    5  C   UNL     1      -9.289   4.613  68.544  1.00  0.00    -0.138 C  
HETATM    6  C   UNL     1      -9.907   4.366  67.150  1.00  0.00    -0.217 C  
HETATM    7  O   UNL     1      -7.590   6.170  67.024  1.00  0.00    -0.092 OA 
HETATM    8  C   UNL     1      -8.843   4.179  66.030  1.00  0.00    -0.121 C  
HETATM    9  C   UNL     1      -6.751   5.022  66.915  1.00  0.00    -0.055 C  
HETATM   10  C   UNL     1      -7.847   5.325  65.911  1.00  0.00    -0.103 C  
ENDROOT
BRANCH   5  11
HETATM   11  O   UNL     1     -10.232   4.678  69.652  1.00  0.00    -0.221 OA 
BRANCH  11  12
HETATM   12  C   UNL     1      -9.858   4.499  70.933  1.00  0.00    -0.199 C  
HETATM   13  C   UNL     1     -10.052   7.105  71.100  1.00  0.00    -0.193 A  
HETATM   14  C   UNL     1      -9.995   5.747  71.808  1.00  0.00    -0.209 C  
HETATM   15  C   UNL     1     -11.123   5.472  72.817  1.00  0.00    -0.291 C  
HETATM   16  C   UNL     1      -8.860   7.678  70.616  1.00  0.00    -0.145 A  
HETATM   17  O   UNL     1     -11.040   6.338  73.950  1.00  0.00    -0.367 OA 
HETATM   18  O   UNL     1      -9.470   3.419  71.379  1.00  0.00    -0.129 OA 
HETATM   19  C   UNL     1      -8.844   8.950  70.024  1.00  0.00    -0.165 A  
HETATM   20  H   UNL     1     -11.737   6.169  74.574  1.00  0.00     0.000 HD 
HETATM   21  C   UNL     1     -10.021   9.681  69.907  1.00  0.00    -0.273 A  
HETATM   22  C   UNL     1     -11.209   9.141  70.390  1.00  0.00    -0.279 A  
HETATM   23  C   UNL     1     -11.226   7.870  70.983  1.00  0.00    -0.288 A  
ENDBRANCH  11  12
ENDBRANCH   5  11
TORSDOF 2
ENDMDL
MODEL      217
REMARK 921   NORMALIZED FREE ENERGY PREDICTED BY IDOCK:   -3.16 KCAL/MOL
REMARK 922        TOTAL FREE ENERGY PREDICTED BY IDOCK:   -4.04 KCAL/MOL
REMARK 923 INTER-LIGAND FREE ENERGY PREDICTED BY IDOCK:   -3.77 KCAL/MOL
REMARK 924 INTRA-LIGAND FREE ENERGY PREDICTED BY IDOCK:   -0.27 KCAL/MOL
REMARK 927      BINDING AFFINITY PREDICTED BY RF-SCORE:    0.00 PKD
ROOT
HETATM    1  C   UNL     1     -11.121   5.591  72.788  1.00  0.00    -0.291 C  
HETATM    2  N   UNL     1     -11.847   6.804  72.512  1.00  0.00    -0.169 NA 
HETATM    3  C   UNL     1     -12.684   6.854  71.305  1.00  0.00    -0.315 C  
HETATM    4  C   UNL     1     -11.834   6.833  70.016  1.00  0.00    -0.265 C  
HETATM    5  C   UNL     1     -10.850   8.013  69.939  1.00  0.00    -0.217 C  
HETATM    6  C   UNL     1     -10.156   8.246  71.299  1.00  0.00    -0.249 C  
HETATM    7  O   UNL     1     -12.845   9.430  71.217  1.00  0.00    -0.324 OA 
HETATM    8  C   UNL     1     -11.112   8.076  72.515  1.00  0.00    -0.375 C  
HETATM    9  C   UNL     1     -13.369   8.173  71.640  1.00  0.00    -0.331 C  
HETATM   10  C   UNL     1     -12.358   8.950  72.462  1.00  0.00    -0.255 C  
ENDROOT
BRANCH   5  11
HETATM   11  O   UNL     1      -9.981   8.042  68.771  1.00  0.00    -0.178 OA 
BRANCH  11  12
HETATM   12  C   UNL     1      -9.291   9.140  68.408  1.00  0.00    -0.135 C  
HETATM   13  C   UNL     1      -7.216   7.856  69.357  1.00  0.00    -0.079 A  
HETATM   14  C   UNL     1      -7.771   8.978  68.474  1.00  0.00    -0.097 C  
HETATM   15  C   UNL     1      -7.248   9.010  67.028  1.00  0.00    -0.086 C  
HETATM   16  C   UNL     1      -7.173   8.038  70.754  1.00  0.00    -0.053 A  
HETATM   17  O   UNL     1      -5.856   9.328  66.976  1.00  0.00    -0.044 OA 
HETATM   18  O   UNL     1      -9.829  10.179  68.023  1.00  0.00    -0.145 OA 
HETATM   19  C   UNL     1      -6.610   7.073  71.602  1.00  0.00    -0.048 A  
HETATM   20  H   UNL     1      -5.533   9.348  66.083  1.00  0.00     0.000 HD 
HETATM   21  C   UNL     1      -6.073   5.904  71.074  1.00  0.00    -0.034 A  
HETATM   22  C   UNL     1      -6.092   5.708  69.696  1.00  0.00    -0.025 A  
HETATM   23  C   UNL     1      -6.653   6.673  68.847  1.00  0.00    -0.051 A  
ENDBRANCH  11  12
ENDBRANCH   5  11
TORSDOF 2
ENDMDL
MODEL      218
REMARK 921   NORMALIZED FREE ENERGY PREDICTED BY IDOCK:   -3.12 KCAL/MOL
REMARK 922        TOTAL FREE ENERGY PREDICTED BY IDOCK:   -3.99 KCAL/MOL
REMARK 923 INTER-LIGAND FREE ENERGY PREDICTED BY IDOCK:   -3.45 KCAL/MOL
REMARK 924 INTRA-LIGAND FREE ENERGY PREDICTED BY IDOCK:   -0.54 KCAL/MOL
REMARK 927      BINDING AFFINITY PREDICTED BY RF-SCORE:    0.00 PKD
ROOT
HETATM    1  C   UNL     1      -9.396   7.024  69.359  1.00  0.00    -0.146 C  
HETATM    2  N   UNL     1      -8.353   7.617  68.561  1.00  0.00    -0.128 NA 
HETATM    3  C   UNL     1      -7.429   8.556  69.210  1.00  0.00    -0.082 C  
HETATM    4  C   UNL     1      -8.135   9.868  69.617  1.00  0.00    -0.171 C  
HETATM    5  C   UNL     1      -8.762  10.597  68.417  1.00  0.00    -0.141 C  
HETATM    6  C   UNL     1      -9.487   9.607  67.481  1.00  0.00    -0.157 C  
HETATM    7  O   UNL     1      -6.586   9.633  67.019  1.00  0.00    -0.066 OA 
HETATM    8  C   UNL     1      -8.723   8.264  67.294  1.00  0.00    -0.123 C  
HETATM    9  C   UNL     1      -6.452   8.651  68.044  1.00  0.00    -0.057 C  
HETATM   10  C   UNL     1      -7.291   8.420  66.802  1.00  0.00    -0.083 C  
ENDROOT
BRANCH   5  11
HETATM   11  O   UNL     1      -9.484  11.824  68.724  1.00  0.00    -0.142 OA 
BRANCH  11  12
HETATM   12  C   UNL     1     -10.210  12.487  67.804  1.00  0.00    -0.217 C  
HETATM   13  C   UNL     1     -12.137  12.339  69.572  1.00  0.00    -0.260 A  
HETATM   14  C   UNL     1     -11.556  13.003  68.319  1.00  0.00    -0.375 C  
HETATM   15  C   UNL     1     -11.469  14.538  68.357  1.00  0.00    -0.302 C  
HETATM   16  C   UNL     1     -12.759  11.080  69.457  1.00  0.00     0.176 A  
HETATM   17  O   UNL     1     -12.764  15.141  68.370  1.00  0.00    -0.104 OA 
HETATM   18  O   UNL     1      -9.819  12.694  66.655  1.00  0.00    -0.232 OA 
HETATM   19  C   UNL     1     -13.370  10.460  70.557  1.00  0.00     0.049 A  
HETATM   20  H   UNL     1     -12.711  16.089  68.393  1.00  0.00     0.000 HD 
HETATM   21  C   UNL     1     -13.377  11.087  71.798  1.00  0.00    -0.400 A  
HETATM   22  C   UNL     1     -12.780  12.337  71.934  1.00  0.00    -0.197 A  
HETATM   23  C   UNL     1     -12.171  12.959  70.834  1.00  0.00    -0.290 A  
ENDBRANCH  11  12
ENDBRANCH   5  11
TORSDOF 2
ENDMDL
MODEL      219
REMARK 921   NORMALIZED FREE ENERGY PREDICTED BY IDOCK:   -3.08 KCAL/MOL
REMARK 922        TOTAL FREE ENERGY PREDICTED BY IDOCK:   -3.95 KCAL/MOL
REMARK 923 INTER-LIGAND FREE ENERGY PREDICTED BY IDOCK:   -3.21 KCAL/MOL
REMARK 924 INTRA-LIGAND FREE ENERGY PREDICTED BY IDOCK:   -0.74 KCAL/MOL
REMARK 927      BINDING AFFINITY PREDICTED BY RF-SCORE:    0.00 PKD
ROOT
HETATM    1  C   UNL     1     -10.302   7.975  72.722  1.00  0.00    -0.339 C  
HETATM    2  N   UNL     1     -10.226   6.679  72.096  1.00  0.00    -0.190 NA 
HETATM    3  C   UNL     1      -8.945   5.962  72.134  1.00  0.00    -0.143 C  
HETATM    4  C   UNL     1      -7.870   6.661  71.272  1.00  0.00    -0.102 C  
HETATM    5  C   UNL     1      -8.284   6.781  69.796  1.00  0.00    -0.127 C  
HETATM    6  C   UNL     1      -9.760   7.218  69.666  1.00  0.00    -0.159 C  
HETATM    7  O   UNL     1      -9.507   4.340  70.205  1.00  0.00    -0.144 OA 
HETATM    8  C   UNL     1     -10.695   6.543  70.710  1.00  0.00    -0.241 C  
HETATM    9  C   UNL     1      -9.484   4.642  71.598  1.00  0.00    -0.153 C  
HETATM   10  C   UNL     1     -10.649   5.021  70.704  1.00  0.00    -0.079 C  
ENDROOT
BRANCH   5  11
HETATM   11  O   UNL     1      -7.341   7.468  68.924  1.00  0.00    -0.089 OA 
BRANCH  11  12
HETATM   12  C   UNL     1      -6.798   6.882  67.840  1.00  0.00    -0.081 C  
HETATM   13  C   UNL     1      -7.943   8.830  66.515  1.00  0.00    -0.103 A  
HETATM   14  C   UNL     1      -6.886   7.721  66.563  1.00  0.00    -0.066 C  
HETATM   15  C   UNL     1      -5.453   8.148  66.201  1.00  0.00    -0.028 C  
HETATM   16  C   UNL     1      -9.289   8.487  66.282  1.00  0.00    -0.287 A  
HETATM   17  O   UNL     1      -5.345   8.524  64.827  1.00  0.00    -0.039 OA 
HETATM   18  O   UNL     1      -6.247   5.781  67.870  1.00  0.00    -0.027 OA 
HETATM   19  C   UNL     1     -10.285   9.467  66.157  1.00  0.00    -0.264 A  
HETATM   20  H   UNL     1      -4.461   8.788  64.603  1.00  0.00     0.000 HD 
HETATM   21  C   UNL     1      -9.956  10.814  66.259  1.00  0.00    -0.272 A  
HETATM   22  C   UNL     1      -8.631  11.178  66.477  1.00  0.00    -0.169 A  
HETATM   23  C   UNL     1      -7.634  10.199  66.599  1.00  0.00    -0.107 A  
ENDBRANCH  11  12
ENDBRANCH   5  11
TORSDOF 2
ENDMDL
MODEL      220
REMARK 921   NORMALIZED FREE ENERGY PREDICTED BY IDOCK:   -3.07 KCAL/MOL
REMARK 922        TOTAL FREE ENERGY PREDICTED BY IDOCK:   -3.93 KCAL/MOL
REMARK 923 INTER-LIGAND FREE ENERGY PREDICTED BY IDOCK:   -3.36 KCAL/MOL
REMARK 924 INTRA-LIGAND FREE ENERGY PREDICTED BY IDOCK:   -0.57 KCAL/MOL
REMARK 927      BINDING AFFINITY PREDICTED BY RF-SCORE:    0.00 PKD
ROOT
HETATM    1  C   UNL     1     -11.933   7.219  71.554  1.00  0.00    -0.316 C  
HETATM    2  N   UNL     1     -10.878   6.947  72.497  1.00  0.00    -0.233 NA 
HETATM    3  C   UNL     1      -9.754   7.891  72.574  1.00  0.00    -0.227 C  
HETATM    4  C   UNL     1      -8.889   7.860  71.295  1.00  0.00    -0.152 C  
HETATM    5  C   UNL     1      -8.299   6.467  71.016  1.00  0.00    -0.126 C  
HETATM    6  C   UNL     1      -9.352   5.361  71.244  1.00  0.00    -0.182 C  
HETATM    7  O   UNL     1      -8.141   6.264  73.764  1.00  0.00    -0.106 OA 
HETATM    8  C   UNL     1     -10.254   5.617  72.486  1.00  0.00    -0.190 C  
HETATM    9  C   UNL     1      -9.127   7.292  73.826  1.00  0.00    -0.224 C  
HETATM   10  C   UNL     1      -9.489   5.819  73.787  1.00  0.00    -0.140 C  
ENDROOT
BRANCH   5  11
HETATM   11  O   UNL     1      -7.504   6.344  69.802  1.00  0.00    -0.081 OA 
BRANCH  11  12
HETATM   12  C   UNL     1      -7.902   6.852  68.620  1.00  0.00    -0.118 C  
HETATM   13  C   UNL     1      -8.169   4.346  67.908  1.00  0.00    -0.095 A  
HETATM   14  C   UNL     1      -8.507   5.821  67.665  1.00  0.00    -0.103 C  
HETATM   15  C   UNL     1     -10.004   6.149  67.531  1.00  0.00    -0.137 C  
HETATM   16  C   UNL     1      -6.912   3.854  67.508  1.00  0.00    -0.055 A  
HETATM   17  O   UNL     1     -10.568   5.575  66.351  1.00  0.00    -0.354 OA 
HETATM   18  O   UNL     1      -7.821   8.047  68.336  1.00  0.00    -0.117 OA 
HETATM   19  C   UNL     1      -6.578   2.498  67.641  1.00  0.00    -0.036 A  
HETATM   20  H   UNL     1     -11.492   5.778  66.268  1.00  0.00     0.000 HD 
HETATM   21  C   UNL     1      -7.496   1.601  68.175  1.00  0.00    -0.046 A  
HETATM   22  C   UNL     1      -8.750   2.061  68.566  1.00  0.00    -0.118 A  
HETATM   23  C   UNL     1      -9.086   3.416  68.431  1.00  0.00    -0.206 A  
ENDBRANCH  11  12
ENDBRANCH   5  11
TORSDOF 2
ENDMDL
MODEL      221
REMARK 921   NORMALIZED FREE ENERGY PREDICTED BY IDOCK:   -3.06 KCAL/MOL
REMARK 922        TOTAL FREE ENERGY PREDICTED BY IDOCK:   -3.93 KCAL/MOL
REMARK 923 INTER-LIGAND FREE ENERGY PREDICTED BY IDOCK:   -3.73 KCAL/MOL
REMARK 924 INTRA-LIGAND FREE ENERGY PREDICTED BY IDOCK:   -0.20 KCAL/MOL
REMARK 927      BINDING AFFINITY PREDICTED BY RF-SCORE:    0.00 PKD
ROOT
HETATM    1  C   UNL     1      -8.381  16.331  67.659  1.00  0.00    -0.161 C  
HETATM    2  N   UNL     1      -9.670  15.693  67.728  1.00  0.00    -0.218 NA 
HETATM    3  C   UNL     1     -10.056  15.039  68.986  1.00  0.00    -0.241 C  
HETATM    4  C   UNL     1      -9.199  13.785  69.267  1.00  0.00     0.568 C  
HETATM    5  C   UNL     1      -9.310  12.733  68.151  1.00  0.00    -0.214 C  
HETATM    6  C   UNL     1      -9.250  13.393  66.757  1.00  0.00    -0.242 C  
HETATM    7  O   UNL     1     -11.927  13.590  67.952  1.00  0.00    -0.357 OA 
HETATM    8  C   UNL     1     -10.035  14.734  66.676  1.00  0.00    -0.264 C  
HETATM    9  C   UNL     1     -11.508  14.790  68.599  1.00  0.00    -0.302 C  
HETATM   10  C   UNL     1     -11.496  14.632  67.090  1.00  0.00    -0.368 C  
ENDROOT
BRANCH   5  11
HETATM   11  O   UNL     1      -8.498  11.536  68.321  1.00  0.00    -0.146 OA 
BRANCH  11  12
HETATM   12  C   UNL     1      -7.877  10.929  67.292  1.00  0.00    -0.116 C  
HETATM   13  C   UNL     1      -9.034   8.758  68.191  1.00  0.00    -0.141 A  
HETATM   14  C   UNL     1      -8.340   9.492  67.039  1.00  0.00    -0.124 C  
HETATM   15  C   UNL     1      -9.089   9.487  65.696  1.00  0.00    -0.201 C  
HETATM   16  C   UNL     1      -8.254   8.233  69.240  1.00  0.00    -0.118 A  
HETATM   17  O   UNL     1      -9.162   8.174  65.136  1.00  0.00    -0.375 OA 
HETATM   18  O   UNL     1      -7.033  11.484  66.588  1.00  0.00    -0.131 OA 
HETATM   19  C   UNL     1      -8.830   7.492  70.282  1.00  0.00    -0.146 A  
HETATM   20  H   UNL     1      -9.625   8.170  64.307  1.00  0.00     0.000 HD 
HETATM   21  C   UNL     1     -10.200   7.254  70.297  1.00  0.00    -0.205 A  
HETATM   22  C   UNL     1     -10.989   7.752  69.265  1.00  0.00    -0.007 A  
HETATM   23  C   UNL     1     -10.414   8.492  68.221  1.00  0.00    -0.222 A  
ENDBRANCH  11  12
ENDBRANCH   5  11
TORSDOF 2
ENDMDL
MODEL      222
REMARK 921   NORMALIZED FREE ENERGY PREDICTED BY IDOCK:   -3.05 KCAL/MOL
REMARK 922        TOTAL FREE ENERGY PREDICTED BY IDOCK:   -3.91 KCAL/MOL
REMARK 923 INTER-LIGAND FREE ENERGY PREDICTED BY IDOCK:   -3.11 KCAL/MOL
REMARK 924 INTRA-LIGAND FREE ENERGY PREDICTED BY IDOCK:   -0.80 KCAL/MOL
REMARK 927      BINDING AFFINITY PREDICTED BY RF-SCORE:    0.00 PKD
ROOT
HETATM    1  C   UNL     1      -7.909   5.516  67.676  1.00  0.00    -0.097 C  
HETATM    2  N   UNL     1      -8.974   6.127  68.429  1.00  0.00    -0.116 NA 
HETATM    3  C   UNL     1     -10.322   6.134  67.846  1.00  0.00    -0.203 C  
HETATM    4  C   UNL     1     -10.407   7.049  66.605  1.00  0.00    -0.215 C  
HETATM    5  C   UNL     1     -10.038   8.508  66.922  1.00  0.00    -0.294 C  
HETATM    6  C   UNL     1      -8.793   8.581  67.832  1.00  0.00    -0.137 C  
HETATM    7  O   UNL     1     -11.239   8.017  69.358  1.00  0.00     0.012 OA 
HETATM    8  C   UNL     1      -8.776   7.491  68.941  1.00  0.00    -0.132 C  
HETATM    9  C   UNL     1     -11.035   6.629  69.099  1.00  0.00    -0.287 C  
HETATM   10  C   UNL     1     -10.013   7.479  69.829  1.00  0.00    -0.186 C  
ENDROOT
BRANCH   5  11
HETATM   11  O   UNL     1     -10.052   9.428  65.793  1.00  0.00    -0.288 OA 
BRANCH  11  12
HETATM   12  C   UNL     1      -9.125  10.391  65.630  1.00  0.00    -0.176 C  
HETATM   13  C   UNL     1      -7.994   8.688  63.993  1.00  0.00    -0.158 A  
HETATM   14  C   UNL     1      -8.144  10.132  64.484  1.00  0.00    -0.160 C  
HETATM   15  C   UNL     1      -8.431  11.181  63.396  1.00  0.00     0.212 C  
HETATM   16  C   UNL     1      -7.221   7.783  64.747  1.00  0.00    -0.067 A  
HETATM   17  O   UNL     1      -7.321  11.342  62.512  1.00  0.00    -0.395 OA 
HETATM   18  O   UNL     1      -9.082  11.411  66.319  1.00  0.00    -0.193 OA 
HETATM   19  C   UNL     1      -6.992   6.471  64.307  1.00  0.00    -0.051 A  
HETATM   20  H   UNL     1      -7.497  11.989  61.840  1.00  0.00     0.000 HD 
HETATM   21  C   UNL     1      -7.527   6.034  63.100  1.00  0.00    -0.070 A  
HETATM   22  C   UNL     1      -8.283   6.914  62.332  1.00  0.00    -0.063 A  
HETATM   23  C   UNL     1      -8.511   8.227  62.770  1.00  0.00    -0.046 A  
ENDBRANCH  11  12
ENDBRANCH   5  11
TORSDOF 2
ENDMDL
MODEL      223
REMARK 921   NORMALIZED FREE ENERGY PREDICTED BY IDOCK:   -3.03 KCAL/MOL
REMARK 922        TOTAL FREE ENERGY PREDICTED BY IDOCK:   -3.89 KCAL/MOL
REMARK 923 INTER-LIGAND FREE ENERGY PREDICTED BY IDOCK:   -3.58 KCAL/MOL
REMARK 924 INTRA-LIGAND FREE ENERGY PREDICTED BY IDOCK:   -0.31 KCAL/MOL
REMARK 927      BINDING AFFINITY PREDICTED BY RF-SCORE:    0.00 PKD
ROOT
HETATM    1  C   UNL     1      -9.126   1.664  66.896  1.00  0.00    -0.067 C  
HETATM    2  N   UNL     1      -8.734   2.843  66.166  1.00  0.00    -0.127 NA 
HETATM    3  C   UNL     1      -7.514   3.546  66.584  1.00  0.00    -0.076 C  
HETATM    4  C   UNL     1      -7.683   4.216  67.965  1.00  0.00    -0.071 C  
HETATM    5  C   UNL     1      -8.831   5.238  67.989  1.00  0.00    -0.105 C  
HETATM    6  C   UNL     1     -10.076   4.692  67.256  1.00  0.00    -0.169 C  
HETATM    7  O   UNL     1      -8.078   5.762  65.385  1.00  0.00    -0.117 OA 
HETATM    8  C   UNL     1      -9.731   3.903  65.960  1.00  0.00    -0.162 C  
HETATM    9  C   UNL     1      -7.450   4.482  65.384  1.00  0.00    -0.081 C  
HETATM   10  C   UNL     1      -8.891   4.680  64.955  1.00  0.00    -0.150 C  
ENDROOT
BRANCH   5  11
HETATM   11  O   UNL     1      -9.083   5.884  69.269  1.00  0.00    -0.122 OA 
BRANCH  11  12
HETATM   12  C   UNL     1     -10.320   6.225  69.679  1.00  0.00    -0.215 C  
HETATM   13  C   UNL     1      -9.758   4.775  71.786  1.00  0.00    -0.225 A  
HETATM   14  C   UNL     1     -10.623   5.859  71.134  1.00  0.00    -0.306 C  
HETATM   15  C   UNL     1     -10.745   7.177  71.917  1.00  0.00    -0.216 C  
HETATM   16  C   UNL     1     -10.007   3.422  71.482  1.00  0.00    -0.161 A  
HETATM   17  O   UNL     1     -11.462   7.001  73.140  1.00  0.00    -0.534 OA 
HETATM   18  O   UNL     1     -11.132   6.810  68.962  1.00  0.00    -0.240 OA 
HETATM   19  C   UNL     1      -9.294   2.387  72.105  1.00  0.00    -0.161 A  
HETATM   20  H   UNL     1     -11.538   7.814  73.624  1.00  0.00     0.000 HD 
HETATM   21  C   UNL     1      -8.317   2.681  73.050  1.00  0.00    -0.070 A  
HETATM   22  C   UNL     1      -8.062   4.009  73.376  1.00  0.00    -0.089 A  
HETATM   23  C   UNL     1      -8.776   5.045  72.756  1.00  0.00    -0.119 A  
ENDBRANCH  11  12
ENDBRANCH   5  11
TORSDOF 2
ENDMDL
MODEL      224
REMARK 921   NORMALIZED FREE ENERGY PREDICTED BY IDOCK:   -3.01 KCAL/MOL
REMARK 922        TOTAL FREE ENERGY PREDICTED BY IDOCK:   -3.87 KCAL/MOL
REMARK 923 INTER-LIGAND FREE ENERGY PREDICTED BY IDOCK:   -3.57 KCAL/MOL
REMARK 924 INTRA-LIGAND FREE ENERGY PREDICTED BY IDOCK:   -0.30 KCAL/MOL
REMARK 927      BINDING AFFINITY PREDICTED BY RF-SCORE:    0.00 PKD
ROOT
HETATM    1  C   UNL     1      -6.945  12.515  68.031  1.00  0.00    -0.095 C  
HETATM    2  N   UNL     1      -7.686  11.624  67.176  1.00  0.00    -0.152 NA 
HETATM    3  C   UNL     1      -9.031  11.212  67.600  1.00  0.00    -0.140 C  
HETATM    4  C   UNL     1      -8.985  10.298  68.844  1.00  0.00    -0.164 C  
HETATM    5  C   UNL     1      -8.167   9.018  68.606  1.00  0.00    -0.118 C  
HETATM    6  C   UNL     1      -6.859   9.327  67.846  1.00  0.00    -0.072 C  
HETATM    7  O   UNL     1      -9.168   9.160  66.037  1.00  0.00    -0.181 OA 
HETATM    8  C   UNL     1      -7.037  10.387  66.721  1.00  0.00    -0.105 C  
HETATM    9  C   UNL     1      -9.415  10.542  66.286  1.00  0.00    -0.177 C  
HETATM   10  C   UNL     1      -8.109  10.043  65.697  1.00  0.00    -0.138 C  
ENDROOT
BRANCH   5  11
HETATM   11  O   UNL     1      -8.040   8.121  69.747  1.00  0.00    -0.112 OA 
BRANCH  11  12
HETATM   12  C   UNL     1      -9.041   7.919  70.624  1.00  0.00    -0.153 C  
HETATM   13  C   UNL     1      -9.841   6.098  68.920  1.00  0.00    -0.167 A  
HETATM   14  C   UNL     1      -9.883   6.672  70.340  1.00  0.00    -0.189 C  
HETATM   15  C   UNL     1      -9.606   5.670  71.474  1.00  0.00    -0.152 C  
HETATM   16  C   UNL     1     -10.584   6.729  67.902  1.00  0.00    -0.296 A  
HETATM   17  O   UNL     1     -10.642   4.692  71.579  1.00  0.00    -0.089 OA 
HETATM   18  O   UNL     1      -9.249   8.649  71.593  1.00  0.00    -0.210 OA 
HETATM   19  C   UNL     1     -10.638   6.205  66.602  1.00  0.00    -0.296 A  
HETATM   20  H   UNL     1     -10.472   4.073  72.279  1.00  0.00     0.000 HD 
HETATM   21  C   UNL     1      -9.954   5.035  66.290  1.00  0.00    -0.247 A  
HETATM   22  C   UNL     1      -9.225   4.387  67.282  1.00  0.00    -0.160 A  
HETATM   23  C   UNL     1      -9.171   4.909  68.583  1.00  0.00    -0.159 A  
ENDBRANCH  11  12
ENDBRANCH   5  11
TORSDOF 2
ENDMDL
MODEL      225
REMARK 921   NORMALIZED FREE ENERGY PREDICTED BY IDOCK:   -2.97 KCAL/MOL
REMARK 922        TOTAL FREE ENERGY PREDICTED BY IDOCK:   -3.83 KCAL/MOL
REMARK 923 INTER-LIGAND FREE ENERGY PREDICTED BY IDOCK:   -3.40 KCAL/MOL
REMARK 924 INTRA-LIGAND FREE ENERGY PREDICTED BY IDOCK:   -0.42 KCAL/MOL
REMARK 927      BINDING AFFINITY PREDICTED BY RF-SCORE:    0.00 PKD
ROOT
HETATM    1  C   UNL     1      -7.918   4.797  72.663  1.00  0.00    -0.093 C  
HETATM    2  N   UNL     1      -7.990   4.223  71.343  1.00  0.00    -0.079 NA 
HETATM    3  C   UNL     1      -7.162   4.812  70.283  1.00  0.00    -0.050 C  
HETATM    4  C   UNL     1      -7.637   6.232  69.906  1.00  0.00    -0.092 C  
HETATM    5  C   UNL     1      -9.095   6.257  69.416  1.00  0.00    -0.139 C  
HETATM    6  C   UNL     1      -9.994   5.369  70.303  1.00  0.00    -0.298 C  
HETATM    7  O   UNL     1      -8.501   3.792  68.324  1.00  0.00    -0.089 OA 
HETATM    8  C   UNL     1      -9.314   4.037  70.732  1.00  0.00    -0.147 C  
HETATM    9  C   UNL     1      -7.421   3.719  69.252  1.00  0.00    -0.053 C  
HETATM   10  C   UNL     1      -8.806   3.189  69.573  1.00  0.00    -0.091 C  
ENDROOT
BRANCH   5  11
HETATM   11  O   UNL     1      -9.632   7.568  69.081  1.00  0.00    -0.157 OA 
BRANCH  11  12
HETATM   12  C   UNL     1      -9.667   8.584  69.964  1.00  0.00    -0.170 C  
HETATM   13  C   UNL     1      -8.809  10.035  67.959  1.00  0.00    -0.125 A  
HETATM   14  C   UNL     1      -9.475   9.967  69.337  1.00  0.00    -0.237 C  
HETATM   15  C   UNL     1     -10.814  10.714  69.468  1.00  0.00    -0.259 C  
HETATM   16  C   UNL     1      -7.411   9.891  67.864  1.00  0.00    -0.088 A  
HETATM   17  O   UNL     1     -10.644  12.128  69.352  1.00  0.00    -0.441 OA 
HETATM   18  O   UNL     1      -9.867   8.427  71.168  1.00  0.00    -0.174 OA 
HETATM   19  C   UNL     1      -6.742  10.016  66.637  1.00  0.00    -0.081 A  
HETATM   20  H   UNL     1     -11.471  12.589  69.433  1.00  0.00     0.000 HD 
HETATM   21  C   UNL     1      -7.456  10.290  65.476  1.00  0.00    -0.149 A  
HETATM   22  C   UNL     1      -8.836  10.449  65.547  1.00  0.00    -0.193 A  
HETATM   23  C   UNL     1      -9.506  10.327  66.773  1.00  0.00    -0.198 A  
ENDBRANCH  11  12
ENDBRANCH   5  11
TORSDOF 2
ENDMDL
MODEL      226
REMARK 921   NORMALIZED FREE ENERGY PREDICTED BY IDOCK:   -2.92 KCAL/MOL
REMARK 922        TOTAL FREE ENERGY PREDICTED BY IDOCK:   -3.77 KCAL/MOL
REMARK 923 INTER-LIGAND FREE ENERGY PREDICTED BY IDOCK:   -3.24 KCAL/MOL
REMARK 924 INTRA-LIGAND FREE ENERGY PREDICTED BY IDOCK:   -0.53 KCAL/MOL
REMARK 927      BINDING AFFINITY PREDICTED BY RF-SCORE:    0.00 PKD
ROOT
HETATM    1  C   UNL     1      -7.477  16.725  68.334  1.00  0.00    -0.202 C  
HETATM    2  N   UNL     1      -8.905  16.820  68.168  1.00  0.00    -0.217 NA 
HETATM    3  C   UNL     1      -9.761  16.491  69.315  1.00  0.00    -0.193 C  
HETATM    4  C   UNL     1      -9.703  14.988  69.664  1.00  0.00    -0.067 C  
HETATM    5  C   UNL     1     -10.143  14.093  68.493  1.00  0.00    -0.243 C  
HETATM    6  C   UNL     1      -9.537  14.585  67.161  1.00  0.00    -0.233 C  
HETATM    7  O   UNL     1     -11.912  16.136  67.930  1.00  0.00     0.117 OA 
HETATM    8  C   UNL     1      -9.524  16.135  67.025  1.00  0.00    -0.222 C  
HETATM    9  C   UNL     1     -11.060  16.988  68.693  1.00  0.00    -0.128 C  
HETATM   10  C   UNL     1     -10.886  16.792  67.199  1.00  0.00    -0.102 C  
ENDROOT
BRANCH   5  11
HETATM   11  O   UNL     1     -10.075  12.658  68.729  1.00  0.00    -0.165 OA 
BRANCH  11  12
HETATM   12  C   UNL     1     -10.343  11.752  67.769  1.00  0.00    -0.194 C  
HETATM   13  C   UNL     1      -8.074  10.667  68.496  1.00  0.00    -0.125 A  
HETATM   14  C   UNL     1      -9.423  10.530  67.783  1.00  0.00    -0.162 C  
HETATM   15  C   UNL     1     -10.280   9.322  68.202  1.00  0.00    -0.205 C  
HETATM   16  C   UNL     1      -7.022  11.346  67.851  1.00  0.00    -0.073 A  
HETATM   17  O   UNL     1      -9.677   8.087  67.816  1.00  0.00    -0.147 OA 
HETATM   18  O   UNL     1     -11.268  11.874  66.964  1.00  0.00    -0.285 OA 
HETATM   19  C   UNL     1      -5.746  11.439  68.427  1.00  0.00    -0.045 A  
HETATM   20  H   UNL     1     -10.205   7.341  68.074  1.00  0.00     0.000 HD 
HETATM   21  C   UNL     1      -5.492  10.851  69.661  1.00  0.00    -0.040 A  
HETATM   22  C   UNL     1      -6.512  10.164  70.312  1.00  0.00    -0.128 A  
HETATM   23  C   UNL     1      -7.787  10.069  69.736  1.00  0.00    -0.185 A  
ENDBRANCH  11  12
ENDBRANCH   5  11
TORSDOF 2
ENDMDL
MODEL      227
REMARK 921   NORMALIZED FREE ENERGY PREDICTED BY IDOCK:   -2.87 KCAL/MOL
REMARK 922        TOTAL FREE ENERGY PREDICTED BY IDOCK:   -3.71 KCAL/MOL
REMARK 923 INTER-LIGAND FREE ENERGY PREDICTED BY IDOCK:   -3.02 KCAL/MOL
REMARK 924 INTRA-LIGAND FREE ENERGY PREDICTED BY IDOCK:   -0.68 KCAL/MOL
REMARK 927      BINDING AFFINITY PREDICTED BY RF-SCORE:    0.00 PKD
ROOT
HETATM    1  C   UNL     1      -8.955   8.183  71.127  1.00  0.00    -0.146 C  
HETATM    2  N   UNL     1      -9.145   6.756  71.063  1.00  0.00    -0.155 NA 
HETATM    3  C   UNL     1      -8.179   5.961  70.293  1.00  0.00    -0.114 C  
HETATM    4  C   UNL     1      -8.281   6.241  68.778  1.00  0.00    -0.120 C  
HETATM    5  C   UNL     1      -9.679   5.935  68.214  1.00  0.00    -0.128 C  
HETATM    6  C   UNL     1     -10.785   6.458  69.157  1.00  0.00    -0.339 C  
HETATM    7  O   UNL     1      -9.695   3.883  70.060  1.00  0.00    -0.201 OA 
HETATM    8  C   UNL     1     -10.462   6.242  70.663  1.00  0.00    -0.223 C  
HETATM    9  C   UNL     1      -8.682   4.601  70.762  1.00  0.00    -0.104 C  
HETATM   10  C   UNL     1     -10.160   4.798  71.041  1.00  0.00    -0.199 C  
ENDROOT
BRANCH   5  11
HETATM   11  O   UNL     1      -9.869   6.215  66.798  1.00  0.00    -0.150 OA 
BRANCH  11  12
HETATM   12  C   UNL     1      -9.522   5.341  65.833  1.00  0.00    -0.142 C  
HETATM   13  C   UNL     1      -7.678   7.103  65.239  1.00  0.00    -0.114 A  
HETATM   14  C   UNL     1      -8.196   5.664  65.141  1.00  0.00    -0.136 C  
HETATM   15  C   UNL     1      -7.196   4.566  65.541  1.00  0.00    -0.068 C  
HETATM   16  C   UNL     1      -8.250   8.097  64.421  1.00  0.00    -0.105 A  
HETATM   17  O   UNL     1      -6.101   4.490  64.627  1.00  0.00    -0.024 OA 
HETATM   18  O   UNL     1     -10.191   4.348  65.549  1.00  0.00    -0.238 OA 
HETATM   19  C   UNL     1      -7.766   9.413  64.418  1.00  0.00    -0.119 A  
HETATM   20  H   UNL     1      -5.483   3.812  64.874  1.00  0.00     0.000 HD 
HETATM   21  C   UNL     1      -6.695   9.766  65.232  1.00  0.00    -0.099 A  
HETATM   22  C   UNL     1      -6.105   8.799  66.039  1.00  0.00    -0.052 A  
HETATM   23  C   UNL     1      -6.587   7.482  66.041  1.00  0.00    -0.046 A  
ENDBRANCH  11  12
ENDBRANCH   5  11
TORSDOF 2
ENDMDL
MODEL      228
REMARK 921   NORMALIZED FREE ENERGY PREDICTED BY IDOCK:   -2.83 KCAL/MOL
REMARK 922        TOTAL FREE ENERGY PREDICTED BY IDOCK:   -3.66 KCAL/MOL
REMARK 923 INTER-LIGAND FREE ENERGY PREDICTED BY IDOCK:   -3.00 KCAL/MOL
REMARK 924 INTRA-LIGAND FREE ENERGY PREDICTED BY IDOCK:   -0.67 KCAL/MOL
REMARK 927      BINDING AFFINITY PREDICTED BY RF-SCORE:    0.00 PKD
ROOT
HETATM    1  C   UNL     1     -11.516  15.610  64.226  1.00  0.00    -0.193 C  
HETATM    2  N   UNL     1     -11.885  14.279  64.633  1.00  0.00    -0.424 NA 
HETATM    3  C   UNL     1     -11.997  13.997  66.070  1.00  0.00    -0.416 C  
HETATM    4  C   UNL     1     -10.623  14.045  66.774  1.00  0.00    -0.277 C  
HETATM    5  C   UNL     1      -9.624  13.034  66.185  1.00  0.00    -0.202 C  
HETATM    6  C   UNL     1      -9.684  13.027  64.643  1.00  0.00     0.120 C  
HETATM    7  O   UNL     1     -11.843  11.430  65.836  1.00  0.00    -0.140 OA 
HETATM    8  C   UNL     1     -11.131  13.144  64.082  1.00  0.00    -0.394 C  
HETATM    9  C   UNL     1     -12.627  12.618  65.915  1.00  0.00     0.238 C  
HETATM   10  C   UNL     1     -12.093  12.083  64.600  1.00  0.00    -0.232 C  
ENDROOT
BRANCH   5  11
HETATM   11  O   UNL     1      -8.289  13.046  66.767  1.00  0.00    -0.090 OA 
BRANCH  11  12
HETATM   12  C   UNL     1      -8.019  12.512  67.973  1.00  0.00    -0.153 C  
HETATM   13  C   UNL     1      -7.486  10.334  66.619  1.00  0.00    -0.110 A  
HETATM   14  C   UNL     1      -7.344  11.139  67.915  1.00  0.00    -0.092 C  
HETATM   15  C   UNL     1      -5.908  11.318  68.437  1.00  0.00    -0.045 C  
HETATM   16  C   UNL     1      -8.694   9.658  66.359  1.00  0.00    -0.148 A  
HETATM   17  O   UNL     1      -5.341  10.077  68.861  1.00  0.00    -0.036 OA 
HETATM   18  O   UNL     1      -8.261  13.084  69.036  1.00  0.00     0.160 OA 
HETATM   19  C   UNL     1      -8.852   8.849  65.224  1.00  0.00    -0.227 A  
HETATM   20  H   UNL     1      -4.454  10.187  69.183  1.00  0.00     0.000 HD 
HETATM   21  C   UNL     1      -7.804   8.695  64.323  1.00  0.00    -0.140 A  
HETATM   22  C   UNL     1      -6.597   9.344  64.565  1.00  0.00    -0.089 A  
HETATM   23  C   UNL     1      -6.437  10.151  65.701  1.00  0.00    -0.107 A  
ENDBRANCH  11  12
ENDBRANCH   5  11
TORSDOF 2
ENDMDL
MODEL      229
REMARK 921   NORMALIZED FREE ENERGY PREDICTED BY IDOCK:   -2.83 KCAL/MOL
REMARK 922        TOTAL FREE ENERGY PREDICTED BY IDOCK:   -3.66 KCAL/MOL
REMARK 923 INTER-LIGAND FREE ENERGY PREDICTED BY IDOCK:   -2.96 KCAL/MOL
REMARK 924 INTRA-LIGAND FREE ENERGY PREDICTED BY IDOCK:   -0.70 KCAL/MOL
REMARK 927      BINDING AFFINITY PREDICTED BY RF-SCORE:    0.00 PKD
ROOT
HETATM    1  C   UNL     1     -10.146  13.201  67.361  1.00  0.00    -0.229 C  
HETATM    2  N   UNL     1     -10.594  12.147  68.236  1.00  0.00    -0.210 NA 
HETATM    3  C   UNL     1      -9.613  11.526  69.135  1.00  0.00     0.176 C  
HETATM    4  C   UNL     1      -8.562  10.703  68.358  1.00  0.00    -0.134 C  
HETATM    5  C   UNL     1      -9.194   9.578  67.522  1.00  0.00    -0.126 C  
HETATM    6  C   UNL     1     -10.459  10.074  66.789  1.00  0.00    -0.267 C  
HETATM    7  O   UNL     1     -11.006   9.401  69.596  1.00  0.00    -0.239 OA 
HETATM    8  C   UNL     1     -11.339  11.022  67.653  1.00  0.00    -0.281 C  
HETATM    9  C   UNL     1     -10.625  10.728  69.950  1.00  0.00    -0.076 C  
HETATM   10  C   UNL     1     -11.766  10.438  68.993  1.00  0.00    -0.096 C  
ENDROOT
BRANCH   5  11
HETATM   11  O   UNL     1      -8.271   8.782  66.725  1.00  0.00    -0.106 OA 
BRANCH  11  12
HETATM   12  C   UNL     1      -8.621   7.607  66.169  1.00  0.00    -0.148 C  
HETATM   13  C   UNL     1      -7.776   8.687  63.938  1.00  0.00    -0.135 A  
HETATM   14  C   UNL     1      -8.139   7.425  64.728  1.00  0.00    -0.104 C  
HETATM   15  C   UNL     1      -7.073   6.317  64.742  1.00  0.00    -0.057 C  
HETATM   16  C   UNL     1      -8.808   9.484  63.403  1.00  0.00    -0.236 A  
HETATM   17  O   UNL     1      -6.887   5.745  63.447  1.00  0.00    -0.035 OA 
HETATM   18  O   UNL     1      -9.247   6.734  66.771  1.00  0.00    -0.140 OA 
HETATM   19  C   UNL     1      -8.531  10.609  62.613  1.00  0.00    -0.233 A  
HETATM   20  H   UNL     1      -6.228   5.060  63.455  1.00  0.00     0.000 HD 
HETATM   21  C   UNL     1      -7.215  10.962  62.335  1.00  0.00    -0.063 A  
HETATM   22  C   UNL     1      -6.179  10.183  62.841  1.00  0.00    -0.135 A  
HETATM   23  C   UNL     1      -6.455   9.056  63.630  1.00  0.00    -0.089 A  
ENDBRANCH  11  12
ENDBRANCH   5  11
TORSDOF 2
ENDMDL
MODEL      230
REMARK 921   NORMALIZED FREE ENERGY PREDICTED BY IDOCK:   -2.82 KCAL/MOL
REMARK 922        TOTAL FREE ENERGY PREDICTED BY IDOCK:   -3.66 KCAL/MOL
REMARK 923 INTER-LIGAND FREE ENERGY PREDICTED BY IDOCK:   -2.95 KCAL/MOL
REMARK 924 INTRA-LIGAND FREE ENERGY PREDICTED BY IDOCK:   -0.71 KCAL/MOL
REMARK 927      BINDING AFFINITY PREDICTED BY RF-SCORE:    0.00 PKD
ROOT
HETATM    1  C   UNL     1      -8.615   4.840  64.023  1.00  0.00    -0.137 C  
HETATM    2  N   UNL     1      -8.453   4.334  65.362  1.00  0.00    -0.116 NA 
HETATM    3  C   UNL     1      -9.606   4.389  66.271  1.00  0.00    -0.194 C  
HETATM    4  C   UNL     1      -9.968   5.841  66.651  1.00  0.00    -0.212 C  
HETATM    5  C   UNL     1      -8.807   6.578  67.339  1.00  0.00    -0.115 C  
HETATM    6  C   UNL     1      -7.468   6.295  66.624  1.00  0.00    -0.090 C  
HETATM    7  O   UNL     1      -8.230   4.113  68.439  1.00  0.00    -0.083 OA 
HETATM    8  C   UNL     1      -7.318   4.818  66.161  1.00  0.00    -0.078 C  
HETATM    9  C   UNL     1      -8.983   3.540  67.372  1.00  0.00    -0.146 C  
HETATM   10  C   UNL     1      -7.490   3.790  67.271  1.00  0.00    -0.071 C  
ENDROOT
BRANCH   5  11
HETATM   11  O   UNL     1      -9.055   7.970  67.691  1.00  0.00    -0.137 OA 
BRANCH  11  12
HETATM   12  C   UNL     1      -8.184   8.702  68.411  1.00  0.00    -0.122 C  
HETATM   13  C   UNL     1      -8.207  10.315  66.349  1.00  0.00    -0.129 A  
HETATM   14  C   UNL     1      -7.901  10.090  67.833  1.00  0.00    -0.090 C  
HETATM   15  C   UNL     1      -8.510  11.118  68.803  1.00  0.00    -0.134 C  
HETATM   16  C   UNL     1      -7.311   9.821  65.380  1.00  0.00    -0.118 A  
HETATM   17  O   UNL     1      -7.932  12.413  68.632  1.00  0.00    -0.242 OA 
HETATM   18  O   UNL     1      -7.679   8.309  69.463  1.00  0.00    -0.096 OA 
HETATM   19  C   UNL     1      -7.504  10.061  64.012  1.00  0.00    -0.135 A  
HETATM   20  H   UNL     1      -8.307  13.048  69.230  1.00  0.00     0.000 HD 
HETATM   21  C   UNL     1      -8.598  10.803  63.579  1.00  0.00    -0.063 A  
HETATM   22  C   UNL     1      -9.491  11.311  64.518  1.00  0.00    -0.211 A  
HETATM   23  C   UNL     1      -9.297  11.074  65.887  1.00  0.00    -0.229 A  
ENDBRANCH  11  12
ENDBRANCH   5  11
TORSDOF 2
ENDMDL
MODEL      231
REMARK 921   NORMALIZED FREE ENERGY PREDICTED BY IDOCK:   -2.80 KCAL/MOL
REMARK 922        TOTAL FREE ENERGY PREDICTED BY IDOCK:   -3.63 KCAL/MOL
REMARK 923 INTER-LIGAND FREE ENERGY PREDICTED BY IDOCK:   -3.43 KCAL/MOL
REMARK 924 INTRA-LIGAND FREE ENERGY PREDICTED BY IDOCK:   -0.20 KCAL/MOL
REMARK 927      BINDING AFFINITY PREDICTED BY RF-SCORE:    0.00 PKD
ROOT
HETATM    1  C   UNL     1     -11.757  15.897  63.960  1.00  0.00     0.141 C  
HETATM    2  N   UNL     1     -12.221  14.600  64.383  1.00  0.00    -0.546 NA 
HETATM    3  C   UNL     1     -12.379  14.354  65.822  1.00  0.00    -0.332 C  
HETATM    4  C   UNL     1     -11.019  14.325  66.553  1.00  0.00    -0.316 C  
HETATM    5  C   UNL     1     -10.077  13.240  66.004  1.00  0.00    -0.299 C  
HETATM    6  C   UNL     1     -10.108  13.208  64.460  1.00  0.00    -0.244 C  
HETATM    7  O   UNL     1     -12.390  11.778  65.637  1.00  0.00    -0.194 OA 
HETATM    8  C   UNL     1     -11.533  13.408  63.869  1.00  0.00    -0.309 C  
HETATM    9  C   UNL     1     -13.095  13.017  65.679  1.00  0.00     0.592 C  
HETATM   10  C   UNL     1     -12.572  12.422  64.385  1.00  0.00    -0.399 C  
ENDROOT
BRANCH   5  11
HETATM   11  O   UNL     1      -8.756  13.176  66.613  1.00  0.00    -0.137 OA 
BRANCH  11  12
HETATM   12  C   UNL     1      -8.473  13.759  67.793  1.00  0.00    -0.181 C  
HETATM   13  C   UNL     1      -8.299  11.304  68.689  1.00  0.00    -0.146 A  
HETATM   14  C   UNL     1      -7.974  12.791  68.868  1.00  0.00     0.182 C  
HETATM   15  C   UNL     1      -6.495  13.124  69.129  1.00  0.00    -0.107 C  
HETATM   16  C   UNL     1      -9.595  10.843  68.992  1.00  0.00    -0.170 A  
HETATM   17  O   UNL     1      -6.056  12.627  70.394  1.00  0.00    -0.309 OA 
HETATM   18  O   UNL     1      -8.572  14.971  67.990  1.00  0.00    -0.151 OA 
HETATM   19  C   UNL     1      -9.926   9.482  68.914  1.00  0.00    -0.187 A  
HETATM   20  H   UNL     1      -5.143  12.833  70.555  1.00  0.00     0.000 HD 
HETATM   21  C   UNL     1      -8.967   8.549  68.534  1.00  0.00    -0.139 A  
HETATM   22  C   UNL     1      -7.677   8.980  68.241  1.00  0.00    -0.095 A  
HETATM   23  C   UNL     1      -7.344  10.340  68.321  1.00  0.00    -0.085 A  
ENDBRANCH  11  12
ENDBRANCH   5  11
TORSDOF 2
ENDMDL
MODEL      232
REMARK 921   NORMALIZED FREE ENERGY PREDICTED BY IDOCK:   -2.75 KCAL/MOL
REMARK 922        TOTAL FREE ENERGY PREDICTED BY IDOCK:   -3.57 KCAL/MOL
REMARK 923 INTER-LIGAND FREE ENERGY PREDICTED BY IDOCK:   -2.92 KCAL/MOL
REMARK 924 INTRA-LIGAND FREE ENERGY PREDICTED BY IDOCK:   -0.65 KCAL/MOL
REMARK 927      BINDING AFFINITY PREDICTED BY RF-SCORE:    0.00 PKD
ROOT
HETATM    1  C   UNL     1     -10.553   5.823  72.343  1.00  0.00    -0.220 C  
HETATM    2  N   UNL     1      -9.644   4.732  72.588  1.00  0.00    -0.134 NA 
HETATM    3  C   UNL     1      -8.221   5.043  72.779  1.00  0.00    -0.109 C  
HETATM    4  C   UNL     1      -7.566   5.557  71.478  1.00  0.00    -0.104 C  
HETATM    5  C   UNL     1      -7.663   4.542  70.327  1.00  0.00    -0.056 C  
HETATM    6  C   UNL     1      -9.068   3.904  70.266  1.00  0.00    -0.189 C  
HETATM    7  O   UNL     1      -7.377   2.646  72.314  1.00  0.00    -0.041 OA 
HETATM    8  C   UNL     1      -9.661   3.586  71.668  1.00  0.00    -0.163 C  
HETATM    9  C   UNL     1      -7.812   3.647  73.232  1.00  0.00    -0.074 C  
HETATM   10  C   UNL     1      -8.778   2.704  72.539  1.00  0.00    -0.074 C  
ENDROOT
BRANCH   5  11
HETATM   11  O   UNL     1      -7.105   4.970  69.052  1.00  0.00    -0.051 OA 
BRANCH  11  12
HETATM   12  C   UNL     1      -7.048   4.161  67.977  1.00  0.00    -0.059 C  
HETATM   13  C   UNL     1      -8.813   5.800  66.951  1.00  0.00    -0.114 A  
HETATM   14  C   UNL     1      -7.757   4.711  66.738  1.00  0.00    -0.095 C  
HETATM   15  C   UNL     1      -6.669   5.031  65.698  1.00  0.00    -0.056 C  
HETATM   16  C   UNL     1     -10.092   5.435  67.417  1.00  0.00    -0.223 A  
HETATM   17  O   UNL     1      -7.207   5.106  64.377  1.00  0.00    -0.053 OA 
HETATM   18  O   UNL     1      -6.451   3.083  67.973  1.00  0.00    -0.035 OA 
HETATM   19  C   UNL     1     -11.118   6.381  67.561  1.00  0.00    -0.401 A  
HETATM   20  H   UNL     1      -6.536   5.304  63.734  1.00  0.00     0.000 HD 
HETATM   21  C   UNL     1     -10.890   7.715  67.240  1.00  0.00    -0.263 A  
HETATM   22  C   UNL     1      -9.638   8.097  66.766  1.00  0.00    -0.281 A  
HETATM   23  C   UNL     1      -8.613   7.152  66.619  1.00  0.00    -0.124 A  
ENDBRANCH  11  12
ENDBRANCH   5  11
TORSDOF 2
ENDMDL
MODEL      233
REMARK 921   NORMALIZED FREE ENERGY PREDICTED BY IDOCK:   -2.70 KCAL/MOL
REMARK 922        TOTAL FREE ENERGY PREDICTED BY IDOCK:   -3.52 KCAL/MOL
REMARK 923 INTER-LIGAND FREE ENERGY PREDICTED BY IDOCK:   -3.07 KCAL/MOL
REMARK 924 INTRA-LIGAND FREE ENERGY PREDICTED BY IDOCK:   -0.45 KCAL/MOL
REMARK 927      BINDING AFFINITY PREDICTED BY RF-SCORE:    0.00 PKD
ROOT
HETATM    1  C   UNL     1      -9.403   8.957  71.555  1.00  0.00    -0.265 C  
HETATM    2  N   UNL     1      -9.779   7.600  71.253  1.00  0.00    -0.161 NA 
HETATM    3  C   UNL     1      -8.740   6.683  70.764  1.00  0.00    -0.143 C  
HETATM    4  C   UNL     1      -8.250   7.071  69.352  1.00  0.00    -0.132 C  
HETATM    5  C   UNL     1      -9.385   7.073  68.314  1.00  0.00    -0.126 C  
HETATM    6  C   UNL     1     -10.657   7.738  68.882  1.00  0.00    -0.168 C  
HETATM    7  O   UNL     1     -10.381   4.951  69.773  1.00  0.00    -0.260 OA 
HETATM    8  C   UNL     1     -10.931   7.372  70.370  1.00  0.00    -0.251 C  
HETATM    9  C   UNL     1      -9.585   5.418  70.861  1.00  0.00    -0.173 C  
HETATM   10  C   UNL     1     -11.015   5.877  70.644  1.00  0.00    -0.287 C  
ENDROOT
BRANCH   5  11
HETATM   11  O   UNL     1      -9.012   7.470  66.963  1.00  0.00    -0.123 OA 
BRANCH  11  12
HETATM   12  C   UNL     1      -7.730   7.634  66.584  1.00  0.00    -0.098 C  
HETATM   13  C   UNL     1      -7.861   5.107  65.907  1.00  0.00    -0.102 A  
HETATM   14  C   UNL     1      -7.158   6.463  65.782  1.00  0.00    -0.062 C  
HETATM   15  C   UNL     1      -6.929   6.966  64.346  1.00  0.00    -0.055 C  
HETATM   16  C   UNL     1      -7.638   4.321  67.054  1.00  0.00    -0.081 A  
HETATM   17  O   UNL     1      -5.996   6.145  63.641  1.00  0.00    -0.022 OA 
HETATM   18  O   UNL     1      -7.077   8.648  66.829  1.00  0.00    -0.076 OA 
HETATM   19  C   UNL     1      -8.199   3.042  67.188  1.00  0.00    -0.084 A  
HETATM   20  H   UNL     1      -5.854   6.455  62.755  1.00  0.00     0.000 HD 
HETATM   21  C   UNL     1      -8.995   2.518  66.175  1.00  0.00    -0.123 A  
HETATM   22  C   UNL     1      -9.219   3.271  65.027  1.00  0.00    -0.148 A  
HETATM   23  C   UNL     1      -8.657   4.549  64.891  1.00  0.00    -0.135 A  
ENDBRANCH  11  12
ENDBRANCH   5  11
TORSDOF 2
ENDMDL
MODEL      234
REMARK 921   NORMALIZED FREE ENERGY PREDICTED BY IDOCK:   -2.70 KCAL/MOL
REMARK 922        TOTAL FREE ENERGY PREDICTED BY IDOCK:   -3.52 KCAL/MOL
REMARK 923 INTER-LIGAND FREE ENERGY PREDICTED BY IDOCK:   -2.91 KCAL/MOL
REMARK 924 INTRA-LIGAND FREE ENERGY PREDICTED BY IDOCK:   -0.61 KCAL/MOL
REMARK 927      BINDING AFFINITY PREDICTED BY RF-SCORE:    0.00 PKD
ROOT
HETATM    1  C   UNL     1      -9.201   1.636  67.276  1.00  0.00    -0.069 C  
HETATM    2  N   UNL     1      -8.451   2.749  66.752  1.00  0.00    -0.096 NA 
HETATM    3  C   UNL     1      -7.331   3.270  67.548  1.00  0.00    -0.058 C  
HETATM    4  C   UNL     1      -7.817   3.953  68.845  1.00  0.00    -0.056 C  
HETATM    5  C   UNL     1      -8.771   5.128  68.571  1.00  0.00    -0.097 C  
HETATM    6  C   UNL     1      -9.797   4.768  67.475  1.00  0.00    -0.206 C  
HETATM    7  O   UNL     1      -7.202   5.548  66.338  1.00  0.00    -0.074 OA 
HETATM    8  C   UNL     1      -9.186   3.941  66.307  1.00  0.00    -0.163 C  
HETATM    9  C   UNL     1      -6.781   4.192  66.466  1.00  0.00    -0.050 C  
HETATM   10  C   UNL     1      -7.986   4.594  65.636  1.00  0.00    -0.095 C  
ENDROOT
BRANCH   5  11
HETATM   11  O   UNL     1      -9.308   5.799  69.747  1.00  0.00    -0.142 OA 
BRANCH  11  12
HETATM   12  C   UNL     1     -10.361   6.637  69.685  1.00  0.00    -0.194 C  
HETATM   13  C   UNL     1      -8.548   8.509  69.423  1.00  0.00    -0.128 A  
HETATM   14  C   UNL     1     -10.005   8.063  69.260  1.00  0.00    -0.191 C  
HETATM   15  C   UNL     1     -10.620   8.288  67.868  1.00  0.00    -0.147 C  
HETATM   16  C   UNL     1      -8.078   8.863  70.703  1.00  0.00    -0.161 A  
HETATM   17  O   UNL     1     -10.759   9.678  67.569  1.00  0.00    -0.274 OA 
HETATM   18  O   UNL     1     -11.518   6.286  69.918  1.00  0.00    -0.422 OA 
HETATM   19  C   UNL     1      -6.775   9.345  70.898  1.00  0.00    -0.097 A  
HETATM   20  H   UNL     1     -11.138   9.817  66.710  1.00  0.00     0.000 HD 
HETATM   21  C   UNL     1      -5.913   9.489  69.816  1.00  0.00    -0.036 A  
HETATM   22  C   UNL     1      -6.360   9.157  68.540  1.00  0.00    -0.053 A  
HETATM   23  C   UNL     1      -7.663   8.677  68.344  1.00  0.00    -0.100 A  
ENDBRANCH  11  12
ENDBRANCH   5  11
TORSDOF 2
ENDMDL
MODEL      235
REMARK 921   NORMALIZED FREE ENERGY PREDICTED BY IDOCK:   -2.69 KCAL/MOL
REMARK 922        TOTAL FREE ENERGY PREDICTED BY IDOCK:   -3.51 KCAL/MOL
REMARK 923 INTER-LIGAND FREE ENERGY PREDICTED BY IDOCK:   -2.81 KCAL/MOL
REMARK 924 INTRA-LIGAND FREE ENERGY PREDICTED BY IDOCK:   -0.70 KCAL/MOL
REMARK 927      BINDING AFFINITY PREDICTED BY RF-SCORE:    0.00 PKD
ROOT
HETATM    1  C   UNL     1      -9.802  12.367  66.889  1.00  0.00    -0.215 C  
HETATM    2  N   UNL     1     -10.311  11.470  67.895  1.00  0.00    -0.179 NA 
HETATM    3  C   UNL     1      -9.414  11.065  68.985  1.00  0.00    -0.108 C  
HETATM    4  C   UNL     1      -8.266  10.163  68.478  1.00  0.00    -0.111 C  
HETATM    5  C   UNL     1      -8.778   8.879  67.806  1.00  0.00    -0.125 C  
HETATM    6  C   UNL     1      -9.973   9.178  66.874  1.00  0.00    -0.304 C  
HETATM    7  O   UNL     1     -10.792   8.998  69.691  1.00  0.00    -0.231 OA 
HETATM    8  C   UNL     1     -10.962  10.226  67.459  1.00  0.00    -0.280 C  
HETATM    9  C   UNL     1     -10.483  10.383  69.829  1.00  0.00    -0.240 C  
HETATM   10  C   UNL     1     -11.511   9.874  68.835  1.00  0.00     0.080 C  
ENDROOT
BRANCH   5  11
HETATM   11  O   UNL     1      -7.757   7.994  67.263  1.00  0.00    -0.098 OA 
BRANCH  11  12
HETATM   12  C   UNL     1      -8.018   6.723  66.900  1.00  0.00    -0.109 C  
HETATM   13  C   UNL     1      -7.440   6.150  69.389  1.00  0.00    -0.093 A  
HETATM   14  C   UNL     1      -8.104   5.741  68.070  1.00  0.00    -0.104 C  
HETATM   15  C   UNL     1      -9.570   5.287  68.173  1.00  0.00    -0.129 C  
HETATM   16  C   UNL     1      -6.041   6.046  69.515  1.00  0.00    -0.029 A  
HETATM   17  O   UNL     1      -9.695   4.061  68.895  1.00  0.00    -0.161 OA 
HETATM   18  O   UNL     1      -8.204   6.378  65.732  1.00  0.00    -0.120 OA 
HETATM   19  C   UNL     1      -5.390   6.339  70.722  1.00  0.00    -0.018 A  
HETATM   20  H   UNL     1     -10.600   3.780  68.960  1.00  0.00     0.000 HD 
HETATM   21  C   UNL     1      -6.123   6.739  71.834  1.00  0.00    -0.038 A  
HETATM   22  C   UNL     1      -7.508   6.837  71.737  1.00  0.00    -0.087 A  
HETATM   23  C   UNL     1      -8.161   6.542  70.531  1.00  0.00    -0.117 A  
ENDBRANCH  11  12
ENDBRANCH   5  11
TORSDOF 2
ENDMDL
MODEL      236
REMARK 921   NORMALIZED FREE ENERGY PREDICTED BY IDOCK:   -2.67 KCAL/MOL
REMARK 922        TOTAL FREE ENERGY PREDICTED BY IDOCK:   -3.49 KCAL/MOL
REMARK 923 INTER-LIGAND FREE ENERGY PREDICTED BY IDOCK:   -2.84 KCAL/MOL
REMARK 924 INTRA-LIGAND FREE ENERGY PREDICTED BY IDOCK:   -0.65 KCAL/MOL
REMARK 927      BINDING AFFINITY PREDICTED BY RF-SCORE:    0.00 PKD
ROOT
HETATM    1  C   UNL     1      -9.494   4.055  63.375  1.00  0.00    -0.150 C  
HETATM    2  N   UNL     1      -9.004   3.230  64.449  1.00  0.00    -0.113 NA 
HETATM    3  C   UNL     1      -9.639   3.354  65.768  1.00  0.00    -0.067 C  
HETATM    4  C   UNL     1      -9.344   4.723  66.420  1.00  0.00    -0.146 C  
HETATM    5  C   UNL     1      -7.839   4.973  66.612  1.00  0.00    -0.100 C  
HETATM    6  C   UNL     1      -7.041   4.543  65.361  1.00  0.00    -0.067 C  
HETATM    7  O   UNL     1      -7.706   2.256  67.082  1.00  0.00    -0.064 OA 
HETATM    8  C   UNL     1      -7.560   3.222  64.724  1.00  0.00    -0.077 C  
HETATM    9  C   UNL     1      -8.950   2.147  66.392  1.00  0.00    -0.100 C  
HETATM   10  C   UNL     1      -7.614   2.040  65.682  1.00  0.00    -0.071 C  
ENDROOT
BRANCH   5  11
HETATM   11  O   UNL     1      -7.475   6.262  67.183  1.00  0.00    -0.082 OA 
BRANCH  11  12
HETATM   12  C   UNL     1      -8.261   6.913  68.062  1.00  0.00    -0.115 C  
HETATM   13  C   UNL     1      -8.241   8.836  66.285  1.00  0.00    -0.115 A  
HETATM   14  C   UNL     1      -8.897   8.190  67.509  1.00  0.00    -0.137 C  
HETATM   15  C   UNL     1     -10.409   7.931  67.397  1.00  0.00    -0.279 C  
HETATM   16  C   UNL     1      -7.067   9.596  66.456  1.00  0.00    -0.089 A  
HETATM   17  O   UNL     1     -11.152   9.150  67.342  1.00  0.00    -0.412 OA 
HETATM   18  O   UNL     1      -8.480   6.506  69.203  1.00  0.00    -0.124 OA 
HETATM   19  C   UNL     1      -6.465  10.268  65.381  1.00  0.00    -0.123 A  
HETATM   20  H   UNL     1     -12.086   8.991  67.272  1.00  0.00     0.000 HD 
HETATM   21  C   UNL     1      -7.026  10.199  64.111  1.00  0.00    -0.098 A  
HETATM   22  C   UNL     1      -8.193   9.465  63.920  1.00  0.00    -0.165 A  
HETATM   23  C   UNL     1      -8.796   8.794  64.994  1.00  0.00    -0.151 A  
ENDBRANCH  11  12
ENDBRANCH   5  11
TORSDOF 2
ENDMDL
MODEL      237
REMARK 921   NORMALIZED FREE ENERGY PREDICTED BY IDOCK:   -2.65 KCAL/MOL
REMARK 922        TOTAL FREE ENERGY PREDICTED BY IDOCK:   -3.47 KCAL/MOL
REMARK 923 INTER-LIGAND FREE ENERGY PREDICTED BY IDOCK:   -4.03 KCAL/MOL
REMARK 924 INTRA-LIGAND FREE ENERGY PREDICTED BY IDOCK:    0.56 KCAL/MOL
REMARK 927      BINDING AFFINITY PREDICTED BY RF-SCORE:    0.00 PKD
ROOT
HETATM    1  C   UNL     1      -8.837   6.663  65.102  1.00  0.00     0.224 C  
HETATM    2  N   UNL     1      -8.185   7.923  65.350  1.00  0.00    -0.133 NA 
HETATM    3  C   UNL     1      -7.635   8.170  66.690  1.00  0.00    -0.093 C  
HETATM    4  C   UNL     1      -8.749   8.311  67.751  1.00  0.00    -0.134 C  
HETATM    5  C   UNL     1      -9.721   9.460  67.436  1.00  0.00    -0.159 C  
HETATM    6  C   UNL     1     -10.096   9.476  65.938  1.00  0.00    -0.284 C  
HETATM    7  O   UNL     1      -7.488  10.735  66.433  1.00  0.00    -0.131 OA 
HETATM    8  C   UNL     1      -8.897   9.160  65.000  1.00  0.00    -0.189 C  
HETATM    9  C   UNL     1      -6.888   9.446  66.324  1.00  0.00    -0.086 C  
HETATM   10  C   UNL     1      -7.689  10.067  65.196  1.00  0.00    -0.137 C  
ENDROOT
BRANCH   5  11
HETATM   11  O   UNL     1     -10.827   9.633  68.368  1.00  0.00    -0.219 OA 
BRANCH  11  12
HETATM   12  C   UNL     1     -10.767  10.476  69.416  1.00  0.00    -0.241 C  
HETATM   13  C   UNL     1     -10.925  12.357  67.602  1.00  0.00    -0.276 A  
HETATM   14  C   UNL     1     -11.070  11.935  69.067  1.00  0.00    -0.300 C  
HETATM   15  C   UNL     1     -12.409  12.291  69.736  1.00  0.00    -0.016 C  
HETATM   16  C   UNL     1      -9.639  12.588  67.077  1.00  0.00    -0.216 A  
HETATM   17  O   UNL     1     -12.570  13.704  69.876  1.00  0.00    -0.221 OA 
HETATM   18  O   UNL     1     -10.521  10.109  70.566  1.00  0.00    -0.261 OA 
HETATM   19  C   UNL     1      -9.453  13.046  65.765  1.00  0.00     0.015 A  
HETATM   20  H   UNL     1     -13.397  13.925  70.289  1.00  0.00     0.000 HD 
HETATM   21  C   UNL     1     -10.551  13.287  64.946  1.00  0.00    -0.381 A  
HETATM   22  C   UNL     1     -11.832  13.078  65.446  1.00  0.00    -0.428 A  
HETATM   23  C   UNL     1     -12.019  12.623  66.759  1.00  0.00    -0.362 A  
ENDBRANCH  11  12
ENDBRANCH   5  11
TORSDOF 2
ENDMDL
MODEL      238
REMARK 921   NORMALIZED FREE ENERGY PREDICTED BY IDOCK:   -2.62 KCAL/MOL
REMARK 922        TOTAL FREE ENERGY PREDICTED BY IDOCK:   -3.43 KCAL/MOL
REMARK 923 INTER-LIGAND FREE ENERGY PREDICTED BY IDOCK:   -2.69 KCAL/MOL
REMARK 924 INTRA-LIGAND FREE ENERGY PREDICTED BY IDOCK:   -0.74 KCAL/MOL
REMARK 927      BINDING AFFINITY PREDICTED BY RF-SCORE:    0.00 PKD
ROOT
HETATM    1  C   UNL     1      -8.011   4.100  70.979  1.00  0.00    -0.071 C  
HETATM    2  N   UNL     1      -8.286   4.045  69.565  1.00  0.00    -0.058 NA 
HETATM    3  C   UNL     1      -7.150   4.094  68.634  1.00  0.00    -0.055 C  
HETATM    4  C   UNL     1      -6.457   5.474  68.647  1.00  0.00    -0.043 C  
HETATM    5  C   UNL     1      -7.412   6.618  68.266  1.00  0.00    -0.095 C  
HETATM    6  C   UNL     1      -8.782   6.452  68.960  1.00  0.00    -0.123 C  
HETATM    7  O   UNL     1      -8.549   4.761  66.568  1.00  0.00    -0.110 OA 
HETATM    8  C   UNL     1      -9.274   4.977  69.007  1.00  0.00    -0.114 C  
HETATM    9  C   UNL     1      -7.953   3.755  67.384  1.00  0.00    -0.090 C  
HETATM   10  C   UNL     1      -9.346   4.295  67.647  1.00  0.00    -0.161 C  
ENDROOT
BRANCH   5  11
HETATM   11  O   UNL     1      -6.845   7.958  68.296  1.00  0.00    -0.067 OA 
BRANCH  11  12
HETATM   12  C   UNL     1      -6.218   8.504  67.237  1.00  0.00    -0.056 C  
HETATM   13  C   UNL     1      -8.363   9.994  67.043  1.00  0.00    -0.121 A  
HETATM   14  C   UNL     1      -6.889   9.768  66.693  1.00  0.00    -0.084 C  
HETATM   15  C   UNL     1      -5.944  10.946  66.989  1.00  0.00    -0.069 C  
HETATM   16  C   UNL     1      -9.353   9.272  66.348  1.00  0.00    -0.247 A  
HETATM   17  O   UNL     1      -6.220  12.069  66.151  1.00  0.00    -0.397 OA 
HETATM   18  O   UNL     1      -5.177   8.051  66.759  1.00  0.00    -0.027 OA 
HETATM   19  C   UNL     1     -10.719   9.492  66.578  1.00  0.00    -0.031 A  
HETATM   20  H   UNL     1      -5.637  12.796  66.334  1.00  0.00     0.000 HD 
HETATM   21  C   UNL     1     -11.128  10.443  67.506  1.00  0.00    -0.336 A  
HETATM   22  C   UNL     1     -10.168  11.178  68.196  1.00  0.00    -0.198 A  
HETATM   23  C   UNL     1      -8.802  10.960  67.966  1.00  0.00    -0.135 A  
ENDBRANCH  11  12
ENDBRANCH   5  11
TORSDOF 2
ENDMDL
MODEL      239
REMARK 921   NORMALIZED FREE ENERGY PREDICTED BY IDOCK:   -2.50 KCAL/MOL
REMARK 922        TOTAL FREE ENERGY PREDICTED BY IDOCK:   -3.30 KCAL/MOL
REMARK 923 INTER-LIGAND FREE ENERGY PREDICTED BY IDOCK:   -2.63 KCAL/MOL
REMARK 924 INTRA-LIGAND FREE ENERGY PREDICTED BY IDOCK:   -0.67 KCAL/MOL
REMARK 927      BINDING AFFINITY PREDICTED BY RF-SCORE:    0.00 PKD
ROOT
HETATM    1  C   UNL     1      -7.728   2.949  71.924  1.00  0.00    -0.053 C  
HETATM    2  N   UNL     1      -8.279   4.226  72.299  1.00  0.00    -0.101 NA 
HETATM    3  C   UNL     1      -9.252   4.856  71.396  1.00  0.00    -0.145 C  
HETATM    4  C   UNL     1      -8.600   5.303  70.070  1.00  0.00    -0.117 C  
HETATM    5  C   UNL     1      -7.457   6.310  70.285  1.00  0.00    -0.094 C  
HETATM    6  C   UNL     1      -6.557   5.885  71.465  1.00  0.00    -0.054 C  
HETATM    7  O   UNL     1      -9.004   7.232  72.377  1.00  0.00    -0.126 OA 
HETATM    8  C   UNL     1      -7.353   5.306  72.670  1.00  0.00    -0.095 C  
HETATM    9  C   UNL     1      -9.663   5.968  72.354  1.00  0.00    -0.158 C  
HETATM   10  C   UNL     1      -8.437   6.230  73.209  1.00  0.00    -0.119 C  
ENDROOT
BRANCH   5  11
HETATM   11  O   UNL     1      -6.761   6.749  69.084  1.00  0.00    -0.052 OA 
BRANCH  11  12
HETATM   12  C   UNL     1      -6.551   5.937  68.030  1.00  0.00    -0.052 C  
HETATM   13  C   UNL     1      -8.137   7.584  66.753  1.00  0.00    -0.123 A  
HETATM   14  C   UNL     1      -7.067   6.489  66.699  1.00  0.00    -0.068 C  
HETATM   15  C   UNL     1      -5.836   6.801  65.830  1.00  0.00    -0.034 C  
HETATM   16  C   UNL     1      -9.472   7.228  67.026  1.00  0.00    -0.196 A  
HETATM   17  O   UNL     1      -6.173   6.877  64.444  1.00  0.00    -0.035 OA 
HETATM   18  O   UNL     1      -5.967   4.857  68.114  1.00  0.00    -0.024 OA 
HETATM   19  C   UNL     1     -10.502   8.179  67.017  1.00  0.00    -0.396 A  
HETATM   20  H   UNL     1      -5.414   7.070  63.907  1.00  0.00     0.000 HD 
HETATM   21  C   UNL     1     -10.222   9.511  66.732  1.00  0.00    -0.313 A  
HETATM   22  C   UNL     1      -8.912   9.886  66.447  1.00  0.00    -0.169 A  
HETATM   23  C   UNL     1      -7.881   8.934  66.453  1.00  0.00    -0.103 A  
ENDBRANCH  11  12
ENDBRANCH   5  11
TORSDOF 2
ENDMDL
MODEL      240
REMARK 921   NORMALIZED FREE ENERGY PREDICTED BY IDOCK:   -2.42 KCAL/MOL
REMARK 922        TOTAL FREE ENERGY PREDICTED BY IDOCK:   -3.21 KCAL/MOL
REMARK 923 INTER-LIGAND FREE ENERGY PREDICTED BY IDOCK:   -2.55 KCAL/MOL
REMARK 924 INTRA-LIGAND FREE ENERGY PREDICTED BY IDOCK:   -0.66 KCAL/MOL
REMARK 927      BINDING AFFINITY PREDICTED BY RF-SCORE:    0.00 PKD
ROOT
HETATM    1  C   UNL     1     -10.286   7.536  70.021  1.00  0.00    -0.221 C  
HETATM    2  N   UNL     1      -9.405   6.739  70.835  1.00  0.00    -0.158 NA 
HETATM    3  C   UNL     1      -8.040   7.229  71.067  1.00  0.00    -0.103 C  
HETATM    4  C   UNL     1      -7.193   7.203  69.776  1.00  0.00    -0.079 C  
HETATM    5  C   UNL     1      -7.077   5.792  69.175  1.00  0.00    -0.065 C  
HETATM    6  C   UNL     1      -8.438   5.063  69.203  1.00  0.00    -0.088 C  
HETATM    7  O   UNL     1      -7.076   4.950  71.804  1.00  0.00    -0.057 OA 
HETATM    8  C   UNL     1      -9.245   5.315  70.509  1.00  0.00    -0.146 C  
HETATM    9  C   UNL     1      -7.678   6.200  72.131  1.00  0.00    -0.101 C  
HETATM   10  C   UNL     1      -8.495   4.969  71.788  1.00  0.00    -0.124 C  
ENDROOT
BRANCH   5  11
HETATM   11  O   UNL     1      -6.329   5.690  67.930  1.00  0.00    -0.038 OA 
BRANCH  11  12
HETATM   12  C   UNL     1      -6.186   6.726  67.082  1.00  0.00    -0.033 C  
HETATM   13  C   UNL     1      -7.928   5.445  65.606  1.00  0.00    -0.107 A  
HETATM   14  C   UNL     1      -7.213   6.756  65.948  1.00  0.00    -0.070 C  
HETATM   15  C   UNL     1      -8.125   7.970  66.193  1.00  0.00    -0.111 C  
HETATM   16  C   UNL     1      -7.249   4.468  64.852  1.00  0.00    -0.067 A  
HETATM   17  O   UNL     1      -8.803   8.371  65.002  1.00  0.00    -0.379 OA 
HETATM   18  O   UNL     1      -5.327   7.598  67.219  1.00  0.00    -0.028 OA 
HETATM   19  C   UNL     1      -7.880   3.282  64.450  1.00  0.00    -0.082 A  
HETATM   20  H   UNL     1      -9.367   9.121  65.153  1.00  0.00     0.000 HD 
HETATM   21  C   UNL     1      -9.208   3.046  64.790  1.00  0.00    -0.146 A  
HETATM   22  C   UNL     1      -9.904   4.003  65.523  1.00  0.00    -0.186 A  
HETATM   23  C   UNL     1      -9.274   5.190  65.923  1.00  0.00    -0.163 A  
ENDBRANCH  11  12
ENDBRANCH   5  11
TORSDOF 2
ENDMDL
MODEL      241
REMARK 921   NORMALIZED FREE ENERGY PREDICTED BY IDOCK:   -2.35 KCAL/MOL
REMARK 922        TOTAL FREE ENERGY PREDICTED BY IDOCK:   -3.13 KCAL/MOL
REMARK 923 INTER-LIGAND FREE ENERGY PREDICTED BY IDOCK:   -2.97 KCAL/MOL
REMARK 924 INTRA-LIGAND FREE ENERGY PREDICTED BY IDOCK:   -0.16 KCAL/MOL
REMARK 927      BINDING AFFINITY PREDICTED BY RF-SCORE:    0.00 PKD
ROOT
HETATM    1  C   UNL     1      -8.439   2.919  65.730  1.00  0.00    -0.107 C  
HETATM    2  N   UNL     1      -7.456   3.968  65.826  1.00  0.00    -0.080 NA 
HETATM    3  C   UNL     1      -6.416   3.855  66.857  1.00  0.00    -0.041 C  
HETATM    4  C   UNL     1      -6.999   4.001  68.279  1.00  0.00    -0.048 C  
HETATM    5  C   UNL     1      -7.708   5.349  68.490  1.00  0.00    -0.084 C  
HETATM    6  C   UNL     1      -8.585   5.713  67.272  1.00  0.00    -0.109 C  
HETATM    7  O   UNL     1      -5.752   6.350  66.819  1.00  0.00    -0.013 OA 
HETATM    8  C   UNL     1      -7.922   5.359  65.910  1.00  0.00    -0.106 C  
HETATM    9  C   UNL     1      -5.565   5.015  66.355  1.00  0.00    -0.017 C  
HETATM   10  C   UNL     1      -6.544   5.973  65.703  1.00  0.00    -0.047 C  
ENDROOT
BRANCH   5  11
HETATM   11  O   UNL     1      -8.323   5.548  69.795  1.00  0.00    -0.102 OA 
BRANCH  11  12
HETATM   12  C   UNL     1      -9.442   4.901  70.175  1.00  0.00    -0.172 C  
HETATM   13  C   UNL     1      -9.225   6.317  72.368  1.00  0.00    -0.138 A  
HETATM   14  C   UNL     1     -10.096   5.467  71.438  1.00  0.00    -0.262 C  
HETATM   15  C   UNL     1     -11.431   6.101  71.010  1.00  0.00    -0.248 C  
HETATM   16  C   UNL     1      -8.313   5.676  73.230  1.00  0.00    -0.117 A  
HETATM   17  O   UNL     1     -12.326   6.243  72.115  1.00  0.00    -0.466 OA 
HETATM   18  O   UNL     1      -9.921   3.955  69.550  1.00  0.00    -0.104 OA 
HETATM   19  C   UNL     1      -7.542   6.401  74.152  1.00  0.00    -0.091 A  
HETATM   20  H   UNL     1     -13.151   6.635  71.852  1.00  0.00     0.000 HD 
HETATM   21  C   UNL     1      -7.669   7.783  74.236  1.00  0.00    -0.221 A  
HETATM   22  C   UNL     1      -8.572   8.436  73.403  1.00  0.00    -0.184 A  
HETATM   23  C   UNL     1      -9.344   7.713  72.482  1.00  0.00    -0.215 A  
ENDBRANCH  11  12
ENDBRANCH   5  11
TORSDOF 2
ENDMDL
MODEL      242
REMARK 921   NORMALIZED FREE ENERGY PREDICTED BY IDOCK:   -2.35 KCAL/MOL
REMARK 922        TOTAL FREE ENERGY PREDICTED BY IDOCK:   -3.13 KCAL/MOL
REMARK 923 INTER-LIGAND FREE ENERGY PREDICTED BY IDOCK:   -2.61 KCAL/MOL
REMARK 924 INTRA-LIGAND FREE ENERGY PREDICTED BY IDOCK:   -0.51 KCAL/MOL
REMARK 927      BINDING AFFINITY PREDICTED BY RF-SCORE:    0.00 PKD
ROOT
HETATM    1  C   UNL     1      -8.826   2.738  65.448  1.00  0.00    -0.131 C  
HETATM    2  N   UNL     1      -8.252   3.914  64.848  1.00  0.00    -0.093 NA 
HETATM    3  C   UNL     1      -7.081   4.524  65.493  1.00  0.00    -0.067 C  
HETATM    4  C   UNL     1      -7.440   5.153  66.857  1.00  0.00    -0.087 C  
HETATM    5  C   UNL     1      -8.517   6.244  66.737  1.00  0.00    -0.111 C  
HETATM    6  C   UNL     1      -9.650   5.805  65.785  1.00  0.00     0.048 C  
HETATM    7  O   UNL     1      -7.311   6.813  64.320  1.00  0.00    -0.074 OA 
HETATM    8  C   UNL     1      -9.138   5.042  64.530  1.00  0.00     0.002 C  
HETATM    9  C   UNL     1      -6.764   5.497  64.364  1.00  0.00    -0.046 C  
HETATM   10  C   UNL     1      -8.100   5.801  63.714  1.00  0.00    -0.108 C  
ENDROOT
BRANCH   5  11
HETATM   11  O   UNL     1      -8.943   6.859  67.987  1.00  0.00    -0.123 OA 
BRANCH  11  12
HETATM   12  C   UNL     1      -8.196   7.772  68.638  1.00  0.00    -0.128 C  
HETATM   13  C   UNL     1      -9.622   7.095  70.727  1.00  0.00    -0.168 A  
HETATM   14  C   UNL     1      -8.358   7.747  70.159  1.00  0.00    -0.128 C  
HETATM   15  C   UNL     1      -7.027   7.248  70.748  1.00  0.00    -0.056 C  
HETATM   16  C   UNL     1     -10.837   7.807  70.694  1.00  0.00    -0.241 A  
HETATM   17  O   UNL     1      -6.889   7.611  72.123  1.00  0.00    -0.057 OA 
HETATM   18  O   UNL     1      -7.423   8.542  68.068  1.00  0.00    -0.094 OA 
HETATM   19  C   UNL     1     -12.008   7.287  71.263  1.00  0.00    -0.359 A  
HETATM   20  H   UNL     1      -6.067   7.303  72.487  1.00  0.00     0.000 HD 
HETATM   21  C   UNL     1     -11.992   6.042  71.883  1.00  0.00    -0.185 A  
HETATM   22  C   UNL     1     -10.801   5.325  71.939  1.00  0.00    -0.218 A  
HETATM   23  C   UNL     1      -9.628   5.845  71.372  1.00  0.00    -0.189 A  
ENDBRANCH  11  12
ENDBRANCH   5  11
TORSDOF 2
ENDMDL
MODEL      243
REMARK 921   NORMALIZED FREE ENERGY PREDICTED BY IDOCK:   -2.21 KCAL/MOL
REMARK 922        TOTAL FREE ENERGY PREDICTED BY IDOCK:   -2.98 KCAL/MOL
REMARK 923 INTER-LIGAND FREE ENERGY PREDICTED BY IDOCK:   -2.62 KCAL/MOL
REMARK 924 INTRA-LIGAND FREE ENERGY PREDICTED BY IDOCK:   -0.35 KCAL/MOL
REMARK 927      BINDING AFFINITY PREDICTED BY RF-SCORE:    0.00 PKD
ROOT
HETATM    1  C   UNL     1      -7.528   6.027  65.418  1.00  0.00    -0.082 C  
HETATM    2  N   UNL     1      -8.311   5.130  66.229  1.00  0.00    -0.112 NA 
HETATM    3  C   UNL     1      -9.449   5.683  66.976  1.00  0.00    -0.127 C  
HETATM    4  C   UNL     1      -8.989   6.624  68.110  1.00  0.00    -0.121 C  
HETATM    5  C   UNL     1      -8.073   5.921  69.125  1.00  0.00    -0.106 C  
HETATM    6  C   UNL     1      -7.032   5.031  68.412  1.00  0.00    -0.057 C  
HETATM    7  O   UNL     1      -9.647   3.708  68.628  1.00  0.00    -0.161 OA 
HETATM    8  C   UNL     1      -7.613   4.264  67.189  1.00  0.00    -0.077 C  
HETATM    9  C   UNL     1     -10.025   4.339  67.407  1.00  0.00    -0.066 C  
HETATM   10  C   UNL     1      -8.832   3.408  67.505  1.00  0.00    -0.130 C  
ENDROOT
BRANCH   5  11
HETATM   11  O   UNL     1      -7.561   6.754  70.205  1.00  0.00    -0.094 OA 
BRANCH  11  12
HETATM   12  C   UNL     1      -8.235   7.818  70.681  1.00  0.00    -0.115 C  
HETATM   13  C   UNL     1      -8.994   6.181  72.579  1.00  0.00    -0.134 A  
HETATM   14  C   UNL     1      -8.809   7.620  72.086  1.00  0.00    -0.161 C  
HETATM   15  C   UNL     1      -8.032   8.554  73.029  1.00  0.00    -0.004 C  
HETATM   16  C   UNL     1     -10.093   5.432  72.116  1.00  0.00    -0.237 A  
HETATM   17  O   UNL     1      -8.753   8.805  74.237  1.00  0.00    -0.156 OA 
HETATM   18  O   UNL     1      -8.355   8.875  70.061  1.00  0.00    -0.115 OA 
HETATM   19  C   UNL     1     -10.350   4.137  72.589  1.00  0.00    -0.233 A  
HETATM   20  H   UNL     1      -8.274   9.382  74.820  1.00  0.00     0.000 HD 
HETATM   21  C   UNL     1      -9.516   3.562  73.541  1.00  0.00    -0.126 A  
HETATM   22  C   UNL     1      -8.431   4.287  74.023  1.00  0.00    -0.095 A  
HETATM   23  C   UNL     1      -8.174   5.583  73.552  1.00  0.00    -0.113 A  
ENDBRANCH  11  12
ENDBRANCH   5  11
TORSDOF 2
ENDMDL
MODEL      244
REMARK 921   NORMALIZED FREE ENERGY PREDICTED BY IDOCK:   -2.16 KCAL/MOL
REMARK 922        TOTAL FREE ENERGY PREDICTED BY IDOCK:   -2.92 KCAL/MOL
REMARK 923 INTER-LIGAND FREE ENERGY PREDICTED BY IDOCK:   -2.10 KCAL/MOL
REMARK 924 INTRA-LIGAND FREE ENERGY PREDICTED BY IDOCK:   -0.81 KCAL/MOL
REMARK 927      BINDING AFFINITY PREDICTED BY RF-SCORE:    0.00 PKD
ROOT
HETATM    1  C   UNL     1      -5.207   3.899  70.527  1.00  0.00    -0.004 C  
HETATM    2  N   UNL     1      -6.634   3.718  70.610  1.00  0.00    -0.031 NA 
HETATM    3  C   UNL     1      -7.312   3.018  69.511  1.00  0.00    -0.044 C  
HETATM    4  C   UNL     1      -7.294   3.846  68.207  1.00  0.00    -0.059 C  
HETATM    5  C   UNL     1      -7.975   5.215  68.367  1.00  0.00    -0.087 C  
HETATM    6  C   UNL     1      -7.565   5.887  69.696  1.00  0.00    -0.081 C  
HETATM    7  O   UNL     1      -9.677   3.882  70.084  1.00  0.00    -0.196 OA 
HETATM    8  C   UNL     1      -7.474   4.891  70.887  1.00  0.00    -0.065 C  
HETATM    9  C   UNL     1      -8.660   2.891  70.209  1.00  0.00    -0.060 C  
HETATM   10  C   UNL     1      -8.745   4.089  71.134  1.00  0.00    -0.085 C  
ENDROOT
BRANCH   5  11
HETATM   11  O   UNL     1      -7.962   6.075  67.192  1.00  0.00    -0.101 OA 
BRANCH  11  12
HETATM   12  C   UNL     1      -9.084   6.604  66.668  1.00  0.00    -0.145 C  
HETATM   13  C   UNL     1      -8.736   4.842  64.762  1.00  0.00    -0.154 A  
HETATM   14  C   UNL     1      -9.670   5.805  65.502  1.00  0.00     0.292 C  
HETATM   15  C   UNL     1     -11.001   5.204  65.987  1.00  0.00     0.047 C  
HETATM   16  C   UNL     1      -7.811   5.359  63.834  1.00  0.00    -0.097 A  
HETATM   17  O   UNL     1     -11.846   4.840  64.894  1.00  0.00    -0.800 OA 
HETATM   18  O   UNL     1      -9.618   7.624  67.105  1.00  0.00    -0.144 OA 
HETATM   19  C   UNL     1      -6.983   4.518  63.077  1.00  0.00    -0.039 A  
HETATM   20  H   UNL     1     -12.667   4.469  65.193  1.00  0.00     0.000 HD 
HETATM   21  C   UNL     1      -7.061   3.138  63.229  1.00  0.00    -0.048 A  
HETATM   22  C   UNL     1      -7.976   2.603  64.131  1.00  0.00    -0.081 A  
HETATM   23  C   UNL     1      -8.807   3.444  64.887  1.00  0.00    -0.123 A  
ENDBRANCH  11  12
ENDBRANCH   5  11
TORSDOF 2
ENDMDL
MODEL      245
REMARK 921   NORMALIZED FREE ENERGY PREDICTED BY IDOCK:   -2.10 KCAL/MOL
REMARK 922        TOTAL FREE ENERGY PREDICTED BY IDOCK:   -2.85 KCAL/MOL
REMARK 923 INTER-LIGAND FREE ENERGY PREDICTED BY IDOCK:   -2.35 KCAL/MOL
REMARK 924 INTRA-LIGAND FREE ENERGY PREDICTED BY IDOCK:   -0.50 KCAL/MOL
REMARK 927      BINDING AFFINITY PREDICTED BY RF-SCORE:    0.00 PKD
ROOT
HETATM    1  C   UNL     1      -6.984   7.066  64.527  1.00  0.00    -0.051 C  
HETATM    2  N   UNL     1      -7.320   5.858  65.236  1.00  0.00    -0.073 NA 
HETATM    3  C   UNL     1      -8.734   5.603  65.544  1.00  0.00    -0.150 C  
HETATM    4  C   UNL     1      -9.284   6.603  66.585  1.00  0.00    -0.179 C  
HETATM    5  C   UNL     1      -8.511   6.557  67.913  1.00  0.00    -0.118 C  
HETATM    6  C   UNL     1      -6.988   6.483  67.667  1.00  0.00    -0.079 C  
HETATM    7  O   UNL     1      -8.277   3.857  67.391  1.00  0.00    -0.094 OA 
HETATM    8  C   UNL     1      -6.601   5.554  66.481  1.00  0.00    -0.056 C  
HETATM    9  C   UNL     1      -8.537   4.170  66.024  1.00  0.00    -0.113 C  
HETATM   10  C   UNL     1      -7.132   4.132  66.597  1.00  0.00    -0.060 C  
ENDROOT
BRANCH   5  11
HETATM   11  O   UNL     1      -8.942   7.502  68.934  1.00  0.00    -0.135 OA 
BRANCH  11  12
HETATM   12  C   UNL     1     -10.080   8.215  68.827  1.00  0.00    -0.199 C  
HETATM   13  C   UNL     1      -8.504  10.158  68.054  1.00  0.00    -0.118 A  
HETATM   14  C   UNL     1      -9.913   9.561  68.119  1.00  0.00    -0.191 C  
HETATM   15  C   UNL     1     -10.659   9.462  66.777  1.00  0.00    -0.139 C  
HETATM   16  C   UNL     1      -7.972  10.788  69.196  1.00  0.00    -0.135 A  
HETATM   17  O   UNL     1     -10.968  10.753  66.248  1.00  0.00    -0.142 OA 
HETATM   18  O   UNL     1     -11.171   7.812  69.233  1.00  0.00     0.024 OA 
HETATM   19  C   UNL     1      -6.716  11.413  69.170  1.00  0.00    -0.106 A  
HETATM   20  H   UNL     1     -11.429  10.693  65.419  1.00  0.00     0.000 HD 
HETATM   21  C   UNL     1      -5.965  11.426  68.000  1.00  0.00    -0.046 A  
HETATM   22  C   UNL     1      -6.475  10.821  66.856  1.00  0.00    -0.090 A  
HETATM   23  C   UNL     1      -7.731  10.197  66.880  1.00  0.00    -0.103 A  
ENDBRANCH  11  12
ENDBRANCH   5  11
TORSDOF 2
ENDMDL
MODEL      246
REMARK 921   NORMALIZED FREE ENERGY PREDICTED BY IDOCK:   -1.47 KCAL/MOL
REMARK 922        TOTAL FREE ENERGY PREDICTED BY IDOCK:   -2.15 KCAL/MOL
REMARK 923 INTER-LIGAND FREE ENERGY PREDICTED BY IDOCK:   -1.38 KCAL/MOL
REMARK 924 INTRA-LIGAND FREE ENERGY PREDICTED BY IDOCK:   -0.77 KCAL/MOL
REMARK 927      BINDING AFFINITY PREDICTED BY RF-SCORE:    0.00 PKD
ROOT
HETATM    1  C   UNL     1     -12.773  13.971  70.712  1.00  0.00    -0.326 C  
HETATM    2  N   UNL     1     -12.378  14.567  69.462  1.00  0.00    -0.258 NA 
HETATM    3  C   UNL     1     -11.435  13.832  68.608  1.00  0.00    -0.301 C  
HETATM    4  C   UNL     1     -10.029  13.753  69.242  1.00  0.00     0.292 C  
HETATM    5  C   UNL     1      -9.421  15.141  69.505  1.00  0.00    -0.145 C  
HETATM    6  C   UNL     1     -10.470  16.101  70.109  1.00  0.00    -0.142 C  
HETATM    7  O   UNL     1     -10.735  15.874  67.191  1.00  0.00    -0.316 OA 
HETATM    8  C   UNL     1     -11.881  15.950  69.471  1.00  0.00    -0.301 C  
HETATM    9  C   UNL     1     -11.576  14.741  67.393  1.00  0.00    -0.360 C  
HETATM   10  C   UNL     1     -11.907  16.110  67.957  1.00  0.00     0.223 C  
ENDROOT
BRANCH   5  11
HETATM   11  O   UNL     1      -8.112  15.152  70.142  1.00  0.00     0.115 OA 
BRANCH  11  12
HETATM   12  C   UNL     1      -7.001  15.574  69.508  1.00  0.00    -0.190 C  
HETATM   13  C   UNL     1      -6.343  13.039  69.489  1.00  0.00    -0.103 A  
HETATM   14  C   UNL     1      -6.149  14.447  68.918  1.00  0.00    -0.087 C  
HETATM   15  C   UNL     1      -6.239  14.565  67.387  1.00  0.00     0.198 C  
HETATM   16  C   UNL     1      -5.761  12.715  70.730  1.00  0.00    -0.113 A  
HETATM   17  O   UNL     1      -5.158  13.892  66.740  1.00  0.00     0.613 OA 
HETATM   18  O   UNL     1      -6.705  16.762  69.380  1.00  0.00    -0.229 OA 
HETATM   19  C   UNL     1      -5.847  11.421  71.265  1.00  0.00     0.360 A  
HETATM   20  H   UNL     1      -5.213  13.965  65.795  1.00  0.00     0.000 HD 
HETATM   21  C   UNL     1      -6.514  10.419  70.568  1.00  0.00    -0.095 A  
HETATM   22  C   UNL     1      -7.086  10.712  69.334  1.00  0.00    -0.120 A  
HETATM   23  C   UNL     1      -6.999  12.005  68.798  1.00  0.00    -0.101 A  
ENDBRANCH  11  12
ENDBRANCH   5  11
TORSDOF 2
ENDMDL
MODEL      247
REMARK 921   NORMALIZED FREE ENERGY PREDICTED BY IDOCK:   -0.27 KCAL/MOL
REMARK 922        TOTAL FREE ENERGY PREDICTED BY IDOCK:   -0.81 KCAL/MOL
REMARK 923 INTER-LIGAND FREE ENERGY PREDICTED BY IDOCK:   -0.05 KCAL/MOL
REMARK 924 INTRA-LIGAND FREE ENERGY PREDICTED BY IDOCK:   -0.76 KCAL/MOL
REMARK 927      BINDING AFFINITY PREDICTED BY RF-SCORE:    0.00 PKD
ROOT
HETATM    1  C   UNL     1      -8.076   7.388  69.669  1.00  0.00    -0.128 C  
HETATM    2  N   UNL     1      -7.037   8.037  68.910  1.00  0.00    -0.065 NA 
HETATM    3  C   UNL     1      -6.829   9.477  69.107  1.00  0.00    -0.050 C  
HETATM    4  C   UNL     1      -8.014  10.308  68.569  1.00  0.00    -0.107 C  
HETATM    5  C   UNL     1      -8.260  10.081  67.068  1.00  0.00    -0.117 C  
HETATM    6  C   UNL     1      -8.161   8.583  66.708  1.00  0.00    -0.098 C  
HETATM    7  O   UNL     1      -5.514   9.842  66.915  1.00  0.00    -0.044 OA 
HETATM    8  C   UNL     1      -7.011   7.846  67.454  1.00  0.00    -0.075 C  
HETATM    9  C   UNL     1      -5.531   9.562  68.313  1.00  0.00    -0.037 C  
HETATM   10  C   UNL     1      -5.636   8.471  67.263  1.00  0.00    -0.039 C  
ENDROOT
BRANCH   5  11
HETATM   11  O   UNL     1      -9.390  10.797  66.492  1.00  0.00    -0.163 OA 
BRANCH  11  12
HETATM   12  C   UNL     1      -9.237  11.805  65.611  1.00  0.00    -0.100 C  
HETATM   13  C   UNL     1     -10.486  13.243  67.408  1.00  0.00    -0.243 A  
HETATM   14  C   UNL     1      -9.585  13.186  66.170  1.00  0.00    -0.209 C  
HETATM   15  C   UNL     1      -8.272  13.982  66.263  1.00  0.00     1.109 C  
HETATM   16  C   UNL     1     -11.873  13.046  67.258  1.00  0.00    -0.419 A  
HETATM   17  O   UNL     1      -8.511  15.390  66.323  1.00  0.00    -0.401 OA 
HETATM   18  O   UNL     1      -8.822  11.642  64.463  1.00  0.00     0.254 OA 
HETATM   19  C   UNL     1     -12.752  13.158  68.346  1.00  0.00     1.120 A  
HETATM   20  H   UNL     1      -7.700  15.882  66.381  1.00  0.00     0.000 HD 
HETATM   21  C   UNL     1     -12.264  13.473  69.609  1.00  0.00    -0.304 A  
HETATM   22  C   UNL     1     -10.899  13.684  69.780  1.00  0.00     0.215 A  
HETATM   23  C   UNL     1     -10.020  13.574  68.693  1.00  0.00    -0.149 A  
ENDBRANCH  11  12
ENDBRANCH   5  11
TORSDOF 2
ENDMDL
MODEL      248
REMARK 921   NORMALIZED FREE ENERGY PREDICTED BY IDOCK:    0.78 KCAL/MOL
REMARK 922        TOTAL FREE ENERGY PREDICTED BY IDOCK:    0.37 KCAL/MOL
REMARK 923 INTER-LIGAND FREE ENERGY PREDICTED BY IDOCK:    1.09 KCAL/MOL
REMARK 924 INTRA-LIGAND FREE ENERGY PREDICTED BY IDOCK:   -0.72 KCAL/MOL
REMARK 927      BINDING AFFINITY PREDICTED BY RF-SCORE:    0.00 PKD
ROOT
HETATM    1  C   UNL     1      -9.483  13.877  65.800  1.00  0.00     0.016 C  
HETATM    2  N   UNL     1      -9.418  15.017  66.678  1.00  0.00    -0.250 NA 
HETATM    3  C   UNL     1      -9.129  14.784  68.100  1.00  0.00    -0.180 C  
HETATM    4  C   UNL     1     -10.292  14.054  68.809  1.00  0.00    -0.225 C  
HETATM    5  C   UNL     1     -11.613  14.837  68.732  1.00  0.00    -0.320 C  
HETATM    6  C   UNL     1     -11.834  15.416  67.318  1.00  0.00     0.132 C  
HETATM    7  O   UNL     1     -10.005  17.073  68.913  1.00  0.00    -0.264 OA 
HETATM    8  C   UNL     1     -10.534  15.973  66.671  1.00  0.00    -0.304 C  
HETATM    9  C   UNL     1      -8.930  16.249  68.466  1.00  0.00    -0.219 C  
HETATM   10  C   UNL     1      -9.815  17.023  67.507  1.00  0.00    -0.258 C  
ENDROOT
BRANCH   5  11
HETATM   11  O   UNL     1     -12.770  14.195  69.341  1.00  0.00    -0.065 OA 
BRANCH  11  12
HETATM   12  C   UNL     1     -13.349  14.660  70.464  1.00  0.00    -0.021 C  
HETATM   13  C   UNL     1     -12.915  12.252  71.397  1.00  0.00    -0.354 A  
HETATM   14  C   UNL     1     -13.218  13.728  71.671  1.00  0.00    -0.450 C  
HETATM   15  C   UNL     1     -12.290  14.424  72.682  1.00  0.00    -0.108 C  
HETATM   16  C   UNL     1     -13.955  11.406  70.964  1.00  0.00     2.083 A  
HETATM   17  O   UNL     1     -12.453  13.896  73.999  1.00  0.00     0.546 OA 
HETATM   18  O   UNL     1     -13.910  15.754  70.532  1.00  0.00    -0.138 OA 
HETATM   19  C   UNL     1     -13.749  10.032  70.767  1.00  0.00     0.184 A  
HETATM   20  H   UNL     1     -11.881  14.325  74.624  1.00  0.00     0.000 HD 
HETATM   21  C   UNL     1     -12.499   9.471  71.002  1.00  0.00    -0.347 A  
HETATM   22  C   UNL     1     -11.460  10.285  71.443  1.00  0.00    -0.119 A  
HETATM   23  C   UNL     1     -11.665  11.658  71.642  1.00  0.00     1.754 A  
ENDBRANCH  11  12
ENDBRANCH   5  11
TORSDOF 2
ENDMDL
MODEL      249
REMARK 921   NORMALIZED FREE ENERGY PREDICTED BY IDOCK:    1.18 KCAL/MOL
REMARK 922        TOTAL FREE ENERGY PREDICTED BY IDOCK:    0.81 KCAL/MOL
REMARK 923 INTER-LIGAND FREE ENERGY PREDICTED BY IDOCK:    0.84 KCAL/MOL
REMARK 924 INTRA-LIGAND FREE ENERGY PREDICTED BY IDOCK:   -0.02 KCAL/MOL
REMARK 927      BINDING AFFINITY PREDICTED BY RF-SCORE:    0.00 PKD
ROOT
HETATM    1  C   UNL     1      -7.051  18.599  69.025  1.00  0.00    -0.274 C  
HETATM    2  N   UNL     1      -8.321  18.446  68.362  1.00  0.00    -0.303 NA 
HETATM    3  C   UNL     1      -9.348  17.618  69.008  1.00  0.00    -0.073 C  
HETATM    4  C   UNL     1      -8.954  16.125  69.026  1.00  0.00    -0.247 C  
HETATM    5  C   UNL     1      -8.729  15.557  67.614  1.00  0.00    -0.175 C  
HETATM    6  C   UNL     1      -7.922  16.542  66.741  1.00  0.00    -0.290 C  
HETATM    7  O   UNL     1     -10.766  17.269  66.878  1.00  0.00    -0.253 OA 
HETATM    8  C   UNL     1      -8.330  18.029  66.953  1.00  0.00    -0.247 C  
HETATM    9  C   UNL     1     -10.482  18.004  68.066  1.00  0.00    -0.375 C  
HETATM   10  C   UNL     1      -9.811  18.311  66.740  1.00  0.00    -0.341 C  
ENDROOT
BRANCH   5  11
HETATM   11  O   UNL     1      -8.313  14.163  67.547  1.00  0.00    -0.160 OA 
BRANCH  11  12
HETATM   12  C   UNL     1      -8.141  13.513  66.380  1.00  0.00     0.995 C  
HETATM   13  C   UNL     1      -7.230  11.567  67.877  1.00  0.00    -0.085 A  
HETATM   14  C   UNL     1      -7.801  12.029  66.532  1.00  0.00     0.128 C  
HETATM   15  C   UNL     1      -9.008  11.231  66.010  1.00  0.00    -0.200 C  
HETATM   16  C   UNL     1      -5.876  11.821  68.173  1.00  0.00    -0.047 A  
HETATM   17  O   UNL     1      -8.649   9.891  65.672  1.00  0.00    -0.136 OA 
HETATM   18  O   UNL     1      -8.276  14.051  65.281  1.00  0.00     3.334 OA 
HETATM   19  C   UNL     1      -5.285  11.358  69.357  1.00  0.00    -0.044 A  
HETATM   20  H   UNL     1      -9.394   9.398  65.349  1.00  0.00     0.000 HD 
HETATM   21  C   UNL     1      -6.033  10.626  70.273  1.00  0.00    -0.111 A  
HETATM   22  C   UNL     1      -7.369  10.352  69.997  1.00  0.00    -0.121 A  
HETATM   23  C   UNL     1      -7.961  10.813  68.812  1.00  0.00    -0.136 A  
ENDBRANCH  11  12
ENDBRANCH   5  11
TORSDOF 2
ENDMDL
MODEL      250
REMARK 921   NORMALIZED FREE ENERGY PREDICTED BY IDOCK:    1.96 KCAL/MOL
REMARK 922        TOTAL FREE ENERGY PREDICTED BY IDOCK:    1.69 KCAL/MOL
REMARK 923 INTER-LIGAND FREE ENERGY PREDICTED BY IDOCK:    2.29 KCAL/MOL
REMARK 924 INTRA-LIGAND FREE ENERGY PREDICTED BY IDOCK:   -0.61 KCAL/MOL
REMARK 927      BINDING AFFINITY PREDICTED BY RF-SCORE:    0.00 PKD
ROOT
HETATM    1  C   UNL     1      -7.584   7.127  69.893  1.00  0.00    -0.098 C  
HETATM    2  N   UNL     1      -6.738   8.194  69.423  1.00  0.00    -0.042 NA 
HETATM    3  C   UNL     1      -6.477   9.323  70.326  1.00  0.00    -0.058 C  
HETATM    4  C   UNL     1      -7.746  10.170  70.568  1.00  0.00     0.307 C  
HETATM    5  C   UNL     1      -8.326  10.748  69.267  1.00  0.00    -0.062 C  
HETATM    6  C   UNL     1      -8.325   9.693  68.140  1.00  0.00    -0.117 C  
HETATM    7  O   UNL     1      -5.689  10.945  68.477  1.00  0.00    -0.044 OA 
HETATM    8  C   UNL     1      -7.044   8.811  68.125  1.00  0.00    -0.078 C  
HETATM    9  C   UNL     1      -5.392   9.965  69.470  1.00  0.00    -0.034 C  
HETATM   10  C   UNL     1      -5.742   9.595  68.041  1.00  0.00    -0.040 C  
ENDROOT
BRANCH   5  11
HETATM   11  O   UNL     1      -9.550  11.525  69.406  1.00  0.00     0.210 OA 
BRANCH  11  12
HETATM   12  C   UNL     1      -9.564  12.871  69.363  1.00  0.00     1.091 C  
HETATM   13  C   UNL     1     -10.131  12.542  66.827  1.00  0.00    -0.233 A  
HETATM   14  C   UNL     1     -10.118  13.452  68.060  1.00  0.00    -0.241 C  
HETATM   15  C   UNL     1     -11.454  14.134  68.400  1.00  0.00    -0.302 C  
HETATM   16  C   UNL     1      -8.932  12.324  66.121  1.00  0.00    -0.009 A  
HETATM   17  O   UNL     1     -11.832  15.085  67.403  1.00  0.00    -0.339 OA 
HETATM   18  O   UNL     1      -9.194  13.581  70.298  1.00  0.00     2.896 OA 
HETATM   19  C   UNL     1      -8.901  11.559  64.946  1.00  0.00     0.285 A  
HETATM   20  H   UNL     1     -12.657  15.506  67.613  1.00  0.00     0.000 HD 
HETATM   21  C   UNL     1     -10.071  10.995  64.447  1.00  0.00    -0.393 A  
HETATM   22  C   UNL     1     -11.270  11.207  65.121  1.00  0.00     0.008 A  
HETATM   23  C   UNL     1     -11.302  11.974  66.295  1.00  0.00    -0.415 A  
ENDBRANCH  11  12
ENDBRANCH   5  11
TORSDOF 2
ENDMDL
MODEL      251
REMARK 921   NORMALIZED FREE ENERGY PREDICTED BY IDOCK:    4.37 KCAL/MOL
REMARK 922        TOTAL FREE ENERGY PREDICTED BY IDOCK:    4.38 KCAL/MOL
REMARK 923 INTER-LIGAND FREE ENERGY PREDICTED BY IDOCK:    3.81 KCAL/MOL
REMARK 924 INTRA-LIGAND FREE ENERGY PREDICTED BY IDOCK:    0.57 KCAL/MOL
REMARK 927      BINDING AFFINITY PREDICTED BY RF-SCORE:    0.00 PKD
ROOT
HETATM    1  C   UNL     1     -10.743  13.789  70.658  1.00  0.00     1.771 C  
HETATM    2  N   UNL     1     -11.268  14.864  69.855  1.00  0.00    -0.268 NA 
HETATM    3  C   UNL     1     -11.128  14.774  68.395  1.00  0.00    -0.263 C  
HETATM    4  C   UNL     1      -9.654  14.897  67.951  1.00  0.00    -0.205 C  
HETATM    5  C   UNL     1      -9.014  16.224  68.391  1.00  0.00    -0.203 C  
HETATM    6  C   UNL     1      -9.396  16.569  69.847  1.00  0.00     0.721 C  
HETATM    7  O   UNL     1     -11.523  17.287  67.950  1.00  0.00     0.111 OA 
HETATM    8  C   UNL     1     -10.878  16.242  70.188  1.00  0.00    -0.298 C  
HETATM    9  C   UNL     1     -12.029  15.960  68.075  1.00  0.00     0.260 C  
HETATM   10  C   UNL     1     -11.896  16.894  69.262  1.00  0.00     1.094 C  
ENDROOT
BRANCH   5  11
HETATM   11  O   UNL     1      -7.610  16.398  68.047  1.00  0.00    -0.146 OA 
BRANCH  11  12
HETATM   12  C   UNL     1      -7.208  17.128  66.988  1.00  0.00    -0.184 C  
HETATM   13  C   UNL     1      -7.936  19.185  68.436  1.00  0.00    -0.376 A  
HETATM   14  C   UNL     1      -7.132  18.633  67.255  1.00  0.00    -0.210 C  
HETATM   15  C   UNL     1      -5.644  19.024  67.219  1.00  0.00    -0.164 C  
HETATM   16  C   UNL     1      -9.326  19.366  68.296  1.00  0.00    -0.414 A  
HETATM   17  O   UNL     1      -5.472  20.425  66.995  1.00  0.00    -0.167 OA 
HETATM   18  O   UNL     1      -6.896  16.632  65.905  1.00  0.00     0.181 OA 
HETATM   19  C   UNL     1     -10.099  19.933  69.320  1.00  0.00    -0.268 A  
HETATM   20  H   UNL     1      -4.554  20.667  66.972  1.00  0.00     0.000 HD 
HETATM   21  C   UNL     1      -9.498  20.338  70.508  1.00  0.00     1.364 A  
HETATM   22  C   UNL     1      -8.125  20.180  70.664  1.00  0.00     1.537 A  
HETATM   23  C   UNL     1      -7.351  19.615  69.640  1.00  0.00    -0.066 A  
ENDBRANCH  11  12
ENDBRANCH   5  11
TORSDOF 2
ENDMDL
MODEL      252
REMARK 921   NORMALIZED FREE ENERGY PREDICTED BY IDOCK:    5.06 KCAL/MOL
REMARK 922        TOTAL FREE ENERGY PREDICTED BY IDOCK:    5.14 KCAL/MOL
REMARK 923 INTER-LIGAND FREE ENERGY PREDICTED BY IDOCK:    4.97 KCAL/MOL
REMARK 924 INTRA-LIGAND FREE ENERGY PREDICTED BY IDOCK:    0.18 KCAL/MOL
REMARK 927      BINDING AFFINITY PREDICTED BY RF-SCORE:    0.00 PKD
ROOT
HETATM    1  C   UNL     1      -8.459  17.362  65.626  1.00  0.00     0.554 C  
HETATM    2  N   UNL     1      -9.484  16.364  65.458  1.00  0.00    -0.430 NA 
HETATM    3  C   UNL     1     -10.847  16.685  65.902  1.00  0.00    -0.067 C  
HETATM    4  C   UNL     1     -10.937  16.802  67.439  1.00  0.00    -0.092 C  
HETATM    5  C   UNL     1     -10.514  15.509  68.156  1.00  0.00    -0.259 C  
HETATM    6  C   UNL     1      -9.243  14.910  67.517  1.00  0.00    -0.194 C  
HETATM    7  O   UNL     1     -11.664  14.236  65.993  1.00  0.00    -0.358 OA 
HETATM    8  C   UNL     1      -9.230  15.008  65.964  1.00  0.00    -0.210 C  
HETATM    9  C   UNL     1     -11.510  15.462  65.280  1.00  0.00    -0.158 C  
HETATM   10  C   UNL     1     -10.442  14.384  65.285  1.00  0.00    -0.390 C  
ENDROOT
BRANCH   5  11
HETATM   11  O   UNL     1     -10.530  15.553  69.612  1.00  0.00    -0.246 OA 
BRANCH  11  12
HETATM   12  C   UNL     1     -11.041  16.592  70.300  1.00  0.00    -0.157 C  
HETATM   13  C   UNL     1     -12.259  14.748  71.706  1.00  0.00    -0.416 A  
HETATM   14  C   UNL     1     -11.771  16.196  71.586  1.00  0.00    -0.558 C  
HETATM   15  C   UNL     1     -10.929  16.716  72.763  1.00  0.00     2.227 C  
HETATM   16  C   UNL     1     -13.427  14.358  71.023  1.00  0.00    -0.309 A  
HETATM   17  O   UNL     1     -11.702  16.822  73.960  1.00  0.00    -0.126 OA 
HETATM   18  O   UNL     1     -10.910  17.765  69.949  1.00  0.00     0.528 OA 
HETATM   19  C   UNL     1     -13.958  13.066  71.155  1.00  0.00     1.191 A  
HETATM   20  H   UNL     1     -11.183  17.143  74.687  1.00  0.00     0.000 HD 
HETATM   21  C   UNL     1     -13.334  12.135  71.977  1.00  0.00    -0.470 A  
HETATM   22  C   UNL     1     -12.185  12.500  72.672  1.00  0.00     2.707 A  
HETATM   23  C   UNL     1     -11.655  13.793  72.542  1.00  0.00     2.202 A  
ENDBRANCH  11  12
ENDBRANCH   5  11
TORSDOF 2
ENDMDL
MODEL      253
REMARK 921   NORMALIZED FREE ENERGY PREDICTED BY IDOCK:   12.53 KCAL/MOL
REMARK 922        TOTAL FREE ENERGY PREDICTED BY IDOCK:   13.49 KCAL/MOL
REMARK 923 INTER-LIGAND FREE ENERGY PREDICTED BY IDOCK:   14.00 KCAL/MOL
REMARK 924 INTRA-LIGAND FREE ENERGY PREDICTED BY IDOCK:   -0.51 KCAL/MOL
REMARK 927      BINDING AFFINITY PREDICTED BY RF-SCORE:    0.00 PKD
ROOT
HETATM    1  C   UNL     1      -9.071  21.064  70.533  1.00  0.00     3.172 C  
HETATM    2  N   UNL     1      -7.809  20.646  71.090  1.00  0.00     1.265 NA 
HETATM    3  C   UNL     1      -6.601  20.802  70.269  1.00  0.00     0.941 C  
HETATM    4  C   UNL     1      -6.605  19.849  69.055  1.00  0.00    -0.364 C  
HETATM    5  C   UNL     1      -6.692  18.369  69.466  1.00  0.00    -0.109 C  
HETATM    6  C   UNL     1      -7.729  18.165  70.591  1.00  0.00     3.840 C  
HETATM    7  O   UNL     1      -5.160  19.144  71.627  1.00  0.00    -0.380 OA 
HETATM    8  C   UNL     1      -7.708  19.296  71.660  1.00  0.00     4.211 C  
HETATM    9  C   UNL     1      -5.610  20.474  71.379  1.00  0.00    -0.194 C  
HETATM   10  C   UNL     1      -6.348  19.525  72.305  1.00  0.00     0.912 C  
ENDROOT
BRANCH   5  11
HETATM   11  O   UNL     1      -6.744  17.407  68.374  1.00  0.00    -0.175 OA 
BRANCH  11  12
HETATM   12  C   UNL     1      -7.569  17.551  67.320  1.00  0.00    -0.197 C  
HETATM   13  C   UNL     1      -8.470  15.191  68.011  1.00  0.00    -0.148 A  
HETATM   14  C   UNL     1      -8.679  16.500  67.243  1.00  0.00    -0.204 C  
HETATM   15  C   UNL     1     -10.010  17.225  67.509  1.00  0.00    -0.296 C  
HETATM   16  C   UNL     1      -7.618  14.207  67.473  1.00  0.00    -0.200 A  
HETATM   17  O   UNL     1     -11.126  16.479  67.021  1.00  0.00    -0.090 OA 
HETATM   18  O   UNL     1      -7.467  18.465  66.501  1.00  0.00    -0.216 OA 
HETATM   19  C   UNL     1      -7.446  12.963  68.098  1.00  0.00    -0.126 A  
HETATM   20  H   UNL     1     -11.947  16.926  67.186  1.00  0.00     0.000 HD 
HETATM   21  C   UNL     1      -8.127  12.672  69.275  1.00  0.00     0.691 A  
HETATM   22  C   UNL     1      -8.985  13.623  69.819  1.00  0.00     1.804 A  
HETATM   23  C   UNL     1      -9.159  14.867  69.194  1.00  0.00    -0.140 A  
ENDBRANCH  11  12
ENDBRANCH   5  11
TORSDOF 2
ENDMDL
MODEL      254
REMARK 921   NORMALIZED FREE ENERGY PREDICTED BY IDOCK:   22.21 KCAL/MOL
REMARK 922        TOTAL FREE ENERGY PREDICTED BY IDOCK:   24.30 KCAL/MOL
REMARK 923 INTER-LIGAND FREE ENERGY PREDICTED BY IDOCK:    7.07 KCAL/MOL
REMARK 924 INTRA-LIGAND FREE ENERGY PREDICTED BY IDOCK:   17.24 KCAL/MOL
REMARK 927      BINDING AFFINITY PREDICTED BY RF-SCORE:    0.00 PKD
ROOT
HETATM    1  C   UNL     1      -9.936  17.903  69.447  1.00  0.00     0.031 C  
HETATM    2  N   UNL     1     -10.693  16.691  69.264  1.00  0.00    -0.336 NA 
HETATM    3  C   UNL     1     -10.027  15.409  69.528  1.00  0.00    -0.264 C  
HETATM    4  C   UNL     1      -8.923  15.110  68.491  1.00  0.00    -0.186 C  
HETATM    5  C   UNL     1      -9.464  15.057  67.052  1.00  0.00    -0.229 C  
HETATM    6  C   UNL     1     -10.458  16.209  66.789  1.00  0.00    -0.294 C  
HETATM    7  O   UNL     1     -11.720  13.970  68.212  1.00  0.00    -0.316 OA 
HETATM    8  C   UNL     1     -11.403  16.493  67.992  1.00  0.00    -0.107 C  
HETATM    9  C   UNL     1     -11.285  14.553  69.438  1.00  0.00    -0.280 C  
HETATM   10  C   UNL     1     -12.195  15.284  68.469  1.00  0.00     0.059 C  
ENDROOT
BRANCH   5  11
HETATM   11  O   UNL     1      -8.476  14.822  66.008  1.00  0.00     0.353 OA 
BRANCH  11  12
HETATM   12  C   UNL     1      -7.499  13.902  66.128  1.00  0.00     3.240 C  
HETATM   13  C   UNL     1      -9.375  12.399  67.166  1.00  0.00    -0.199 A  
HETATM   14  C   UNL     1      -7.995  12.506  66.510  1.00  0.00     0.332 C  
HETATM   15  C   UNL     1      -7.762  11.594  65.294  1.00  0.00     1.252 C  
HETATM   16  C   UNL     1      -9.516  12.729  68.528  1.00  0.00    -0.094 A  
HETATM   17  O   UNL     1      -7.746  10.214  65.663  1.00  0.00    -0.130 OA 
HETATM   18  O   UNL     1      -6.311  14.147  65.919  1.00  0.00     5.190 OA 
HETATM   19  C   UNL     1     -10.741  12.581  69.196  1.00  0.00    -0.069 A  
HETATM   20  H   UNL     1      -7.602   9.650  64.912  1.00  0.00     0.000 HD 
HETATM   21  C   UNL     1     -11.853  12.095  68.518  1.00  0.00    -0.365 A  
HETATM   22  C   UNL     1     -11.736  11.750  67.175  1.00  0.00    -0.267 A  
HETATM   23  C   UNL     1     -10.511  11.896  66.507  1.00  0.00    -0.256 A  
ENDBRANCH  11  12
ENDBRANCH   5  11
TORSDOF 2
ENDMDL
MODEL      255
REMARK 921   NORMALIZED FREE ENERGY PREDICTED BY IDOCK:   28.05 KCAL/MOL
REMARK 922        TOTAL FREE ENERGY PREDICTED BY IDOCK:   30.82 KCAL/MOL
REMARK 923 INTER-LIGAND FREE ENERGY PREDICTED BY IDOCK:   -2.01 KCAL/MOL
REMARK 924 INTRA-LIGAND FREE ENERGY PREDICTED BY IDOCK:   32.84 KCAL/MOL
REMARK 927      BINDING AFFINITY PREDICTED BY RF-SCORE:    0.00 PKD
ROOT
HETATM    1  C   UNL     1      -9.311   5.604  65.044  1.00  0.00     0.341 C  
HETATM    2  N   UNL     1      -8.396   6.552  65.627  1.00  0.00    -0.140 NA 
HETATM    3  C   UNL     1      -7.866   6.274  66.968  1.00  0.00    -0.104 C  
HETATM    4  C   UNL     1      -8.964   6.368  68.050  1.00  0.00    -0.115 C  
HETATM    5  C   UNL     1      -9.627   7.754  68.099  1.00  0.00    -0.151 C  
HETATM    6  C   UNL     1      -9.919   8.281  66.677  1.00  0.00    -0.348 C  
HETATM    7  O   UNL     1      -7.115   8.697  67.450  1.00  0.00    -0.077 OA 
HETATM    8  C   UNL     1      -8.784   7.969  65.660  1.00  0.00    -0.125 C  
HETATM    9  C   UNL     1      -6.826   7.388  66.964  1.00  0.00    -0.074 C  
HETATM   10  C   UNL     1      -7.409   8.473  66.079  1.00  0.00    -0.081 C  
ENDROOT
BRANCH   5  11
HETATM   11  O   UNL     1     -10.704   7.912  69.067  1.00  0.00    -0.193 OA 
BRANCH  11  12
HETATM   12  C   UNL     1     -10.626   8.766  70.105  1.00  0.00    -0.221 C  
HETATM   13  C   UNL     1      -8.962  10.091  68.578  1.00  0.00    -0.124 A  
HETATM   14  C   UNL     1      -9.901  10.076  69.788  1.00  0.00    -0.270 C  
HETATM   15  C   UNL     1     -10.953  11.198  69.829  1.00  0.00    -0.150 C  
HETATM   16  C   UNL     1      -7.683   9.510  68.693  1.00  0.00    -0.081 A  
HETATM   17  O   UNL     1     -10.351  12.481  70.008  1.00  0.00     0.629 OA 
HETATM   18  O   UNL     1     -11.122   8.536  71.208  1.00  0.00    -0.241 OA 
HETATM   19  C   UNL     1      -6.757   9.558  67.641  1.00  0.00    -0.063 A  
HETATM   20  H   UNL     1     -10.999  13.174  70.034  1.00  0.00     0.000 HD 
HETATM   21  C   UNL     1      -7.087  10.193  66.448  1.00  0.00    -0.107 A  
HETATM   22  C   UNL     1      -8.339  10.785  66.315  1.00  0.00    -0.160 A  
HETATM   23  C   UNL     1      -9.265  10.739  67.367  1.00  0.00    -0.156 A  
ENDBRANCH  11  12
ENDBRANCH   5  11
TORSDOF 2
ENDMDL
MODEL      256
REMARK 921   NORMALIZED FREE ENERGY PREDICTED BY IDOCK:   38.58 KCAL/MOL
REMARK 922        TOTAL FREE ENERGY PREDICTED BY IDOCK:   42.59 KCAL/MOL
REMARK 923 INTER-LIGAND FREE ENERGY PREDICTED BY IDOCK:    4.35 KCAL/MOL
REMARK 924 INTRA-LIGAND FREE ENERGY PREDICTED BY IDOCK:   38.24 KCAL/MOL
REMARK 927      BINDING AFFINITY PREDICTED BY RF-SCORE:    0.00 PKD
ROOT
HETATM    1  C   UNL     1      -7.618   7.301  69.994  1.00  0.00    -0.090 C  
HETATM    2  N   UNL     1      -6.864   8.473  69.630  1.00  0.00    -0.043 NA 
HETATM    3  C   UNL     1      -6.480   9.411  70.694  1.00  0.00    -0.081 C  
HETATM    4  C   UNL     1      -7.706  10.141  71.285  1.00  0.00     1.766 C  
HETATM    5  C   UNL     1      -8.483  10.941  70.226  1.00  0.00     1.761 C  
HETATM    6  C   UNL     1      -8.642  10.130  68.922  1.00  0.00    -0.141 C  
HETATM    7  O   UNL     1      -5.997  11.397  69.115  1.00  0.00    -0.045 OA 
HETATM    8  C   UNL     1      -7.369   9.321  68.542  1.00  0.00    -0.076 C  
HETATM    9  C   UNL     1      -5.544  10.252  69.836  1.00  0.00    -0.045 C  
HETATM   10  C   UNL     1      -6.102  10.159  68.428  1.00  0.00    -0.044 C  
ENDROOT
BRANCH   5  11
HETATM   11  O   UNL     1      -9.679  11.625  70.697  1.00  0.00     3.446 OA 
BRANCH  11  12
HETATM   12  C   UNL     1     -10.911  11.330  70.238  1.00  0.00     0.532 C  
HETATM   13  C   UNL     1     -10.163   8.839  70.542  1.00  0.00    -0.240 A  
HETATM   14  C   UNL     1     -11.297   9.856  70.379  1.00  0.00    -0.376 C  
HETATM   15  C   UNL     1     -12.418   9.780  71.430  1.00  0.00    -0.387 C  
HETATM   16  C   UNL     1      -9.422   8.449  69.409  1.00  0.00    -0.158 A  
HETATM   17  O   UNL     1     -13.164   8.567  71.319  1.00  0.00    -0.483 OA 
HETATM   18  O   UNL     1     -11.679  12.173  69.774  1.00  0.00    -0.310 OA 
HETATM   19  C   UNL     1      -8.421   7.470  69.488  1.00  0.00    -0.132 A  
HETATM   20  H   UNL     1     -13.857   8.519  71.968  1.00  0.00     0.000 HD 
HETATM   21  C   UNL     1      -8.140   6.854  70.703  1.00  0.00    -0.118 A  
HETATM   22  C   UNL     1      -8.867   7.213  71.833  1.00  0.00    -0.131 A  
HETATM   23  C   UNL     1      -9.870   8.191  71.755  1.00  0.00    -0.256 A  
ENDBRANCH  11  12
ENDBRANCH   5  11
TORSDOF 2
ENDMDL
