MODEL        1
REMARK 921   NORMALIZED FREE ENERGY PREDICTED BY IDOCK:   -5.45 KCAL/MOL
REMARK 922        TOTAL FREE ENERGY PREDICTED BY IDOCK:   -6.04 KCAL/MOL
REMARK 923 INTER-LIGAND FREE ENERGY PREDICTED BY IDOCK:   -6.08 KCAL/MOL
REMARK 924 INTRA-LIGAND FREE ENERGY PREDICTED BY IDOCK:    0.04 KCAL/MOL
REMARK 927      BINDING AFFINITY PREDICTED BY RF-SCORE:    0.00 PKD
ROOT
HETATM    1  C   UNL     1     -10.801  11.671  63.567  1.00  0.00    -0.497 C  
HETATM    2  C   UNL     1     -11.941  12.676  63.688  1.00  0.00    -0.535 C  
HETATM    3  H   UNL     1     -13.854  12.665  63.334  1.00  0.00     0.000 HD 
HETATM    4  O   UNL     1     -13.143  12.039  63.258  1.00  0.00    -0.701 OA 
ENDROOT
BRANCH   2   5
HETATM    5  C   UNL     1     -12.060  13.198  65.127  1.00  0.00    -0.421 C  
BRANCH   5   6
HETATM    6  N   UNL     1     -10.938  14.032  65.531  1.00  0.00    -0.301 NA 
HETATM    7  C   UNL     1      -9.891  13.621  66.347  1.00  0.00    -0.296 A  
HETATM    8  N   UNL     1      -9.045  14.612  66.560  1.00  0.00    -0.258 NA 
HETATM    9  C   UNL     1      -9.712  12.255  66.908  1.00  0.00    -0.217 C  
HETATM   10  C   UNL     1      -9.540  15.691  65.885  1.00  0.00    -0.350 A  
HETATM   11  C   UNL     1     -10.707  15.358  65.248  1.00  0.00    -0.421 A  
HETATM   12  N   UNL     1     -11.519  16.216  64.452  1.00  0.00    -0.364 N  
HETATM   13  O   UNL     1     -11.183  17.406  64.408  1.00  0.00    -0.978 OA 
HETATM   14  O   UNL     1     -12.499  15.730  63.874  1.00  0.00    -0.744 OA 
ENDBRANCH   5   6
ENDBRANCH   2   5
TORSDOF 2
ENDMDL
MODEL        2
REMARK 921   NORMALIZED FREE ENERGY PREDICTED BY IDOCK:   -5.22 KCAL/MOL
REMARK 922        TOTAL FREE ENERGY PREDICTED BY IDOCK:   -5.79 KCAL/MOL
REMARK 923 INTER-LIGAND FREE ENERGY PREDICTED BY IDOCK:   -5.56 KCAL/MOL
REMARK 924 INTRA-LIGAND FREE ENERGY PREDICTED BY IDOCK:   -0.23 KCAL/MOL
REMARK 927      BINDING AFFINITY PREDICTED BY RF-SCORE:    0.00 PKD
ROOT
HETATM    1  C   UNL     1      -9.905  18.673  68.119  1.00  0.00    -0.391 C  
HETATM    2  C   UNL     1     -10.569  18.121  66.863  1.00  0.00    -0.308 C  
HETATM    3  H   UNL     1     -10.955  18.793  65.079  1.00  0.00     0.000 HD 
HETATM    4  O   UNL     1     -10.542  19.137  65.863  1.00  0.00    -0.480 OA 
ENDROOT
BRANCH   2   5
HETATM    5  C   UNL     1      -9.867  16.840  66.390  1.00  0.00    -0.297 C  
BRANCH   5   6
HETATM    6  N   UNL     1     -10.654  15.636  66.614  1.00  0.00    -0.306 NA 
HETATM    7  C   UNL     1     -10.614  14.858  67.764  1.00  0.00    -0.262 A  
HETATM    8  N   UNL     1     -11.416  13.814  67.653  1.00  0.00    -0.305 NA 
HETATM    9  C   UNL     1      -9.800  15.142  68.977  1.00  0.00    -0.238 C  
HETATM   10  C   UNL     1     -11.987  13.899  66.415  1.00  0.00    -0.438 A  
HETATM   11  C   UNL     1     -11.528  15.010  65.756  1.00  0.00    -0.236 A  
HETATM   12  N   UNL     1     -11.887  15.431  64.443  1.00  0.00    -0.347 N  
HETATM   13  O   UNL     1     -12.616  14.666  63.800  1.00  0.00    -0.820 OA 
HETATM   14  O   UNL     1     -11.447  16.511  64.031  1.00  0.00    -1.137 OA 
ENDBRANCH   5   6
ENDBRANCH   2   5
TORSDOF 2
ENDMDL
MODEL        3
REMARK 921   NORMALIZED FREE ENERGY PREDICTED BY IDOCK:   -5.16 KCAL/MOL
REMARK 922        TOTAL FREE ENERGY PREDICTED BY IDOCK:   -5.72 KCAL/MOL
REMARK 923 INTER-LIGAND FREE ENERGY PREDICTED BY IDOCK:   -5.52 KCAL/MOL
REMARK 924 INTRA-LIGAND FREE ENERGY PREDICTED BY IDOCK:   -0.20 KCAL/MOL
REMARK 927      BINDING AFFINITY PREDICTED BY RF-SCORE:    0.00 PKD
ROOT
HETATM    1  C   UNL     1      -9.257  16.085  68.935  1.00  0.00    -0.233 C  
HETATM    2  C   UNL     1     -10.273  15.068  68.429  1.00  0.00    -0.228 C  
HETATM    3  H   UNL     1     -12.182  15.068  68.059  1.00  0.00     0.000 HD 
HETATM    4  O   UNL     1     -11.549  15.702  68.375  1.00  0.00    -0.365 OA 
ENDROOT
BRANCH   2   5
HETATM    5  C   UNL     1      -9.857  14.513  67.059  1.00  0.00    -0.249 C  
BRANCH   5   6
HETATM    6  N   UNL     1     -10.986  14.213  66.192  1.00  0.00    -0.305 NA 
HETATM    7  C   UNL     1     -11.734  13.043  66.230  1.00  0.00    -0.387 A  
HETATM    8  N   UNL     1     -12.670  13.053  65.299  1.00  0.00    -0.665 NA 
HETATM    9  C   UNL     1     -11.542  11.920  67.188  1.00  0.00    -0.363 C  
HETATM   10  C   UNL     1     -12.536  14.237  64.633  1.00  0.00    -0.351 A  
HETATM   11  C   UNL     1     -11.502  14.965  65.163  1.00  0.00    -0.357 A  
HETATM   12  N   UNL     1     -11.053  16.246  64.731  1.00  0.00    -0.382 N  
HETATM   13  O   UNL     1     -11.592  16.706  63.717  1.00  0.00    -1.045 OA 
HETATM   14  O   UNL     1     -10.160  16.805  65.379  1.00  0.00    -0.587 OA 
ENDBRANCH   5   6
ENDBRANCH   2   5
TORSDOF 2
ENDMDL
MODEL        4
REMARK 921   NORMALIZED FREE ENERGY PREDICTED BY IDOCK:   -5.15 KCAL/MOL
REMARK 922        TOTAL FREE ENERGY PREDICTED BY IDOCK:   -5.71 KCAL/MOL
REMARK 923 INTER-LIGAND FREE ENERGY PREDICTED BY IDOCK:   -5.51 KCAL/MOL
REMARK 924 INTRA-LIGAND FREE ENERGY PREDICTED BY IDOCK:   -0.20 KCAL/MOL
REMARK 927      BINDING AFFINITY PREDICTED BY RF-SCORE:    0.00 PKD
ROOT
HETATM    1  C   UNL     1     -12.533  11.861  63.498  1.00  0.00    -0.609 C  
HETATM    2  C   UNL     1     -11.705  12.433  64.643  1.00  0.00    -0.365 C  
HETATM    3  H   UNL     1      -9.937  13.225  64.826  1.00  0.00     0.000 HD 
HETATM    4  O   UNL     1     -10.454  12.868  64.113  1.00  0.00    -0.403 OA 
ENDROOT
BRANCH   2   5
HETATM    5  C   UNL     1     -12.453  13.577  65.342  1.00  0.00    -0.497 C  
BRANCH   5   6
HETATM    6  N   UNL     1     -11.597  14.389  66.194  1.00  0.00    -0.362 NA 
HETATM    7  C   UNL     1     -11.127  14.012  67.446  1.00  0.00    -0.303 A  
HETATM    8  N   UNL     1     -10.401  14.975  67.985  1.00  0.00    -0.234 NA 
HETATM    9  C   UNL     1     -11.377  12.704  68.110  1.00  0.00    -0.334 C  
HETATM   10  C   UNL     1     -10.397  16.001  67.084  1.00  0.00    -0.295 A  
HETATM   11  C   UNL     1     -11.130  15.664  65.977  1.00  0.00    -0.136 A  
HETATM   12  N   UNL     1     -11.363  16.476  64.829  1.00  0.00    -0.225 N  
HETATM   13  O   UNL     1     -10.935  17.635  64.879  1.00  0.00    -0.886 OA 
HETATM   14  O   UNL     1     -11.977  15.983  63.875  1.00  0.00    -0.855 OA 
ENDBRANCH   5   6
ENDBRANCH   2   5
TORSDOF 2
ENDMDL
MODEL        5
REMARK 921   NORMALIZED FREE ENERGY PREDICTED BY IDOCK:   -5.12 KCAL/MOL
REMARK 922        TOTAL FREE ENERGY PREDICTED BY IDOCK:   -5.67 KCAL/MOL
REMARK 923 INTER-LIGAND FREE ENERGY PREDICTED BY IDOCK:   -5.62 KCAL/MOL
REMARK 924 INTRA-LIGAND FREE ENERGY PREDICTED BY IDOCK:   -0.05 KCAL/MOL
REMARK 927      BINDING AFFINITY PREDICTED BY RF-SCORE:    0.00 PKD
ROOT
HETATM    1  C   UNL     1     -12.060  11.913  64.281  1.00  0.00    -0.344 C  
HETATM    2  C   UNL     1     -11.945  13.428  64.160  1.00  0.00    -0.450 C  
HETATM    3  H   UNL     1     -12.527  14.773  62.882  1.00  0.00     0.000 HD 
HETATM    4  O   UNL     1     -12.598  13.829  62.957  1.00  0.00    -0.721 OA 
ENDROOT
BRANCH   2   5
HETATM    5  C   UNL     1     -12.546  14.122  65.390  1.00  0.00    -0.466 C  
BRANCH   5   6
HETATM    6  N   UNL     1     -11.545  14.543  66.360  1.00  0.00    -0.365 NA 
HETATM    7  C   UNL     1     -11.265  13.888  67.553  1.00  0.00    -0.303 A  
HETATM    8  N   UNL     1     -10.332  14.529  68.232  1.00  0.00    -0.231 NA 
HETATM    9  C   UNL     1     -11.901  12.628  68.022  1.00  0.00    -0.376 C  
HETATM   10  C   UNL     1      -9.996  15.622  67.485  1.00  0.00    -0.231 A  
HETATM   11  C   UNL     1     -10.734  15.653  66.331  1.00  0.00    -0.291 A  
HETATM   12  N   UNL     1     -10.673  16.641  65.306  1.00  0.00    -0.290 N  
HETATM   13  O   UNL     1      -9.945  17.617  65.525  1.00  0.00    -0.533 OA 
HETATM   14  O   UNL     1     -11.348  16.470  64.283  1.00  0.00    -1.020 OA 
ENDBRANCH   5   6
ENDBRANCH   2   5
TORSDOF 2
ENDMDL
MODEL        6
REMARK 921   NORMALIZED FREE ENERGY PREDICTED BY IDOCK:   -5.08 KCAL/MOL
REMARK 922        TOTAL FREE ENERGY PREDICTED BY IDOCK:   -5.63 KCAL/MOL
REMARK 923 INTER-LIGAND FREE ENERGY PREDICTED BY IDOCK:   -5.55 KCAL/MOL
REMARK 924 INTRA-LIGAND FREE ENERGY PREDICTED BY IDOCK:   -0.09 KCAL/MOL
REMARK 927      BINDING AFFINITY PREDICTED BY RF-SCORE:    0.00 PKD
ROOT
HETATM    1  C   UNL     1     -10.096  12.557  68.521  1.00  0.00    -0.186 C  
HETATM    2  C   UNL     1     -11.214  12.426  67.494  1.00  0.00    -0.294 C  
HETATM    3  H   UNL     1     -12.734  11.241  67.229  1.00  0.00     0.000 HD 
HETATM    4  O   UNL     1     -12.036  11.323  67.869  1.00  0.00    -0.634 OA 
ENDROOT
BRANCH   2   5
HETATM    5  C   UNL     1     -12.022  13.728  67.396  1.00  0.00    -0.388 C  
BRANCH   5   6
HETATM    6  N   UNL     1     -11.539  14.629  66.361  1.00  0.00    -0.359 NA 
HETATM    7  C   UNL     1     -10.765  15.761  66.585  1.00  0.00    -0.287 A  
HETATM    8  N   UNL     1     -10.513  16.390  65.451  1.00  0.00    -0.583 NA 
HETATM    9  C   UNL     1     -10.260  16.220  67.907  1.00  0.00    -0.261 C  
HETATM   10  C   UNL     1     -11.132  15.671  64.468  1.00  0.00    -0.286 A  
HETATM   11  C   UNL     1     -11.774  14.586  65.006  1.00  0.00    -0.392 A  
HETATM   12  N   UNL     1     -12.533  13.609  64.300  1.00  0.00    -0.301 N  
HETATM   13  O   UNL     1     -12.706  13.813  63.093  1.00  0.00    -0.743 OA 
HETATM   14  O   UNL     1     -12.974  12.640  64.930  1.00  0.00    -0.830 OA 
ENDBRANCH   5   6
ENDBRANCH   2   5
TORSDOF 2
ENDMDL
MODEL        7
REMARK 921   NORMALIZED FREE ENERGY PREDICTED BY IDOCK:   -5.06 KCAL/MOL
REMARK 922        TOTAL FREE ENERGY PREDICTED BY IDOCK:   -5.61 KCAL/MOL
REMARK 923 INTER-LIGAND FREE ENERGY PREDICTED BY IDOCK:   -5.39 KCAL/MOL
REMARK 924 INTRA-LIGAND FREE ENERGY PREDICTED BY IDOCK:   -0.22 KCAL/MOL
REMARK 927      BINDING AFFINITY PREDICTED BY RF-SCORE:    0.00 PKD
ROOT
HETATM    1  C   UNL     1     -11.839  14.224  69.936  1.00  0.00    -0.382 C  
HETATM    2  C   UNL     1     -11.650  15.164  68.751  1.00  0.00    -0.349 C  
HETATM    3  H   UNL     1     -11.131  17.023  68.515  1.00  0.00     0.000 HD 
HETATM    4  O   UNL     1     -11.249  16.437  69.253  1.00  0.00    -0.315 OA 
ENDROOT
BRANCH   2   5
HETATM    5  C   UNL     1     -10.626  14.596  67.759  1.00  0.00    -0.251 C  
BRANCH   5   6
HETATM    6  N   UNL     1     -10.926  14.922  66.372  1.00  0.00    -0.332 NA 
HETATM    7  C   UNL     1     -10.530  16.084  65.721  1.00  0.00    -0.374 A  
HETATM    8  N   UNL     1     -10.982  16.104  64.481  1.00  0.00    -0.631 NA 
HETATM    9  C   UNL     1      -9.698  17.168  66.309  1.00  0.00    -0.296 C  
HETATM   10  C   UNL     1     -11.689  14.949  64.311  1.00  0.00    -0.247 A  
HETATM   11  C   UNL     1     -11.672  14.208  65.465  1.00  0.00    -0.344 A  
HETATM   12  N   UNL     1     -12.304  12.949  65.678  1.00  0.00    -0.462 N  
HETATM   13  O   UNL     1     -13.015  12.527  64.759  1.00  0.00    -0.827 OA 
HETATM   14  O   UNL     1     -12.114  12.372  66.756  1.00  0.00    -0.578 OA 
ENDBRANCH   5   6
ENDBRANCH   2   5
TORSDOF 2
ENDMDL
MODEL        8
REMARK 921   NORMALIZED FREE ENERGY PREDICTED BY IDOCK:   -5.05 KCAL/MOL
REMARK 922        TOTAL FREE ENERGY PREDICTED BY IDOCK:   -5.60 KCAL/MOL
REMARK 923 INTER-LIGAND FREE ENERGY PREDICTED BY IDOCK:   -5.43 KCAL/MOL
REMARK 924 INTRA-LIGAND FREE ENERGY PREDICTED BY IDOCK:   -0.17 KCAL/MOL
REMARK 927      BINDING AFFINITY PREDICTED BY RF-SCORE:    0.00 PKD
ROOT
HETATM    1  C   UNL     1      -9.565  17.054  66.003  1.00  0.00    -0.215 C  
HETATM    2  C   UNL     1     -10.698  16.266  65.357  1.00  0.00    -0.327 C  
HETATM    3  H   UNL     1     -11.952  16.565  63.900  1.00  0.00     0.000 HD 
HETATM    4  O   UNL     1     -11.246  17.056  64.303  1.00  0.00    -1.186 OA 
ENDROOT
BRANCH   2   5
HETATM    5  C   UNL     1     -10.200  14.907  64.846  1.00  0.00    -0.251 C  
BRANCH   5   6
HETATM    6  N   UNL     1     -10.672  13.784  65.642  1.00  0.00    -0.282 NA 
HETATM    7  C   UNL     1     -10.096  13.347  66.829  1.00  0.00    -0.260 A  
HETATM    8  N   UNL     1     -10.730  12.288  67.297  1.00  0.00    -0.226 NA 
HETATM    9  C   UNL     1      -8.932  13.975  67.511  1.00  0.00    -0.195 C  
HETATM   10  C   UNL     1     -11.731  12.016  66.409  1.00  0.00    -0.252 A  
HETATM   11  C   UNL     1     -11.711  12.922  65.380  1.00  0.00    -0.375 A  
HETATM   12  N   UNL     1     -12.592  12.960  64.261  1.00  0.00    -0.322 N  
HETATM   13  O   UNL     1     -13.397  12.026  64.162  1.00  0.00    -0.725 OA 
HETATM   14  O   UNL     1     -12.491  13.901  63.465  1.00  0.00    -0.810 OA 
ENDBRANCH   5   6
ENDBRANCH   2   5
TORSDOF 2
ENDMDL
MODEL        9
REMARK 921   NORMALIZED FREE ENERGY PREDICTED BY IDOCK:   -4.93 KCAL/MOL
REMARK 922        TOTAL FREE ENERGY PREDICTED BY IDOCK:   -5.47 KCAL/MOL
REMARK 923 INTER-LIGAND FREE ENERGY PREDICTED BY IDOCK:   -5.27 KCAL/MOL
REMARK 924 INTRA-LIGAND FREE ENERGY PREDICTED BY IDOCK:   -0.20 KCAL/MOL
REMARK 927      BINDING AFFINITY PREDICTED BY RF-SCORE:    0.00 PKD
ROOT
HETATM    1  C   UNL     1     -12.264  12.197  63.657  1.00  0.00    -0.663 C  
HETATM    2  C   UNL     1     -12.060  13.483  64.450  1.00  0.00    -0.420 C  
HETATM    3  H   UNL     1     -13.158  14.599  65.605  1.00  0.00     0.000 HD 
HETATM    4  O   UNL     1     -13.285  13.797  65.110  1.00  0.00    -0.757 OA 
ENDROOT
BRANCH   2   5
HETATM    5  C   UNL     1     -10.900  13.336  65.445  1.00  0.00    -0.291 C  
BRANCH   5   6
HETATM    6  N   UNL     1     -11.079  14.120  66.658  1.00  0.00    -0.307 NA 
HETATM    7  C   UNL     1     -10.816  15.479  66.776  1.00  0.00    -0.291 A  
HETATM    8  N   UNL     1     -11.044  15.896  68.008  1.00  0.00    -0.338 NA 
HETATM    9  C   UNL     1     -10.355  16.373  65.680  1.00  0.00    -0.371 C  
HETATM   10  C   UNL     1     -11.455  14.801  68.714  1.00  0.00    -0.301 A  
HETATM   11  C   UNL     1     -11.479  13.696  67.903  1.00  0.00    -0.314 A  
HETATM   12  N   UNL     1     -11.845  12.372  68.279  1.00  0.00    -0.335 N  
HETATM   13  O   UNL     1     -12.076  12.184  69.480  1.00  0.00    -0.272 OA 
HETATM   14  O   UNL     1     -11.897  11.504  67.399  1.00  0.00    -0.607 OA 
ENDBRANCH   5   6
ENDBRANCH   2   5
TORSDOF 2
ENDMDL
MODEL       10
REMARK 921   NORMALIZED FREE ENERGY PREDICTED BY IDOCK:   -4.91 KCAL/MOL
REMARK 922        TOTAL FREE ENERGY PREDICTED BY IDOCK:   -5.44 KCAL/MOL
REMARK 923 INTER-LIGAND FREE ENERGY PREDICTED BY IDOCK:   -5.34 KCAL/MOL
REMARK 924 INTRA-LIGAND FREE ENERGY PREDICTED BY IDOCK:   -0.09 KCAL/MOL
REMARK 927      BINDING AFFINITY PREDICTED BY RF-SCORE:    0.00 PKD
ROOT
HETATM    1  C   UNL     1     -12.924  16.198  73.425  1.00  0.00    -0.611 C  
HETATM    2  C   UNL     1     -12.285  16.057  72.048  1.00  0.00    -0.506 C  
HETATM    3  H   UNL     1     -10.649  15.277  71.343  1.00  0.00     0.000 HD 
HETATM    4  O   UNL     1     -11.047  15.365  72.201  1.00  0.00    -0.344 OA 
ENDROOT
BRANCH   2   5
HETATM    5  C   UNL     1     -13.226  15.328  71.079  1.00  0.00    -0.484 C  
BRANCH   5   6
HETATM    6  N   UNL     1     -12.597  14.206  70.399  1.00  0.00    -0.347 NA 
HETATM    7  C   UNL     1     -11.882  14.290  69.211  1.00  0.00    -0.330 A  
HETATM    8  N   UNL     1     -11.462  13.098  68.830  1.00  0.00    -0.285 NA 
HETATM    9  C   UNL     1     -11.596  15.540  68.457  1.00  0.00    -0.379 C  
HETATM   10  C   UNL     1     -11.910  12.214  69.770  1.00  0.00    -0.327 A  
HETATM   11  C   UNL     1     -12.615  12.874  70.743  1.00  0.00    -0.232 A  
HETATM   12  N   UNL     1     -13.243  12.293  71.882  1.00  0.00    -0.451 N  
HETATM   13  O   UNL     1     -13.227  11.059  71.951  1.00  0.00    -0.473 OA 
HETATM   14  O   UNL     1     -13.766  13.046  72.713  1.00  0.00    -0.575 OA 
ENDBRANCH   5   6
ENDBRANCH   2   5
TORSDOF 2
ENDMDL
MODEL       11
REMARK 921   NORMALIZED FREE ENERGY PREDICTED BY IDOCK:   -4.90 KCAL/MOL
REMARK 922        TOTAL FREE ENERGY PREDICTED BY IDOCK:   -5.43 KCAL/MOL
REMARK 923 INTER-LIGAND FREE ENERGY PREDICTED BY IDOCK:   -5.20 KCAL/MOL
REMARK 924 INTRA-LIGAND FREE ENERGY PREDICTED BY IDOCK:   -0.23 KCAL/MOL
REMARK 927      BINDING AFFINITY PREDICTED BY RF-SCORE:    0.00 PKD
ROOT
HETATM    1  C   UNL     1     -11.669  14.532  67.086  1.00  0.00    -0.420 C  
HETATM    2  C   UNL     1     -12.149  13.379  67.960  1.00  0.00    -0.248 C  
HETATM    3  H   UNL     1     -12.298  11.449  67.766  1.00  0.00     0.000 HD 
HETATM    4  O   UNL     1     -11.999  12.168  67.222  1.00  0.00    -0.573 OA 
ENDROOT
BRANCH   2   5
HETATM    5  C   UNL     1     -11.376  13.336  69.285  1.00  0.00    -0.253 C  
BRANCH   5   6
HETATM    6  N   UNL     1     -12.181  12.880  70.408  1.00  0.00    -0.345 NA 
HETATM    7  C   UNL     1     -12.302  11.559  70.820  1.00  0.00    -0.375 A  
HETATM    8  N   UNL     1     -13.128  11.460  71.845  1.00  0.00    -0.473 NA 
HETATM    9  C   UNL     1     -11.598  10.394  70.218  1.00  0.00    -0.410 C  
HETATM   10  C   UNL     1     -13.564  12.727  72.110  1.00  0.00    -0.451 A  
HETATM   11  C   UNL     1     -12.997  13.616  71.234  1.00  0.00    -0.322 A  
HETATM   12  N   UNL     1     -13.214  15.024  71.191  1.00  0.00    -0.404 N  
HETATM   13  O   UNL     1     -14.069  15.474  71.962  1.00  0.00    -0.498 OA 
HETATM   14  O   UNL     1     -12.552  15.695  70.390  1.00  0.00    -0.426 OA 
ENDBRANCH   5   6
ENDBRANCH   2   5
TORSDOF 2
ENDMDL
MODEL       12
REMARK 921   NORMALIZED FREE ENERGY PREDICTED BY IDOCK:   -4.85 KCAL/MOL
REMARK 922        TOTAL FREE ENERGY PREDICTED BY IDOCK:   -5.38 KCAL/MOL
REMARK 923 INTER-LIGAND FREE ENERGY PREDICTED BY IDOCK:   -5.17 KCAL/MOL
REMARK 924 INTRA-LIGAND FREE ENERGY PREDICTED BY IDOCK:   -0.21 KCAL/MOL
REMARK 927      BINDING AFFINITY PREDICTED BY RF-SCORE:    0.00 PKD
ROOT
HETATM    1  C   UNL     1      -9.142  18.659  68.450  1.00  0.00    -0.352 C  
HETATM    2  C   UNL     1      -9.587  17.235  68.139  1.00  0.00    -0.283 C  
HETATM    3  H   UNL     1     -11.290  16.309  67.981  1.00  0.00     0.000 HD 
HETATM    4  O   UNL     1     -11.012  17.196  68.176  1.00  0.00    -0.361 OA 
ENDROOT
BRANCH   2   5
HETATM    5  C   UNL     1      -9.041  16.775  66.780  1.00  0.00    -0.241 C  
BRANCH   5   6
HETATM    6  N   UNL     1      -9.693  15.576  66.273  1.00  0.00    -0.278 NA 
HETATM    7  C   UNL     1      -9.388  14.277  66.659  1.00  0.00    -0.284 A  
HETATM    8  N   UNL     1     -10.128  13.405  66.000  1.00  0.00    -0.299 NA 
HETATM    9  C   UNL     1      -8.381  13.890  67.684  1.00  0.00    -0.183 C  
HETATM   10  C   UNL     1     -10.926  14.133  65.164  1.00  0.00    -0.356 A  
HETATM   11  C   UNL     1     -10.671  15.472  65.312  1.00  0.00    -0.422 A  
HETATM   12  N   UNL     1     -11.297  16.541  64.609  1.00  0.00    -0.263 N  
HETATM   13  O   UNL     1     -12.083  16.222  63.708  1.00  0.00    -0.959 OA 
HETATM   14  O   UNL     1     -11.012  17.702  64.928  1.00  0.00    -0.886 OA 
ENDBRANCH   5   6
ENDBRANCH   2   5
TORSDOF 2
ENDMDL
MODEL       13
REMARK 921   NORMALIZED FREE ENERGY PREDICTED BY IDOCK:   -4.81 KCAL/MOL
REMARK 922        TOTAL FREE ENERGY PREDICTED BY IDOCK:   -5.33 KCAL/MOL
REMARK 923 INTER-LIGAND FREE ENERGY PREDICTED BY IDOCK:   -5.09 KCAL/MOL
REMARK 924 INTRA-LIGAND FREE ENERGY PREDICTED BY IDOCK:   -0.24 KCAL/MOL
REMARK 927      BINDING AFFINITY PREDICTED BY RF-SCORE:    0.00 PKD
ROOT
HETATM    1  C   UNL     1      -7.923  14.357  68.281  1.00  0.00    -0.140 C  
HETATM    2  C   UNL     1      -8.831  13.794  67.194  1.00  0.00    -0.231 C  
HETATM    3  H   UNL     1      -9.342  12.019  66.583  1.00  0.00     0.000 HD 
HETATM    4  O   UNL     1      -8.776  12.370  67.261  1.00  0.00    -0.175 OA 
ENDROOT
BRANCH   2   5
HETATM    5  C   UNL     1     -10.267  14.314  67.355  1.00  0.00    -0.247 C  
BRANCH   5   6
HETATM    6  N   UNL     1     -10.842  14.810  66.114  1.00  0.00    -0.314 NA 
HETATM    7  C   UNL     1     -10.585  16.055  65.555  1.00  0.00    -0.398 A  
HETATM    8  N   UNL     1     -11.281  16.226  64.446  1.00  0.00    -0.756 NA 
HETATM    9  C   UNL     1      -9.647  17.074  66.100  1.00  0.00    -0.265 C  
HETATM   10  C   UNL     1     -12.011  15.085  64.272  1.00  0.00    -0.295 A  
HETATM   11  C   UNL     1     -11.760  14.202  65.290  1.00  0.00    -0.353 A  
HETATM   12  N   UNL     1     -12.338  12.911  65.458  1.00  0.00    -0.477 N  
HETATM   13  O   UNL     1     -13.224  12.594  64.655  1.00  0.00    -0.828 OA 
HETATM   14  O   UNL     1     -11.934  12.202  66.389  1.00  0.00    -0.611 OA 
ENDBRANCH   5   6
ENDBRANCH   2   5
TORSDOF 2
ENDMDL
MODEL       14
REMARK 921   NORMALIZED FREE ENERGY PREDICTED BY IDOCK:   -4.77 KCAL/MOL
REMARK 922        TOTAL FREE ENERGY PREDICTED BY IDOCK:   -5.29 KCAL/MOL
REMARK 923 INTER-LIGAND FREE ENERGY PREDICTED BY IDOCK:   -5.03 KCAL/MOL
REMARK 924 INTRA-LIGAND FREE ENERGY PREDICTED BY IDOCK:   -0.25 KCAL/MOL
REMARK 927      BINDING AFFINITY PREDICTED BY RF-SCORE:    0.00 PKD
ROOT
HETATM    1  C   UNL     1     -10.200  10.427  65.617  1.00  0.00    -0.308 C  
HETATM    2  C   UNL     1     -10.461  11.758  64.923  1.00  0.00    -0.287 C  
HETATM    3  H   UNL     1     -11.514  12.355  63.400  1.00  0.00     0.000 HD 
HETATM    4  O   UNL     1     -11.351  11.525  63.833  1.00  0.00    -0.386 OA 
ENDROOT
BRANCH   2   5
HETATM    5  C   UNL     1     -11.029  12.788  65.909  1.00  0.00    -0.274 C  
BRANCH   5   6
HETATM    6  N   UNL     1     -10.200  13.977  66.041  1.00  0.00    -0.295 NA 
HETATM    7  C   UNL     1      -9.083  14.084  66.860  1.00  0.00    -0.248 A  
HETATM    8  N   UNL     1      -8.562  15.296  66.788  1.00  0.00    -0.252 NA 
HETATM    9  C   UNL     1      -8.516  12.997  67.703  1.00  0.00    -0.187 C  
HETATM   10  C   UNL     1      -9.346  15.999  65.919  1.00  0.00    -0.300 A  
HETATM   11  C   UNL     1     -10.363  15.208  65.451  1.00  0.00    -0.388 A  
HETATM   12  N   UNL     1     -11.386  15.589  64.535  1.00  0.00    -0.373 N  
HETATM   13  O   UNL     1     -11.411  16.779  64.201  1.00  0.00    -1.194 OA 
HETATM   14  O   UNL     1     -12.179  14.723  64.146  1.00  0.00    -0.541 OA 
ENDBRANCH   5   6
ENDBRANCH   2   5
TORSDOF 2
ENDMDL
MODEL       15
REMARK 921   NORMALIZED FREE ENERGY PREDICTED BY IDOCK:   -4.67 KCAL/MOL
REMARK 922        TOTAL FREE ENERGY PREDICTED BY IDOCK:   -5.17 KCAL/MOL
REMARK 923 INTER-LIGAND FREE ENERGY PREDICTED BY IDOCK:   -5.22 KCAL/MOL
REMARK 924 INTRA-LIGAND FREE ENERGY PREDICTED BY IDOCK:    0.06 KCAL/MOL
REMARK 927      BINDING AFFINITY PREDICTED BY RF-SCORE:    0.00 PKD
ROOT
HETATM    1  C   UNL     1      -9.949  10.652  67.094  1.00  0.00    -0.234 C  
HETATM    2  C   UNL     1     -10.905  11.417  66.187  1.00  0.00    -0.255 C  
HETATM    3  H   UNL     1     -12.455  12.564  66.444  1.00  0.00     0.000 HD 
HETATM    4  O   UNL     1     -11.859  12.087  67.009  1.00  0.00    -0.573 OA 
ENDROOT
BRANCH   2   5
HETATM    5  C   UNL     1     -10.141  12.399  65.288  1.00  0.00    -0.265 C  
BRANCH   5   6
HETATM    6  N   UNL     1     -10.977  13.467  64.760  1.00  0.00    -0.340 NA 
HETATM    7  C   UNL     1     -12.068  13.285  63.919  1.00  0.00    -0.468 A  
HETATM    8  N   UNL     1     -12.602  14.446  63.586  1.00  0.00    -0.723 NA 
HETATM    9  C   UNL     1     -12.596  11.975  63.453  1.00  0.00    -0.592 C  
HETATM   10  C   UNL     1     -11.853  15.405  64.206  1.00  0.00    -0.199 A  
HETATM   11  C   UNL     1     -10.844  14.825  64.931  1.00  0.00    -0.416 A  
HETATM   12  N   UNL     1      -9.856  15.498  65.705  1.00  0.00    -0.346 N  
HETATM   13  O   UNL     1      -9.853  16.733  65.642  1.00  0.00    -0.544 OA 
HETATM   14  O   UNL     1      -9.067  14.816  66.372  1.00  0.00    -0.271 OA 
ENDBRANCH   5   6
ENDBRANCH   2   5
TORSDOF 2
ENDMDL
MODEL       16
REMARK 921   NORMALIZED FREE ENERGY PREDICTED BY IDOCK:   -4.66 KCAL/MOL
REMARK 922        TOTAL FREE ENERGY PREDICTED BY IDOCK:   -5.17 KCAL/MOL
REMARK 923 INTER-LIGAND FREE ENERGY PREDICTED BY IDOCK:   -4.93 KCAL/MOL
REMARK 924 INTRA-LIGAND FREE ENERGY PREDICTED BY IDOCK:   -0.24 KCAL/MOL
REMARK 927      BINDING AFFINITY PREDICTED BY RF-SCORE:    0.00 PKD
ROOT
HETATM    1  C   UNL     1     -12.122  14.682  64.332  1.00  0.00    -0.481 C  
HETATM    2  C   UNL     1     -12.500  13.760  65.486  1.00  0.00    -0.512 C  
HETATM    3  H   UNL     1     -13.339  12.013  65.658  1.00  0.00     0.000 HD 
HETATM    4  O   UNL     1     -13.103  12.588  64.939  1.00  0.00    -0.833 OA 
ENDROOT
BRANCH   2   5
HETATM    5  C   UNL     1     -11.271  13.419  66.340  1.00  0.00    -0.304 C  
BRANCH   5   6
HETATM    6  N   UNL     1     -11.484  13.632  67.764  1.00  0.00    -0.299 NA 
HETATM    7  C   UNL     1     -11.454  14.867  68.401  1.00  0.00    -0.318 A  
HETATM    8  N   UNL     1     -11.649  14.731  69.700  1.00  0.00    -0.286 NA 
HETATM    9  C   UNL     1     -11.247  16.182  67.736  1.00  0.00    -0.199 C  
HETATM   10  C   UNL     1     -11.803  13.393  69.926  1.00  0.00    -0.315 A  
HETATM   11  C   UNL     1     -11.700  12.698  68.750  1.00  0.00    -0.323 A  
HETATM   12  N   UNL     1     -11.797  11.286  68.583  1.00  0.00    -0.317 N  
HETATM   13  O   UNL     1     -11.892  10.614  69.617  1.00  0.00    -0.279 OA 
HETATM   14  O   UNL     1     -11.769  10.826  67.435  1.00  0.00    -0.462 OA 
ENDBRANCH   5   6
ENDBRANCH   2   5
TORSDOF 2
ENDMDL
MODEL       17
REMARK 921   NORMALIZED FREE ENERGY PREDICTED BY IDOCK:   -4.65 KCAL/MOL
REMARK 922        TOTAL FREE ENERGY PREDICTED BY IDOCK:   -5.15 KCAL/MOL
REMARK 923 INTER-LIGAND FREE ENERGY PREDICTED BY IDOCK:   -4.89 KCAL/MOL
REMARK 924 INTRA-LIGAND FREE ENERGY PREDICTED BY IDOCK:   -0.26 KCAL/MOL
REMARK 927      BINDING AFFINITY PREDICTED BY RF-SCORE:    0.00 PKD
ROOT
HETATM    1  C   UNL     1     -11.412  13.934  67.120  1.00  0.00    -0.370 C  
HETATM    2  C   UNL     1     -12.022  12.853  68.005  1.00  0.00    -0.275 C  
HETATM    3  H   UNL     1     -12.297  10.932  67.871  1.00  0.00     0.000 HD 
HETATM    4  O   UNL     1     -11.917  11.606  67.320  1.00  0.00    -0.627 OA 
ENDROOT
BRANCH   2   5
HETATM    5  C   UNL     1     -11.328  12.809  69.373  1.00  0.00    -0.202 C  
BRANCH   5   6
HETATM    6  N   UNL     1     -12.233  13.055  70.486  1.00  0.00    -0.354 NA 
HETATM    7  C   UNL     1     -12.611  14.311  70.945  1.00  0.00    -0.356 A  
HETATM    8  N   UNL     1     -13.415  14.207  71.988  1.00  0.00    -0.391 NA 
HETATM    9  C   UNL     1     -12.196  15.612  70.355  1.00  0.00    -0.429 C  
HETATM   10  C   UNL     1     -13.564  12.871  72.226  1.00  0.00    -0.515 A  
HETATM   11  C   UNL     1     -12.842  12.143  71.316  1.00  0.00    -0.250 A  
HETATM   12  N   UNL     1     -12.743  10.724  71.246  1.00  0.00    -0.408 N  
HETATM   13  O   UNL     1     -13.290  10.088  72.155  1.00  0.00    -0.444 OA 
HETATM   14  O   UNL     1     -12.116  10.224  70.304  1.00  0.00    -0.272 OA 
ENDBRANCH   5   6
ENDBRANCH   2   5
TORSDOF 2
ENDMDL
MODEL       18
REMARK 921   NORMALIZED FREE ENERGY PREDICTED BY IDOCK:   -4.64 KCAL/MOL
REMARK 922        TOTAL FREE ENERGY PREDICTED BY IDOCK:   -5.14 KCAL/MOL
REMARK 923 INTER-LIGAND FREE ENERGY PREDICTED BY IDOCK:   -4.93 KCAL/MOL
REMARK 924 INTRA-LIGAND FREE ENERGY PREDICTED BY IDOCK:   -0.20 KCAL/MOL
REMARK 927      BINDING AFFINITY PREDICTED BY RF-SCORE:    0.00 PKD
ROOT
HETATM    1  C   UNL     1     -11.917  13.426  69.293  1.00  0.00    -0.367 C  
HETATM    2  C   UNL     1     -11.298  12.441  68.309  1.00  0.00    -0.284 C  
HETATM    3  H   UNL     1     -11.874  10.810  67.419  1.00  0.00     0.000 HD 
HETATM    4  O   UNL     1     -12.259  11.424  68.032  1.00  0.00    -0.607 OA 
ENDROOT
BRANCH   2   5
HETATM    5  C   UNL     1     -10.845  13.156  67.028  1.00  0.00    -0.264 C  
BRANCH   5   6
HETATM    6  N   UNL     1     -10.470  12.242  65.959  1.00  0.00    -0.247 NA 
HETATM    7  C   UNL     1      -9.282  11.524  65.903  1.00  0.00    -0.210 A  
HETATM    8  N   UNL     1      -9.219  10.808  64.795  1.00  0.00    -0.206 NA 
HETATM    9  C   UNL     1      -8.214  11.528  66.939  1.00  0.00    -0.167 C  
HETATM   10  C   UNL     1     -10.372  11.060  64.109  1.00  0.00    -0.369 A  
HETATM   11  C   UNL     1     -11.155  11.944  64.805  1.00  0.00    -0.311 A  
HETATM   12  N   UNL     1     -12.425  12.452  64.409  1.00  0.00    -0.460 N  
HETATM   13  O   UNL     1     -12.819  12.133  63.280  1.00  0.00    -0.735 OA 
HETATM   14  O   UNL     1     -13.041  13.177  65.200  1.00  0.00    -0.703 OA 
ENDBRANCH   5   6
ENDBRANCH   2   5
TORSDOF 2
ENDMDL
MODEL       19
REMARK 921   NORMALIZED FREE ENERGY PREDICTED BY IDOCK:   -4.60 KCAL/MOL
REMARK 922        TOTAL FREE ENERGY PREDICTED BY IDOCK:   -5.10 KCAL/MOL
REMARK 923 INTER-LIGAND FREE ENERGY PREDICTED BY IDOCK:   -4.84 KCAL/MOL
REMARK 924 INTRA-LIGAND FREE ENERGY PREDICTED BY IDOCK:   -0.26 KCAL/MOL
REMARK 927      BINDING AFFINITY PREDICTED BY RF-SCORE:    0.00 PKD
ROOT
HETATM    1  C   UNL     1      -8.449  15.450  68.802  1.00  0.00    -0.188 C  
HETATM    2  C   UNL     1      -9.587  15.672  67.811  1.00  0.00    -0.209 C  
HETATM    3  H   UNL     1     -10.318  17.194  66.846  1.00  0.00     0.000 HD 
HETATM    4  O   UNL     1      -9.610  17.055  67.464  1.00  0.00    -0.244 OA 
ENDROOT
BRANCH   2   5
HETATM    5  C   UNL     1      -9.419  14.779  66.574  1.00  0.00    -0.293 C  
BRANCH   5   6
HETATM    6  N   UNL     1     -10.562  13.912  66.330  1.00  0.00    -0.278 NA 
HETATM    7  C   UNL     1     -10.790  12.695  66.960  1.00  0.00    -0.253 A  
HETATM    8  N   UNL     1     -11.892  12.129  66.503  1.00  0.00    -0.615 NA 
HETATM    9  C   UNL     1      -9.937  12.092  68.019  1.00  0.00    -0.197 C  
HETATM   10  C   UNL     1     -12.395  12.976  65.557  1.00  0.00    -0.472 A  
HETATM   11  C   UNL     1     -11.589  14.078  65.431  1.00  0.00    -0.328 A  
HETATM   12  N   UNL     1     -11.780  15.176  64.543  1.00  0.00    -0.380 N  
HETATM   13  O   UNL     1     -12.717  15.080  63.741  1.00  0.00    -0.741 OA 
HETATM   14  O   UNL     1     -11.003  16.136  64.620  1.00  0.00    -0.642 OA 
ENDBRANCH   5   6
ENDBRANCH   2   5
TORSDOF 2
ENDMDL
MODEL       20
REMARK 921   NORMALIZED FREE ENERGY PREDICTED BY IDOCK:   -4.57 KCAL/MOL
REMARK 922        TOTAL FREE ENERGY PREDICTED BY IDOCK:   -5.06 KCAL/MOL
REMARK 923 INTER-LIGAND FREE ENERGY PREDICTED BY IDOCK:   -4.94 KCAL/MOL
REMARK 924 INTRA-LIGAND FREE ENERGY PREDICTED BY IDOCK:   -0.13 KCAL/MOL
REMARK 927      BINDING AFFINITY PREDICTED BY RF-SCORE:    0.00 PKD
ROOT
HETATM    1  C   UNL     1     -11.268  13.194  68.947  1.00  0.00    -0.324 C  
HETATM    2  C   UNL     1     -10.927  12.132  67.909  1.00  0.00    -0.229 C  
HETATM    3  H   UNL     1     -11.934  10.899  66.791  1.00  0.00     0.000 HD 
HETATM    4  O   UNL     1     -12.147  11.561  67.439  1.00  0.00    -0.593 OA 
ENDROOT
BRANCH   2   5
HETATM    5  C   UNL     1     -10.101  12.731  66.762  1.00  0.00    -0.236 C  
BRANCH   5   6
HETATM    6  N   UNL     1     -10.619  12.397  65.444  1.00  0.00    -0.276 NA 
HETATM    7  C   UNL     1     -10.318  11.239  64.738  1.00  0.00    -0.307 A  
HETATM    8  N   UNL     1     -10.914  11.239  63.559  1.00  0.00    -0.339 NA 
HETATM    9  C   UNL     1      -9.457  10.126  65.222  1.00  0.00    -0.306 C  
HETATM   10  C   UNL     1     -11.610  12.411  63.482  1.00  0.00    -0.497 A  
HETATM   11  C   UNL     1     -11.439  13.141  64.629  1.00  0.00    -0.333 A  
HETATM   12  N   UNL     1     -11.999  14.419  64.917  1.00  0.00    -0.406 N  
HETATM   13  O   UNL     1     -12.629  14.963  64.002  1.00  0.00    -0.832 OA 
HETATM   14  O   UNL     1     -11.815  14.902  66.041  1.00  0.00    -0.257 OA 
ENDBRANCH   5   6
ENDBRANCH   2   5
TORSDOF 2
ENDMDL
MODEL       21
REMARK 921   NORMALIZED FREE ENERGY PREDICTED BY IDOCK:   -4.57 KCAL/MOL
REMARK 922        TOTAL FREE ENERGY PREDICTED BY IDOCK:   -5.06 KCAL/MOL
REMARK 923 INTER-LIGAND FREE ENERGY PREDICTED BY IDOCK:   -4.90 KCAL/MOL
REMARK 924 INTRA-LIGAND FREE ENERGY PREDICTED BY IDOCK:   -0.16 KCAL/MOL
REMARK 927      BINDING AFFINITY PREDICTED BY RF-SCORE:    0.00 PKD
ROOT
HETATM    1  C   UNL     1     -12.484  11.847  63.798  1.00  0.00    -0.537 C  
HETATM    2  C   UNL     1     -11.985  13.281  63.927  1.00  0.00    -0.483 C  
HETATM    3  H   UNL     1     -12.406  14.985  63.089  1.00  0.00     0.000 HD 
HETATM    4  O   UNL     1     -12.717  14.091  63.008  1.00  0.00    -0.586 OA 
ENDROOT
BRANCH   2   5
HETATM    5  C   UNL     1     -12.131  13.785  65.369  1.00  0.00    -0.407 C  
BRANCH   5   6
HETATM    6  N   UNL     1     -10.903  13.683  66.142  1.00  0.00    -0.278 NA 
HETATM    7  C   UNL     1     -10.585  12.640  67.004  1.00  0.00    -0.240 A  
HETATM    8  N   UNL     1      -9.417  12.849  67.584  1.00  0.00    -0.190 NA 
HETATM    9  C   UNL     1     -11.419  11.433  67.250  1.00  0.00    -0.301 C  
HETATM   10  C   UNL     1      -8.961  14.044  67.107  1.00  0.00    -0.232 A  
HETATM   11  C   UNL     1      -9.861  14.577  66.222  1.00  0.00    -0.304 A  
HETATM   12  N   UNL     1      -9.740  15.814  65.524  1.00  0.00    -0.285 N  
HETATM   13  O   UNL     1      -8.768  16.519  65.818  1.00  0.00    -0.460 OA 
HETATM   14  O   UNL     1     -10.607  16.106  64.691  1.00  0.00    -0.597 OA 
ENDBRANCH   5   6
ENDBRANCH   2   5
TORSDOF 2
ENDMDL
MODEL       22
REMARK 921   NORMALIZED FREE ENERGY PREDICTED BY IDOCK:   -4.55 KCAL/MOL
REMARK 922        TOTAL FREE ENERGY PREDICTED BY IDOCK:   -5.04 KCAL/MOL
REMARK 923 INTER-LIGAND FREE ENERGY PREDICTED BY IDOCK:   -4.80 KCAL/MOL
REMARK 924 INTRA-LIGAND FREE ENERGY PREDICTED BY IDOCK:   -0.25 KCAL/MOL
REMARK 927      BINDING AFFINITY PREDICTED BY RF-SCORE:    0.00 PKD
ROOT
HETATM    1  C   UNL     1     -10.671  13.352  66.196  1.00  0.00    -0.288 C  
HETATM    2  C   UNL     1     -11.600  12.946  67.335  1.00  0.00    -0.360 C  
HETATM    3  H   UNL     1     -12.511  11.315  67.878  1.00  0.00     0.000 HD 
HETATM    4  O   UNL     1     -11.932  11.568  67.169  1.00  0.00    -0.581 OA 
ENDROOT
BRANCH   2   5
HETATM    5  C   UNL     1     -10.946  13.212  68.698  1.00  0.00    -0.265 C  
BRANCH   5   6
HETATM    6  N   UNL     1     -11.775  14.010  69.588  1.00  0.00    -0.292 NA 
HETATM    7  C   UNL     1     -11.909  15.392  69.531  1.00  0.00    -0.349 A  
HETATM    8  N   UNL     1     -12.704  15.827  70.491  1.00  0.00    -0.400 NA 
HETATM    9  C   UNL     1     -11.270  16.285  68.527  1.00  0.00    -0.359 C  
HETATM   10  C   UNL     1     -13.094  14.724  71.196  1.00  0.00    -0.382 A  
HETATM   11  C   UNL     1     -12.530  13.595  70.660  1.00  0.00    -0.347 A  
HETATM   12  N   UNL     1     -12.695  12.259  71.125  1.00  0.00    -0.314 N  
HETATM   13  O   UNL     1     -13.338  12.114  72.171  1.00  0.00    -0.522 OA 
HETATM   14  O   UNL     1     -12.184  11.342  70.470  1.00  0.00    -0.337 OA 
ENDBRANCH   5   6
ENDBRANCH   2   5
TORSDOF 2
ENDMDL
MODEL       23
REMARK 921   NORMALIZED FREE ENERGY PREDICTED BY IDOCK:   -4.55 KCAL/MOL
REMARK 922        TOTAL FREE ENERGY PREDICTED BY IDOCK:   -5.04 KCAL/MOL
REMARK 923 INTER-LIGAND FREE ENERGY PREDICTED BY IDOCK:   -4.82 KCAL/MOL
REMARK 924 INTRA-LIGAND FREE ENERGY PREDICTED BY IDOCK:   -0.22 KCAL/MOL
REMARK 927      BINDING AFFINITY PREDICTED BY RF-SCORE:    0.00 PKD
ROOT
HETATM    1  C   UNL     1     -12.111  14.243  64.464  1.00  0.00    -0.499 C  
HETATM    2  C   UNL     1     -12.167  13.666  65.873  1.00  0.00    -0.461 C  
HETATM    3  H   UNL     1     -12.427  11.901  66.649  1.00  0.00     0.000 HD 
HETATM    4  O   UNL     1     -12.392  12.261  65.770  1.00  0.00    -0.622 OA 
ENDROOT
BRANCH   2   5
HETATM    5  C   UNL     1     -10.879  13.979  66.646  1.00  0.00    -0.297 C  
BRANCH   5   6
HETATM    6  N   UNL     1     -11.118  14.632  67.924  1.00  0.00    -0.280 NA 
HETATM    7  C   UNL     1     -11.552  13.994  69.079  1.00  0.00    -0.306 A  
HETATM    8  N   UNL     1     -11.708  14.859  70.064  1.00  0.00    -0.276 NA 
HETATM    9  C   UNL     1     -11.803  12.534  69.222  1.00  0.00    -0.360 C  
HETATM   10  C   UNL     1     -11.380  16.083  69.555  1.00  0.00    -0.344 A  
HETATM   11  C   UNL     1     -11.018  15.968  68.238  1.00  0.00    -0.335 A  
HETATM   12  N   UNL     1     -10.619  17.023  67.369  1.00  0.00    -0.317 N  
HETATM   13  O   UNL     1     -10.696  18.171  67.824  1.00  0.00    -0.412 OA 
HETATM   14  O   UNL     1     -10.238  16.733  66.228  1.00  0.00    -0.309 OA 
ENDBRANCH   5   6
ENDBRANCH   2   5
TORSDOF 2
ENDMDL
MODEL       24
REMARK 921   NORMALIZED FREE ENERGY PREDICTED BY IDOCK:   -4.54 KCAL/MOL
REMARK 922        TOTAL FREE ENERGY PREDICTED BY IDOCK:   -5.03 KCAL/MOL
REMARK 923 INTER-LIGAND FREE ENERGY PREDICTED BY IDOCK:   -4.93 KCAL/MOL
REMARK 924 INTRA-LIGAND FREE ENERGY PREDICTED BY IDOCK:   -0.10 KCAL/MOL
REMARK 927      BINDING AFFINITY PREDICTED BY RF-SCORE:    0.00 PKD
ROOT
HETATM    1  C   UNL     1     -11.626  11.321  69.174  1.00  0.00    -0.387 C  
HETATM    2  C   UNL     1     -11.978  12.260  68.025  1.00  0.00    -0.187 C  
HETATM    3  H   UNL     1     -12.217  14.178  67.815  1.00  0.00     0.000 HD 
HETATM    4  O   UNL     1     -11.998  13.593  68.531  1.00  0.00    -0.356 OA 
ENDROOT
BRANCH   2   5
HETATM    5  C   UNL     1     -10.982  12.106  66.868  1.00  0.00    -0.270 C  
BRANCH   5   6
HETATM    6  N   UNL     1     -10.565  13.378  66.294  1.00  0.00    -0.287 NA 
HETATM    7  C   UNL     1      -9.442  14.098  66.679  1.00  0.00    -0.289 A  
HETATM    8  N   UNL     1      -9.350  15.225  65.998  1.00  0.00    -0.324 NA 
HETATM    9  C   UNL     1      -8.450  13.677  67.706  1.00  0.00    -0.183 C  
HETATM   10  C   UNL     1     -10.427  15.255  65.158  1.00  0.00    -0.411 A  
HETATM   11  C   UNL     1     -11.191  14.129  65.328  1.00  0.00    -0.326 A  
HETATM   12  N   UNL     1     -12.395  13.806  64.638  1.00  0.00    -0.390 N  
HETATM   13  O   UNL     1     -12.843  14.671  63.876  1.00  0.00    -0.691 OA 
HETATM   14  O   UNL     1     -12.914  12.703  64.848  1.00  0.00    -0.830 OA 
ENDBRANCH   5   6
ENDBRANCH   2   5
TORSDOF 2
ENDMDL
MODEL       25
REMARK 921   NORMALIZED FREE ENERGY PREDICTED BY IDOCK:   -4.53 KCAL/MOL
REMARK 922        TOTAL FREE ENERGY PREDICTED BY IDOCK:   -5.02 KCAL/MOL
REMARK 923 INTER-LIGAND FREE ENERGY PREDICTED BY IDOCK:   -4.92 KCAL/MOL
REMARK 924 INTRA-LIGAND FREE ENERGY PREDICTED BY IDOCK:   -0.10 KCAL/MOL
REMARK 927      BINDING AFFINITY PREDICTED BY RF-SCORE:    0.00 PKD
ROOT
HETATM    1  C   UNL     1     -12.006  14.196  67.855  1.00  0.00    -0.378 C  
HETATM    2  C   UNL     1     -11.125  13.002  67.507  1.00  0.00    -0.268 C  
HETATM    3  H   UNL     1     -11.411  11.110  67.161  1.00  0.00     0.000 HD 
HETATM    4  O   UNL     1     -11.961  11.854  67.378  1.00  0.00    -0.603 OA 
ENDROOT
BRANCH   2   5
HETATM    5  C   UNL     1     -10.324  13.268  66.225  1.00  0.00    -0.290 C  
BRANCH   5   6
HETATM    6  N   UNL     1      -9.635  14.550  66.231  1.00  0.00    -0.300 NA 
HETATM    7  C   UNL     1      -8.512  14.850  66.992  1.00  0.00    -0.231 A  
HETATM    8  N   UNL     1      -8.140  16.103  66.805  1.00  0.00    -0.242 NA 
HETATM    9  C   UNL     1      -7.796  13.907  67.892  1.00  0.00    -0.161 C  
HETATM   10  C   UNL     1      -9.028  16.640  65.918  1.00  0.00    -0.099 A  
HETATM   11  C   UNL     1      -9.960  15.702  65.554  1.00  0.00    -0.329 A  
HETATM   12  N   UNL     1     -11.049  15.888  64.655  1.00  0.00    -0.440 N  
HETATM   13  O   UNL     1     -11.224  17.037  64.231  1.00  0.00    -1.186 OA 
HETATM   14  O   UNL     1     -11.748  14.908  64.367  1.00  0.00    -0.390 OA 
ENDBRANCH   5   6
ENDBRANCH   2   5
TORSDOF 2
ENDMDL
MODEL       26
REMARK 921   NORMALIZED FREE ENERGY PREDICTED BY IDOCK:   -4.50 KCAL/MOL
REMARK 922        TOTAL FREE ENERGY PREDICTED BY IDOCK:   -4.99 KCAL/MOL
REMARK 923 INTER-LIGAND FREE ENERGY PREDICTED BY IDOCK:   -4.78 KCAL/MOL
REMARK 924 INTRA-LIGAND FREE ENERGY PREDICTED BY IDOCK:   -0.21 KCAL/MOL
REMARK 927      BINDING AFFINITY PREDICTED BY RF-SCORE:    0.00 PKD
ROOT
HETATM    1  C   UNL     1     -10.057  10.490  65.173  1.00  0.00    -0.383 C  
HETATM    2  C   UNL     1     -10.303  11.982  64.985  1.00  0.00    -0.281 C  
HETATM    3  H   UNL     1     -10.345  13.210  63.476  1.00  0.00     0.000 HD 
HETATM    4  O   UNL     1     -10.191  12.280  63.594  1.00  0.00    -0.416 OA 
ENDROOT
BRANCH   2   5
HETATM    5  C   UNL     1     -11.675  12.386  65.543  1.00  0.00    -0.407 C  
BRANCH   5   6
HETATM    6  N   UNL     1     -11.603  13.448  66.535  1.00  0.00    -0.341 NA 
HETATM    7  C   UNL     1     -11.387  14.791  66.254  1.00  0.00    -0.334 A  
HETATM    8  N   UNL     1     -11.341  15.502  67.366  1.00  0.00    -0.261 NA 
HETATM    9  C   UNL     1     -11.239  15.381  64.896  1.00  0.00    -0.410 C  
HETATM   10  C   UNL     1     -11.521  14.621  68.393  1.00  0.00    -0.311 A  
HETATM   11  C   UNL     1     -11.679  13.350  67.905  1.00  0.00    -0.361 A  
HETATM   12  N   UNL     1     -11.882  12.163  68.667  1.00  0.00    -0.318 N  
HETATM   13  O   UNL     1     -11.816  12.281  69.897  1.00  0.00    -0.321 OA 
HETATM   14  O   UNL     1     -12.096  11.105  68.063  1.00  0.00    -0.635 OA 
ENDBRANCH   5   6
ENDBRANCH   2   5
TORSDOF 2
ENDMDL
MODEL       27
REMARK 921   NORMALIZED FREE ENERGY PREDICTED BY IDOCK:   -4.46 KCAL/MOL
REMARK 922        TOTAL FREE ENERGY PREDICTED BY IDOCK:   -4.93 KCAL/MOL
REMARK 923 INTER-LIGAND FREE ENERGY PREDICTED BY IDOCK:   -4.97 KCAL/MOL
REMARK 924 INTRA-LIGAND FREE ENERGY PREDICTED BY IDOCK:    0.04 KCAL/MOL
REMARK 927      BINDING AFFINITY PREDICTED BY RF-SCORE:    0.00 PKD
ROOT
HETATM    1  C   UNL     1      -9.957  12.873  66.513  1.00  0.00    -0.259 C  
HETATM    2  C   UNL     1     -11.449  12.749  66.223  1.00  0.00    -0.354 C  
HETATM    3  H   UNL     1     -12.895  11.596  66.823  1.00  0.00     0.000 HD 
HETATM    4  O   UNL     1     -11.966  11.673  67.003  1.00  0.00    -0.593 OA 
ENDROOT
BRANCH   2   5
HETATM    5  C   UNL     1     -12.177  14.067  66.520  1.00  0.00    -0.451 C  
BRANCH   5   6
HETATM    6  N   UNL     1     -11.428  14.953  67.399  1.00  0.00    -0.348 NA 
HETATM    7  C   UNL     1     -11.427  14.888  68.786  1.00  0.00    -0.307 A  
HETATM    8  N   UNL     1     -10.678  15.846  69.301  1.00  0.00    -0.238 NA 
HETATM    9  C   UNL     1     -12.148  13.879  69.609  1.00  0.00    -0.404 C  
HETATM   10  C   UNL     1     -10.184  16.556  68.245  1.00  0.00    -0.268 A  
HETATM   11  C   UNL     1     -10.637  16.027  67.064  1.00  0.00    -0.302 A  
HETATM   12  N   UNL     1     -10.346  16.499  65.752  1.00  0.00    -0.356 N  
HETATM   13  O   UNL     1      -9.692  17.546  65.675  1.00  0.00    -0.532 OA 
HETATM   14  O   UNL     1     -10.766  15.849  64.786  1.00  0.00    -0.559 OA 
ENDBRANCH   5   6
ENDBRANCH   2   5
TORSDOF 2
ENDMDL
MODEL       28
REMARK 921   NORMALIZED FREE ENERGY PREDICTED BY IDOCK:   -4.43 KCAL/MOL
REMARK 922        TOTAL FREE ENERGY PREDICTED BY IDOCK:   -4.91 KCAL/MOL
REMARK 923 INTER-LIGAND FREE ENERGY PREDICTED BY IDOCK:   -4.77 KCAL/MOL
REMARK 924 INTRA-LIGAND FREE ENERGY PREDICTED BY IDOCK:   -0.14 KCAL/MOL
REMARK 927      BINDING AFFINITY PREDICTED BY RF-SCORE:    0.00 PKD
ROOT
HETATM    1  C   UNL     1     -10.759  15.910  64.859  1.00  0.00    -0.365 C  
HETATM    2  C   UNL     1     -10.255  15.470  66.228  1.00  0.00    -0.294 C  
HETATM    3  H   UNL     1     -10.039  16.307  67.971  1.00  0.00     0.000 HD 
HETATM    4  O   UNL     1     -10.353  16.581  67.117  1.00  0.00    -0.291 OA 
ENDROOT
BRANCH   2   5
HETATM    5  C   UNL     1     -11.050  14.261  66.742  1.00  0.00    -0.314 C  
BRANCH   5   6
HETATM    6  N   UNL     1     -10.688  13.013  66.088  1.00  0.00    -0.271 NA 
HETATM    7  C   UNL     1      -9.520  12.298  66.323  1.00  0.00    -0.231 A  
HETATM    8  N   UNL     1      -9.462  11.226  65.554  1.00  0.00    -0.225 NA 
HETATM    9  C   UNL     1      -8.467  12.656  67.311  1.00  0.00    -0.193 C  
HETATM   10  C   UNL     1     -10.599  11.236  64.797  1.00  0.00    -0.312 A  
HETATM   11  C   UNL     1     -11.365  12.329  65.106  1.00  0.00    -0.329 A  
HETATM   12  N   UNL     1     -12.616  12.685  64.523  1.00  0.00    -0.442 N  
HETATM   13  O   UNL     1     -13.003  11.986  63.579  1.00  0.00    -0.774 OA 
HETATM   14  O   UNL     1     -13.221  13.662  64.982  1.00  0.00    -0.729 OA 
ENDBRANCH   5   6
ENDBRANCH   2   5
TORSDOF 2
ENDMDL
MODEL       29
REMARK 921   NORMALIZED FREE ENERGY PREDICTED BY IDOCK:   -4.41 KCAL/MOL
REMARK 922        TOTAL FREE ENERGY PREDICTED BY IDOCK:   -4.88 KCAL/MOL
REMARK 923 INTER-LIGAND FREE ENERGY PREDICTED BY IDOCK:   -4.68 KCAL/MOL
REMARK 924 INTRA-LIGAND FREE ENERGY PREDICTED BY IDOCK:   -0.20 KCAL/MOL
REMARK 927      BINDING AFFINITY PREDICTED BY RF-SCORE:    0.00 PKD
ROOT
HETATM    1  C   UNL     1     -11.268  12.425  69.106  1.00  0.00    -0.295 C  
HETATM    2  C   UNL     1     -11.283  12.864  67.646  1.00  0.00    -0.278 C  
HETATM    3  H   UNL     1     -11.761  12.044  65.948  1.00  0.00     0.000 HD 
HETATM    4  O   UNL     1     -11.752  11.771  66.858  1.00  0.00    -0.557 OA 
ENDROOT
BRANCH   2   5
HETATM    5  C   UNL     1     -12.153  14.114  67.458  1.00  0.00    -0.328 C  
BRANCH   5   6
HETATM    6  N   UNL     1     -11.492  15.167  66.700  1.00  0.00    -0.251 NA 
HETATM    7  C   UNL     1     -11.334  15.179  65.320  1.00  0.00    -0.318 A  
HETATM    8  N   UNL     1     -10.666  16.250  64.933  1.00  0.00    -0.685 NA 
HETATM    9  C   UNL     1     -11.849  14.148  64.378  1.00  0.00    -0.447 C  
HETATM   10  C   UNL     1     -10.373  16.950  66.068  1.00  0.00    -0.325 A  
HETATM   11  C   UNL     1     -10.868  16.299  67.168  1.00  0.00    -0.190 A  
HETATM   12  N   UNL     1     -10.756  16.714  68.527  1.00  0.00    -0.334 N  
HETATM   13  O   UNL     1     -10.062  17.716  68.741  1.00  0.00    -0.348 OA 
HETATM   14  O   UNL     1     -11.339  16.053  69.394  1.00  0.00    -0.326 OA 
ENDBRANCH   5   6
ENDBRANCH   2   5
TORSDOF 2
ENDMDL
MODEL       30
REMARK 921   NORMALIZED FREE ENERGY PREDICTED BY IDOCK:   -4.40 KCAL/MOL
REMARK 922        TOTAL FREE ENERGY PREDICTED BY IDOCK:   -4.87 KCAL/MOL
REMARK 923 INTER-LIGAND FREE ENERGY PREDICTED BY IDOCK:   -4.61 KCAL/MOL
REMARK 924 INTRA-LIGAND FREE ENERGY PREDICTED BY IDOCK:   -0.25 KCAL/MOL
REMARK 927      BINDING AFFINITY PREDICTED BY RF-SCORE:    0.00 PKD
ROOT
HETATM    1  C   UNL     1     -11.528  14.173  64.653  1.00  0.00    -0.392 C  
HETATM    2  C   UNL     1     -10.910  15.565  64.713  1.00  0.00    -0.363 C  
HETATM    3  H   UNL     1     -11.341  17.315  63.980  1.00  0.00     0.000 HD 
HETATM    4  O   UNL     1     -11.726  16.446  63.943  1.00  0.00    -1.085 OA 
ENDROOT
BRANCH   2   5
HETATM    5  C   UNL     1     -10.772  16.042  66.165  1.00  0.00    -0.244 C  
BRANCH   5   6
HETATM    6  N   UNL     1      -9.406  16.390  66.529  1.00  0.00    -0.254 NA 
HETATM    7  C   UNL     1      -8.433  15.487  66.937  1.00  0.00    -0.254 A  
HETATM    8  N   UNL     1      -7.306  16.111  67.230  1.00  0.00    -0.171 NA 
HETATM    9  C   UNL     1      -8.601  14.012  67.028  1.00  0.00    -0.193 C  
HETATM   10  C   UNL     1      -7.538  17.440  67.020  1.00  0.00    -0.205 A  
HETATM   11  C   UNL     1      -8.826  17.635  66.593  1.00  0.00    -0.263 A  
HETATM   12  N   UNL     1      -9.440  18.882  66.280  1.00  0.00    -0.326 N  
HETATM   13  O   UNL     1      -8.770  19.898  66.504  1.00  0.00    -0.330 OA 
HETATM   14  O   UNL     1     -10.589  18.873  65.822  1.00  0.00    -0.532 OA 
ENDBRANCH   5   6
ENDBRANCH   2   5
TORSDOF 2
ENDMDL
MODEL       31
REMARK 921   NORMALIZED FREE ENERGY PREDICTED BY IDOCK:   -4.39 KCAL/MOL
REMARK 922        TOTAL FREE ENERGY PREDICTED BY IDOCK:   -4.86 KCAL/MOL
REMARK 923 INTER-LIGAND FREE ENERGY PREDICTED BY IDOCK:   -4.80 KCAL/MOL
REMARK 924 INTRA-LIGAND FREE ENERGY PREDICTED BY IDOCK:   -0.06 KCAL/MOL
REMARK 927      BINDING AFFINITY PREDICTED BY RF-SCORE:    0.00 PKD
ROOT
HETATM    1  C   UNL     1     -12.788  14.280  73.006  1.00  0.00    -0.461 C  
HETATM    2  C   UNL     1     -13.081  14.293  71.510  1.00  0.00    -0.343 C  
HETATM    3  H   UNL     1     -13.979  15.498  70.275  1.00  0.00     0.000 HD 
HETATM    4  O   UNL     1     -13.797  15.489  71.208  1.00  0.00    -0.528 OA 
ENDROOT
BRANCH   2   5
HETATM    5  C   UNL     1     -11.784  14.187  70.696  1.00  0.00    -0.193 C  
BRANCH   5   6
HETATM    6  N   UNL     1     -11.881  13.263  69.576  1.00  0.00    -0.316 NA 
HETATM    7  C   UNL     1     -12.059  11.890  69.685  1.00  0.00    -0.239 A  
HETATM    8  N   UNL     1     -12.076  11.321  68.494  1.00  0.00    -0.591 NA 
HETATM    9  C   UNL     1     -12.227  11.135  70.957  1.00  0.00    -0.438 C  
HETATM   10  C   UNL     1     -11.901  12.327  67.587  1.00  0.00    -0.264 A  
HETATM   11  C   UNL     1     -11.774  13.530  68.231  1.00  0.00    -0.359 A  
HETATM   12  N   UNL     1     -11.570  14.804  67.626  1.00  0.00    -0.347 N  
HETATM   13  O   UNL     1     -11.399  14.810  66.401  1.00  0.00    -0.345 OA 
HETATM   14  O   UNL     1     -11.565  15.806  68.351  1.00  0.00    -0.373 OA 
ENDBRANCH   5   6
ENDBRANCH   2   5
TORSDOF 2
ENDMDL
MODEL       32
REMARK 921   NORMALIZED FREE ENERGY PREDICTED BY IDOCK:   -4.38 KCAL/MOL
REMARK 922        TOTAL FREE ENERGY PREDICTED BY IDOCK:   -4.85 KCAL/MOL
REMARK 923 INTER-LIGAND FREE ENERGY PREDICTED BY IDOCK:   -4.60 KCAL/MOL
REMARK 924 INTRA-LIGAND FREE ENERGY PREDICTED BY IDOCK:   -0.26 KCAL/MOL
REMARK 927      BINDING AFFINITY PREDICTED BY RF-SCORE:    0.00 PKD
ROOT
HETATM    1  C   UNL     1      -9.897   9.247  68.057  1.00  0.00    -0.191 C  
HETATM    2  C   UNL     1     -10.926  10.285  67.627  1.00  0.00    -0.294 C  
HETATM    3  H   UNL     1     -12.258  11.384  68.522  1.00  0.00     0.000 HD 
HETATM    4  O   UNL     1     -11.616  10.736  68.790  1.00  0.00    -0.282 OA 
ENDROOT
BRANCH   2   5
HETATM    5  C   UNL     1     -10.255  11.445  66.879  1.00  0.00    -0.219 C  
BRANCH   5   6
HETATM    6  N   UNL     1     -10.770  11.636  65.531  1.00  0.00    -0.276 NA 
HETATM    7  C   UNL     1     -10.342  10.942  64.407  1.00  0.00    -0.361 A  
HETATM    8  N   UNL     1     -10.974  11.362  63.326  1.00  0.00    -0.267 NA 
HETATM    9  C   UNL     1      -9.323   9.857  64.392  1.00  0.00    -0.326 C  
HETATM   10  C   UNL     1     -11.824  12.348  63.738  1.00  0.00    -0.502 A  
HETATM   11  C   UNL     1     -11.711  12.537  65.091  1.00  0.00    -0.378 A  
HETATM   12  N   UNL     1     -12.427  13.481  65.882  1.00  0.00    -0.445 N  
HETATM   13  O   UNL     1     -13.157  14.271  65.271  1.00  0.00    -0.707 OA 
HETATM   14  O   UNL     1     -12.270  13.460  67.109  1.00  0.00    -0.348 OA 
ENDBRANCH   5   6
ENDBRANCH   2   5
TORSDOF 2
ENDMDL
MODEL       33
REMARK 921   NORMALIZED FREE ENERGY PREDICTED BY IDOCK:   -4.35 KCAL/MOL
REMARK 922        TOTAL FREE ENERGY PREDICTED BY IDOCK:   -4.82 KCAL/MOL
REMARK 923 INTER-LIGAND FREE ENERGY PREDICTED BY IDOCK:   -4.57 KCAL/MOL
REMARK 924 INTRA-LIGAND FREE ENERGY PREDICTED BY IDOCK:   -0.25 KCAL/MOL
REMARK 927      BINDING AFFINITY PREDICTED BY RF-SCORE:    0.00 PKD
ROOT
HETATM    1  C   UNL     1      -9.144   9.452  65.709  1.00  0.00    -0.249 C  
HETATM    2  C   UNL     1      -9.587  10.808  65.173  1.00  0.00    -0.245 C  
HETATM    3  H   UNL     1      -9.447  11.752  63.477  1.00  0.00     0.000 HD 
HETATM    4  O   UNL     1      -9.171  10.906  63.812  1.00  0.00    -0.209 OA 
ENDROOT
BRANCH   2   5
HETATM    5  C   UNL     1     -11.105  10.986  65.316  1.00  0.00     0.062 C  
BRANCH   5   6
HETATM    6  N   UNL     1     -11.477  12.183  66.055  1.00  0.00    -0.363 NA 
HETATM    7  C   UNL     1     -11.531  12.283  67.440  1.00  0.00    -0.352 A  
HETATM    8  N   UNL     1     -11.934  13.485  67.809  1.00  0.00    -0.354 NA 
HETATM    9  C   UNL     1     -11.176  11.205  68.403  1.00  0.00    -0.325 C  
HETATM   10  C   UNL     1     -12.155  14.186  66.658  1.00  0.00    -0.451 A  
HETATM   11  C   UNL     1     -11.885  13.402  65.566  1.00  0.00    -0.363 A  
HETATM   12  N   UNL     1     -12.004  13.778  64.197  1.00  0.00    -0.441 N  
HETATM   13  O   UNL     1     -12.488  14.894  63.973  1.00  0.00    -0.807 OA 
HETATM   14  O   UNL     1     -11.634  12.975  63.333  1.00  0.00    -0.474 OA 
ENDBRANCH   5   6
ENDBRANCH   2   5
TORSDOF 2
ENDMDL
MODEL       34
REMARK 921   NORMALIZED FREE ENERGY PREDICTED BY IDOCK:   -4.35 KCAL/MOL
REMARK 922        TOTAL FREE ENERGY PREDICTED BY IDOCK:   -4.82 KCAL/MOL
REMARK 923 INTER-LIGAND FREE ENERGY PREDICTED BY IDOCK:   -4.74 KCAL/MOL
REMARK 924 INTRA-LIGAND FREE ENERGY PREDICTED BY IDOCK:   -0.08 KCAL/MOL
REMARK 927      BINDING AFFINITY PREDICTED BY RF-SCORE:    0.00 PKD
ROOT
HETATM    1  C   UNL     1     -10.896  16.999  68.156  1.00  0.00    -0.338 C  
HETATM    2  C   UNL     1     -10.865  15.490  67.944  1.00  0.00    -0.307 C  
HETATM    3  H   UNL     1     -12.016  13.992  68.407  1.00  0.00     0.000 HD 
HETATM    4  O   UNL     1     -12.035  14.932  68.539  1.00  0.00    -0.309 OA 
ENDROOT
BRANCH   2   5
HETATM    5  C   UNL     1     -10.770  15.148  66.450  1.00  0.00    -0.317 C  
BRANCH   5   6
HETATM    6  N   UNL     1     -10.539  13.734  66.196  1.00  0.00    -0.287 NA 
HETATM    7  C   UNL     1      -9.385  13.039  66.539  1.00  0.00    -0.217 A  
HETATM    8  N   UNL     1      -9.462  11.780  66.148  1.00  0.00    -0.223 NA 
HETATM    9  C   UNL     1      -8.214  13.604  67.261  1.00  0.00    -0.164 C  
HETATM   10  C   UNL     1     -10.674  11.642  65.535  1.00  0.00    -0.281 A  
HETATM   11  C   UNL     1     -11.351  12.833  65.549  1.00  0.00    -0.312 A  
HETATM   12  N   UNL     1     -12.641  13.086  65.000  1.00  0.00    -0.472 N  
HETATM   13  O   UNL     1     -13.162  12.160  64.367  1.00  0.00    -0.758 OA 
HETATM   14  O   UNL     1     -13.148  14.201  65.177  1.00  0.00    -0.757 OA 
ENDBRANCH   5   6
ENDBRANCH   2   5
TORSDOF 2
ENDMDL
MODEL       35
REMARK 921   NORMALIZED FREE ENERGY PREDICTED BY IDOCK:   -4.34 KCAL/MOL
REMARK 922        TOTAL FREE ENERGY PREDICTED BY IDOCK:   -4.81 KCAL/MOL
REMARK 923 INTER-LIGAND FREE ENERGY PREDICTED BY IDOCK:   -4.60 KCAL/MOL
REMARK 924 INTRA-LIGAND FREE ENERGY PREDICTED BY IDOCK:   -0.21 KCAL/MOL
REMARK 927      BINDING AFFINITY PREDICTED BY RF-SCORE:    0.00 PKD
ROOT
HETATM    1  C   UNL     1     -10.094  17.415  68.499  1.00  0.00    -0.352 C  
HETATM    2  C   UNL     1     -10.098  15.922  68.191  1.00  0.00    -0.229 C  
HETATM    3  H   UNL     1      -9.568  14.303  69.128  1.00  0.00     0.000 HD 
HETATM    4  O   UNL     1      -9.565  15.233  69.320  1.00  0.00    -0.227 OA 
ENDROOT
BRANCH   2   5
HETATM    5  C   UNL     1     -11.514  15.438  67.846  1.00  0.00    -0.299 C  
BRANCH   5   6
HETATM    6  N   UNL     1     -11.537  14.423  66.803  1.00  0.00    -0.371 NA 
HETATM    7  C   UNL     1     -11.418  14.675  65.442  1.00  0.00    -0.352 A  
HETATM    8  N   UNL     1     -11.510  13.555  64.747  1.00  0.00    -0.333 NA 
HETATM    9  C   UNL     1     -11.201  16.009  64.821  1.00  0.00    -0.348 C  
HETATM   10  C   UNL     1     -11.698  12.554  65.657  1.00  0.00    -0.423 A  
HETATM   11  C   UNL     1     -11.723  13.067  66.928  1.00  0.00    -0.383 A  
HETATM   12  N   UNL     1     -11.906  12.337  68.138  1.00  0.00    -0.349 N  
HETATM   13  O   UNL     1     -12.159  11.132  68.021  1.00  0.00    -0.635 OA 
HETATM   14  O   UNL     1     -11.813  12.945  69.211  1.00  0.00    -0.301 OA 
ENDBRANCH   5   6
ENDBRANCH   2   5
TORSDOF 2
ENDMDL
MODEL       36
REMARK 921   NORMALIZED FREE ENERGY PREDICTED BY IDOCK:   -4.34 KCAL/MOL
REMARK 922        TOTAL FREE ENERGY PREDICTED BY IDOCK:   -4.80 KCAL/MOL
REMARK 923 INTER-LIGAND FREE ENERGY PREDICTED BY IDOCK:   -4.57 KCAL/MOL
REMARK 924 INTRA-LIGAND FREE ENERGY PREDICTED BY IDOCK:   -0.24 KCAL/MOL
REMARK 927      BINDING AFFINITY PREDICTED BY RF-SCORE:    0.00 PKD
ROOT
HETATM    1  C   UNL     1     -10.983   9.410  71.325  1.00  0.00    -0.440 C  
HETATM    2  C   UNL     1     -10.797  10.378  70.162  1.00  0.00    -0.271 C  
HETATM    3  H   UNL     1     -10.055  10.275  68.367  1.00  0.00     0.000 HD 
HETATM    4  O   UNL     1     -10.171   9.672  69.092  1.00  0.00    -0.184 OA 
ENDROOT
BRANCH   2   5
HETATM    5  C   UNL     1     -12.141  10.984  69.733  1.00  0.00    -0.353 C  
BRANCH   5   6
HETATM    6  N   UNL     1     -12.161  12.438  69.788  1.00  0.00    -0.262 NA 
HETATM    7  C   UNL     1     -11.628  13.281  68.821  1.00  0.00    -0.312 A  
HETATM    8  N   UNL     1     -11.772  14.546  69.170  1.00  0.00    -0.296 NA 
HETATM    9  C   UNL     1     -10.990  12.849  67.548  1.00  0.00    -0.283 C  
HETATM   10  C   UNL     1     -12.399  14.540  70.384  1.00  0.00    -0.338 A  
HETATM   11  C   UNL     1     -12.644  13.253  70.785  1.00  0.00    -0.280 A  
HETATM   12  N   UNL     1     -13.273  12.843  71.995  1.00  0.00    -0.460 N  
HETATM   13  O   UNL     1     -13.542  13.736  72.806  1.00  0.00    -0.666 OA 
HETATM   14  O   UNL     1     -13.497  11.637  72.162  1.00  0.00    -0.423 OA 
ENDBRANCH   5   6
ENDBRANCH   2   5
TORSDOF 2
ENDMDL
MODEL       37
REMARK 921   NORMALIZED FREE ENERGY PREDICTED BY IDOCK:   -4.33 KCAL/MOL
REMARK 922        TOTAL FREE ENERGY PREDICTED BY IDOCK:   -4.79 KCAL/MOL
REMARK 923 INTER-LIGAND FREE ENERGY PREDICTED BY IDOCK:   -4.56 KCAL/MOL
REMARK 924 INTRA-LIGAND FREE ENERGY PREDICTED BY IDOCK:   -0.23 KCAL/MOL
REMARK 927      BINDING AFFINITY PREDICTED BY RF-SCORE:    0.00 PKD
ROOT
HETATM    1  C   UNL     1     -11.151  14.431  64.639  1.00  0.00    -0.363 C  
HETATM    2  C   UNL     1     -10.793  15.910  64.710  1.00  0.00    -0.324 C  
HETATM    3  H   UNL     1     -11.547  17.564  64.017  1.00  0.00     0.000 HD 
HETATM    4  O   UNL     1     -11.770  16.641  63.972  1.00  0.00    -1.143 OA 
ENDROOT
BRANCH   2   5
HETATM    5  C   UNL     1     -10.710  16.385  66.168  1.00  0.00    -0.173 C  
BRANCH   5   6
HETATM    6  N   UNL     1      -9.572  17.253  66.428  1.00  0.00    -0.280 NA 
HETATM    7  C   UNL     1      -9.581  18.638  66.315  1.00  0.00    -0.283 A  
HETATM    8  N   UNL     1      -8.389  19.139  66.584  1.00  0.00    -0.287 NA 
HETATM    9  C   UNL     1     -10.760  19.472  65.958  1.00  0.00    -0.529 C  
HETATM   10  C   UNL     1      -7.581  18.076  66.870  1.00  0.00    -0.213 A  
HETATM   11  C   UNL     1      -8.287  16.905  66.775  1.00  0.00    -0.235 A  
HETATM   12  N   UNL     1      -7.787  15.588  66.992  1.00  0.00    -0.223 N  
HETATM   13  O   UNL     1      -6.572  15.488  67.198  1.00  0.00    -0.283 OA 
HETATM   14  O   UNL     1      -8.584  14.643  66.952  1.00  0.00    -0.225 OA 
ENDBRANCH   5   6
ENDBRANCH   2   5
TORSDOF 2
ENDMDL
MODEL       38
REMARK 921   NORMALIZED FREE ENERGY PREDICTED BY IDOCK:   -4.31 KCAL/MOL
REMARK 922        TOTAL FREE ENERGY PREDICTED BY IDOCK:   -4.77 KCAL/MOL
REMARK 923 INTER-LIGAND FREE ENERGY PREDICTED BY IDOCK:   -4.91 KCAL/MOL
REMARK 924 INTRA-LIGAND FREE ENERGY PREDICTED BY IDOCK:    0.14 KCAL/MOL
REMARK 927      BINDING AFFINITY PREDICTED BY RF-SCORE:    0.00 PKD
ROOT
HETATM    1  C   UNL     1      -9.848  15.279  65.374  1.00  0.00    -0.318 C  
HETATM    2  C   UNL     1     -11.279  15.780  65.219  1.00  0.00    -0.190 C  
HETATM    3  H   UNL     1     -12.248  16.853  63.918  1.00  0.00     0.000 HD 
HETATM    4  O   UNL     1     -11.356  16.541  64.015  1.00  0.00    -1.064 OA 
ENDROOT
BRANCH   2   5
HETATM    5  C   UNL     1     -12.272  14.610  65.215  1.00  0.00    -0.249 C  
BRANCH   5   6
HETATM    6  N   UNL     1     -11.768  13.425  65.894  1.00  0.00    -0.340 NA 
HETATM    7  C   UNL     1     -11.636  13.288  67.270  1.00  0.00    -0.359 A  
HETATM    8  N   UNL     1     -11.121  12.111  67.577  1.00  0.00    -0.259 NA 
HETATM    9  C   UNL     1     -12.026  14.303  68.285  1.00  0.00    -0.346 C  
HETATM   10  C   UNL     1     -10.904  11.466  66.393  1.00  0.00    -0.271 A  
HETATM   11  C   UNL     1     -11.291  12.258  65.344  1.00  0.00    -0.343 A  
HETATM   12  N   UNL     1     -11.212  11.935  63.958  1.00  0.00    -0.368 N  
HETATM   13  O   UNL     1     -10.653  10.870  63.672  1.00  0.00    -0.326 OA 
HETATM   14  O   UNL     1     -11.689  12.732  63.141  1.00  0.00    -0.472 OA 
ENDBRANCH   5   6
ENDBRANCH   2   5
TORSDOF 2
ENDMDL
MODEL       39
REMARK 921   NORMALIZED FREE ENERGY PREDICTED BY IDOCK:   -4.29 KCAL/MOL
REMARK 922        TOTAL FREE ENERGY PREDICTED BY IDOCK:   -4.75 KCAL/MOL
REMARK 923 INTER-LIGAND FREE ENERGY PREDICTED BY IDOCK:   -4.52 KCAL/MOL
REMARK 924 INTRA-LIGAND FREE ENERGY PREDICTED BY IDOCK:   -0.23 KCAL/MOL
REMARK 927      BINDING AFFINITY PREDICTED BY RF-SCORE:    0.00 PKD
ROOT
HETATM    1  C   UNL     1      -9.498  10.589  67.389  1.00  0.00    -0.172 C  
HETATM    2  C   UNL     1     -10.083  11.141  66.094  1.00  0.00    -0.238 C  
HETATM    3  H   UNL     1     -10.512  10.420  64.339  1.00  0.00     0.000 HD 
HETATM    4  O   UNL     1     -10.147  10.077  65.147  1.00  0.00    -0.325 OA 
ENDROOT
BRANCH   2   5
HETATM    5  C   UNL     1     -11.463  11.767  66.339  1.00  0.00    -0.239 C  
BRANCH   5   6
HETATM    6  N   UNL     1     -11.680  12.994  65.587  1.00  0.00    -0.354 NA 
HETATM    7  C   UNL     1     -12.117  13.057  64.270  1.00  0.00    -0.414 A  
HETATM    8  N   UNL     1     -12.186  14.309  63.857  1.00  0.00    -0.654 NA 
HETATM    9  C   UNL     1     -12.482  11.892  63.419  1.00  0.00    -0.582 C  
HETATM   10  C   UNL     1     -11.783  15.082  64.908  1.00  0.00    -0.336 A  
HETATM   11  C   UNL     1     -11.462  14.293  65.982  1.00  0.00    -0.347 A  
HETATM   12  N   UNL     1     -10.995  14.733  67.254  1.00  0.00    -0.309 N  
HETATM   13  O   UNL     1     -10.770  15.944  67.369  1.00  0.00    -0.312 OA 
HETATM   14  O   UNL     1     -10.836  13.891  68.146  1.00  0.00    -0.239 OA 
ENDBRANCH   5   6
ENDBRANCH   2   5
TORSDOF 2
ENDMDL
MODEL       40
REMARK 921   NORMALIZED FREE ENERGY PREDICTED BY IDOCK:   -4.29 KCAL/MOL
REMARK 922        TOTAL FREE ENERGY PREDICTED BY IDOCK:   -4.75 KCAL/MOL
REMARK 923 INTER-LIGAND FREE ENERGY PREDICTED BY IDOCK:   -4.57 KCAL/MOL
REMARK 924 INTRA-LIGAND FREE ENERGY PREDICTED BY IDOCK:   -0.19 KCAL/MOL
REMARK 927      BINDING AFFINITY PREDICTED BY RF-SCORE:    0.00 PKD
ROOT
HETATM    1  C   UNL     1     -12.293  14.654  64.372  1.00  0.00    -0.420 C  
HETATM    2  C   UNL     1     -12.462  13.547  65.406  1.00  0.00    -0.497 C  
HETATM    3  H   UNL     1     -13.106  11.712  65.393  1.00  0.00     0.000 HD 
HETATM    4  O   UNL     1     -13.001  12.403  64.749  1.00  0.00    -0.786 OA 
ENDROOT
BRANCH   2   5
HETATM    5  C   UNL     1     -11.126  13.231  66.094  1.00  0.00    -0.285 C  
BRANCH   5   6
HETATM    6  N   UNL     1     -11.259  12.309  67.212  1.00  0.00    -0.281 NA 
HETATM    7  C   UNL     1     -11.681  12.658  68.489  1.00  0.00    -0.330 A  
HETATM    8  N   UNL     1     -11.665  11.609  69.292  1.00  0.00    -0.303 NA 
HETATM    9  C   UNL     1     -12.112  14.015  68.921  1.00  0.00    -0.351 C  
HETATM   10  C   UNL     1     -11.222  10.558  68.541  1.00  0.00    -0.274 A  
HETATM   11  C   UNL     1     -10.961  10.967  67.259  1.00  0.00    -0.297 A  
HETATM   12  N   UNL     1     -10.477  10.160  66.189  1.00  0.00    -0.154 N  
HETATM   13  O   UNL     1     -10.176   8.995  66.471  1.00  0.00    -0.278 OA 
HETATM   14  O   UNL     1     -10.380  10.670  65.066  1.00  0.00    -0.310 OA 
ENDBRANCH   5   6
ENDBRANCH   2   5
TORSDOF 2
ENDMDL
MODEL       41
REMARK 921   NORMALIZED FREE ENERGY PREDICTED BY IDOCK:   -4.29 KCAL/MOL
REMARK 922        TOTAL FREE ENERGY PREDICTED BY IDOCK:   -4.75 KCAL/MOL
REMARK 923 INTER-LIGAND FREE ENERGY PREDICTED BY IDOCK:   -4.51 KCAL/MOL
REMARK 924 INTRA-LIGAND FREE ENERGY PREDICTED BY IDOCK:   -0.24 KCAL/MOL
REMARK 927      BINDING AFFINITY PREDICTED BY RF-SCORE:    0.00 PKD
ROOT
HETATM    1  C   UNL     1     -12.996   7.127  71.620  1.00  0.00    -0.415 C  
HETATM    2  C   UNL     1     -13.361   8.606  71.616  1.00  0.00    -0.350 C  
HETATM    3  H   UNL     1     -14.563   9.750  72.632  1.00  0.00     0.000 HD 
HETATM    4  O   UNL     1     -14.335   8.828  72.634  1.00  0.00    -0.585 OA 
ENDROOT
BRANCH   2   5
HETATM    5  C   UNL     1     -12.116   9.479  71.822  1.00  0.00    -0.384 C  
BRANCH   5   6
HETATM    6  N   UNL     1     -11.775  10.282  70.657  1.00  0.00    -0.321 NA 
HETATM    7  C   UNL     1     -11.013   9.845  69.581  1.00  0.00    -0.252 A  
HETATM    8  N   UNL     1     -10.851  10.813  68.696  1.00  0.00    -0.203 NA 
HETATM    9  C   UNL     1     -10.455   8.477  69.411  1.00  0.00    -0.223 C  
HETATM   10  C   UNL     1     -11.506  11.902  69.196  1.00  0.00    -0.296 A  
HETATM   11  C   UNL     1     -12.078  11.600  70.404  1.00  0.00    -0.373 A  
HETATM   12  N   UNL     1     -12.835  12.478  71.232  1.00  0.00    -0.313 N  
HETATM   13  O   UNL     1     -12.904  13.657  70.866  1.00  0.00    -0.307 OA 
HETATM   14  O   UNL     1     -13.358  12.017  72.254  1.00  0.00    -0.485 OA 
ENDBRANCH   5   6
ENDBRANCH   2   5
TORSDOF 2
ENDMDL
MODEL       42
REMARK 921   NORMALIZED FREE ENERGY PREDICTED BY IDOCK:   -4.29 KCAL/MOL
REMARK 922        TOTAL FREE ENERGY PREDICTED BY IDOCK:   -4.75 KCAL/MOL
REMARK 923 INTER-LIGAND FREE ENERGY PREDICTED BY IDOCK:   -4.52 KCAL/MOL
REMARK 924 INTRA-LIGAND FREE ENERGY PREDICTED BY IDOCK:   -0.22 KCAL/MOL
REMARK 927      BINDING AFFINITY PREDICTED BY RF-SCORE:    0.00 PKD
ROOT
HETATM    1  C   UNL     1     -12.836  10.065  71.453  1.00  0.00    -0.519 C  
HETATM    2  C   UNL     1     -11.944  11.167  70.894  1.00  0.00    -0.257 C  
HETATM    3  H   UNL     1     -10.544  11.280  69.548  1.00  0.00     0.000 HD 
HETATM    4  O   UNL     1     -11.100  10.593  69.897  1.00  0.00    -0.270 OA 
ENDROOT
BRANCH   2   5
HETATM    5  C   UNL     1     -12.785  12.321  70.331  1.00  0.00     0.100 C  
BRANCH   5   6
HETATM    6  N   UNL     1     -12.170  13.627  70.519  1.00  0.00    -0.358 NA 
HETATM    7  C   UNL     1     -11.248  14.207  69.658  1.00  0.00    -0.191 A  
HETATM    8  N   UNL     1     -10.850  15.380  70.116  1.00  0.00    -0.293 NA 
HETATM    9  C   UNL     1     -10.765  13.620  68.379  1.00  0.00    -0.272 C  
HETATM   10  C   UNL     1     -11.510  15.574  71.296  1.00  0.00    -0.404 A  
HETATM   11  C   UNL     1     -12.325  14.505  71.566  1.00  0.00    -0.361 A  
HETATM   12  N   UNL     1     -13.164  14.339  72.705  1.00  0.00    -0.507 N  
HETATM   13  O   UNL     1     -13.078  15.206  73.583  1.00  0.00    -0.472 OA 
HETATM   14  O   UNL     1     -13.905  13.350  72.750  1.00  0.00    -0.720 OA 
ENDBRANCH   5   6
ENDBRANCH   2   5
TORSDOF 2
ENDMDL
MODEL       43
REMARK 921   NORMALIZED FREE ENERGY PREDICTED BY IDOCK:   -4.27 KCAL/MOL
REMARK 922        TOTAL FREE ENERGY PREDICTED BY IDOCK:   -4.73 KCAL/MOL
REMARK 923 INTER-LIGAND FREE ENERGY PREDICTED BY IDOCK:   -4.53 KCAL/MOL
REMARK 924 INTRA-LIGAND FREE ENERGY PREDICTED BY IDOCK:   -0.20 KCAL/MOL
REMARK 927      BINDING AFFINITY PREDICTED BY RF-SCORE:    0.00 PKD
ROOT
HETATM    1  C   UNL     1     -12.781  13.987  65.771  1.00  0.00    -0.487 C  
HETATM    2  C   UNL     1     -12.298  12.746  65.030  1.00  0.00    -0.499 C  
HETATM    3  H   UNL     1     -12.307  12.131  63.185  1.00  0.00     0.000 HD 
HETATM    4  O   UNL     1     -12.607  12.905  63.647  1.00  0.00    -0.686 OA 
ENDROOT
BRANCH   2   5
HETATM    5  C   UNL     1     -10.796  12.522  65.254  1.00  0.00    -0.286 C  
BRANCH   5   6
HETATM    6  N   UNL     1     -10.473  11.172  65.689  1.00  0.00    -0.258 NA 
HETATM    7  C   UNL     1     -10.690  10.671  66.967  1.00  0.00    -0.259 A  
HETATM    8  N   UNL     1     -10.264   9.425  67.062  1.00  0.00    -0.240 NA 
HETATM    9  C   UNL     1     -11.329  11.407  68.091  1.00  0.00    -0.374 C  
HETATM   10  C   UNL     1      -9.752   9.100  65.837  1.00  0.00    -0.266 A  
HETATM   11  C   UNL     1      -9.867  10.163  64.979  1.00  0.00    -0.322 A  
HETATM   12  N   UNL     1      -9.440  10.210  63.620  1.00  0.00    -0.289 N  
HETATM   13  O   UNL     1      -8.822   9.223  63.202  1.00  0.00    -0.221 OA 
HETATM   14  O   UNL     1      -9.701  11.221  62.957  1.00  0.00    -0.341 OA 
ENDBRANCH   5   6
ENDBRANCH   2   5
TORSDOF 2
ENDMDL
MODEL       44
REMARK 921   NORMALIZED FREE ENERGY PREDICTED BY IDOCK:   -4.26 KCAL/MOL
REMARK 922        TOTAL FREE ENERGY PREDICTED BY IDOCK:   -4.72 KCAL/MOL
REMARK 923 INTER-LIGAND FREE ENERGY PREDICTED BY IDOCK:   -4.49 KCAL/MOL
REMARK 924 INTRA-LIGAND FREE ENERGY PREDICTED BY IDOCK:   -0.23 KCAL/MOL
REMARK 927      BINDING AFFINITY PREDICTED BY RF-SCORE:    0.00 PKD
ROOT
HETATM    1  C   UNL     1      -9.691  13.276  68.251  1.00  0.00    -0.225 C  
HETATM    2  C   UNL     1     -10.574  14.218  69.061  1.00  0.00    -0.232 C  
HETATM    3  H   UNL     1     -10.985  16.119  69.028  1.00  0.00     0.000 HD 
HETATM    4  O   UNL     1     -10.435  15.532  68.523  1.00  0.00    -0.229 OA 
ENDROOT
BRANCH   2   5
HETATM    5  C   UNL     1     -12.035  13.749  69.043  1.00  0.00    -0.360 C  
BRANCH   5   6
HETATM    6  N   UNL     1     -12.496  13.251  70.331  1.00  0.00    -0.267 NA 
HETATM    7  C   UNL     1     -12.408  11.931  70.754  1.00  0.00    -0.320 A  
HETATM    8  N   UNL     1     -12.941  11.786  71.954  1.00  0.00    -0.391 NA 
HETATM    9  C   UNL     1     -11.790  10.814  69.991  1.00  0.00    -0.424 C  
HETATM   10  C   UNL     1     -13.392  13.021  72.325  1.00  0.00    -0.506 A  
HETATM   11  C   UNL     1     -13.134  13.936  71.338  1.00  0.00    -0.340 A  
HETATM   12  N   UNL     1     -13.462  15.323  71.356  1.00  0.00    -0.472 N  
HETATM   13  O   UNL     1     -14.128  15.719  72.319  1.00  0.00    -0.497 OA 
HETATM   14  O   UNL     1     -13.075  16.030  70.417  1.00  0.00    -0.224 OA 
ENDBRANCH   5   6
ENDBRANCH   2   5
TORSDOF 2
ENDMDL
MODEL       45
REMARK 921   NORMALIZED FREE ENERGY PREDICTED BY IDOCK:   -4.23 KCAL/MOL
REMARK 922        TOTAL FREE ENERGY PREDICTED BY IDOCK:   -4.68 KCAL/MOL
REMARK 923 INTER-LIGAND FREE ENERGY PREDICTED BY IDOCK:   -4.45 KCAL/MOL
REMARK 924 INTRA-LIGAND FREE ENERGY PREDICTED BY IDOCK:   -0.23 KCAL/MOL
REMARK 927      BINDING AFFINITY PREDICTED BY RF-SCORE:    0.00 PKD
ROOT
HETATM    1  C   UNL     1     -11.154  15.158  65.989  1.00  0.00    -0.312 C  
HETATM    2  C   UNL     1     -10.436  16.484  65.764  1.00  0.00    -0.329 C  
HETATM    3  H   UNL     1     -10.590  17.958  64.505  1.00  0.00     0.000 HD 
HETATM    4  O   UNL     1     -11.037  17.131  64.645  1.00  0.00    -1.036 OA 
ENDROOT
BRANCH   2   5
HETATM    5  C   UNL     1     -10.493  17.358  67.025  1.00  0.00    -0.284 C  
BRANCH   5   6
HETATM    6  N   UNL     1      -9.192  17.558  67.646  1.00  0.00    -0.241 NA 
HETATM    7  C   UNL     1      -8.588  16.677  68.534  1.00  0.00    -0.234 A  
HETATM    8  N   UNL     1      -7.428  17.152  68.950  1.00  0.00    -0.249 NA 
HETATM    9  C   UNL     1      -9.139  15.364  68.965  1.00  0.00    -0.233 C  
HETATM   10  C   UNL     1      -7.267  18.362  68.338  1.00  0.00    -0.268 A  
HETATM   11  C   UNL     1      -8.343  18.634  67.534  1.00  0.00    -0.265 A  
HETATM   12  N   UNL     1      -8.541  19.801  66.742  1.00  0.00    -0.312 N  
HETATM   13  O   UNL     1      -7.699  20.699  66.863  1.00  0.00    -0.287 OA 
HETATM   14  O   UNL     1      -9.532  19.848  66.002  1.00  0.00    -0.396 OA 
ENDBRANCH   5   6
ENDBRANCH   2   5
TORSDOF 2
ENDMDL
MODEL       46
REMARK 921   NORMALIZED FREE ENERGY PREDICTED BY IDOCK:   -4.20 KCAL/MOL
REMARK 922        TOTAL FREE ENERGY PREDICTED BY IDOCK:   -4.65 KCAL/MOL
REMARK 923 INTER-LIGAND FREE ENERGY PREDICTED BY IDOCK:   -4.47 KCAL/MOL
REMARK 924 INTRA-LIGAND FREE ENERGY PREDICTED BY IDOCK:   -0.18 KCAL/MOL
REMARK 927      BINDING AFFINITY PREDICTED BY RF-SCORE:    0.00 PKD
ROOT
HETATM    1  C   UNL     1     -10.154  14.948  65.903  1.00  0.00    -0.348 C  
HETATM    2  C   UNL     1     -10.611  15.310  67.311  1.00  0.00    -0.290 C  
HETATM    3  H   UNL     1     -10.848  16.955  68.321  1.00  0.00     0.000 HD 
HETATM    4  O   UNL     1     -10.563  16.729  67.444  1.00  0.00    -0.321 OA 
ENDROOT
BRANCH   2   5
HETATM    5  C   UNL     1     -12.017  14.760  67.590  1.00  0.00    -0.213 C  
BRANCH   5   6
HETATM    6  N   UNL     1     -12.061  13.830  68.708  1.00  0.00    -0.357 NA 
HETATM    7  C   UNL     1     -12.197  14.191  70.043  1.00  0.00    -0.357 A  
HETATM    8  N   UNL     1     -12.170  13.126  70.823  1.00  0.00    -0.348 NA 
HETATM    9  C   UNL     1     -12.367  15.578  70.554  1.00  0.00    -0.461 C  
HETATM   10  C   UNL     1     -12.007  12.050  69.998  1.00  0.00    -0.324 A  
HETATM   11  C   UNL     1     -11.933  12.461  68.692  1.00  0.00    -0.225 A  
HETATM   12  N   UNL     1     -11.757  11.632  67.547  1.00  0.00    -0.263 N  
HETATM   13  O   UNL     1     -11.560  10.430  67.762  1.00  0.00    -0.405 OA 
HETATM   14  O   UNL     1     -11.800  12.158  66.428  1.00  0.00    -0.563 OA 
ENDBRANCH   5   6
ENDBRANCH   2   5
TORSDOF 2
ENDMDL
MODEL       47
REMARK 921   NORMALIZED FREE ENERGY PREDICTED BY IDOCK:   -4.19 KCAL/MOL
REMARK 922        TOTAL FREE ENERGY PREDICTED BY IDOCK:   -4.64 KCAL/MOL
REMARK 923 INTER-LIGAND FREE ENERGY PREDICTED BY IDOCK:   -4.38 KCAL/MOL
REMARK 924 INTRA-LIGAND FREE ENERGY PREDICTED BY IDOCK:   -0.25 KCAL/MOL
REMARK 927      BINDING AFFINITY PREDICTED BY RF-SCORE:    0.00 PKD
ROOT
HETATM    1  C   UNL     1     -10.386  15.578  65.542  1.00  0.00    -0.419 C  
HETATM    2  C   UNL     1     -10.632  15.217  67.003  1.00  0.00    -0.300 C  
HETATM    3  H   UNL     1     -10.721  16.190  68.685  1.00  0.00     0.000 HD 
HETATM    4  O   UNL     1     -10.568  16.415  67.774  1.00  0.00    -0.305 OA 
ENDROOT
BRANCH   2   5
HETATM    5  C   UNL     1     -11.982  14.505  67.172  1.00  0.00    -0.345 C  
BRANCH   5   6
HETATM    6  N   UNL     1     -11.872  13.211  67.828  1.00  0.00    -0.355 NA 
HETATM    7  C   UNL     1     -11.534  12.021  67.197  1.00  0.00    -0.335 A  
HETATM    8  N   UNL     1     -11.549  11.014  68.051  1.00  0.00    -0.522 NA 
HETATM    9  C   UNL     1     -11.182  11.870  65.759  1.00  0.00    -0.365 C  
HETATM   10  C   UNL     1     -11.908  11.542  69.259  1.00  0.00    -0.348 A  
HETATM   11  C   UNL     1     -12.116  12.892  69.143  1.00  0.00    -0.168 A  
HETATM   12  N   UNL     1     -12.509  13.785  70.182  1.00  0.00    -0.303 N  
HETATM   13  O   UNL     1     -12.778  13.274  71.276  1.00  0.00    -0.359 OA 
HETATM   14  O   UNL     1     -12.567  14.994  69.926  1.00  0.00    -0.259 OA 
ENDBRANCH   5   6
ENDBRANCH   2   5
TORSDOF 2
ENDMDL
MODEL       48
REMARK 921   NORMALIZED FREE ENERGY PREDICTED BY IDOCK:   -4.18 KCAL/MOL
REMARK 922        TOTAL FREE ENERGY PREDICTED BY IDOCK:   -4.62 KCAL/MOL
REMARK 923 INTER-LIGAND FREE ENERGY PREDICTED BY IDOCK:   -4.38 KCAL/MOL
REMARK 924 INTRA-LIGAND FREE ENERGY PREDICTED BY IDOCK:   -0.25 KCAL/MOL
REMARK 927      BINDING AFFINITY PREDICTED BY RF-SCORE:    0.00 PKD
ROOT
HETATM    1  C   UNL     1     -10.524  16.463  69.594  1.00  0.00    -0.278 C  
HETATM    2  C   UNL     1     -11.261  15.554  70.571  1.00  0.00    -0.342 C  
HETATM    3  H   UNL     1     -12.181  15.785  72.269  1.00  0.00     0.000 HD 
HETATM    4  O   UNL     1     -11.722  16.351  71.660  1.00  0.00    -0.465 OA 
ENDROOT
BRANCH   2   5
HETATM    5  C   UNL     1     -12.416  14.822  69.875  1.00  0.00    -0.240 C  
BRANCH   5   6
HETATM    6  N   UNL     1     -12.406  13.384  70.099  1.00  0.00    -0.287 NA 
HETATM    7  C   UNL     1     -12.895  12.749  71.234  1.00  0.00    -0.262 A  
HETATM    8  N   UNL     1     -12.715  11.443  71.156  1.00  0.00    -0.401 NA 
HETATM    9  C   UNL     1     -13.552  13.419  72.389  1.00  0.00    -0.708 C  
HETATM   10  C   UNL     1     -12.094  11.212  69.962  1.00  0.00    -0.359 A  
HETATM   11  C   UNL     1     -11.890  12.393  69.297  1.00  0.00    -0.304 A  
HETATM   12  N   UNL     1     -11.266  12.559  68.027  1.00  0.00    -0.251 N  
HETATM   13  O   UNL     1     -10.778  11.544  67.517  1.00  0.00    -0.203 OA 
HETATM   14  O   UNL     1     -11.242  13.691  67.527  1.00  0.00    -0.276 OA 
ENDBRANCH   5   6
ENDBRANCH   2   5
TORSDOF 2
ENDMDL
MODEL       49
REMARK 921   NORMALIZED FREE ENERGY PREDICTED BY IDOCK:   -4.17 KCAL/MOL
REMARK 922        TOTAL FREE ENERGY PREDICTED BY IDOCK:   -4.62 KCAL/MOL
REMARK 923 INTER-LIGAND FREE ENERGY PREDICTED BY IDOCK:   -4.52 KCAL/MOL
REMARK 924 INTRA-LIGAND FREE ENERGY PREDICTED BY IDOCK:   -0.09 KCAL/MOL
REMARK 927      BINDING AFFINITY PREDICTED BY RF-SCORE:    0.00 PKD
ROOT
HETATM    1  C   UNL     1      -9.171  15.524  69.448  1.00  0.00    -0.280 C  
HETATM    2  C   UNL     1     -10.591  15.034  69.705  1.00  0.00    -0.238 C  
HETATM    3  H   UNL     1     -11.843  15.103  71.192  1.00  0.00     0.000 HD 
HETATM    4  O   UNL     1     -10.958  15.408  71.031  1.00  0.00    -0.342 OA 
ENDROOT
BRANCH   2   5
HETATM    5  C   UNL     1     -11.564  15.606  68.664  1.00  0.00    -0.382 C  
BRANCH   5   6
HETATM    6  N   UNL     1     -11.113  15.426  67.293  1.00  0.00    -0.322 NA 
HETATM    7  C   UNL     1     -11.149  14.227  66.591  1.00  0.00    -0.321 A  
HETATM    8  N   UNL     1     -10.640  14.375  65.382  1.00  0.00    -0.341 NA 
HETATM    9  C   UNL     1     -11.694  12.940  67.099  1.00  0.00    -0.437 C  
HETATM   10  C   UNL     1     -10.256  15.682  65.284  1.00  0.00    -0.324 A  
HETATM   11  C   UNL     1     -10.534  16.346  66.451  1.00  0.00    -0.286 A  
HETATM   12  N   UNL     1     -10.272  17.718  66.734  1.00  0.00    -0.338 N  
HETATM   13  O   UNL     1      -9.649  18.349  65.872  1.00  0.00    -0.499 OA 
HETATM   14  O   UNL     1     -10.668  18.182  67.810  1.00  0.00    -0.412 OA 
ENDBRANCH   5   6
ENDBRANCH   2   5
TORSDOF 2
ENDMDL
MODEL       50
REMARK 921   NORMALIZED FREE ENERGY PREDICTED BY IDOCK:   -4.17 KCAL/MOL
REMARK 922        TOTAL FREE ENERGY PREDICTED BY IDOCK:   -4.61 KCAL/MOL
REMARK 923 INTER-LIGAND FREE ENERGY PREDICTED BY IDOCK:   -4.38 KCAL/MOL
REMARK 924 INTRA-LIGAND FREE ENERGY PREDICTED BY IDOCK:   -0.24 KCAL/MOL
REMARK 927      BINDING AFFINITY PREDICTED BY RF-SCORE:    0.00 PKD
ROOT
HETATM    1  C   UNL     1     -12.335  12.016  63.157  1.00  0.00    -0.394 C  
HETATM    2  C   UNL     1     -11.807  13.129  64.054  1.00  0.00    -0.453 C  
HETATM    3  H   UNL     1     -12.263  14.992  64.381  1.00  0.00     0.000 HD 
HETATM    4  O   UNL     1     -12.591  14.298  63.822  1.00  0.00    -0.821 OA 
ENDROOT
BRANCH   2   5
HETATM    5  C   UNL     1     -11.842  12.707  65.530  1.00  0.00    -0.431 C  
BRANCH   5   6
HETATM    6  N   UNL     1     -10.520  12.586  66.125  1.00  0.00    -0.245 NA 
HETATM    7  C   UNL     1      -9.700  11.469  66.031  1.00  0.00    -0.226 A  
HETATM    8  N   UNL     1      -8.578  11.650  66.703  1.00  0.00    -0.179 NA 
HETATM    9  C   UNL     1     -10.008  10.228  65.270  1.00  0.00    -0.387 C  
HETATM   10  C   UNL     1      -8.659  12.897  67.254  1.00  0.00    -0.205 A  
HETATM   11  C   UNL     1      -9.848  13.489  66.916  1.00  0.00    -0.257 A  
HETATM   12  N   UNL     1     -10.297  14.784  67.307  1.00  0.00    -0.246 N  
HETATM   13  O   UNL     1      -9.580  15.397  68.107  1.00  0.00    -0.201 OA 
HETATM   14  O   UNL     1     -11.362  15.203  66.838  1.00  0.00    -0.333 OA 
ENDBRANCH   5   6
ENDBRANCH   2   5
TORSDOF 2
ENDMDL
MODEL       51
REMARK 921   NORMALIZED FREE ENERGY PREDICTED BY IDOCK:   -4.17 KCAL/MOL
REMARK 922        TOTAL FREE ENERGY PREDICTED BY IDOCK:   -4.61 KCAL/MOL
REMARK 923 INTER-LIGAND FREE ENERGY PREDICTED BY IDOCK:   -4.37 KCAL/MOL
REMARK 924 INTRA-LIGAND FREE ENERGY PREDICTED BY IDOCK:   -0.25 KCAL/MOL
REMARK 927      BINDING AFFINITY PREDICTED BY RF-SCORE:    0.00 PKD
ROOT
HETATM    1  C   UNL     1      -8.522  18.721  68.692  1.00  0.00    -0.364 C  
HETATM    2  C   UNL     1      -8.757  17.305  68.178  1.00  0.00    -0.243 C  
HETATM    3  H   UNL     1      -8.316  15.510  68.782  1.00  0.00     0.000 HD 
HETATM    4  O   UNL     1      -8.170  16.392  69.103  1.00  0.00    -0.240 OA 
ENDROOT
BRANCH   2   5
HETATM    5  C   UNL     1     -10.256  17.033  67.986  1.00  0.00    -0.319 C  
BRANCH   5   6
HETATM    6  N   UNL     1     -10.609  16.698  66.614  1.00  0.00    -0.252 NA 
HETATM    7  C   UNL     1     -10.806  17.617  65.592  1.00  0.00     0.035 A  
HETATM    8  N   UNL     1     -11.148  17.008  64.471  1.00  0.00    -1.062 NA 
HETATM    9  C   UNL     1     -10.646  19.092  65.708  1.00  0.00    -0.417 C  
HETATM   10  C   UNL     1     -11.186  15.673  64.757  1.00  0.00    -0.382 A  
HETATM   11  C   UNL     1     -10.862  15.460  66.071  1.00  0.00    -0.314 A  
HETATM   12  N   UNL     1     -10.801  14.203  66.740  1.00  0.00    -0.293 N  
HETATM   13  O   UNL     1     -11.166  13.216  66.092  1.00  0.00    -0.287 OA 
HETATM   14  O   UNL     1     -10.403  14.180  67.912  1.00  0.00    -0.229 OA 
ENDBRANCH   5   6
ENDBRANCH   2   5
TORSDOF 2
ENDMDL
MODEL       52
REMARK 921   NORMALIZED FREE ENERGY PREDICTED BY IDOCK:   -4.15 KCAL/MOL
REMARK 922        TOTAL FREE ENERGY PREDICTED BY IDOCK:   -4.60 KCAL/MOL
REMARK 923 INTER-LIGAND FREE ENERGY PREDICTED BY IDOCK:   -4.51 KCAL/MOL
REMARK 924 INTRA-LIGAND FREE ENERGY PREDICTED BY IDOCK:   -0.09 KCAL/MOL
REMARK 927      BINDING AFFINITY PREDICTED BY RF-SCORE:    0.00 PKD
ROOT
HETATM    1  C   UNL     1     -11.312  12.295  69.050  1.00  0.00    -0.333 C  
HETATM    2  C   UNL     1     -11.462  12.926  67.671  1.00  0.00    -0.334 C  
HETATM    3  H   UNL     1     -12.196  12.373  65.956  1.00  0.00     0.000 HD 
HETATM    4  O   UNL     1     -12.102  11.980  66.817  1.00  0.00    -0.613 OA 
ENDROOT
BRANCH   2   5
HETATM    5  C   UNL     1     -12.249  14.241  67.752  1.00  0.00    -0.164 C  
BRANCH   5   6
HETATM    6  N   UNL     1     -11.420  15.389  68.088  1.00  0.00    -0.346 NA 
HETATM    7  C   UNL     1     -10.595  16.066  67.198  1.00  0.00    -0.305 A  
HETATM    8  N   UNL     1      -9.946  17.041  67.808  1.00  0.00    -0.271 NA 
HETATM    9  C   UNL     1     -10.452  15.767  65.747  1.00  0.00    -0.384 C  
HETATM   10  C   UNL     1     -10.340  17.004  69.115  1.00  0.00    -0.313 A  
HETATM   11  C   UNL     1     -11.243  15.992  69.311  1.00  0.00    -0.346 A  
HETATM   12  N   UNL     1     -11.871  15.637  70.539  1.00  0.00    -0.342 N  
HETATM   13  O   UNL     1     -11.494  16.246  71.547  1.00  0.00    -0.412 OA 
HETATM   14  O   UNL     1     -12.733  14.749  70.523  1.00  0.00    -0.344 OA 
ENDBRANCH   5   6
ENDBRANCH   2   5
TORSDOF 2
ENDMDL
MODEL       53
REMARK 921   NORMALIZED FREE ENERGY PREDICTED BY IDOCK:   -4.15 KCAL/MOL
REMARK 922        TOTAL FREE ENERGY PREDICTED BY IDOCK:   -4.59 KCAL/MOL
REMARK 923 INTER-LIGAND FREE ENERGY PREDICTED BY IDOCK:   -4.35 KCAL/MOL
REMARK 924 INTRA-LIGAND FREE ENERGY PREDICTED BY IDOCK:   -0.23 KCAL/MOL
REMARK 927      BINDING AFFINITY PREDICTED BY RF-SCORE:    0.00 PKD
ROOT
HETATM    1  C   UNL     1     -10.409   9.653  66.954  1.00  0.00    -0.307 C  
HETATM    2  C   UNL     1     -10.112  11.078  66.502  1.00  0.00    -0.226 C  
HETATM    3  H   UNL     1      -9.172  11.901  65.011  1.00  0.00     0.000 HD 
HETATM    4  O   UNL     1      -9.358  11.012  65.293  1.00  0.00    -0.205 OA 
ENDROOT
BRANCH   2   5
HETATM    5  C   UNL     1     -11.409  11.877  66.319  1.00  0.00    -0.334 C  
BRANCH   5   6
HETATM    6  N   UNL     1     -11.373  13.186  66.954  1.00  0.00    -0.304 NA 
HETATM    7  C   UNL     1     -11.605  13.427  68.302  1.00  0.00    -0.344 A  
HETATM    8  N   UNL     1     -11.534  14.719  68.567  1.00  0.00    -0.293 NA 
HETATM    9  C   UNL     1     -11.882  12.392  69.334  1.00  0.00    -0.365 C  
HETATM   10  C   UNL     1     -11.260  15.340  67.382  1.00  0.00    -0.311 A  
HETATM   11  C   UNL     1     -11.162  14.415  66.374  1.00  0.00    -0.345 A  
HETATM   12  N   UNL     1     -10.894  14.679  65.000  1.00  0.00    -0.390 N  
HETATM   13  O   UNL     1     -10.836  15.869  64.668  1.00  0.00    -0.557 OA 
HETATM   14  O   UNL     1     -10.750  13.718  64.234  1.00  0.00    -0.372 OA 
ENDBRANCH   5   6
ENDBRANCH   2   5
TORSDOF 2
ENDMDL
MODEL       54
REMARK 921   NORMALIZED FREE ENERGY PREDICTED BY IDOCK:   -4.12 KCAL/MOL
REMARK 922        TOTAL FREE ENERGY PREDICTED BY IDOCK:   -4.56 KCAL/MOL
REMARK 923 INTER-LIGAND FREE ENERGY PREDICTED BY IDOCK:   -4.43 KCAL/MOL
REMARK 924 INTRA-LIGAND FREE ENERGY PREDICTED BY IDOCK:   -0.13 KCAL/MOL
REMARK 927      BINDING AFFINITY PREDICTED BY RF-SCORE:    0.00 PKD
ROOT
HETATM    1  C   UNL     1      -9.677  10.841  68.493  1.00  0.00    -0.184 C  
HETATM    2  C   UNL     1     -10.603  10.966  67.289  1.00  0.00    -0.251 C  
HETATM    3  H   UNL     1     -12.521  11.146  67.016  1.00  0.00     0.000 HD 
HETATM    4  O   UNL     1     -11.943  11.068  67.767  1.00  0.00    -0.609 OA 
ENDROOT
BRANCH   2   5
HETATM    5  C   UNL     1     -10.217  12.173  66.422  1.00  0.00    -0.220 C  
BRANCH   5   6
HETATM    6  N   UNL     1     -10.933  12.227  65.157  1.00  0.00    -0.294 NA 
HETATM    7  C   UNL     1     -12.086  12.966  64.922  1.00  0.00    -0.432 A  
HETATM    8  N   UNL     1     -12.517  12.784  63.688  1.00  0.00    -0.714 NA 
HETATM    9  C   UNL     1     -12.757  13.861  65.903  1.00  0.00    -0.466 C  
HETATM   10  C   UNL     1     -11.646  11.911  63.101  1.00  0.00    -0.142 A  
HETATM   11  C   UNL     1     -10.666  11.551  63.989  1.00  0.00    -0.384 A  
HETATM   12  N   UNL     1      -9.586  10.653  63.748  1.00  0.00    -0.280 N  
HETATM   13  O   UNL     1      -9.587  10.071  62.657  1.00  0.00    -0.271 OA 
HETATM   14  O   UNL     1      -8.735  10.506  64.634  1.00  0.00    -0.183 OA 
ENDBRANCH   5   6
ENDBRANCH   2   5
TORSDOF 2
ENDMDL
MODEL       55
REMARK 921   NORMALIZED FREE ENERGY PREDICTED BY IDOCK:   -4.11 KCAL/MOL
REMARK 922        TOTAL FREE ENERGY PREDICTED BY IDOCK:   -4.55 KCAL/MOL
REMARK 923 INTER-LIGAND FREE ENERGY PREDICTED BY IDOCK:   -4.41 KCAL/MOL
REMARK 924 INTRA-LIGAND FREE ENERGY PREDICTED BY IDOCK:   -0.13 KCAL/MOL
REMARK 927      BINDING AFFINITY PREDICTED BY RF-SCORE:    0.00 PKD
ROOT
HETATM    1  C   UNL     1      -8.288  17.296  66.360  1.00  0.00    -0.315 C  
HETATM    2  C   UNL     1      -9.159  16.080  66.065  1.00  0.00    -0.326 C  
HETATM    3  H   UNL     1      -9.160  14.206  66.586  1.00  0.00     0.000 HD 
HETATM    4  O   UNL     1      -8.617  14.964  66.769  1.00  0.00    -0.243 OA 
ENDROOT
BRANCH   2   5
HETATM    5  C   UNL     1     -10.619  16.344  66.457  1.00  0.00    -0.235 C  
BRANCH   5   6
HETATM    6  N   UNL     1     -11.172  15.327  67.340  1.00  0.00    -0.328 NA 
HETATM    7  C   UNL     1     -11.098  15.348  68.727  1.00  0.00    -0.283 A  
HETATM    8  N   UNL     1     -11.663  14.272  69.244  1.00  0.00    -0.299 NA 
HETATM    9  C   UNL     1     -10.488  16.428  69.548  1.00  0.00    -0.301 C  
HETATM   10  C   UNL     1     -12.107  13.528  68.188  1.00  0.00    -0.255 A  
HETATM   11  C   UNL     1     -11.811  14.156  67.006  1.00  0.00    -0.429 A  
HETATM   12  N   UNL     1     -12.108  13.687  65.694  1.00  0.00    -0.397 N  
HETATM   13  O   UNL     1     -12.600  12.555  65.612  1.00  0.00    -0.612 OA 
HETATM   14  O   UNL     1     -11.849  14.423  64.734  1.00  0.00    -0.389 OA 
ENDBRANCH   5   6
ENDBRANCH   2   5
TORSDOF 2
ENDMDL
MODEL       56
REMARK 921   NORMALIZED FREE ENERGY PREDICTED BY IDOCK:   -4.11 KCAL/MOL
REMARK 922        TOTAL FREE ENERGY PREDICTED BY IDOCK:   -4.55 KCAL/MOL
REMARK 923 INTER-LIGAND FREE ENERGY PREDICTED BY IDOCK:   -4.40 KCAL/MOL
REMARK 924 INTRA-LIGAND FREE ENERGY PREDICTED BY IDOCK:   -0.14 KCAL/MOL
REMARK 927      BINDING AFFINITY PREDICTED BY RF-SCORE:    0.00 PKD
ROOT
HETATM    1  C   UNL     1     -10.435   9.803  66.797  1.00  0.00    -0.259 C  
HETATM    2  C   UNL     1      -9.444  10.941  67.013  1.00  0.00    -0.164 C  
HETATM    3  H   UNL     1      -7.516  11.090  67.226  1.00  0.00     0.000 HD 
HETATM    4  O   UNL     1      -8.134  10.381  67.092  1.00  0.00    -0.114 OA 
ENDROOT
BRANCH   2   5
HETATM    5  C   UNL     1      -9.549  11.981  65.889  1.00  0.00    -0.223 C  
BRANCH   5   6
HETATM    6  N   UNL     1     -10.738  12.815  65.986  1.00  0.00    -0.269 NA 
HETATM    7  C   UNL     1     -10.979  13.748  66.986  1.00  0.00    -0.290 A  
HETATM    8  N   UNL     1     -12.157  14.322  66.819  1.00  0.00    -0.440 NA 
HETATM    9  C   UNL     1     -10.052  14.088  68.099  1.00  0.00    -0.244 C  
HETATM   10  C   UNL     1     -12.703  13.759  65.702  1.00  0.00    -0.478 A  
HETATM   11  C   UNL     1     -11.849  12.825  65.175  1.00  0.00    -0.391 A  
HETATM   12  N   UNL     1     -12.071  12.024  64.018  1.00  0.00    -0.412 N  
HETATM   13  O   UNL     1     -13.185  12.116  63.490  1.00  0.00    -0.744 OA 
HETATM   14  O   UNL     1     -11.155  11.290  63.627  1.00  0.00    -0.376 OA 
ENDBRANCH   5   6
ENDBRANCH   2   5
TORSDOF 2
ENDMDL
MODEL       57
REMARK 921   NORMALIZED FREE ENERGY PREDICTED BY IDOCK:   -4.10 KCAL/MOL
REMARK 922        TOTAL FREE ENERGY PREDICTED BY IDOCK:   -4.53 KCAL/MOL
REMARK 923 INTER-LIGAND FREE ENERGY PREDICTED BY IDOCK:   -4.33 KCAL/MOL
REMARK 924 INTRA-LIGAND FREE ENERGY PREDICTED BY IDOCK:   -0.20 KCAL/MOL
REMARK 927      BINDING AFFINITY PREDICTED BY RF-SCORE:    0.00 PKD
ROOT
HETATM    1  C   UNL     1     -10.987  16.446  69.448  1.00  0.00    -0.325 C  
HETATM    2  C   UNL     1     -11.078  15.179  70.291  1.00  0.00    -0.262 C  
HETATM    3  H   UNL     1     -11.365  14.772  72.171  1.00  0.00     0.000 HD 
HETATM    4  O   UNL     1     -11.308  15.561  71.645  1.00  0.00    -0.389 OA 
ENDROOT
BRANCH   2   5
HETATM    5  C   UNL     1     -12.183  14.251  69.768  1.00  0.00    -0.339 C  
BRANCH   5   6
HETATM    6  N   UNL     1     -11.768  12.859  69.670  1.00  0.00    -0.309 NA 
HETATM    7  C   UNL     1     -10.933  12.341  68.688  1.00  0.00    -0.239 A  
HETATM    8  N   UNL     1     -10.768  11.041  68.849  1.00  0.00    -0.199 NA 
HETATM    9  C   UNL     1     -10.284  13.122  67.600  1.00  0.00    -0.224 C  
HETATM   10  C   UNL     1     -11.507  10.693  69.943  1.00  0.00    -0.317 A  
HETATM   11  C   UNL     1     -12.134  11.796  70.462  1.00  0.00    -0.347 A  
HETATM   12  N   UNL     1     -12.996  11.831  71.596  1.00  0.00    -0.416 N  
HETATM   13  O   UNL     1     -13.278  10.741  72.107  1.00  0.00    -0.473 OA 
HETATM   14  O   UNL     1     -13.411  12.930  71.985  1.00  0.00    -0.494 OA 
ENDBRANCH   5   6
ENDBRANCH   2   5
TORSDOF 2
ENDMDL
MODEL       58
REMARK 921   NORMALIZED FREE ENERGY PREDICTED BY IDOCK:   -4.09 KCAL/MOL
REMARK 922        TOTAL FREE ENERGY PREDICTED BY IDOCK:   -4.53 KCAL/MOL
REMARK 923 INTER-LIGAND FREE ENERGY PREDICTED BY IDOCK:   -4.37 KCAL/MOL
REMARK 924 INTRA-LIGAND FREE ENERGY PREDICTED BY IDOCK:   -0.16 KCAL/MOL
REMARK 927      BINDING AFFINITY PREDICTED BY RF-SCORE:    0.00 PKD
ROOT
HETATM    1  C   UNL     1      -9.722  17.152  67.590  1.00  0.00    -0.263 C  
HETATM    2  C   UNL     1     -10.481  16.493  66.444  1.00  0.00    -0.274 C  
HETATM    3  H   UNL     1     -10.020  15.779  64.694  1.00  0.00     0.000 HD 
HETATM    4  O   UNL     1      -9.547  16.190  65.409  1.00  0.00    -0.428 OA 
ENDROOT
BRANCH   2   5
HETATM    5  C   UNL     1     -11.222  15.239  66.926  1.00  0.00    -0.256 C  
BRANCH   5   6
HETATM    6  N   UNL     1     -10.722  14.009  66.329  1.00  0.00    -0.286 NA 
HETATM    7  C   UNL     1      -9.697  13.228  66.849  1.00  0.00    -0.248 A  
HETATM    8  N   UNL     1      -9.449  12.195  66.065  1.00  0.00    -0.233 NA 
HETATM    9  C   UNL     1      -8.970  13.485  68.121  1.00  0.00    -0.187 C  
HETATM   10  C   UNL     1     -10.313  12.297  65.012  1.00  0.00    -0.291 A  
HETATM   11  C   UNL     1     -11.102  13.409  65.151  1.00  0.00    -0.301 A  
HETATM   12  N   UNL     1     -12.114  13.854  64.253  1.00  0.00    -0.448 N  
HETATM   13  O   UNL     1     -12.229  13.223  63.196  1.00  0.00    -0.628 OA 
HETATM   14  O   UNL     1     -12.798  14.834  64.576  1.00  0.00    -0.525 OA 
ENDBRANCH   5   6
ENDBRANCH   2   5
TORSDOF 2
ENDMDL
MODEL       59
REMARK 921   NORMALIZED FREE ENERGY PREDICTED BY IDOCK:   -4.08 KCAL/MOL
REMARK 922        TOTAL FREE ENERGY PREDICTED BY IDOCK:   -4.52 KCAL/MOL
REMARK 923 INTER-LIGAND FREE ENERGY PREDICTED BY IDOCK:   -4.38 KCAL/MOL
REMARK 924 INTRA-LIGAND FREE ENERGY PREDICTED BY IDOCK:   -0.14 KCAL/MOL
REMARK 927      BINDING AFFINITY PREDICTED BY RF-SCORE:    0.00 PKD
ROOT
HETATM    1  C   UNL     1     -10.474  18.737  65.752  1.00  0.00    -0.317 C  
HETATM    2  C   UNL     1     -10.895  17.282  65.575  1.00  0.00    -0.023 C  
HETATM    3  H   UNL     1     -11.531  16.183  64.102  1.00  0.00     0.000 HD 
HETATM    4  O   UNL     1     -11.269  17.090  64.213  1.00  0.00    -1.186 OA 
ENDROOT
BRANCH   2   5
HETATM    5  C   UNL     1      -9.766  16.331  65.994  1.00  0.00    -0.339 C  
BRANCH   5   6
HETATM    6  N   UNL     1      -9.919  15.813  67.345  1.00  0.00    -0.235 NA 
HETATM    7  C   UNL     1      -9.272  16.310  68.469  1.00  0.00    -0.211 A  
HETATM    8  N   UNL     1      -9.591  15.611  69.543  1.00  0.00    -0.275 NA 
HETATM    9  C   UNL     1      -8.351  17.479  68.495  1.00  0.00    -0.274 C  
HETATM   10  C   UNL     1     -10.452  14.637  69.125  1.00  0.00    -0.233 A  
HETATM   11  C   UNL     1     -10.664  14.740  67.775  1.00  0.00    -0.268 A  
HETATM   12  N   UNL     1     -11.493  13.900  66.976  1.00  0.00    -0.329 N  
HETATM   13  O   UNL     1     -11.998  12.924  67.544  1.00  0.00    -0.359 OA 
HETATM   14  O   UNL     1     -11.644  14.187  65.782  1.00  0.00    -0.328 OA 
ENDBRANCH   5   6
ENDBRANCH   2   5
TORSDOF 2
ENDMDL
MODEL       60
REMARK 921   NORMALIZED FREE ENERGY PREDICTED BY IDOCK:   -4.08 KCAL/MOL
REMARK 922        TOTAL FREE ENERGY PREDICTED BY IDOCK:   -4.52 KCAL/MOL
REMARK 923 INTER-LIGAND FREE ENERGY PREDICTED BY IDOCK:   -4.27 KCAL/MOL
REMARK 924 INTRA-LIGAND FREE ENERGY PREDICTED BY IDOCK:   -0.24 KCAL/MOL
REMARK 927      BINDING AFFINITY PREDICTED BY RF-SCORE:    0.00 PKD
ROOT
HETATM    1  C   UNL     1     -10.862   6.305  67.847  1.00  0.00    -0.417 C  
HETATM    2  C   UNL     1     -11.169   6.692  69.289  1.00  0.00    -0.266 C  
HETATM    3  H   UNL     1     -11.084   5.807  71.019  1.00  0.00     0.000 HD 
HETATM    4  O   UNL     1     -10.893   5.566  70.119  1.00  0.00    -0.306 OA 
ENDROOT
BRANCH   2   5
HETATM    5  C   UNL     1     -10.354   7.922  69.711  1.00  0.00    -0.219 C  
BRANCH   5   6
HETATM    6  N   UNL     1     -11.174   9.001  70.243  1.00  0.00    -0.235 NA 
HETATM    7  C   UNL     1     -11.670   9.064  71.539  1.00  0.00    -0.345 A  
HETATM    8  N   UNL     1     -12.405  10.147  71.709  1.00  0.00    -0.365 NA 
HETATM    9  C   UNL     1     -11.413   8.069  72.616  1.00  0.00    -0.465 C  
HETATM   10  C   UNL     1     -12.402  10.805  70.512  1.00  0.00    -0.369 A  
HETATM   11  C   UNL     1     -11.654  10.114  69.594  1.00  0.00    -0.153 A  
HETATM   12  N   UNL     1     -11.423  10.479  68.236  1.00  0.00    -0.264 N  
HETATM   13  O   UNL     1     -12.034  11.471  67.821  1.00  0.00    -0.623 OA 
HETATM   14  O   UNL     1     -10.647   9.787  67.565  1.00  0.00    -0.246 OA 
ENDBRANCH   5   6
ENDBRANCH   2   5
TORSDOF 2
ENDMDL
MODEL       61
REMARK 921   NORMALIZED FREE ENERGY PREDICTED BY IDOCK:   -4.06 KCAL/MOL
REMARK 922        TOTAL FREE ENERGY PREDICTED BY IDOCK:   -4.50 KCAL/MOL
REMARK 923 INTER-LIGAND FREE ENERGY PREDICTED BY IDOCK:   -4.40 KCAL/MOL
REMARK 924 INTRA-LIGAND FREE ENERGY PREDICTED BY IDOCK:   -0.10 KCAL/MOL
REMARK 927      BINDING AFFINITY PREDICTED BY RF-SCORE:    0.00 PKD
ROOT
HETATM    1  C   UNL     1     -11.900  14.138  68.267  1.00  0.00    -0.391 C  
HETATM    2  C   UNL     1     -11.133  12.986  67.630  1.00  0.00    -0.267 C  
HETATM    3  H   UNL     1     -11.596  11.279  66.822  1.00  0.00     0.000 HD 
HETATM    4  O   UNL     1     -12.075  11.997  67.219  1.00  0.00    -0.572 OA 
ENDROOT
BRANCH   2   5
HETATM    5  C   UNL     1     -10.279  13.480  66.454  1.00  0.00    -0.291 C  
BRANCH   5   6
HETATM    6  N   UNL     1     -10.626  12.853  65.187  1.00  0.00    -0.294 NA 
HETATM    7  C   UNL     1     -11.504  13.381  64.249  1.00  0.00    -0.393 A  
HETATM    8  N   UNL     1     -11.638  12.564  63.219  1.00  0.00    -0.446 NA 
HETATM    9  C   UNL     1     -12.202  14.690  64.353  1.00  0.00    -0.473 C  
HETATM   10  C   UNL     1     -10.846  11.483  63.482  1.00  0.00    -0.398 A  
HETATM   11  C   UNL     1     -10.218  11.637  64.690  1.00  0.00    -0.281 A  
HETATM   12  N   UNL     1      -9.321  10.719  65.308  1.00  0.00    -0.199 N  
HETATM   13  O   UNL     1      -9.166   9.632  64.737  1.00  0.00    -0.234 OA 
HETATM   14  O   UNL     1      -8.770  11.054  66.364  1.00  0.00    -0.161 OA 
ENDBRANCH   5   6
ENDBRANCH   2   5
TORSDOF 2
ENDMDL
MODEL       62
REMARK 921   NORMALIZED FREE ENERGY PREDICTED BY IDOCK:   -4.06 KCAL/MOL
REMARK 922        TOTAL FREE ENERGY PREDICTED BY IDOCK:   -4.50 KCAL/MOL
REMARK 923 INTER-LIGAND FREE ENERGY PREDICTED BY IDOCK:   -4.27 KCAL/MOL
REMARK 924 INTRA-LIGAND FREE ENERGY PREDICTED BY IDOCK:   -0.23 KCAL/MOL
REMARK 927      BINDING AFFINITY PREDICTED BY RF-SCORE:    0.00 PKD
ROOT
HETATM    1  C   UNL     1     -11.633  11.717  69.933  1.00  0.00    -0.351 C  
HETATM    2  C   UNL     1     -10.921  12.699  69.010  1.00  0.00    -0.191 C  
HETATM    3  H   UNL     1      -9.935  12.577  67.337  1.00  0.00     0.000 HD 
HETATM    4  O   UNL     1     -10.379  11.966  67.913  1.00  0.00    -0.190 OA 
ENDROOT
BRANCH   2   5
HETATM    5  C   UNL     1     -11.879  13.801  68.537  1.00  0.00    -0.370 C  
BRANCH   5   6
HETATM    6  N   UNL     1     -11.287  15.131  68.566  1.00  0.00    -0.293 NA 
HETATM    7  C   UNL     1     -11.143  15.915  69.703  1.00  0.00    -0.320 A  
HETATM    8  N   UNL     1     -10.601  17.082  69.403  1.00  0.00    -0.310 NA 
HETATM    9  C   UNL     1     -11.521  15.518  71.086  1.00  0.00    -0.442 C  
HETATM   10  C   UNL     1     -10.393  17.072  68.054  1.00  0.00    -0.341 A  
HETATM   11  C   UNL     1     -10.812  15.882  67.517  1.00  0.00    -0.305 A  
HETATM   12  N   UNL     1     -10.765  15.503  66.145  1.00  0.00    -0.314 N  
HETATM   13  O   UNL     1     -10.392  16.370  65.346  1.00  0.00    -0.535 OA 
HETATM   14  O   UNL     1     -11.104  14.352  65.841  1.00  0.00    -0.308 OA 
ENDBRANCH   5   6
ENDBRANCH   2   5
TORSDOF 2
ENDMDL
MODEL       63
REMARK 921   NORMALIZED FREE ENERGY PREDICTED BY IDOCK:   -4.06 KCAL/MOL
REMARK 922        TOTAL FREE ENERGY PREDICTED BY IDOCK:   -4.50 KCAL/MOL
REMARK 923 INTER-LIGAND FREE ENERGY PREDICTED BY IDOCK:   -4.33 KCAL/MOL
REMARK 924 INTRA-LIGAND FREE ENERGY PREDICTED BY IDOCK:   -0.16 KCAL/MOL
REMARK 927      BINDING AFFINITY PREDICTED BY RF-SCORE:    0.00 PKD
ROOT
HETATM    1  C   UNL     1     -13.003  14.068  65.484  1.00  0.00    -0.353 C  
HETATM    2  C   UNL     1     -12.416  12.765  64.954  1.00  0.00    -0.497 C  
HETATM    3  H   UNL     1     -12.199  11.941  63.206  1.00  0.00     0.000 HD 
HETATM    4  O   UNL     1     -12.565  12.753  63.536  1.00  0.00    -0.703 OA 
ENDROOT
BRANCH   2   5
HETATM    5  C   UNL     1     -10.946  12.616  65.371  1.00  0.00    -0.286 C  
BRANCH   5   6
HETATM    6  N   UNL     1     -10.595  11.263  65.775  1.00  0.00    -0.260 NA 
HETATM    7  C   UNL     1     -10.032  10.302  64.944  1.00  0.00    -0.323 A  
HETATM    8  N   UNL     1      -9.860   9.164  65.590  1.00  0.00    -0.206 NA 
HETATM    9  C   UNL     1      -9.648  10.503  63.520  1.00  0.00    -0.374 C  
HETATM   10  C   UNL     1     -10.321   9.370  66.859  1.00  0.00    -0.238 A  
HETATM   11  C   UNL     1     -10.783  10.654  66.993  1.00  0.00    -0.259 A  
HETATM   12  N   UNL     1     -11.346  11.239  68.164  1.00  0.00    -0.279 N  
HETATM   13  O   UNL     1     -11.519  10.484  69.128  1.00  0.00    -0.257 OA 
HETATM   14  O   UNL     1     -11.632  12.442  68.141  1.00  0.00    -0.298 OA 
ENDBRANCH   5   6
ENDBRANCH   2   5
TORSDOF 2
ENDMDL
MODEL       64
REMARK 921   NORMALIZED FREE ENERGY PREDICTED BY IDOCK:   -4.05 KCAL/MOL
REMARK 922        TOTAL FREE ENERGY PREDICTED BY IDOCK:   -4.49 KCAL/MOL
REMARK 923 INTER-LIGAND FREE ENERGY PREDICTED BY IDOCK:   -4.30 KCAL/MOL
REMARK 924 INTRA-LIGAND FREE ENERGY PREDICTED BY IDOCK:   -0.19 KCAL/MOL
REMARK 927      BINDING AFFINITY PREDICTED BY RF-SCORE:    0.00 PKD
ROOT
HETATM    1  C   UNL     1     -12.632   8.874  72.316  1.00  0.00    -0.455 C  
HETATM    2  C   UNL     1     -11.953  10.037  71.601  1.00  0.00    -0.286 C  
HETATM    3  H   UNL     1     -10.357  10.264  70.513  1.00  0.00     0.000 HD 
HETATM    4  O   UNL     1     -10.780   9.540  70.959  1.00  0.00    -0.300 OA 
ENDROOT
BRANCH   2   5
HETATM    5  C   UNL     1     -12.910  10.700  70.601  1.00  0.00    -0.320 C  
BRANCH   5   6
HETATM    6  N   UNL     1     -12.518  12.054  70.240  1.00  0.00    -0.156 NA 
HETATM    7  C   UNL     1     -12.742  13.184  71.016  1.00  0.00    -0.277 A  
HETATM    8  N   UNL     1     -12.302  14.269  70.405  1.00  0.00    -0.333 NA 
HETATM    9  C   UNL     1     -13.375  13.201  72.363  1.00  0.00    -0.591 C  
HETATM   10  C   UNL     1     -11.788  13.854  69.210  1.00  0.00    -0.348 A  
HETATM   11  C   UNL     1     -11.915  12.495  69.085  1.00  0.00    -0.236 A  
HETATM   12  N   UNL     1     -11.504  11.699  67.977  1.00  0.00    -0.299 N  
HETATM   13  O   UNL     1     -11.073  12.308  66.991  1.00  0.00    -0.258 OA 
HETATM   14  O   UNL     1     -11.613  10.469  68.064  1.00  0.00    -0.442 OA 
ENDBRANCH   5   6
ENDBRANCH   2   5
TORSDOF 2
ENDMDL
MODEL       65
REMARK 921   NORMALIZED FREE ENERGY PREDICTED BY IDOCK:   -4.04 KCAL/MOL
REMARK 922        TOTAL FREE ENERGY PREDICTED BY IDOCK:   -4.47 KCAL/MOL
REMARK 923 INTER-LIGAND FREE ENERGY PREDICTED BY IDOCK:   -4.32 KCAL/MOL
REMARK 924 INTRA-LIGAND FREE ENERGY PREDICTED BY IDOCK:   -0.15 KCAL/MOL
REMARK 927      BINDING AFFINITY PREDICTED BY RF-SCORE:    0.00 PKD
ROOT
HETATM    1  C   UNL     1     -10.181  20.056  65.905  1.00  0.00    -0.527 C  
HETATM    2  C   UNL     1     -10.404  18.658  66.469  1.00  0.00    -0.421 C  
HETATM    3  H   UNL     1      -9.630  16.897  66.181  1.00  0.00     0.000 HD 
HETATM    4  O   UNL     1      -9.492  17.768  65.829  1.00  0.00    -0.518 OA 
ENDROOT
BRANCH   2   5
HETATM    5  C   UNL     1     -10.230  18.649  67.994  1.00  0.00    -0.385 C  
BRANCH   5   6
HETATM    6  N   UNL     1      -9.200  17.728  68.451  1.00  0.00    -0.280 NA 
HETATM    7  C   UNL     1      -7.857  18.046  68.609  1.00  0.00    -0.290 A  
HETATM    8  N   UNL     1      -7.167  16.992  69.005  1.00  0.00    -0.236 NA 
HETATM    9  C   UNL     1      -7.250  19.387  68.385  1.00  0.00    -0.345 C  
HETATM   10  C   UNL     1      -8.061  15.964  69.103  1.00  0.00    -0.239 A  
HETATM   11  C   UNL     1      -9.317  16.394  68.762  1.00  0.00    -0.245 A  
HETATM   12  N   UNL     1     -10.507  15.610  68.735  1.00  0.00    -0.218 N  
HETATM   13  O   UNL     1     -10.375  14.400  68.953  1.00  0.00    -0.236 OA 
HETATM   14  O   UNL     1     -11.579  16.177  68.489  1.00  0.00    -0.377 OA 
ENDBRANCH   5   6
ENDBRANCH   2   5
TORSDOF 2
ENDMDL
MODEL       66
REMARK 921   NORMALIZED FREE ENERGY PREDICTED BY IDOCK:   -4.00 KCAL/MOL
REMARK 922        TOTAL FREE ENERGY PREDICTED BY IDOCK:   -4.42 KCAL/MOL
REMARK 923 INTER-LIGAND FREE ENERGY PREDICTED BY IDOCK:   -4.36 KCAL/MOL
REMARK 924 INTRA-LIGAND FREE ENERGY PREDICTED BY IDOCK:   -0.07 KCAL/MOL
REMARK 927      BINDING AFFINITY PREDICTED BY RF-SCORE:    0.00 PKD
ROOT
HETATM    1  C   UNL     1     -12.641  11.972  63.240  1.00  0.00    -0.512 C  
HETATM    2  C   UNL     1     -11.976  13.026  64.117  1.00  0.00    -0.427 C  
HETATM    3  H   UNL     1     -12.229  14.926  64.450  1.00  0.00     0.000 HD 
HETATM    4  O   UNL     1     -12.643  14.269  63.902  1.00  0.00    -0.787 OA 
ENDROOT
BRANCH   2   5
HETATM    5  C   UNL     1     -12.011  12.611  65.594  1.00  0.00    -0.452 C  
BRANCH   5   6
HETATM    6  N   UNL     1     -10.781  12.918  66.308  1.00  0.00    -0.272 NA 
HETATM    7  C   UNL     1     -10.586  14.025  67.125  1.00  0.00    -0.274 A  
HETATM    8  N   UNL     1      -9.356  14.045  67.605  1.00  0.00    -0.197 NA 
HETATM    9  C   UNL     1     -11.609  15.057  67.447  1.00  0.00    -0.304 C  
HETATM   10  C   UNL     1      -8.728  12.945  67.095  1.00  0.00    -0.205 A  
HETATM   11  C   UNL     1      -9.585  12.240  66.290  1.00  0.00    -0.242 A  
HETATM   12  N   UNL     1      -9.292  11.041  65.577  1.00  0.00    -0.209 N  
HETATM   13  O   UNL     1      -8.120  10.650  65.616  1.00  0.00    -0.160 OA 
HETATM   14  O   UNL     1     -10.210  10.483  64.964  1.00  0.00    -0.315 OA 
ENDBRANCH   5   6
ENDBRANCH   2   5
TORSDOF 2
ENDMDL
MODEL       67
REMARK 921   NORMALIZED FREE ENERGY PREDICTED BY IDOCK:   -3.99 KCAL/MOL
REMARK 922        TOTAL FREE ENERGY PREDICTED BY IDOCK:   -4.41 KCAL/MOL
REMARK 923 INTER-LIGAND FREE ENERGY PREDICTED BY IDOCK:   -4.21 KCAL/MOL
REMARK 924 INTRA-LIGAND FREE ENERGY PREDICTED BY IDOCK:   -0.21 KCAL/MOL
REMARK 927      BINDING AFFINITY PREDICTED BY RF-SCORE:    0.00 PKD
ROOT
HETATM    1  C   UNL     1     -10.535  19.847  66.146  1.00  0.00    -0.581 C  
HETATM    2  C   UNL     1     -10.387  18.368  66.485  1.00  0.00    -0.400 C  
HETATM    3  H   UNL     1      -9.117  16.958  66.055  1.00  0.00     0.000 HD 
HETATM    4  O   UNL     1      -9.210  17.880  65.844  1.00  0.00    -0.519 OA 
ENDROOT
BRANCH   2   5
HETATM    5  C   UNL     1     -10.334  18.156  68.005  1.00  0.00    -0.391 C  
BRANCH   5   6
HETATM    6  N   UNL     1      -9.567  16.983  68.397  1.00  0.00    -0.267 NA 
HETATM    7  C   UNL     1     -10.063  15.687  68.451  1.00  0.00    -0.214 A  
HETATM    8  N   UNL     1      -9.135  14.847  68.874  1.00  0.00    -0.194 NA 
HETATM    9  C   UNL     1     -11.440  15.267  68.077  1.00  0.00    -0.351 C  
HETATM   10  C   UNL     1      -8.018  15.596  69.108  1.00  0.00    -0.227 A  
HETATM   11  C   UNL     1      -8.262  16.915  68.826  1.00  0.00    -0.244 A  
HETATM   12  N   UNL     1      -7.345  17.998  68.953  1.00  0.00    -0.268 N  
HETATM   13  O   UNL     1      -6.247  17.733  69.456  1.00  0.00    -0.238 OA 
HETATM   14  O   UNL     1      -7.703  19.118  68.569  1.00  0.00    -0.313 OA 
ENDBRANCH   5   6
ENDBRANCH   2   5
TORSDOF 2
ENDMDL
MODEL       68
REMARK 921   NORMALIZED FREE ENERGY PREDICTED BY IDOCK:   -3.97 KCAL/MOL
REMARK 922        TOTAL FREE ENERGY PREDICTED BY IDOCK:   -4.40 KCAL/MOL
REMARK 923 INTER-LIGAND FREE ENERGY PREDICTED BY IDOCK:   -4.27 KCAL/MOL
REMARK 924 INTRA-LIGAND FREE ENERGY PREDICTED BY IDOCK:   -0.13 KCAL/MOL
REMARK 927      BINDING AFFINITY PREDICTED BY RF-SCORE:    0.00 PKD
ROOT
HETATM    1  C   UNL     1     -10.467  14.013  68.418  1.00  0.00    -0.254 C  
HETATM    2  C   UNL     1     -10.891  15.198  67.558  1.00  0.00    -0.301 C  
HETATM    3  H   UNL     1     -11.745  16.917  67.875  1.00  0.00     0.000 HD 
HETATM    4  O   UNL     1     -11.480  16.178  68.411  1.00  0.00    -0.369 OA 
ENDROOT
BRANCH   2   5
HETATM    5  C   UNL     1      -9.696  15.766  66.781  1.00  0.00    -0.238 C  
BRANCH   5   6
HETATM    6  N   UNL     1      -9.283  17.084  67.241  1.00  0.00    -0.219 NA 
HETATM    7  C   UNL     1      -8.456  17.327  68.330  1.00  0.00    -0.254 A  
HETATM    8  N   UNL     1      -8.291  18.624  68.516  1.00  0.00    -0.335 NA 
HETATM    9  C   UNL     1      -7.813  16.289  69.181  1.00  0.00    -0.231 C  
HETATM   10  C   UNL     1      -9.024  19.246  67.545  1.00  0.00    -0.298 A  
HETATM   11  C   UNL     1      -9.646  18.317  66.752  1.00  0.00    -0.299 A  
HETATM   12  N   UNL     1     -10.501  18.580  65.643  1.00  0.00    -0.260 N  
HETATM   13  O   UNL     1     -10.781  19.766  65.432  1.00  0.00    -0.432 OA 
HETATM   14  O   UNL     1     -10.912  17.621  64.977  1.00  0.00    -0.780 OA 
ENDBRANCH   5   6
ENDBRANCH   2   5
TORSDOF 2
ENDMDL
MODEL       69
REMARK 921   NORMALIZED FREE ENERGY PREDICTED BY IDOCK:   -3.97 KCAL/MOL
REMARK 922        TOTAL FREE ENERGY PREDICTED BY IDOCK:   -4.40 KCAL/MOL
REMARK 923 INTER-LIGAND FREE ENERGY PREDICTED BY IDOCK:   -4.15 KCAL/MOL
REMARK 924 INTRA-LIGAND FREE ENERGY PREDICTED BY IDOCK:   -0.25 KCAL/MOL
REMARK 927      BINDING AFFINITY PREDICTED BY RF-SCORE:    0.00 PKD
ROOT
HETATM    1  C   UNL     1     -10.752   9.071  69.694  1.00  0.00    -0.228 C  
HETATM    2  C   UNL     1     -10.667  10.590  69.787  1.00  0.00    -0.264 C  
HETATM    3  H   UNL     1      -9.603  11.982  68.941  1.00  0.00     0.000 HD 
HETATM    4  O   UNL     1      -9.657  11.035  68.883  1.00  0.00    -0.196 OA 
ENDROOT
BRANCH   2   5
HETATM    5  C   UNL     1     -12.026  11.235  69.481  1.00  0.00    -0.351 C  
BRANCH   5   6
HETATM    6  N   UNL     1     -12.508  12.096  70.550  1.00  0.00    -0.248 NA 
HETATM    7  C   UNL     1     -13.134  11.656  71.709  1.00  0.00    -0.382 A  
HETATM    8  N   UNL     1     -13.485  12.676  72.471  1.00  0.00    -0.398 NA 
HETATM    9  C   UNL     1     -13.377  10.235  72.079  1.00  0.00    -0.466 C  
HETATM   10  C   UNL     1     -13.094  13.803  71.806  1.00  0.00    -0.379 A  
HETATM   11  C   UNL     1     -12.495  13.469  70.619  1.00  0.00    -0.333 A  
HETATM   12  N   UNL     1     -11.964  14.369  69.650  1.00  0.00    -0.317 N  
HETATM   13  O   UNL     1     -12.146  15.574  69.860  1.00  0.00    -0.341 OA 
HETATM   14  O   UNL     1     -11.375  13.897  68.670  1.00  0.00    -0.245 OA 
ENDBRANCH   5   6
ENDBRANCH   2   5
TORSDOF 2
ENDMDL
MODEL       70
REMARK 921   NORMALIZED FREE ENERGY PREDICTED BY IDOCK:   -3.97 KCAL/MOL
REMARK 922        TOTAL FREE ENERGY PREDICTED BY IDOCK:   -4.39 KCAL/MOL
REMARK 923 INTER-LIGAND FREE ENERGY PREDICTED BY IDOCK:   -4.25 KCAL/MOL
REMARK 924 INTRA-LIGAND FREE ENERGY PREDICTED BY IDOCK:   -0.13 KCAL/MOL
REMARK 927      BINDING AFFINITY PREDICTED BY RF-SCORE:    0.00 PKD
ROOT
HETATM    1  C   UNL     1     -11.521   6.367  70.364  1.00  0.00    -0.458 C  
HETATM    2  C   UNL     1     -11.899   6.581  71.825  1.00  0.00    -0.335 C  
HETATM    3  H   UNL     1     -11.693   5.581  73.481  1.00  0.00     0.000 HD 
HETATM    4  O   UNL     1     -11.458   5.447  72.570  1.00  0.00    -0.259 OA 
ENDROOT
BRANCH   2   5
HETATM    5  C   UNL     1     -11.291   7.884  72.363  1.00  0.00    -0.369 C  
BRANCH   5   6
HETATM    6  N   UNL     1     -11.695   9.062  71.609  1.00  0.00    -0.335 NA 
HETATM    7  C   UNL     1     -12.968   9.618  71.619  1.00  0.00    -0.407 A  
HETATM    8  N   UNL     1     -13.032  10.660  70.810  1.00  0.00    -0.350 NA 
HETATM    9  C   UNL     1     -14.119   9.139  72.430  1.00  0.00    -0.434 C  
HETATM   10  C   UNL     1     -11.791  10.790  70.254  1.00  0.00    -0.349 A  
HETATM   11  C   UNL     1     -10.954   9.814  70.729  1.00  0.00    -0.336 A  
HETATM   12  N   UNL     1      -9.587   9.619  70.377  1.00  0.00    -0.259 N  
HETATM   13  O   UNL     1      -9.139  10.348  69.484  1.00  0.00    -0.183 OA 
HETATM   14  O   UNL     1      -8.948   8.739  70.967  1.00  0.00    -0.177 OA 
ENDBRANCH   5   6
ENDBRANCH   2   5
TORSDOF 2
ENDMDL
MODEL       71
REMARK 921   NORMALIZED FREE ENERGY PREDICTED BY IDOCK:   -3.95 KCAL/MOL
REMARK 922        TOTAL FREE ENERGY PREDICTED BY IDOCK:   -4.37 KCAL/MOL
REMARK 923 INTER-LIGAND FREE ENERGY PREDICTED BY IDOCK:   -4.31 KCAL/MOL
REMARK 924 INTRA-LIGAND FREE ENERGY PREDICTED BY IDOCK:   -0.07 KCAL/MOL
REMARK 927      BINDING AFFINITY PREDICTED BY RF-SCORE:    0.00 PKD
ROOT
HETATM    1  C   UNL     1      -7.365  18.630  68.848  1.00  0.00    -0.301 C  
HETATM    2  C   UNL     1      -8.156  17.418  68.370  1.00  0.00    -0.264 C  
HETATM    3  H   UNL     1      -8.317  15.556  68.910  1.00  0.00     0.000 HD 
HETATM    4  O   UNL     1      -7.824  16.312  69.208  1.00  0.00    -0.238 OA 
ENDROOT
BRANCH   2   5
HETATM    5  C   UNL     1      -9.663  17.707  68.383  1.00  0.00    -0.321 C  
BRANCH   5   6
HETATM    6  N   UNL     1     -10.480  16.517  68.198  1.00  0.00    -0.298 NA 
HETATM    7  C   UNL     1     -11.112  15.816  69.217  1.00  0.00    -0.297 A  
HETATM    8  N   UNL     1     -11.750  14.763  68.738  1.00  0.00    -0.317 NA 
HETATM    9  C   UNL     1     -11.104  16.184  70.659  1.00  0.00    -0.318 C  
HETATM   10  C   UNL     1     -11.532  14.763  67.390  1.00  0.00    -0.363 A  
HETATM   11  C   UNL     1     -10.748  15.831  67.037  1.00  0.00    -0.306 A  
HETATM   12  N   UNL     1     -10.301  16.162  65.725  1.00  0.00    -0.362 N  
HETATM   13  O   UNL     1     -10.573  15.353  64.830  1.00  0.00    -0.392 OA 
HETATM   14  O   UNL     1      -9.671  17.215  65.567  1.00  0.00    -0.532 OA 
ENDBRANCH   5   6
ENDBRANCH   2   5
TORSDOF 2
ENDMDL
MODEL       72
REMARK 921   NORMALIZED FREE ENERGY PREDICTED BY IDOCK:   -3.95 KCAL/MOL
REMARK 922        TOTAL FREE ENERGY PREDICTED BY IDOCK:   -4.37 KCAL/MOL
REMARK 923 INTER-LIGAND FREE ENERGY PREDICTED BY IDOCK:   -4.24 KCAL/MOL
REMARK 924 INTRA-LIGAND FREE ENERGY PREDICTED BY IDOCK:   -0.13 KCAL/MOL
REMARK 927      BINDING AFFINITY PREDICTED BY RF-SCORE:    0.00 PKD
ROOT
HETATM    1  C   UNL     1     -10.193   8.993  67.630  1.00  0.00    -0.300 C  
HETATM    2  C   UNL     1     -11.132  10.098  67.163  1.00  0.00    -0.050 C  
HETATM    3  H   UNL     1     -12.311  11.385  68.023  1.00  0.00     0.000 HD 
HETATM    4  O   UNL     1     -11.725  10.695  68.314  1.00  0.00    -0.445 OA 
ENDROOT
BRANCH   2   5
HETATM    5  C   UNL     1     -10.382  11.131  66.310  1.00  0.00    -0.249 C  
BRANCH   5   6
HETATM    6  N   UNL     1     -10.557  12.499  66.776  1.00  0.00    -0.232 NA 
HETATM    7  C   UNL     1      -9.733  13.142  67.691  1.00  0.00    -0.213 A  
HETATM    8  N   UNL     1     -10.169  14.364  67.938  1.00  0.00    -0.230 NA 
HETATM    9  C   UNL     1      -8.510  12.566  68.313  1.00  0.00    -0.165 C  
HETATM   10  C   UNL     1     -11.296  14.529  67.185  1.00  0.00    -0.350 A  
HETATM   11  C   UNL     1     -11.556  13.391  66.466  1.00  0.00    -0.357 A  
HETATM   12  N   UNL     1     -12.647  13.177  65.575  1.00  0.00    -0.462 N  
HETATM   13  O   UNL     1     -13.494  14.077  65.515  1.00  0.00    -0.677 OA 
HETATM   14  O   UNL     1     -12.685  12.119  64.935  1.00  0.00    -0.508 OA 
ENDBRANCH   5   6
ENDBRANCH   2   5
TORSDOF 2
ENDMDL
MODEL       73
REMARK 921   NORMALIZED FREE ENERGY PREDICTED BY IDOCK:   -3.94 KCAL/MOL
REMARK 922        TOTAL FREE ENERGY PREDICTED BY IDOCK:   -4.35 KCAL/MOL
REMARK 923 INTER-LIGAND FREE ENERGY PREDICTED BY IDOCK:   -4.14 KCAL/MOL
REMARK 924 INTRA-LIGAND FREE ENERGY PREDICTED BY IDOCK:   -0.21 KCAL/MOL
REMARK 927      BINDING AFFINITY PREDICTED BY RF-SCORE:    0.00 PKD
ROOT
HETATM    1  C   UNL     1     -10.514  17.488  68.335  1.00  0.00    -0.372 C  
HETATM    2  C   UNL     1     -10.320  15.984  68.485  1.00  0.00    -0.241 C  
HETATM    3  H   UNL     1      -9.673  14.793  69.880  1.00  0.00     0.000 HD 
HETATM    4  O   UNL     1      -9.794  15.731  69.786  1.00  0.00    -0.273 OA 
ENDROOT
BRANCH   2   5
HETATM    5  C   UNL     1     -11.639  15.235  68.251  1.00  0.00    -0.341 C  
BRANCH   5   6
HETATM    6  N   UNL     1     -11.711  13.962  68.952  1.00  0.00    -0.314 NA 
HETATM    7  C   UNL     1     -11.132  12.776  68.516  1.00  0.00    -0.266 A  
HETATM    8  N   UNL     1     -11.400  11.788  69.351  1.00  0.00    -0.271 NA 
HETATM    9  C   UNL     1     -10.306  12.613  67.290  1.00  0.00    -0.230 C  
HETATM   10  C   UNL     1     -12.169  12.323  70.345  1.00  0.00    -0.288 A  
HETATM   11  C   UNL     1     -12.377  13.659  70.117  1.00  0.00    -0.304 A  
HETATM   12  N   UNL     1     -13.134  14.554  70.927  1.00  0.00    -0.361 N  
HETATM   13  O   UNL     1     -13.740  14.054  71.882  1.00  0.00    -0.384 OA 
HETATM   14  O   UNL     1     -13.147  15.753  70.623  1.00  0.00    -0.497 OA 
ENDBRANCH   5   6
ENDBRANCH   2   5
TORSDOF 2
ENDMDL
MODEL       74
REMARK 921   NORMALIZED FREE ENERGY PREDICTED BY IDOCK:   -3.94 KCAL/MOL
REMARK 922        TOTAL FREE ENERGY PREDICTED BY IDOCK:   -4.35 KCAL/MOL
REMARK 923 INTER-LIGAND FREE ENERGY PREDICTED BY IDOCK:   -4.14 KCAL/MOL
REMARK 924 INTRA-LIGAND FREE ENERGY PREDICTED BY IDOCK:   -0.22 KCAL/MOL
REMARK 927      BINDING AFFINITY PREDICTED BY RF-SCORE:    0.00 PKD
ROOT
HETATM    1  C   UNL     1     -10.985  10.669  68.823  1.00  0.00    -0.292 C  
HETATM    2  C   UNL     1     -10.478  11.342  67.553  1.00  0.00    -0.201 C  
HETATM    3  H   UNL     1      -9.477  10.782  65.982  1.00  0.00     0.000 HD 
HETATM    4  O   UNL     1      -9.793  10.363  66.774  1.00  0.00    -0.181 OA 
ENDROOT
BRANCH   2   5
HETATM    5  C   UNL     1     -11.636  11.980  66.771  1.00  0.00    -0.321 C  
BRANCH   5   6
HETATM    6  N   UNL     1     -11.306  13.285  66.218  1.00  0.00    -0.301 NA 
HETATM    7  C   UNL     1     -10.789  13.507  64.948  1.00  0.00    -0.362 A  
HETATM    8  N   UNL     1     -10.565  14.793  64.750  1.00  0.00    -0.388 NA 
HETATM    9  C   UNL     1     -10.528  12.462  63.922  1.00  0.00    -0.469 C  
HETATM   10  C   UNL     1     -10.930  15.428  65.903  1.00  0.00    -0.293 A  
HETATM   11  C   UNL     1     -11.385  14.518  66.822  1.00  0.00    -0.352 A  
HETATM   12  N   UNL     1     -11.846  14.797  68.141  1.00  0.00    -0.315 N  
HETATM   13  O   UNL     1     -11.738  15.968  68.526  1.00  0.00    -0.375 OA 
HETATM   14  O   UNL     1     -12.307  13.866  68.812  1.00  0.00    -0.288 OA 
ENDBRANCH   5   6
ENDBRANCH   2   5
TORSDOF 2
ENDMDL
MODEL       75
REMARK 921   NORMALIZED FREE ENERGY PREDICTED BY IDOCK:   -3.92 KCAL/MOL
REMARK 922        TOTAL FREE ENERGY PREDICTED BY IDOCK:   -4.34 KCAL/MOL
REMARK 923 INTER-LIGAND FREE ENERGY PREDICTED BY IDOCK:   -4.14 KCAL/MOL
REMARK 924 INTRA-LIGAND FREE ENERGY PREDICTED BY IDOCK:   -0.20 KCAL/MOL
REMARK 927      BINDING AFFINITY PREDICTED BY RF-SCORE:    0.00 PKD
ROOT
HETATM    1  C   UNL     1      -7.092  20.694  67.818  1.00  0.00    -0.325 C  
HETATM    2  C   UNL     1      -7.298  19.312  68.425  1.00  0.00    -0.305 C  
HETATM    3  H   UNL     1      -6.725  18.400  70.045  1.00  0.00     0.000 HD 
HETATM    4  O   UNL     1      -6.597  19.262  69.666  1.00  0.00    -0.296 OA 
ENDROOT
BRANCH   2   5
HETATM    5  C   UNL     1      -8.792  19.008  68.605  1.00  0.00    -0.352 C  
BRANCH   5   6
HETATM    6  N   UNL     1      -9.276  17.956  67.724  1.00  0.00    -0.255 NA 
HETATM    7  C   UNL     1      -9.027  16.599  67.888  1.00  0.00    -0.217 A  
HETATM    8  N   UNL     1      -9.572  15.899  66.910  1.00  0.00    -0.224 NA 
HETATM    9  C   UNL     1      -8.267  15.986  69.011  1.00  0.00    -0.235 C  
HETATM   10  C   UNL     1     -10.181  16.802  66.086  1.00  0.00    -0.351 A  
HETATM   11  C   UNL     1     -10.008  18.075  66.565  1.00  0.00    -0.371 A  
HETATM   12  N   UNL     1     -10.490  19.279  65.978  1.00  0.00    -0.492 N  
HETATM   13  O   UNL     1     -11.042  19.173  64.876  1.00  0.00    -0.303 OA 
HETATM   14  O   UNL     1     -10.319  20.341  66.590  1.00  0.00    -0.418 OA 
ENDBRANCH   5   6
ENDBRANCH   2   5
TORSDOF 2
ENDMDL
MODEL       76
REMARK 921   NORMALIZED FREE ENERGY PREDICTED BY IDOCK:   -3.90 KCAL/MOL
REMARK 922        TOTAL FREE ENERGY PREDICTED BY IDOCK:   -4.31 KCAL/MOL
REMARK 923 INTER-LIGAND FREE ENERGY PREDICTED BY IDOCK:   -4.10 KCAL/MOL
REMARK 924 INTRA-LIGAND FREE ENERGY PREDICTED BY IDOCK:   -0.21 KCAL/MOL
REMARK 927      BINDING AFFINITY PREDICTED BY RF-SCORE:    0.00 PKD
ROOT
HETATM    1  C   UNL     1      -6.034  20.620  65.242  1.00  0.00    -0.274 C  
HETATM    2  C   UNL     1      -7.311  19.875  65.612  1.00  0.00    -0.296 C  
HETATM    3  H   UNL     1      -7.911  18.026  65.566  1.00  0.00     0.000 HD 
HETATM    4  O   UNL     1      -7.115  18.490  65.334  1.00  0.00    -0.530 OA 
ENDROOT
BRANCH   2   5
HETATM    5  C   UNL     1      -7.677  20.113  67.084  1.00  0.00    -0.308 C  
BRANCH   5   6
HETATM    6  N   UNL     1      -8.424  19.013  67.676  1.00  0.00    -0.284 NA 
HETATM    7  C   UNL     1      -9.792  18.811  67.537  1.00  0.00    -0.320 A  
HETATM    8  N   UNL     1     -10.181  17.748  68.218  1.00  0.00    -0.361 NA 
HETATM    9  C   UNL     1     -10.716  19.649  66.727  1.00  0.00    -0.562 C  
HETATM   10  C   UNL     1      -9.062  17.247  68.820  1.00  0.00    -0.232 A  
HETATM   11  C   UNL     1      -7.970  18.013  68.504  1.00  0.00    -0.303 A  
HETATM   12  N   UNL     1      -6.631  17.812  68.947  1.00  0.00    -0.220 N  
HETATM   13  O   UNL     1      -6.454  16.908  69.772  1.00  0.00    -0.224 OA 
HETATM   14  O   UNL     1      -5.745  18.547  68.494  1.00  0.00    -0.184 OA 
ENDBRANCH   5   6
ENDBRANCH   2   5
TORSDOF 2
ENDMDL
MODEL       77
REMARK 921   NORMALIZED FREE ENERGY PREDICTED BY IDOCK:   -3.88 KCAL/MOL
REMARK 922        TOTAL FREE ENERGY PREDICTED BY IDOCK:   -4.29 KCAL/MOL
REMARK 923 INTER-LIGAND FREE ENERGY PREDICTED BY IDOCK:   -4.14 KCAL/MOL
REMARK 924 INTRA-LIGAND FREE ENERGY PREDICTED BY IDOCK:   -0.16 KCAL/MOL
REMARK 927      BINDING AFFINITY PREDICTED BY RF-SCORE:    0.00 PKD
ROOT
HETATM    1  C   UNL     1     -12.535  11.966  63.349  1.00  0.00    -0.582 C  
HETATM    2  C   UNL     1     -11.363  11.883  64.321  1.00  0.00    -0.353 C  
HETATM    3  H   UNL     1      -9.459  12.274  64.247  1.00  0.00     0.000 HD 
HETATM    4  O   UNL     1     -10.190  12.325  63.641  1.00  0.00    -0.416 OA 
ENDROOT
BRANCH   2   5
HETATM    5  C   UNL     1     -11.637  12.715  65.581  1.00  0.00    -0.377 C  
BRANCH   5   6
HETATM    6  N   UNL     1     -10.819  13.915  65.668  1.00  0.00    -0.287 NA 
HETATM    7  C   UNL     1     -11.131  15.138  65.087  1.00  0.00    -0.403 A  
HETATM    8  N   UNL     1     -10.178  16.024  65.315  1.00  0.00    -0.520 NA 
HETATM    9  C   UNL     1     -12.369  15.445  64.320  1.00  0.00    -0.077 C  
HETATM   10  C   UNL     1      -9.223  15.379  66.047  1.00  0.00    -0.298 A  
HETATM   11  C   UNL     1      -9.594  14.078  66.272  1.00  0.00    -0.265 A  
HETATM   12  N   UNL     1      -8.856  13.093  66.988  1.00  0.00    -0.219 N  
HETATM   13  O   UNL     1      -7.725  13.419  67.367  1.00  0.00    -0.161 OA 
HETATM   14  O   UNL     1      -9.379  11.987  67.175  1.00  0.00    -0.179 OA 
ENDBRANCH   5   6
ENDBRANCH   2   5
TORSDOF 2
ENDMDL
MODEL       78
REMARK 921   NORMALIZED FREE ENERGY PREDICTED BY IDOCK:   -3.87 KCAL/MOL
REMARK 922        TOTAL FREE ENERGY PREDICTED BY IDOCK:   -4.28 KCAL/MOL
REMARK 923 INTER-LIGAND FREE ENERGY PREDICTED BY IDOCK:   -4.05 KCAL/MOL
REMARK 924 INTRA-LIGAND FREE ENERGY PREDICTED BY IDOCK:   -0.23 KCAL/MOL
REMARK 927      BINDING AFFINITY PREDICTED BY RF-SCORE:    0.00 PKD
ROOT
HETATM    1  C   UNL     1     -10.893   5.902  70.160  1.00  0.00    -0.402 C  
HETATM    2  C   UNL     1     -11.763   7.077  70.589  1.00  0.00    -0.338 C  
HETATM    3  H   UNL     1     -13.257   7.336  71.808  1.00  0.00     0.000 HD 
HETATM    4  O   UNL     1     -12.715   6.603  71.540  1.00  0.00    -0.323 OA 
ENDROOT
BRANCH   2   5
HETATM    5  C   UNL     1     -10.906   8.214  71.163  1.00  0.00    -0.232 C  
BRANCH   5   6
HETATM    6  N   UNL     1     -11.109   9.487  70.487  1.00  0.00    -0.261 NA 
HETATM    7  C   UNL     1     -10.443   9.898  69.340  1.00  0.00    -0.231 A  
HETATM    8  N   UNL     1     -10.821  11.113  68.987  1.00  0.00    -0.218 NA 
HETATM    9  C   UNL     1      -9.446   9.096  68.581  1.00  0.00    -0.145 C  
HETATM   10  C   UNL     1     -11.741  11.513  69.914  1.00  0.00    -0.343 A  
HETATM   11  C   UNL     1     -11.930  10.529  70.849  1.00  0.00    -0.377 A  
HETATM   12  N   UNL     1     -12.804  10.579  71.973  1.00  0.00    -0.392 N  
HETATM   13  O   UNL     1     -13.380  11.655  72.175  1.00  0.00    -0.491 OA 
HETATM   14  O   UNL     1     -12.922   9.565  72.673  1.00  0.00    -0.294 OA 
ENDBRANCH   5   6
ENDBRANCH   2   5
TORSDOF 2
ENDMDL
MODEL       79
REMARK 921   NORMALIZED FREE ENERGY PREDICTED BY IDOCK:   -3.86 KCAL/MOL
REMARK 922        TOTAL FREE ENERGY PREDICTED BY IDOCK:   -4.27 KCAL/MOL
REMARK 923 INTER-LIGAND FREE ENERGY PREDICTED BY IDOCK:   -4.03 KCAL/MOL
REMARK 924 INTRA-LIGAND FREE ENERGY PREDICTED BY IDOCK:   -0.23 KCAL/MOL
REMARK 927      BINDING AFFINITY PREDICTED BY RF-SCORE:    0.00 PKD
ROOT
HETATM    1  C   UNL     1      -6.445  21.085  67.333  1.00  0.00    -0.427 C  
HETATM    2  C   UNL     1      -6.569  19.590  67.601  1.00  0.00    -0.218 C  
HETATM    3  H   UNL     1      -5.345  18.148  68.056  1.00  0.00     0.000 HD 
HETATM    4  O   UNL     1      -5.268  19.080  67.889  1.00  0.00    -0.167 OA 
ENDROOT
BRANCH   2   5
HETATM    5  C   UNL     1      -7.551  19.318  68.749  1.00  0.00    -0.358 C  
BRANCH   5   6
HETATM    6  N   UNL     1      -8.702  18.523  68.347  1.00  0.00    -0.320 NA 
HETATM    7  C   UNL     1      -9.828  19.017  67.700  1.00  0.00    -0.332 A  
HETATM    8  N   UNL     1     -10.712  18.058  67.498  1.00  0.00    -0.388 NA 
HETATM    9  C   UNL     1     -10.033  20.426  67.268  1.00  0.00    -0.564 C  
HETATM   10  C   UNL     1     -10.170  16.919  68.022  1.00  0.00    -0.310 A  
HETATM   11  C   UNL     1      -8.935  17.184  68.554  1.00  0.00    -0.265 A  
HETATM   12  N   UNL     1      -8.066  16.254  69.194  1.00  0.00    -0.235 N  
HETATM   13  O   UNL     1      -8.512  15.113  69.369  1.00  0.00    -0.225 OA 
HETATM   14  O   UNL     1      -6.943  16.640  69.541  1.00  0.00    -0.225 OA 
ENDBRANCH   5   6
ENDBRANCH   2   5
TORSDOF 2
ENDMDL
MODEL       80
REMARK 921   NORMALIZED FREE ENERGY PREDICTED BY IDOCK:   -3.86 KCAL/MOL
REMARK 922        TOTAL FREE ENERGY PREDICTED BY IDOCK:   -4.27 KCAL/MOL
REMARK 923 INTER-LIGAND FREE ENERGY PREDICTED BY IDOCK:   -4.10 KCAL/MOL
REMARK 924 INTRA-LIGAND FREE ENERGY PREDICTED BY IDOCK:   -0.16 KCAL/MOL
REMARK 927      BINDING AFFINITY PREDICTED BY RF-SCORE:    0.00 PKD
ROOT
HETATM    1  C   UNL     1      -7.652  14.850  67.206  1.00  0.00    -0.213 C  
HETATM    2  C   UNL     1      -7.293  16.328  67.099  1.00  0.00    -0.209 C  
HETATM    3  H   UNL     1      -7.606  17.750  65.809  1.00  0.00     0.000 HD 
HETATM    4  O   UNL     1      -7.830  16.828  65.876  1.00  0.00    -0.324 OA 
ENDROOT
BRANCH   2   5
HETATM    5  C   UNL     1      -7.818  17.109  68.311  1.00  0.00    -0.227 C  
BRANCH   5   6
HETATM    6  N   UNL     1      -8.798  18.127  67.960  1.00  0.00    -0.273 NA 
HETATM    7  C   UNL     1     -10.165  17.911  67.841  1.00  0.00    -0.371 A  
HETATM    8  N   UNL     1     -10.786  19.020  67.479  1.00  0.00    -0.463 NA 
HETATM    9  C   UNL     1     -10.867  16.624  68.094  1.00  0.00    -0.348 C  
HETATM   10  C   UNL     1      -9.819  19.976  67.351  1.00  0.00    -0.422 A  
HETATM   11  C   UNL     1      -8.587  19.447  67.638  1.00  0.00    -0.305 A  
HETATM   12  N   UNL     1      -7.338  20.130  67.606  1.00  0.00    -0.283 N  
HETATM   13  O   UNL     1      -7.358  21.295  67.189  1.00  0.00    -0.454 OA 
HETATM   14  O   UNL     1      -6.326  19.524  67.981  1.00  0.00    -0.212 OA 
ENDBRANCH   5   6
ENDBRANCH   2   5
TORSDOF 2
ENDMDL
MODEL       81
REMARK 921   NORMALIZED FREE ENERGY PREDICTED BY IDOCK:   -3.83 KCAL/MOL
REMARK 922        TOTAL FREE ENERGY PREDICTED BY IDOCK:   -4.24 KCAL/MOL
REMARK 923 INTER-LIGAND FREE ENERGY PREDICTED BY IDOCK:   -4.09 KCAL/MOL
REMARK 924 INTRA-LIGAND FREE ENERGY PREDICTED BY IDOCK:   -0.14 KCAL/MOL
REMARK 927      BINDING AFFINITY PREDICTED BY RF-SCORE:    0.00 PKD
ROOT
HETATM    1  C   UNL     1     -14.306   7.123  71.717  1.00  0.00    -0.515 C  
HETATM    2  C   UNL     1     -13.739   8.537  71.706  1.00  0.00    -0.407 C  
HETATM    3  H   UNL     1     -14.026  10.164  72.734  1.00  0.00     0.000 HD 
HETATM    4  O   UNL     1     -14.380   9.282  72.740  1.00  0.00    -0.496 OA 
ENDROOT
BRANCH   2   5
HETATM    5  C   UNL     1     -12.214   8.518  71.883  1.00  0.00    -0.352 C  
BRANCH   5   6
HETATM    6  N   UNL     1     -11.488   8.561  70.623  1.00  0.00    -0.260 NA 
HETATM    7  C   UNL     1     -11.298   9.699  69.849  1.00  0.00    -0.159 A  
HETATM    8  N   UNL     1     -10.628   9.412  68.748  1.00  0.00    -0.222 NA 
HETATM    9  C   UNL     1     -11.760  11.071  70.193  1.00  0.00    -0.442 C  
HETATM   10  C   UNL     1     -10.378   8.070  68.790  1.00  0.00    -0.206 A  
HETATM   11  C   UNL     1     -10.903   7.525  69.933  1.00  0.00    -0.240 A  
HETATM   12  N   UNL     1     -10.851   6.157  70.326  1.00  0.00    -0.291 N  
HETATM   13  O   UNL     1     -10.365   5.367  69.508  1.00  0.00    -0.244 OA 
HETATM   14  O   UNL     1     -11.300   5.847  71.437  1.00  0.00    -0.261 OA 
ENDBRANCH   5   6
ENDBRANCH   2   5
TORSDOF 2
ENDMDL
MODEL       82
REMARK 921   NORMALIZED FREE ENERGY PREDICTED BY IDOCK:   -3.82 KCAL/MOL
REMARK 922        TOTAL FREE ENERGY PREDICTED BY IDOCK:   -4.23 KCAL/MOL
REMARK 923 INTER-LIGAND FREE ENERGY PREDICTED BY IDOCK:   -4.02 KCAL/MOL
REMARK 924 INTRA-LIGAND FREE ENERGY PREDICTED BY IDOCK:   -0.21 KCAL/MOL
REMARK 927      BINDING AFFINITY PREDICTED BY RF-SCORE:    0.00 PKD
ROOT
HETATM    1  C   UNL     1     -11.555   7.576  72.430  1.00  0.00    -0.356 C  
HETATM    2  C   UNL     1     -12.115   8.729  71.604  1.00  0.00    -0.337 C  
HETATM    3  H   UNL     1     -13.475  10.095  71.859  1.00  0.00     0.000 HD 
HETATM    4  O   UNL     1     -13.126   9.377  72.373  1.00  0.00    -0.416 OA 
ENDROOT
BRANCH   2   5
HETATM    5  C   UNL     1     -11.001   9.702  71.196  1.00  0.00    -0.360 C  
BRANCH   5   6
HETATM    6  N   UNL     1     -11.227  10.326  69.901  1.00  0.00    -0.279 NA 
HETATM    7  C   UNL     1     -11.838  11.558  69.703  1.00  0.00    -0.354 A  
HETATM    8  N   UNL     1     -11.928  11.837  68.416  1.00  0.00    -0.490 NA 
HETATM    9  C   UNL     1     -12.322  12.469  70.776  1.00  0.00    -0.376 C  
HETATM   10  C   UNL     1     -11.378  10.777  67.754  1.00  0.00    -0.279 A  
HETATM   11  C   UNL     1     -10.944   9.833  68.649  1.00  0.00    -0.147 A  
HETATM   12  N   UNL     1     -10.325   8.588  68.340  1.00  0.00    -0.210 N  
HETATM   13  O   UNL     1     -10.255   8.289  67.142  1.00  0.00    -0.237 OA 
HETATM   14  O   UNL     1      -9.912   7.889  69.274  1.00  0.00    -0.181 OA 
ENDBRANCH   5   6
ENDBRANCH   2   5
TORSDOF 2
ENDMDL
MODEL       83
REMARK 921   NORMALIZED FREE ENERGY PREDICTED BY IDOCK:   -3.82 KCAL/MOL
REMARK 922        TOTAL FREE ENERGY PREDICTED BY IDOCK:   -4.22 KCAL/MOL
REMARK 923 INTER-LIGAND FREE ENERGY PREDICTED BY IDOCK:   -4.00 KCAL/MOL
REMARK 924 INTRA-LIGAND FREE ENERGY PREDICTED BY IDOCK:   -0.22 KCAL/MOL
REMARK 927      BINDING AFFINITY PREDICTED BY RF-SCORE:    0.00 PKD
ROOT
HETATM    1  C   UNL     1     -10.808  12.648  66.832  1.00  0.00    -0.282 C  
HETATM    2  C   UNL     1     -11.179  11.384  67.599  1.00  0.00    -0.283 C  
HETATM    3  H   UNL     1     -10.960   9.471  67.325  1.00  0.00     0.000 HD 
HETATM    4  O   UNL     1     -10.729  10.259  66.847  1.00  0.00    -0.239 OA 
ENDROOT
BRANCH   2   5
HETATM    5  C   UNL     1     -10.574  11.401  69.010  1.00  0.00    -0.191 C  
BRANCH   5   6
HETATM    6  N   UNL     1     -11.560  11.200  70.062  1.00  0.00    -0.321 NA 
HETATM    7  C   UNL     1     -12.319  12.205  70.648  1.00  0.00    -0.295 A  
HETATM    8  N   UNL     1     -13.099  11.713  71.593  1.00  0.00    -0.424 NA 
HETATM    9  C   UNL     1     -12.291  13.644  70.274  1.00  0.00    -0.392 C  
HETATM   10  C   UNL     1     -12.849  10.371  71.638  1.00  0.00    -0.474 A  
HETATM   11  C   UNL     1     -11.901  10.034  70.707  1.00  0.00    -0.346 A  
HETATM   12  N   UNL     1     -11.374   8.734  70.459  1.00  0.00    -0.253 N  
HETATM   13  O   UNL     1     -11.744   7.835  71.224  1.00  0.00    -0.278 OA 
HETATM   14  O   UNL     1     -10.585   8.588  69.518  1.00  0.00    -0.224 OA 
ENDBRANCH   5   6
ENDBRANCH   2   5
TORSDOF 2
ENDMDL
MODEL       84
REMARK 921   NORMALIZED FREE ENERGY PREDICTED BY IDOCK:   -3.81 KCAL/MOL
REMARK 922        TOTAL FREE ENERGY PREDICTED BY IDOCK:   -4.21 KCAL/MOL
REMARK 923 INTER-LIGAND FREE ENERGY PREDICTED BY IDOCK:   -4.01 KCAL/MOL
REMARK 924 INTRA-LIGAND FREE ENERGY PREDICTED BY IDOCK:   -0.20 KCAL/MOL
REMARK 927      BINDING AFFINITY PREDICTED BY RF-SCORE:    0.00 PKD
ROOT
HETATM    1  C   UNL     1     -12.295  15.003  70.665  1.00  0.00    -0.404 C  
HETATM    2  C   UNL     1     -11.442  15.936  69.813  1.00  0.00    -0.342 C  
HETATM    3  H   UNL     1      -9.548  16.117  69.410  1.00  0.00     0.000 HD 
HETATM    4  O   UNL     1     -10.080  15.535  69.941  1.00  0.00    -0.286 OA 
ENDROOT
BRANCH   2   5
HETATM    5  C   UNL     1     -11.905  15.919  68.350  1.00  0.00    -0.121 C  
BRANCH   5   6
HETATM    6  N   UNL     1     -10.829  16.174  67.403  1.00  0.00    -0.302 NA 
HETATM    7  C   UNL     1     -10.327  17.429  67.084  1.00  0.00    -0.325 A  
HETATM    8  N   UNL     1      -9.379  17.338  66.170  1.00  0.00    -0.458 NA 
HETATM    9  C   UNL     1     -10.766  18.718  67.684  1.00  0.00    -0.449 C  
HETATM   10  C   UNL     1      -9.257  16.010  65.875  1.00  0.00    -0.286 A  
HETATM   11  C   UNL     1     -10.144  15.276  66.619  1.00  0.00    -0.261 A  
HETATM   12  N   UNL     1     -10.319  13.862  66.585  1.00  0.00    -0.275 N  
HETATM   13  O   UNL     1      -9.669  13.247  65.732  1.00  0.00    -0.234 OA 
HETATM   14  O   UNL     1     -11.105  13.348  67.390  1.00  0.00    -0.266 OA 
ENDBRANCH   5   6
ENDBRANCH   2   5
TORSDOF 2
ENDMDL
MODEL       85
REMARK 921   NORMALIZED FREE ENERGY PREDICTED BY IDOCK:   -3.81 KCAL/MOL
REMARK 922        TOTAL FREE ENERGY PREDICTED BY IDOCK:   -4.21 KCAL/MOL
REMARK 923 INTER-LIGAND FREE ENERGY PREDICTED BY IDOCK:   -4.03 KCAL/MOL
REMARK 924 INTRA-LIGAND FREE ENERGY PREDICTED BY IDOCK:   -0.18 KCAL/MOL
REMARK 927      BINDING AFFINITY PREDICTED BY RF-SCORE:    0.00 PKD
ROOT
HETATM    1  C   UNL     1     -11.031   9.606  70.042  1.00  0.00    -0.297 C  
HETATM    2  C   UNL     1     -10.758  10.965  69.407  1.00  0.00    -0.225 C  
HETATM    3  H   UNL     1      -9.553  11.651  68.043  1.00  0.00     0.000 HD 
HETATM    4  O   UNL     1      -9.723  10.804  68.439  1.00  0.00    -0.161 OA 
ENDROOT
BRANCH   2   5
HETATM    5  C   UNL     1     -12.035  11.544  68.782  1.00  0.00    -0.271 C  
BRANCH   5   6
HETATM    6  N   UNL     1     -11.947  12.971  68.510  1.00  0.00    -0.309 NA 
HETATM    7  C   UNL     1     -12.103  13.976  69.457  1.00  0.00    -0.347 A  
HETATM    8  N   UNL     1     -12.001  15.168  68.898  1.00  0.00    -0.288 NA 
HETATM    9  C   UNL     1     -12.339  13.769  70.911  1.00  0.00    -0.456 C  
HETATM   10  C   UNL     1     -11.782  14.951  67.568  1.00  0.00    -0.308 A  
HETATM   11  C   UNL     1     -11.750  13.605  67.306  1.00  0.00    -0.380 A  
HETATM   12  N   UNL     1     -11.553  12.989  66.036  1.00  0.00    -0.346 N  
HETATM   13  O   UNL     1     -11.496  13.746  65.060  1.00  0.00    -0.315 OA 
HETATM   14  O   UNL     1     -11.463  11.756  65.989  1.00  0.00    -0.322 OA 
ENDBRANCH   5   6
ENDBRANCH   2   5
TORSDOF 2
ENDMDL
MODEL       86
REMARK 921   NORMALIZED FREE ENERGY PREDICTED BY IDOCK:   -3.81 KCAL/MOL
REMARK 922        TOTAL FREE ENERGY PREDICTED BY IDOCK:   -4.21 KCAL/MOL
REMARK 923 INTER-LIGAND FREE ENERGY PREDICTED BY IDOCK:   -4.09 KCAL/MOL
REMARK 924 INTRA-LIGAND FREE ENERGY PREDICTED BY IDOCK:   -0.12 KCAL/MOL
REMARK 927      BINDING AFFINITY PREDICTED BY RF-SCORE:    0.00 PKD
ROOT
HETATM    1  C   UNL     1      -9.725  19.608  66.287  1.00  0.00    -0.511 C  
HETATM    2  C   UNL     1     -10.548  18.368  66.613  1.00  0.00    -0.325 C  
HETATM    3  H   UNL     1     -11.075  16.754  65.664  1.00  0.00     0.000 HD 
HETATM    4  O   UNL     1     -10.563  17.528  65.461  1.00  0.00    -0.612 OA 
ENDROOT
BRANCH   2   5
HETATM    5  C   UNL     1      -9.979  17.639  67.839  1.00  0.00    -0.323 C  
BRANCH   5   6
HETATM    6  N   UNL     1      -9.572  16.270  67.558  1.00  0.00    -0.229 NA 
HETATM    7  C   UNL     1      -8.359  15.898  66.992  1.00  0.00    -0.223 A  
HETATM    8  N   UNL     1      -8.298  14.588  66.833  1.00  0.00    -0.163 NA 
HETATM    9  C   UNL     1      -7.254  16.822  66.621  1.00  0.00    -0.289 C  
HETATM   10  C   UNL     1      -9.484  14.090  67.290  1.00  0.00    -0.231 A  
HETATM   11  C   UNL     1     -10.286  15.109  67.737  1.00  0.00    -0.236 A  
HETATM   12  N   UNL     1     -11.598  14.985  68.278  1.00  0.00    -0.329 N  
HETATM   13  O   UNL     1     -12.099  13.855  68.257  1.00  0.00    -0.366 OA 
HETATM   14  O   UNL     1     -12.150  16.001  68.717  1.00  0.00    -0.255 OA 
ENDBRANCH   5   6
ENDBRANCH   2   5
TORSDOF 2
ENDMDL
MODEL       87
REMARK 921   NORMALIZED FREE ENERGY PREDICTED BY IDOCK:   -3.78 KCAL/MOL
REMARK 922        TOTAL FREE ENERGY PREDICTED BY IDOCK:   -4.18 KCAL/MOL
REMARK 923 INTER-LIGAND FREE ENERGY PREDICTED BY IDOCK:   -4.00 KCAL/MOL
REMARK 924 INTRA-LIGAND FREE ENERGY PREDICTED BY IDOCK:   -0.19 KCAL/MOL
REMARK 927      BINDING AFFINITY PREDICTED BY RF-SCORE:    0.00 PKD
ROOT
HETATM    1  C   UNL     1      -8.131  17.272  66.600  1.00  0.00    -0.300 C  
HETATM    2  C   UNL     1      -9.021  16.106  66.184  1.00  0.00    -0.337 C  
HETATM    3  H   UNL     1      -9.029  14.183  66.476  1.00  0.00     0.000 HD 
HETATM    4  O   UNL     1      -8.474  14.910  66.735  1.00  0.00    -0.235 OA 
ENDROOT
BRANCH   2   5
HETATM    5  C   UNL     1     -10.469  16.332  66.641  1.00  0.00    -0.290 C  
BRANCH   5   6
HETATM    6  N   UNL     1     -11.145  15.106  67.039  1.00  0.00    -0.334 NA 
HETATM    7  C   UNL     1     -11.719  14.191  66.166  1.00  0.00    -0.393 A  
HETATM    8  N   UNL     1     -12.284  13.199  66.830  1.00  0.00    -0.346 NA 
HETATM    9  C   UNL     1     -11.703  14.279  64.681  1.00  0.00    -0.439 C  
HETATM   10  C   UNL     1     -12.088  13.464  68.155  1.00  0.00    -0.232 A  
HETATM   11  C   UNL     1     -11.393  14.635  68.307  1.00  0.00    -0.297 A  
HETATM   12  N   UNL     1     -11.006  15.243  69.536  1.00  0.00    -0.260 N  
HETATM   13  O   UNL     1     -11.420  14.706  70.570  1.00  0.00    -0.268 OA 
HETATM   14  O   UNL     1     -10.302  16.260  69.493  1.00  0.00    -0.266 OA 
ENDBRANCH   5   6
ENDBRANCH   2   5
TORSDOF 2
ENDMDL
MODEL       88
REMARK 921   NORMALIZED FREE ENERGY PREDICTED BY IDOCK:   -3.77 KCAL/MOL
REMARK 922        TOTAL FREE ENERGY PREDICTED BY IDOCK:   -4.17 KCAL/MOL
REMARK 923 INTER-LIGAND FREE ENERGY PREDICTED BY IDOCK:   -4.12 KCAL/MOL
REMARK 924 INTRA-LIGAND FREE ENERGY PREDICTED BY IDOCK:   -0.05 KCAL/MOL
REMARK 927      BINDING AFFINITY PREDICTED BY RF-SCORE:    0.00 PKD
ROOT
HETATM    1  C   UNL     1      -9.814  16.645  67.525  1.00  0.00    -0.253 C  
HETATM    2  C   UNL     1     -10.481  16.067  66.283  1.00  0.00    -0.320 C  
HETATM    3  H   UNL     1     -10.877  16.702  64.487  1.00  0.00     0.000 HD 
HETATM    4  O   UNL     1     -10.461  17.063  65.262  1.00  0.00    -0.649 OA 
ENDROOT
BRANCH   2   5
HETATM    5  C   UNL     1      -9.777  14.779  65.832  1.00  0.00    -0.323 C  
BRANCH   5   6
HETATM    6  N   UNL     1     -10.459  13.568  66.263  1.00  0.00    -0.285 NA 
HETATM    7  C   UNL     1     -11.745  13.199  65.888  1.00  0.00    -0.384 A  
HETATM    8  N   UNL     1     -12.097  12.067  66.468  1.00  0.00    -0.541 NA 
HETATM    9  C   UNL     1     -12.624  13.948  64.950  1.00  0.00    -0.380 C  
HETATM   10  C   UNL     1     -11.037  11.686  67.241  1.00  0.00    -0.290 A  
HETATM   11  C   UNL     1     -10.020  12.598  67.133  1.00  0.00    -0.217 A  
HETATM   12  N   UNL     1      -8.759  12.550  67.794  1.00  0.00    -0.168 N  
HETATM   13  O   UNL     1      -8.603  11.640  68.618  1.00  0.00    -0.152 OA 
HETATM   14  O   UNL     1      -7.916  13.412  67.517  1.00  0.00    -0.160 OA 
ENDBRANCH   5   6
ENDBRANCH   2   5
TORSDOF 2
ENDMDL
MODEL       89
REMARK 921   NORMALIZED FREE ENERGY PREDICTED BY IDOCK:   -3.77 KCAL/MOL
REMARK 922        TOTAL FREE ENERGY PREDICTED BY IDOCK:   -4.17 KCAL/MOL
REMARK 923 INTER-LIGAND FREE ENERGY PREDICTED BY IDOCK:   -4.00 KCAL/MOL
REMARK 924 INTRA-LIGAND FREE ENERGY PREDICTED BY IDOCK:   -0.16 KCAL/MOL
REMARK 927      BINDING AFFINITY PREDICTED BY RF-SCORE:    0.00 PKD
ROOT
HETATM    1  C   UNL     1      -6.486  20.657  65.820  1.00  0.00    -0.257 C  
HETATM    2  C   UNL     1      -7.793  19.904  66.035  1.00  0.00    -0.323 C  
HETATM    3  H   UNL     1      -8.453  18.115  65.650  1.00  0.00     0.000 HD 
HETATM    4  O   UNL     1      -7.638  18.585  65.516  1.00  0.00    -0.499 OA 
ENDROOT
BRANCH   2   5
HETATM    5  C   UNL     1      -8.178  19.887  67.521  1.00  0.00    -0.322 C  
BRANCH   5   6
HETATM    6  N   UNL     1      -8.049  18.573  68.135  1.00  0.00    -0.282 NA 
HETATM    7  C   UNL     1      -6.891  18.075  68.718  1.00  0.00    -0.259 A  
HETATM    8  N   UNL     1      -7.079  16.844  69.158  1.00  0.00    -0.235 NA 
HETATM    9  C   UNL     1      -5.604  18.808  68.858  1.00  0.00    -0.200 C  
HETATM   10  C   UNL     1      -8.371  16.522  68.856  1.00  0.00    -0.241 A  
HETATM   11  C   UNL     1      -8.985  17.570  68.221  1.00  0.00    -0.267 A  
HETATM   12  N   UNL     1     -10.328  17.610  67.746  1.00  0.00    -0.349 N  
HETATM   13  O   UNL     1     -10.975  16.559  67.834  1.00  0.00    -0.343 OA 
HETATM   14  O   UNL     1     -10.753  18.671  67.274  1.00  0.00    -0.424 OA 
ENDBRANCH   5   6
ENDBRANCH   2   5
TORSDOF 2
ENDMDL
MODEL       90
REMARK 921   NORMALIZED FREE ENERGY PREDICTED BY IDOCK:   -3.75 KCAL/MOL
REMARK 922        TOTAL FREE ENERGY PREDICTED BY IDOCK:   -4.15 KCAL/MOL
REMARK 923 INTER-LIGAND FREE ENERGY PREDICTED BY IDOCK:   -4.03 KCAL/MOL
REMARK 924 INTRA-LIGAND FREE ENERGY PREDICTED BY IDOCK:   -0.12 KCAL/MOL
REMARK 927      BINDING AFFINITY PREDICTED BY RF-SCORE:    0.00 PKD
ROOT
HETATM    1  C   UNL     1     -12.101  12.307  64.657  1.00  0.00    -0.449 C  
HETATM    2  C   UNL     1     -11.582  12.587  66.062  1.00  0.00    -0.406 C  
HETATM    3  H   UNL     1      -9.832  12.724  66.902  1.00  0.00     0.000 HD 
HETATM    4  O   UNL     1     -10.156  12.549  66.025  1.00  0.00    -0.244 OA 
ENDROOT
BRANCH   2   5
HETATM    5  C   UNL     1     -12.100  13.935  66.580  1.00  0.00    -0.448 C  
BRANCH   5   6
HETATM    6  N   UNL     1     -11.119  15.006  66.483  1.00  0.00    -0.336 NA 
HETATM    7  C   UNL     1     -10.914  15.802  65.364  1.00  0.00    -0.309 A  
HETATM    8  N   UNL     1      -9.933  16.662  65.572  1.00  0.00    -0.573 NA 
HETATM    9  C   UNL     1     -11.687  15.732  64.094  1.00  0.00    -0.070 C  
HETATM   10  C   UNL     1      -9.480  16.427  66.839  1.00  0.00    -0.235 A  
HETATM   11  C   UNL     1     -10.193  15.409  67.416  1.00  0.00    -0.249 A  
HETATM   12  N   UNL     1     -10.008  14.875  68.724  1.00  0.00    -0.222 N  
HETATM   13  O   UNL     1      -9.047  15.314  69.368  1.00  0.00    -0.244 OA 
HETATM   14  O   UNL     1     -10.799  14.012  69.124  1.00  0.00    -0.245 OA 
ENDBRANCH   5   6
ENDBRANCH   2   5
TORSDOF 2
ENDMDL
MODEL       91
REMARK 921   NORMALIZED FREE ENERGY PREDICTED BY IDOCK:   -3.75 KCAL/MOL
REMARK 922        TOTAL FREE ENERGY PREDICTED BY IDOCK:   -4.15 KCAL/MOL
REMARK 923 INTER-LIGAND FREE ENERGY PREDICTED BY IDOCK:   -4.00 KCAL/MOL
REMARK 924 INTRA-LIGAND FREE ENERGY PREDICTED BY IDOCK:   -0.15 KCAL/MOL
REMARK 927      BINDING AFFINITY PREDICTED BY RF-SCORE:    0.00 PKD
ROOT
HETATM    1  C   UNL     1     -11.444  14.524  64.713  1.00  0.00    -0.408 C  
HETATM    2  C   UNL     1     -10.851  15.913  64.920  1.00  0.00    -0.400 C  
HETATM    3  H   UNL     1     -11.214  17.700  64.242  1.00  0.00     0.000 HD 
HETATM    4  O   UNL     1     -11.583  16.834  64.113  1.00  0.00    -1.106 OA 
ENDROOT
BRANCH   2   5
HETATM    5  C   UNL     1     -10.882  16.307  66.403  1.00  0.00    -0.100 C  
BRANCH   5   6
HETATM    6  N   UNL     1      -9.890  15.609  67.206  1.00  0.00    -0.224 NA 
HETATM    7  C   UNL     1      -8.520  15.838  67.159  1.00  0.00    -0.208 A  
HETATM    8  N   UNL     1      -7.880  15.026  67.981  1.00  0.00    -0.118 NA 
HETATM    9  C   UNL     1      -7.839  16.861  66.321  1.00  0.00    -0.346 C  
HETATM   10  C   UNL     1      -8.834  14.247  68.571  1.00  0.00    -0.176 A  
HETATM   11  C   UNL     1     -10.078  14.586  68.105  1.00  0.00    -0.227 A  
HETATM   12  N   UNL     1     -11.318  13.993  68.479  1.00  0.00    -0.260 N  
HETATM   13  O   UNL     1     -11.256  13.014  69.232  1.00  0.00    -0.250 OA 
HETATM   14  O   UNL     1     -12.362  14.480  68.028  1.00  0.00    -0.172 OA 
ENDBRANCH   5   6
ENDBRANCH   2   5
TORSDOF 2
ENDMDL
MODEL       92
REMARK 921   NORMALIZED FREE ENERGY PREDICTED BY IDOCK:   -3.75 KCAL/MOL
REMARK 922        TOTAL FREE ENERGY PREDICTED BY IDOCK:   -4.15 KCAL/MOL
REMARK 923 INTER-LIGAND FREE ENERGY PREDICTED BY IDOCK:   -4.03 KCAL/MOL
REMARK 924 INTRA-LIGAND FREE ENERGY PREDICTED BY IDOCK:   -0.11 KCAL/MOL
REMARK 927      BINDING AFFINITY PREDICTED BY RF-SCORE:    0.00 PKD
ROOT
HETATM    1  C   UNL     1     -14.338   7.409  71.596  1.00  0.00    -0.614 C  
HETATM    2  C   UNL     1     -12.857   7.295  71.938  1.00  0.00    -0.262 C  
HETATM    3  H   UNL     1     -11.249   6.724  71.003  1.00  0.00     0.000 HD 
HETATM    4  O   UNL     1     -12.173   6.795  70.791  1.00  0.00    -0.390 OA 
ENDROOT
BRANCH   2   5
HETATM    5  C   UNL     1     -12.293   8.650  72.389  1.00  0.00    -0.357 C  
BRANCH   5   6
HETATM    6  N   UNL     1     -11.087   9.039  71.673  1.00  0.00    -0.339 NA 
HETATM    7  C   UNL     1      -9.799   8.626  71.993  1.00  0.00    -0.325 A  
HETATM    8  N   UNL     1      -8.915   9.174  71.180  1.00  0.00    -0.252 NA 
HETATM    9  C   UNL     1      -9.436   7.685  73.086  1.00  0.00    -0.300 C  
HETATM   10  C   UNL     1      -9.622   9.962  70.318  1.00  0.00    -0.127 A  
HETATM   11  C   UNL     1     -10.961   9.898  70.606  1.00  0.00    -0.337 A  
HETATM   12  N   UNL     1     -12.011  10.586  69.934  1.00  0.00    -0.277 N  
HETATM   13  O   UNL     1     -11.670  11.393  69.061  1.00  0.00    -0.286 OA 
HETATM   14  O   UNL     1     -13.179  10.347  70.266  1.00  0.00    -0.166 OA 
ENDBRANCH   5   6
ENDBRANCH   2   5
TORSDOF 2
ENDMDL
MODEL       93
REMARK 921   NORMALIZED FREE ENERGY PREDICTED BY IDOCK:   -3.74 KCAL/MOL
REMARK 922        TOTAL FREE ENERGY PREDICTED BY IDOCK:   -4.14 KCAL/MOL
REMARK 923 INTER-LIGAND FREE ENERGY PREDICTED BY IDOCK:   -3.95 KCAL/MOL
REMARK 924 INTRA-LIGAND FREE ENERGY PREDICTED BY IDOCK:   -0.19 KCAL/MOL
REMARK 927      BINDING AFFINITY PREDICTED BY RF-SCORE:    0.00 PKD
ROOT
HETATM    1  C   UNL     1      -8.659  10.342  68.795  1.00  0.00    -0.139 C  
HETATM    2  C   UNL     1      -9.358   9.264  69.615  1.00  0.00    -0.179 C  
HETATM    3  H   UNL     1      -9.491   8.812  71.502  1.00  0.00     0.000 HD 
HETATM    4  O   UNL     1      -9.055   9.484  70.991  1.00  0.00    -0.224 OA 
ENDROOT
BRANCH   2   5
HETATM    5  C   UNL     1     -10.872   9.275  69.358  1.00  0.00    -0.169 C  
BRANCH   5   6
HETATM    6  N   UNL     1     -11.656   8.904  70.527  1.00  0.00    -0.213 NA 
HETATM    7  C   UNL     1     -11.868   7.604  70.968  1.00  0.00    -0.285 A  
HETATM    8  N   UNL     1     -12.648   7.590  72.033  1.00  0.00    -0.272 NA 
HETATM    9  C   UNL     1     -11.294   6.376  70.355  1.00  0.00    -0.453 C  
HETATM   10  C   UNL     1     -12.962   8.893  72.295  1.00  0.00    -0.419 A  
HETATM   11  C   UNL     1     -12.366   9.719  71.377  1.00  0.00    -0.388 A  
HETATM   12  N   UNL     1     -12.466  11.139  71.318  1.00  0.00    -0.377 N  
HETATM   13  O   UNL     1     -13.241  11.671  72.121  1.00  0.00    -0.504 OA 
HETATM   14  O   UNL     1     -11.790  11.741  70.474  1.00  0.00    -0.330 OA 
ENDBRANCH   5   6
ENDBRANCH   2   5
TORSDOF 2
ENDMDL
MODEL       94
REMARK 921   NORMALIZED FREE ENERGY PREDICTED BY IDOCK:   -3.74 KCAL/MOL
REMARK 922        TOTAL FREE ENERGY PREDICTED BY IDOCK:   -4.14 KCAL/MOL
REMARK 923 INTER-LIGAND FREE ENERGY PREDICTED BY IDOCK:   -3.94 KCAL/MOL
REMARK 924 INTRA-LIGAND FREE ENERGY PREDICTED BY IDOCK:   -0.20 KCAL/MOL
REMARK 927      BINDING AFFINITY PREDICTED BY RF-SCORE:    0.00 PKD
ROOT
HETATM    1  C   UNL     1     -11.781  10.360  69.577  1.00  0.00    -0.259 C  
HETATM    2  C   UNL     1     -11.046  11.695  69.549  1.00  0.00    -0.164 C  
HETATM    3  H   UNL     1      -9.489  12.412  68.629  1.00  0.00     0.000 HD 
HETATM    4  O   UNL     1      -9.947  11.579  68.647  1.00  0.00    -0.210 OA 
ENDROOT
BRANCH   2   5
HETATM    5  C   UNL     1     -11.993  12.834  69.148  1.00  0.00    -0.246 C  
BRANCH   5   6
HETATM    6  N   UNL     1     -11.930  13.979  70.044  1.00  0.00    -0.318 NA 
HETATM    7  C   UNL     1     -12.484  14.027  71.318  1.00  0.00    -0.369 A  
HETATM    8  N   UNL     1     -12.289  15.210  71.870  1.00  0.00    -0.327 NA 
HETATM    9  C   UNL     1     -13.192  12.910  72.000  1.00  0.00    -0.549 C  
HETATM   10  C   UNL     1     -11.607  15.955  70.951  1.00  0.00    -0.421 A  
HETATM   11  C   UNL     1     -11.380  15.218  69.818  1.00  0.00    -0.289 A  
HETATM   12  N   UNL     1     -10.706  15.652  68.640  1.00  0.00    -0.246 N  
HETATM   13  O   UNL     1     -10.375  16.843  68.602  1.00  0.00    -0.288 OA 
HETATM   14  O   UNL     1     -10.508  14.829  67.738  1.00  0.00    -0.250 OA 
ENDBRANCH   5   6
ENDBRANCH   2   5
TORSDOF 2
ENDMDL
MODEL       95
REMARK 921   NORMALIZED FREE ENERGY PREDICTED BY IDOCK:   -3.72 KCAL/MOL
REMARK 922        TOTAL FREE ENERGY PREDICTED BY IDOCK:   -4.11 KCAL/MOL
REMARK 923 INTER-LIGAND FREE ENERGY PREDICTED BY IDOCK:   -3.99 KCAL/MOL
REMARK 924 INTRA-LIGAND FREE ENERGY PREDICTED BY IDOCK:   -0.12 KCAL/MOL
REMARK 927      BINDING AFFINITY PREDICTED BY RF-SCORE:    0.00 PKD
ROOT
HETATM    1  C   UNL     1      -9.435  11.021  68.705  1.00  0.00    -0.197 C  
HETATM    2  C   UNL     1     -10.489  10.375  67.814  1.00  0.00    -0.226 C  
HETATM    3  H   UNL     1     -11.102   8.562  67.467  1.00  0.00     0.000 HD 
HETATM    4  O   UNL     1     -10.444   8.965  68.023  1.00  0.00    -0.220 OA 
ENDROOT
BRANCH   2   5
HETATM    5  C   UNL     1     -11.882  10.949  68.108  1.00  0.00    -0.046 C  
BRANCH   5   6
HETATM    6  N   UNL     1     -11.942  12.399  68.003  1.00  0.00    -0.412 NA 
HETATM    7  C   UNL     1     -11.865  13.118  66.816  1.00  0.00    -0.385 A  
HETATM    8  N   UNL     1     -11.915  14.416  67.050  1.00  0.00    -0.418 NA 
HETATM    9  C   UNL     1     -11.755  12.533  65.452  1.00  0.00    -0.444 C  
HETATM   10  C   UNL     1     -12.019  14.559  68.404  1.00  0.00    -0.274 A  
HETATM   11  C   UNL     1     -12.033  13.330  69.011  1.00  0.00    -0.293 A  
HETATM   12  N   UNL     1     -12.122  13.071  70.409  1.00  0.00    -0.355 N  
HETATM   13  O   UNL     1     -12.092  14.057  71.155  1.00  0.00    -0.342 OA 
HETATM   14  O   UNL     1     -12.211  11.895  70.784  1.00  0.00    -0.376 OA 
ENDBRANCH   5   6
ENDBRANCH   2   5
TORSDOF 2
ENDMDL
MODEL       96
REMARK 921   NORMALIZED FREE ENERGY PREDICTED BY IDOCK:   -3.71 KCAL/MOL
REMARK 922        TOTAL FREE ENERGY PREDICTED BY IDOCK:   -4.10 KCAL/MOL
REMARK 923 INTER-LIGAND FREE ENERGY PREDICTED BY IDOCK:   -3.93 KCAL/MOL
REMARK 924 INTRA-LIGAND FREE ENERGY PREDICTED BY IDOCK:   -0.16 KCAL/MOL
REMARK 927      BINDING AFFINITY PREDICTED BY RF-SCORE:    0.00 PKD
ROOT
HETATM    1  C   UNL     1     -12.294  11.199  70.673  1.00  0.00    -0.482 C  
HETATM    2  C   UNL     1     -12.188   9.965  71.562  1.00  0.00    -0.416 C  
HETATM    3  H   UNL     1     -13.172   8.300  71.760  1.00  0.00     0.000 HD 
HETATM    4  O   UNL     1     -13.238   9.069  71.206  1.00  0.00    -0.301 OA 
ENDROOT
BRANCH   2   5
HETATM    5  C   UNL     1     -10.808   9.307  71.423  1.00  0.00    -0.364 C  
BRANCH   5   6
HETATM    6  N   UNL     1     -10.844   8.039  70.709  1.00  0.00    -0.228 NA 
HETATM    7  C   UNL     1     -10.731   7.894  69.332  1.00  0.00    -0.168 A  
HETATM    8  N   UNL     1     -10.834   6.625  68.984  1.00  0.00    -0.263 NA 
HETATM    9  C   UNL     1     -10.508   8.997  68.359  1.00  0.00    -0.234 C  
HETATM   10  C   UNL     1     -11.025   5.923  70.140  1.00  0.00    -0.342 A  
HETATM   11  C   UNL     1     -11.039   6.775  71.214  1.00  0.00    -0.262 A  
HETATM   12  N   UNL     1     -11.221   6.418  72.581  1.00  0.00    -0.262 N  
HETATM   13  O   UNL     1     -11.484   5.232  72.811  1.00  0.00    -0.290 OA 
HETATM   14  O   UNL     1     -11.118   7.304  73.439  1.00  0.00    -0.323 OA 
ENDBRANCH   5   6
ENDBRANCH   2   5
TORSDOF 2
ENDMDL
MODEL       97
REMARK 921   NORMALIZED FREE ENERGY PREDICTED BY IDOCK:   -3.69 KCAL/MOL
REMARK 922        TOTAL FREE ENERGY PREDICTED BY IDOCK:   -4.08 KCAL/MOL
REMARK 923 INTER-LIGAND FREE ENERGY PREDICTED BY IDOCK:   -4.12 KCAL/MOL
REMARK 924 INTRA-LIGAND FREE ENERGY PREDICTED BY IDOCK:    0.04 KCAL/MOL
REMARK 927      BINDING AFFINITY PREDICTED BY RF-SCORE:    0.00 PKD
ROOT
HETATM    1  C   UNL     1     -10.712   9.221  67.588  1.00  0.00    -0.276 C  
HETATM    2  C   UNL     1     -10.815  10.644  68.122  1.00  0.00    -0.245 C  
HETATM    3  H   UNL     1     -12.223  11.976  68.283  1.00  0.00     0.000 HD 
HETATM    4  O   UNL     1     -12.159  11.089  67.950  1.00  0.00    -0.600 OA 
ENDROOT
BRANCH   2   5
HETATM    5  C   UNL     1     -10.379  10.711  69.592  1.00  0.00    -0.145 C  
BRANCH   5   6
HETATM    6  N   UNL     1     -11.475  10.510  70.528  1.00  0.00    -0.332 NA 
HETATM    7  C   UNL     1     -11.874   9.281  71.038  1.00  0.00    -0.307 A  
HETATM    8  N   UNL     1     -12.917   9.420  71.836  1.00  0.00    -0.383 NA 
HETATM    9  C   UNL     1     -11.226   7.972  70.756  1.00  0.00    -0.275 C  
HETATM   10  C   UNL     1     -13.215  10.753  71.849  1.00  0.00    -0.419 A  
HETATM   11  C   UNL     1     -12.343  11.442  71.046  1.00  0.00    -0.343 A  
HETATM   12  N   UNL     1     -12.340  12.845  70.799  1.00  0.00    -0.359 N  
HETATM   13  O   UNL     1     -13.275  13.492  71.285  1.00  0.00    -0.300 OA 
HETATM   14  O   UNL     1     -11.424  13.319  70.115  1.00  0.00    -0.134 OA 
ENDBRANCH   5   6
ENDBRANCH   2   5
TORSDOF 2
ENDMDL
MODEL       98
REMARK 921   NORMALIZED FREE ENERGY PREDICTED BY IDOCK:   -3.69 KCAL/MOL
REMARK 922        TOTAL FREE ENERGY PREDICTED BY IDOCK:   -4.08 KCAL/MOL
REMARK 923 INTER-LIGAND FREE ENERGY PREDICTED BY IDOCK:   -3.93 KCAL/MOL
REMARK 924 INTRA-LIGAND FREE ENERGY PREDICTED BY IDOCK:   -0.15 KCAL/MOL
REMARK 927      BINDING AFFINITY PREDICTED BY RF-SCORE:    0.00 PKD
ROOT
HETATM    1  C   UNL     1     -10.410  19.627  66.017  1.00  0.00    -0.620 C  
HETATM    2  C   UNL     1      -8.986  19.229  66.387  1.00  0.00    -0.352 C  
HETATM    3  H   UNL     1      -7.206  19.618  65.703  1.00  0.00     0.000 HD 
HETATM    4  O   UNL     1      -8.094  19.865  65.473  1.00  0.00    -0.337 OA 
ENDROOT
BRANCH   2   5
HETATM    5  C   UNL     1      -8.671  19.606  67.841  1.00  0.00    -0.324 C  
BRANCH   5   6
HETATM    6  N   UNL     1      -7.446  19.002  68.341  1.00  0.00    -0.287 NA 
HETATM    7  C   UNL     1      -6.203  19.621  68.369  1.00  0.00    -0.239 A  
HETATM    8  N   UNL     1      -5.282  18.806  68.849  1.00  0.00    -0.191 NA 
HETATM    9  C   UNL     1      -5.919  21.017  67.940  1.00  0.00    -0.396 C  
HETATM   10  C   UNL     1      -5.920  17.632  69.134  1.00  0.00    -0.212 A  
HETATM   11  C   UNL     1      -7.251  17.729  68.825  1.00  0.00    -0.271 A  
HETATM   12  N   UNL     1      -8.237  16.711  68.974  1.00  0.00    -0.224 N  
HETATM   13  O   UNL     1      -7.831  15.600  69.334  1.00  0.00    -0.219 OA 
HETATM   14  O   UNL     1      -9.416  16.994  68.729  1.00  0.00    -0.260 OA 
ENDBRANCH   5   6
ENDBRANCH   2   5
TORSDOF 2
ENDMDL
MODEL       99
REMARK 921   NORMALIZED FREE ENERGY PREDICTED BY IDOCK:   -3.69 KCAL/MOL
REMARK 922        TOTAL FREE ENERGY PREDICTED BY IDOCK:   -4.08 KCAL/MOL
REMARK 923 INTER-LIGAND FREE ENERGY PREDICTED BY IDOCK:   -3.96 KCAL/MOL
REMARK 924 INTRA-LIGAND FREE ENERGY PREDICTED BY IDOCK:   -0.12 KCAL/MOL
REMARK 927      BINDING AFFINITY PREDICTED BY RF-SCORE:    0.00 PKD
ROOT
HETATM    1  C   UNL     1      -8.370  11.630  67.022  1.00  0.00    -0.169 C  
HETATM    2  C   UNL     1      -9.219  10.916  65.976  1.00  0.00    -0.188 C  
HETATM    3  H   UNL     1      -9.247   9.145  65.174  1.00  0.00     0.000 HD 
HETATM    4  O   UNL     1      -8.717   9.590  65.826  1.00  0.00    -0.135 OA 
ENDROOT
BRANCH   2   5
HETATM    5  C   UNL     1     -10.701  10.920  66.378  1.00  0.00    -0.194 C  
BRANCH   5   6
HETATM    6  N   UNL     1     -11.348  12.209  66.182  1.00  0.00    -0.346 NA 
HETATM    7  C   UNL     1     -11.741  12.727  64.954  1.00  0.00    -0.352 A  
HETATM    8  N   UNL     1     -12.268  13.929  65.098  1.00  0.00    -0.403 NA 
HETATM    9  C   UNL     1     -11.613  12.040  63.641  1.00  0.00    -0.578 C  
HETATM   10  C   UNL     1     -12.217  14.213  66.433  1.00  0.00    -0.446 A  
HETATM   11  C   UNL     1     -11.650  13.170  67.118  1.00  0.00    -0.361 A  
HETATM   12  N   UNL     1     -11.419  13.098  68.522  1.00  0.00    -0.280 N  
HETATM   13  O   UNL     1     -11.673  14.117  69.175  1.00  0.00    -0.283 OA 
HETATM   14  O   UNL     1     -10.976  12.043  68.992  1.00  0.00    -0.225 OA 
ENDBRANCH   5   6
ENDBRANCH   2   5
TORSDOF 2
ENDMDL
MODEL      100
REMARK 921   NORMALIZED FREE ENERGY PREDICTED BY IDOCK:   -3.68 KCAL/MOL
REMARK 922        TOTAL FREE ENERGY PREDICTED BY IDOCK:   -4.07 KCAL/MOL
REMARK 923 INTER-LIGAND FREE ENERGY PREDICTED BY IDOCK:   -3.94 KCAL/MOL
REMARK 924 INTRA-LIGAND FREE ENERGY PREDICTED BY IDOCK:   -0.13 KCAL/MOL
REMARK 927      BINDING AFFINITY PREDICTED BY RF-SCORE:    0.00 PKD
ROOT
HETATM    1  C   UNL     1     -13.929   9.188  72.356  1.00  0.00    -0.488 C  
HETATM    2  C   UNL     1     -12.938   9.837  71.397  1.00  0.00    -0.395 C  
HETATM    3  H   UNL     1     -12.309  11.646  71.054  1.00  0.00     0.000 HD 
HETATM    4  O   UNL     1     -12.927  11.241  71.651  1.00  0.00    -0.448 OA 
ENDROOT
BRANCH   2   5
HETATM    5  C   UNL     1     -11.540   9.221  71.553  1.00  0.00    -0.382 C  
BRANCH   5   6
HETATM    6  N   UNL     1     -11.301   8.102  70.654  1.00  0.00    -0.267 NA 
HETATM    7  C   UNL     1     -11.416   6.761  70.999  1.00  0.00    -0.324 A  
HETATM    8  N   UNL     1     -11.103   5.985  69.978  1.00  0.00    -0.377 NA 
HETATM    9  C   UNL     1     -11.847   6.240  72.324  1.00  0.00    -0.326 C  
HETATM   10  C   UNL     1     -10.770   6.819  68.949  1.00  0.00    -0.240 A  
HETATM   11  C   UNL     1     -10.880   8.127  69.345  1.00  0.00    -0.086 A  
HETATM   12  N   UNL     1     -10.610   9.281  68.555  1.00  0.00    -0.206 N  
HETATM   13  O   UNL     1     -10.142   9.081  67.428  1.00  0.00    -0.196 OA 
HETATM   14  O   UNL     1     -10.847  10.395  69.040  1.00  0.00    -0.207 OA 
ENDBRANCH   5   6
ENDBRANCH   2   5
TORSDOF 2
ENDMDL
MODEL      101
REMARK 921   NORMALIZED FREE ENERGY PREDICTED BY IDOCK:   -3.67 KCAL/MOL
REMARK 922        TOTAL FREE ENERGY PREDICTED BY IDOCK:   -4.06 KCAL/MOL
REMARK 923 INTER-LIGAND FREE ENERGY PREDICTED BY IDOCK:   -3.99 KCAL/MOL
REMARK 924 INTRA-LIGAND FREE ENERGY PREDICTED BY IDOCK:   -0.07 KCAL/MOL
REMARK 927      BINDING AFFINITY PREDICTED BY RF-SCORE:    0.00 PKD
ROOT
HETATM    1  C   UNL     1      -5.938  17.912  65.749  1.00  0.00    -0.223 C  
HETATM    2  C   UNL     1      -6.740  17.037  66.706  1.00  0.00    -0.230 C  
HETATM    3  H   UNL     1      -6.441  15.361  67.647  1.00  0.00     0.000 HD 
HETATM    4  O   UNL     1      -5.942  15.907  67.050  1.00  0.00    -0.331 OA 
ENDROOT
BRANCH   2   5
HETATM    5  C   UNL     1      -7.166  17.831  67.949  1.00  0.00    -0.210 C  
BRANCH   5   6
HETATM    6  N   UNL     1      -8.390  18.593  67.754  1.00  0.00    -0.263 NA 
HETATM    7  C   UNL     1      -8.448  19.947  67.449  1.00  0.00    -0.327 A  
HETATM    8  N   UNL     1      -9.701  20.358  67.367  1.00  0.00    -0.442 NA 
HETATM    9  C   UNL     1      -7.277  20.837  67.223  1.00  0.00    -0.415 C  
HETATM   10  C   UNL     1     -10.479  19.266  67.627  1.00  0.00    -0.453 A  
HETATM   11  C   UNL     1      -9.693  18.171  67.873  1.00  0.00    -0.299 A  
HETATM   12  N   UNL     1     -10.140  16.855  68.190  1.00  0.00    -0.284 N  
HETATM   13  O   UNL     1     -11.358  16.711  68.349  1.00  0.00    -0.321 OA 
HETATM   14  O   UNL     1      -9.296  15.957  68.296  1.00  0.00    -0.190 OA 
ENDBRANCH   5   6
ENDBRANCH   2   5
TORSDOF 2
ENDMDL
MODEL      102
REMARK 921   NORMALIZED FREE ENERGY PREDICTED BY IDOCK:   -3.65 KCAL/MOL
REMARK 922        TOTAL FREE ENERGY PREDICTED BY IDOCK:   -4.04 KCAL/MOL
REMARK 923 INTER-LIGAND FREE ENERGY PREDICTED BY IDOCK:   -3.94 KCAL/MOL
REMARK 924 INTRA-LIGAND FREE ENERGY PREDICTED BY IDOCK:   -0.10 KCAL/MOL
REMARK 927      BINDING AFFINITY PREDICTED BY RF-SCORE:    0.00 PKD
ROOT
HETATM    1  C   UNL     1      -6.481  15.613  67.458  1.00  0.00    -0.201 C  
HETATM    2  C   UNL     1      -6.472  17.028  66.890  1.00  0.00    -0.213 C  
HETATM    3  H   UNL     1      -5.379  18.014  65.619  1.00  0.00     0.000 HD 
HETATM    4  O   UNL     1      -5.384  17.132  65.974  1.00  0.00    -0.333 OA 
ENDROOT
BRANCH   2   5
HETATM    5  C   UNL     1      -7.813  17.357  66.219  1.00  0.00    -0.295 C  
BRANCH   5   6
HETATM    6  N   UNL     1      -8.925  17.422  67.156  1.00  0.00    -0.235 NA 
HETATM    7  C   UNL     1      -9.053  18.353  68.179  1.00  0.00    -0.309 A  
HETATM    8  N   UNL     1     -10.152  18.134  68.878  1.00  0.00    -0.380 NA 
HETATM    9  C   UNL     1      -8.108  19.465  68.465  1.00  0.00    -0.396 C  
HETATM   10  C   UNL     1     -10.753  17.044  68.316  1.00  0.00    -0.372 A  
HETATM   11  C   UNL     1     -10.012  16.587  67.257  1.00  0.00    -0.264 A  
HETATM   12  N   UNL     1     -10.311  15.467  66.429  1.00  0.00    -0.285 N  
HETATM   13  O   UNL     1     -11.290  14.785  66.756  1.00  0.00    -0.340 OA 
HETATM   14  O   UNL     1      -9.579  15.243  65.457  1.00  0.00    -0.317 OA 
ENDBRANCH   5   6
ENDBRANCH   2   5
TORSDOF 2
ENDMDL
MODEL      103
REMARK 921   NORMALIZED FREE ENERGY PREDICTED BY IDOCK:   -3.65 KCAL/MOL
REMARK 922        TOTAL FREE ENERGY PREDICTED BY IDOCK:   -4.04 KCAL/MOL
REMARK 923 INTER-LIGAND FREE ENERGY PREDICTED BY IDOCK:   -3.96 KCAL/MOL
REMARK 924 INTRA-LIGAND FREE ENERGY PREDICTED BY IDOCK:   -0.08 KCAL/MOL
REMARK 927      BINDING AFFINITY PREDICTED BY RF-SCORE:    0.00 PKD
ROOT
HETATM    1  C   UNL     1     -11.226  10.530  68.563  1.00  0.00    -0.332 C  
HETATM    2  C   UNL     1     -11.523  12.015  68.394  1.00  0.00    -0.301 C  
HETATM    3  H   UNL     1     -12.280  13.422  69.505  1.00  0.00     0.000 HD 
HETATM    4  O   UNL     1     -12.095  12.496  69.610  1.00  0.00    -0.279 OA 
ENDROOT
BRANCH   2   5
HETATM    5  C   UNL     1     -10.252  12.789  68.020  1.00  0.00    -0.228 C  
BRANCH   5   6
HETATM    6  N   UNL     1     -10.323  13.414  66.707  1.00  0.00    -0.260 NA 
HETATM    7  C   UNL     1     -10.254  12.737  65.496  1.00  0.00    -0.279 A  
HETATM    8  N   UNL     1     -10.315  13.582  64.482  1.00  0.00    -0.414 NA 
HETATM    9  C   UNL     1     -10.143  11.263  65.330  1.00  0.00    -0.314 C  
HETATM   10  C   UNL     1     -10.418  14.829  65.028  1.00  0.00    -0.416 A  
HETATM   11  C   UNL     1     -10.420  14.750  66.396  1.00  0.00    -0.293 A  
HETATM   12  N   UNL     1     -10.505  15.838  67.313  1.00  0.00    -0.302 N  
HETATM   13  O   UNL     1     -10.481  16.973  66.823  1.00  0.00    -0.308 OA 
HETATM   14  O   UNL     1     -10.583  15.584  68.521  1.00  0.00    -0.234 OA 
ENDBRANCH   5   6
ENDBRANCH   2   5
TORSDOF 2
ENDMDL
MODEL      104
REMARK 921   NORMALIZED FREE ENERGY PREDICTED BY IDOCK:   -3.65 KCAL/MOL
REMARK 922        TOTAL FREE ENERGY PREDICTED BY IDOCK:   -4.04 KCAL/MOL
REMARK 923 INTER-LIGAND FREE ENERGY PREDICTED BY IDOCK:   -3.80 KCAL/MOL
REMARK 924 INTRA-LIGAND FREE ENERGY PREDICTED BY IDOCK:   -0.24 KCAL/MOL
REMARK 927      BINDING AFFINITY PREDICTED BY RF-SCORE:    0.00 PKD
ROOT
HETATM    1  C   UNL     1     -10.775  10.601  67.191  1.00  0.00    -0.327 C  
HETATM    2  C   UNL     1     -11.019   9.368  68.053  1.00  0.00    -0.059 C  
HETATM    3  H   UNL     1     -10.752   7.451  67.853  1.00  0.00     0.000 HD 
HETATM    4  O   UNL     1     -10.601   8.221  67.316  1.00  0.00    -0.301 OA 
ENDROOT
BRANCH   2   5
HETATM    5  C   UNL     1     -10.280   9.481  69.394  1.00  0.00    -0.206 C  
BRANCH   5   6
HETATM    6  N   UNL     1     -11.044   8.963  70.518  1.00  0.00    -0.247 NA 
HETATM    7  C   UNL     1     -11.007   7.651  70.973  1.00  0.00    -0.248 A  
HETATM    8  N   UNL     1     -11.835   7.481  71.988  1.00  0.00    -0.285 NA 
HETATM    9  C   UNL     1     -10.150   6.566  70.424  1.00  0.00    -0.213 C  
HETATM   10  C   UNL     1     -12.432   8.691  72.202  1.00  0.00    -0.389 A  
HETATM   11  C   UNL     1     -11.964   9.616  71.305  1.00  0.00    -0.380 A  
HETATM   12  N   UNL     1     -12.354  10.983  71.209  1.00  0.00    -0.346 N  
HETATM   13  O   UNL     1     -13.276  11.346  71.950  1.00  0.00    -0.484 OA 
HETATM   14  O   UNL     1     -11.766  11.707  70.397  1.00  0.00    -0.313 OA 
ENDBRANCH   5   6
ENDBRANCH   2   5
TORSDOF 2
ENDMDL
MODEL      105
REMARK 921   NORMALIZED FREE ENERGY PREDICTED BY IDOCK:   -3.64 KCAL/MOL
REMARK 922        TOTAL FREE ENERGY PREDICTED BY IDOCK:   -4.02 KCAL/MOL
REMARK 923 INTER-LIGAND FREE ENERGY PREDICTED BY IDOCK:   -3.83 KCAL/MOL
REMARK 924 INTRA-LIGAND FREE ENERGY PREDICTED BY IDOCK:   -0.19 KCAL/MOL
REMARK 927      BINDING AFFINITY PREDICTED BY RF-SCORE:    0.00 PKD
ROOT
HETATM    1  C   UNL     1     -10.208  18.087  67.960  1.00  0.00    -0.390 C  
HETATM    2  C   UNL     1     -10.741  16.673  67.762  1.00  0.00    -0.327 C  
HETATM    3  H   UNL     1     -10.962  15.463  66.255  1.00  0.00     0.000 HD 
HETATM    4  O   UNL     1     -10.630  16.345  66.379  1.00  0.00    -0.301 OA 
ENDROOT
BRANCH   2   5
HETATM    5  C   UNL     1      -9.981  15.672  68.645  1.00  0.00    -0.208 C  
BRANCH   5   6
HETATM    6  N   UNL     1     -10.816  14.585  69.133  1.00  0.00    -0.259 NA 
HETATM    7  C   UNL     1     -11.668  14.662  70.228  1.00  0.00    -0.297 A  
HETATM    8  N   UNL     1     -12.265  13.504  70.441  1.00  0.00    -0.356 NA 
HETATM    9  C   UNL     1     -11.908  15.873  71.059  1.00  0.00    -0.468 C  
HETATM   10  C   UNL     1     -11.798  12.650  69.483  1.00  0.00    -0.312 A  
HETATM   11  C   UNL     1     -10.902  13.293  68.670  1.00  0.00    -0.259 A  
HETATM   12  N   UNL     1     -10.199  12.733  67.565  1.00  0.00    -0.214 N  
HETATM   13  O   UNL     1     -10.344  11.519  67.378  1.00  0.00    -0.199 OA 
HETATM   14  O   UNL     1      -9.490  13.480  66.879  1.00  0.00    -0.241 OA 
ENDBRANCH   5   6
ENDBRANCH   2   5
TORSDOF 2
ENDMDL
MODEL      106
REMARK 921   NORMALIZED FREE ENERGY PREDICTED BY IDOCK:   -3.60 KCAL/MOL
REMARK 922        TOTAL FREE ENERGY PREDICTED BY IDOCK:   -3.98 KCAL/MOL
REMARK 923 INTER-LIGAND FREE ENERGY PREDICTED BY IDOCK:   -3.84 KCAL/MOL
REMARK 924 INTRA-LIGAND FREE ENERGY PREDICTED BY IDOCK:   -0.14 KCAL/MOL
REMARK 927      BINDING AFFINITY PREDICTED BY RF-SCORE:    0.00 PKD
ROOT
HETATM    1  C   UNL     1     -14.317   7.696  71.246  1.00  0.00    -0.438 C  
HETATM    2  C   UNL     1     -12.932   7.327  71.764  1.00  0.00    -0.326 C  
HETATM    3  H   UNL     1     -11.304   6.592  70.993  1.00  0.00     0.000 HD 
HETATM    4  O   UNL     1     -12.168   6.822  70.671  1.00  0.00    -0.386 OA 
ENDROOT
BRANCH   2   5
HETATM    5  C   UNL     1     -12.252   8.537  72.420  1.00  0.00    -0.366 C  
BRANCH   5   6
HETATM    6  N   UNL     1     -10.971   8.874  71.818  1.00  0.00    -0.339 NA 
HETATM    7  C   UNL     1     -10.801   9.687  70.704  1.00  0.00    -0.320 A  
HETATM    8  N   UNL     1      -9.525   9.778  70.379  1.00  0.00    -0.214 NA 
HETATM    9  C   UNL     1     -11.888  10.386  69.966  1.00  0.00    -0.351 C  
HETATM   10  C   UNL     1      -8.844   9.012  71.282  1.00  0.00    -0.189 A  
HETATM   11  C   UNL     1      -9.715   8.443  72.174  1.00  0.00    -0.300 A  
HETATM   12  N   UNL     1      -9.382   7.576  73.254  1.00  0.00    -0.194 N  
HETATM   13  O   UNL     1      -8.198   7.229  73.338  1.00  0.00    -0.105 OA 
HETATM   14  O   UNL     1     -10.285   7.220  74.022  1.00  0.00    -0.311 OA 
ENDBRANCH   5   6
ENDBRANCH   2   5
TORSDOF 2
ENDMDL
MODEL      107
REMARK 921   NORMALIZED FREE ENERGY PREDICTED BY IDOCK:   -3.60 KCAL/MOL
REMARK 922        TOTAL FREE ENERGY PREDICTED BY IDOCK:   -3.98 KCAL/MOL
REMARK 923 INTER-LIGAND FREE ENERGY PREDICTED BY IDOCK:   -3.84 KCAL/MOL
REMARK 924 INTRA-LIGAND FREE ENERGY PREDICTED BY IDOCK:   -0.14 KCAL/MOL
REMARK 927      BINDING AFFINITY PREDICTED BY RF-SCORE:    0.00 PKD
ROOT
HETATM    1  C   UNL     1      -8.990  11.203  66.571  1.00  0.00    -0.185 C  
HETATM    2  C   UNL     1      -9.910  12.080  65.731  1.00  0.00    -0.242 C  
HETATM    3  H   UNL     1     -11.331  11.775  64.439  1.00  0.00     0.000 HD 
HETATM    4  O   UNL     1     -10.757  11.229  64.962  1.00  0.00    -0.293 OA 
ENDROOT
BRANCH   2   5
HETATM    5  C   UNL     1     -10.721  13.033  66.621  1.00  0.00    -0.274 C  
BRANCH   5   6
HETATM    6  N   UNL     1     -10.662  14.420  66.184  1.00  0.00    -0.298 NA 
HETATM    7  C   UNL     1     -11.309  14.934  65.067  1.00  0.00    -0.398 A  
HETATM    8  N   UNL     1     -11.036  16.217  64.914  1.00  0.00    -0.584 NA 
HETATM    9  C   UNL     1     -12.207  14.173  64.157  1.00  0.00    -0.423 C  
HETATM   10  C   UNL     1     -10.193  16.554  65.935  1.00  0.00    -0.349 A  
HETATM   11  C   UNL     1      -9.946  15.462  66.726  1.00  0.00    -0.249 A  
HETATM   12  N   UNL     1      -9.111  15.417  67.880  1.00  0.00    -0.178 N  
HETATM   13  O   UNL     1      -8.474  16.445  68.139  1.00  0.00    -0.180 OA 
HETATM   14  O   UNL     1      -9.067  14.367  68.533  1.00  0.00    -0.188 OA 
ENDBRANCH   5   6
ENDBRANCH   2   5
TORSDOF 2
ENDMDL
MODEL      108
REMARK 921   NORMALIZED FREE ENERGY PREDICTED BY IDOCK:   -3.58 KCAL/MOL
REMARK 922        TOTAL FREE ENERGY PREDICTED BY IDOCK:   -3.95 KCAL/MOL
REMARK 923 INTER-LIGAND FREE ENERGY PREDICTED BY IDOCK:   -3.75 KCAL/MOL
REMARK 924 INTRA-LIGAND FREE ENERGY PREDICTED BY IDOCK:   -0.20 KCAL/MOL
REMARK 927      BINDING AFFINITY PREDICTED BY RF-SCORE:    0.00 PKD
ROOT
HETATM    1  C   UNL     1      -8.861   9.365  67.193  1.00  0.00    -0.138 C  
HETATM    2  C   UNL     1     -10.117   9.361  68.057  1.00  0.00    -0.191 C  
HETATM    3  H   UNL     1     -11.357   8.011  68.709  1.00  0.00     0.000 HD 
HETATM    4  O   UNL     1     -10.574   8.014  68.171  1.00  0.00    -0.193 OA 
ENDROOT
BRANCH   2   5
HETATM    5  C   UNL     1      -9.839   9.984  69.432  1.00  0.00    -0.224 C  
BRANCH   5   6
HETATM    6  N   UNL     1     -11.047  10.244  70.201  1.00  0.00    -0.299 NA 
HETATM    7  C   UNL     1     -11.925  11.297  69.977  1.00  0.00    -0.368 A  
HETATM    8  N   UNL     1     -12.908  11.284  70.859  1.00  0.00    -0.292 NA 
HETATM    9  C   UNL     1     -11.811  12.308  68.892  1.00  0.00    -0.355 C  
HETATM   10  C   UNL     1     -12.674  10.217  71.679  1.00  0.00    -0.456 A  
HETATM   11  C   UNL     1     -11.531   9.566  71.295  1.00  0.00    -0.377 A  
HETATM   12  N   UNL     1     -10.959   8.414  71.909  1.00  0.00    -0.282 N  
HETATM   13  O   UNL     1     -11.500   8.019  72.949  1.00  0.00    -0.411 OA 
HETATM   14  O   UNL     1      -9.968   7.897  71.380  1.00  0.00    -0.170 OA 
ENDBRANCH   5   6
ENDBRANCH   2   5
TORSDOF 2
ENDMDL
MODEL      109
REMARK 921   NORMALIZED FREE ENERGY PREDICTED BY IDOCK:   -3.57 KCAL/MOL
REMARK 922        TOTAL FREE ENERGY PREDICTED BY IDOCK:   -3.95 KCAL/MOL
REMARK 923 INTER-LIGAND FREE ENERGY PREDICTED BY IDOCK:   -3.73 KCAL/MOL
REMARK 924 INTRA-LIGAND FREE ENERGY PREDICTED BY IDOCK:   -0.21 KCAL/MOL
REMARK 927      BINDING AFFINITY PREDICTED BY RF-SCORE:    0.00 PKD
ROOT
HETATM    1  C   UNL     1      -9.330   7.445  71.108  1.00  0.00    -0.156 C  
HETATM    2  C   UNL     1      -9.618   8.936  70.971  1.00  0.00    -0.255 C  
HETATM    3  H   UNL     1      -8.651  10.488  70.309  1.00  0.00     0.000 HD 
HETATM    4  O   UNL     1      -8.472   9.559  70.394  1.00  0.00    -0.191 OA 
ENDROOT
BRANCH   2   5
HETATM    5  C   UNL     1     -10.879   9.176  70.130  1.00  0.00    -0.240 C  
BRANCH   5   6
HETATM    6  N   UNL     1     -11.717  10.250  70.642  1.00  0.00    -0.321 NA 
HETATM    7  C   UNL     1     -12.617  10.128  71.694  1.00  0.00    -0.434 A  
HETATM    8  N   UNL     1     -13.253  11.267  71.902  1.00  0.00    -0.461 NA 
HETATM    9  C   UNL     1     -12.845   8.901  72.504  1.00  0.00    -0.401 C  
HETATM   10  C   UNL     1     -12.774  12.148  70.975  1.00  0.00    -0.228 A  
HETATM   11  C   UNL     1     -11.832  11.542  70.186  1.00  0.00    -0.356 A  
HETATM   12  N   UNL     1     -11.115  12.135  69.107  1.00  0.00    -0.227 N  
HETATM   13  O   UNL     1     -11.444  13.285  68.793  1.00  0.00    -0.263 OA 
HETATM   14  O   UNL     1     -10.231  11.470  68.552  1.00  0.00    -0.201 OA 
ENDBRANCH   5   6
ENDBRANCH   2   5
TORSDOF 2
ENDMDL
MODEL      110
REMARK 921   NORMALIZED FREE ENERGY PREDICTED BY IDOCK:   -3.56 KCAL/MOL
REMARK 922        TOTAL FREE ENERGY PREDICTED BY IDOCK:   -3.93 KCAL/MOL
REMARK 923 INTER-LIGAND FREE ENERGY PREDICTED BY IDOCK:   -3.79 KCAL/MOL
REMARK 924 INTRA-LIGAND FREE ENERGY PREDICTED BY IDOCK:   -0.14 KCAL/MOL
REMARK 927      BINDING AFFINITY PREDICTED BY RF-SCORE:    0.00 PKD
ROOT
HETATM    1  C   UNL     1     -11.875  14.706  69.340  1.00  0.00    -0.368 C  
HETATM    2  C   UNL     1     -11.333  16.106  69.599  1.00  0.00    -0.316 C  
HETATM    3  H   UNL     1     -11.187  17.283  71.142  1.00  0.00     0.000 HD 
HETATM    4  O   UNL     1     -11.525  16.410  70.980  1.00  0.00    -0.388 OA 
ENDROOT
BRANCH   2   5
HETATM    5  C   UNL     1      -9.855  16.205  69.197  1.00  0.00    -0.250 C  
BRANCH   5   6
HETATM    6  N   UNL     1      -9.659  16.695  67.841  1.00  0.00    -0.231 NA 
HETATM    7  C   UNL     1      -9.455  15.894  66.724  1.00  0.00    -0.235 A  
HETATM    8  N   UNL     1      -9.277  16.631  65.643  1.00  0.00    -0.452 NA 
HETATM    9  C   UNL     1      -9.450  14.406  66.712  1.00  0.00    -0.280 C  
HETATM   10  C   UNL     1      -9.356  17.933  66.050  1.00  0.00    -0.029 A  
HETATM   11  C   UNL     1      -9.585  17.995  67.399  1.00  0.00    -0.272 A  
HETATM   12  N   UNL     1      -9.720  19.175  68.187  1.00  0.00    -0.339 N  
HETATM   13  O   UNL     1      -9.518  20.249  67.609  1.00  0.00    -0.370 OA 
HETATM   14  O   UNL     1     -10.014  19.053  69.382  1.00  0.00    -0.256 OA 
ENDBRANCH   5   6
ENDBRANCH   2   5
TORSDOF 2
ENDMDL
MODEL      111
REMARK 921   NORMALIZED FREE ENERGY PREDICTED BY IDOCK:   -3.56 KCAL/MOL
REMARK 922        TOTAL FREE ENERGY PREDICTED BY IDOCK:   -3.93 KCAL/MOL
REMARK 923 INTER-LIGAND FREE ENERGY PREDICTED BY IDOCK:   -3.74 KCAL/MOL
REMARK 924 INTRA-LIGAND FREE ENERGY PREDICTED BY IDOCK:   -0.19 KCAL/MOL
REMARK 927      BINDING AFFINITY PREDICTED BY RF-SCORE:    0.00 PKD
ROOT
HETATM    1  C   UNL     1      -7.990  10.307  67.511  1.00  0.00    -0.106 C  
HETATM    2  C   UNL     1      -8.922  11.479  67.796  1.00  0.00    -0.160 C  
HETATM    3  H   UNL     1      -8.985  13.362  67.311  1.00  0.00     0.000 HD 
HETATM    4  O   UNL     1      -8.404  12.631  67.133  1.00  0.00    -0.181 OA 
ENDROOT
BRANCH   2   5
HETATM    5  C   UNL     1     -10.355  11.162  67.348  1.00  0.00    -0.196 C  
BRANCH   5   6
HETATM    6  N   UNL     1     -11.044  12.306  66.768  1.00  0.00    -0.279 NA 
HETATM    7  C   UNL     1     -11.755  13.258  67.488  1.00  0.00    -0.366 A  
HETATM    8  N   UNL     1     -12.293  14.152  66.679  1.00  0.00    -0.424 NA 
HETATM    9  C   UNL     1     -11.897  13.300  68.968  1.00  0.00    -0.365 C  
HETATM   10  C   UNL     1     -11.941  13.785  65.412  1.00  0.00    -0.379 A  
HETATM   11  C   UNL     1     -11.176  12.648  65.443  1.00  0.00    -0.299 A  
HETATM   12  N   UNL     1     -10.628  11.959  64.323  1.00  0.00    -0.306 N  
HETATM   13  O   UNL     1     -10.952  12.378  63.206  1.00  0.00    -0.438 OA 
HETATM   14  O   UNL     1      -9.883  10.994  64.534  1.00  0.00    -0.243 OA 
ENDBRANCH   5   6
ENDBRANCH   2   5
TORSDOF 2
ENDMDL
MODEL      112
REMARK 921   NORMALIZED FREE ENERGY PREDICTED BY IDOCK:   -3.54 KCAL/MOL
REMARK 922        TOTAL FREE ENERGY PREDICTED BY IDOCK:   -3.91 KCAL/MOL
REMARK 923 INTER-LIGAND FREE ENERGY PREDICTED BY IDOCK:   -3.70 KCAL/MOL
REMARK 924 INTRA-LIGAND FREE ENERGY PREDICTED BY IDOCK:   -0.21 KCAL/MOL
REMARK 927      BINDING AFFINITY PREDICTED BY RF-SCORE:    0.00 PKD
ROOT
HETATM    1  C   UNL     1      -8.401   6.916  70.183  1.00  0.00    -0.135 C  
HETATM    2  C   UNL     1      -9.628   7.758  69.851  1.00  0.00    -0.164 C  
HETATM    3  H   UNL     1     -11.521   7.415  69.568  1.00  0.00     0.000 HD 
HETATM    4  O   UNL     1     -10.757   6.890  69.775  1.00  0.00    -0.222 OA 
ENDROOT
BRANCH   2   5
HETATM    5  C   UNL     1      -9.832   8.865  70.894  1.00  0.00    -0.242 C  
BRANCH   5   6
HETATM    6  N   UNL     1     -10.962   9.733  70.600  1.00  0.00    -0.307 NA 
HETATM    7  C   UNL     1     -10.967  10.743  69.646  1.00  0.00    -0.264 A  
HETATM    8  N   UNL     1     -12.126  11.375  69.636  1.00  0.00    -0.314 NA 
HETATM    9  C   UNL     1      -9.841  11.080  68.733  1.00  0.00    -0.206 C  
HETATM   10  C   UNL     1     -12.894  10.783  70.598  1.00  0.00    -0.293 A  
HETATM   11  C   UNL     1     -12.195   9.773  71.207  1.00  0.00    -0.374 A  
HETATM   12  N   UNL     1     -12.657   8.933  72.262  1.00  0.00    -0.389 N  
HETATM   13  O   UNL     1     -13.767   9.204  72.736  1.00  0.00    -0.434 OA 
HETATM   14  O   UNL     1     -11.928   8.008  72.638  1.00  0.00    -0.356 OA 
ENDBRANCH   5   6
ENDBRANCH   2   5
TORSDOF 2
ENDMDL
MODEL      113
REMARK 921   NORMALIZED FREE ENERGY PREDICTED BY IDOCK:   -3.53 KCAL/MOL
REMARK 922        TOTAL FREE ENERGY PREDICTED BY IDOCK:   -3.90 KCAL/MOL
REMARK 923 INTER-LIGAND FREE ENERGY PREDICTED BY IDOCK:   -3.66 KCAL/MOL
REMARK 924 INTRA-LIGAND FREE ENERGY PREDICTED BY IDOCK:   -0.24 KCAL/MOL
REMARK 927      BINDING AFFINITY PREDICTED BY RF-SCORE:    0.00 PKD
ROOT
HETATM    1  C   UNL     1     -10.084  11.770  63.304  1.00  0.00    -0.448 C  
HETATM    2  C   UNL     1     -10.041  10.708  64.397  1.00  0.00    -0.349 C  
HETATM    3  H   UNL     1      -9.224   8.956  64.608  1.00  0.00     0.000 HD 
HETATM    4  O   UNL     1      -9.251   9.618  63.927  1.00  0.00    -0.249 OA 
ENDROOT
BRANCH   2   5
HETATM    5  C   UNL     1      -9.486  11.290  65.705  1.00  0.00    -0.229 C  
BRANCH   5   6
HETATM    6  N   UNL     1     -10.484  11.393  66.759  1.00  0.00    -0.234 NA 
HETATM    7  C   UNL     1     -11.328  12.479  66.955  1.00  0.00    -0.328 A  
HETATM    8  N   UNL     1     -12.099  12.290  68.011  1.00  0.00    -0.409 NA 
HETATM    9  C   UNL     1     -11.391  13.696  66.102  1.00  0.00    -0.324 C  
HETATM   10  C   UNL     1     -11.756  11.071  68.522  1.00  0.00    -0.278 A  
HETATM   11  C   UNL     1     -10.761  10.503  67.770  1.00  0.00    -0.272 A  
HETATM   12  N   UNL     1     -10.138   9.242  67.993  1.00  0.00    -0.183 N  
HETATM   13  O   UNL     1     -10.465   8.641  69.023  1.00  0.00    -0.216 OA 
HETATM   14  O   UNL     1      -9.314   8.838  67.163  1.00  0.00    -0.141 OA 
ENDBRANCH   5   6
ENDBRANCH   2   5
TORSDOF 2
ENDMDL
MODEL      114
REMARK 921   NORMALIZED FREE ENERGY PREDICTED BY IDOCK:   -3.53 KCAL/MOL
REMARK 922        TOTAL FREE ENERGY PREDICTED BY IDOCK:   -3.90 KCAL/MOL
REMARK 923 INTER-LIGAND FREE ENERGY PREDICTED BY IDOCK:   -3.70 KCAL/MOL
REMARK 924 INTRA-LIGAND FREE ENERGY PREDICTED BY IDOCK:   -0.20 KCAL/MOL
REMARK 927      BINDING AFFINITY PREDICTED BY RF-SCORE:    0.00 PKD
ROOT
HETATM    1  C   UNL     1      -9.552  11.255  66.235  1.00  0.00    -0.235 C  
HETATM    2  C   UNL     1      -9.993  11.788  67.593  1.00  0.00    -0.194 C  
HETATM    3  H   UNL     1      -9.217  12.933  68.961  1.00  0.00     0.000 HD 
HETATM    4  O   UNL     1      -8.942  12.600  68.114  1.00  0.00    -0.191 OA 
ENDROOT
BRANCH   2   5
HETATM    5  C   UNL     1     -11.309  12.570  67.475  1.00  0.00    -0.312 C  
BRANCH   5   6
HETATM    6  N   UNL     1     -11.427  13.648  68.445  1.00  0.00    -0.288 NA 
HETATM    7  C   UNL     1     -11.893  13.505  69.746  1.00  0.00    -0.329 A  
HETATM    8  N   UNL     1     -11.914  14.669  70.368  1.00  0.00    -0.291 NA 
HETATM    9  C   UNL     1     -12.306  12.226  70.384  1.00  0.00    -0.309 C  
HETATM   10  C   UNL     1     -11.465  15.593  69.469  1.00  0.00    -0.344 A  
HETATM   11  C   UNL     1     -11.164  14.987  68.276  1.00  0.00    -0.299 A  
HETATM   12  N   UNL     1     -10.676  15.622  67.098  1.00  0.00    -0.313 N  
HETATM   13  O   UNL     1     -10.604  16.856  67.126  1.00  0.00    -0.313 OA 
HETATM   14  O   UNL     1     -10.370  14.912  66.132  1.00  0.00    -0.278 OA 
ENDBRANCH   5   6
ENDBRANCH   2   5
TORSDOF 2
ENDMDL
MODEL      115
REMARK 921   NORMALIZED FREE ENERGY PREDICTED BY IDOCK:   -3.51 KCAL/MOL
REMARK 922        TOTAL FREE ENERGY PREDICTED BY IDOCK:   -3.88 KCAL/MOL
REMARK 923 INTER-LIGAND FREE ENERGY PREDICTED BY IDOCK:   -3.66 KCAL/MOL
REMARK 924 INTRA-LIGAND FREE ENERGY PREDICTED BY IDOCK:   -0.22 KCAL/MOL
REMARK 927      BINDING AFFINITY PREDICTED BY RF-SCORE:    0.00 PKD
ROOT
HETATM    1  C   UNL     1      -9.442   6.586  68.912  1.00  0.00    -0.129 C  
HETATM    2  C   UNL     1     -10.601   7.491  69.311  1.00  0.00    -0.210 C  
HETATM    3  H   UNL     1     -12.270   7.273  70.286  1.00  0.00     0.000 HD 
HETATM    4  O   UNL     1     -11.547   6.709  70.037  1.00  0.00    -0.380 OA 
ENDROOT
BRANCH   2   5
HETATM    5  C   UNL     1     -10.104   8.687  70.134  1.00  0.00    -0.185 C  
BRANCH   5   6
HETATM    6  N   UNL     1     -10.757   9.940  69.783  1.00  0.00    -0.248 NA 
HETATM    7  C   UNL     1     -10.445  10.720  68.677  1.00  0.00    -0.192 A  
HETATM    8  N   UNL     1     -11.188  11.811  68.648  1.00  0.00    -0.234 NA 
HETATM    9  C   UNL     1      -9.429  10.392  67.641  1.00  0.00    -0.165 C  
HETATM   10  C   UNL     1     -11.995  11.756  69.749  1.00  0.00    -0.322 A  
HETATM   11  C   UNL     1     -11.742  10.615  70.465  1.00  0.00    -0.356 A  
HETATM   12  N   UNL     1     -12.376  10.210  71.675  1.00  0.00    -0.397 N  
HETATM   13  O   UNL     1     -13.169  11.016  72.178  1.00  0.00    -0.481 OA 
HETATM   14  O   UNL     1     -12.091   9.102  72.146  1.00  0.00    -0.362 OA 
ENDBRANCH   5   6
ENDBRANCH   2   5
TORSDOF 2
ENDMDL
MODEL      116
REMARK 921   NORMALIZED FREE ENERGY PREDICTED BY IDOCK:   -3.50 KCAL/MOL
REMARK 922        TOTAL FREE ENERGY PREDICTED BY IDOCK:   -3.87 KCAL/MOL
REMARK 923 INTER-LIGAND FREE ENERGY PREDICTED BY IDOCK:   -3.66 KCAL/MOL
REMARK 924 INTRA-LIGAND FREE ENERGY PREDICTED BY IDOCK:   -0.20 KCAL/MOL
REMARK 927      BINDING AFFINITY PREDICTED BY RF-SCORE:    0.00 PKD
ROOT
HETATM    1  C   UNL     1      -6.821  14.721  69.173  1.00  0.00    -0.133 C  
HETATM    2  C   UNL     1      -6.802  16.184  68.745  1.00  0.00    -0.144 C  
HETATM    3  H   UNL     1      -6.281  17.163  67.147  1.00  0.00     0.000 HD 
HETATM    4  O   UNL     1      -6.293  16.251  67.415  1.00  0.00    -0.146 OA 
ENDROOT
BRANCH   2   5
HETATM    5  C   UNL     1      -8.203  16.804  68.848  1.00  0.00    -0.224 C  
BRANCH   5   6
HETATM    6  N   UNL     1      -8.418  17.899  67.915  1.00  0.00    -0.246 NA 
HETATM    7  C   UNL     1      -7.963  19.200  68.091  1.00  0.00    -0.304 A  
HETATM    8  N   UNL     1      -8.345  19.971  67.089  1.00  0.00    -0.320 NA 
HETATM    9  C   UNL     1      -7.143  19.685  69.233  1.00  0.00    -0.366 C  
HETATM   10  C   UNL     1      -9.066  19.174  66.245  1.00  0.00    -0.310 A  
HETATM   11  C   UNL     1      -9.128  17.896  66.737  1.00  0.00    -0.268 A  
HETATM   12  N   UNL     1      -9.796  16.787  66.143  1.00  0.00    -0.308 N  
HETATM   13  O   UNL     1     -10.464  17.024  65.130  1.00  0.00    -0.667 OA 
HETATM   14  O   UNL     1      -9.678  15.676  66.675  1.00  0.00    -0.230 OA 
ENDBRANCH   5   6
ENDBRANCH   2   5
TORSDOF 2
ENDMDL
MODEL      117
REMARK 921   NORMALIZED FREE ENERGY PREDICTED BY IDOCK:   -3.48 KCAL/MOL
REMARK 922        TOTAL FREE ENERGY PREDICTED BY IDOCK:   -3.85 KCAL/MOL
REMARK 923 INTER-LIGAND FREE ENERGY PREDICTED BY IDOCK:   -3.73 KCAL/MOL
REMARK 924 INTRA-LIGAND FREE ENERGY PREDICTED BY IDOCK:   -0.12 KCAL/MOL
REMARK 927      BINDING AFFINITY PREDICTED BY RF-SCORE:    0.00 PKD
ROOT
HETATM    1  C   UNL     1     -11.903  11.949  69.188  1.00  0.00    -0.371 C  
HETATM    2  C   UNL     1     -11.674  11.190  70.490  1.00  0.00    -0.293 C  
HETATM    3  H   UNL     1     -12.622  10.996  72.177  1.00  0.00     0.000 HD 
HETATM    4  O   UNL     1     -12.765  11.469  71.365  1.00  0.00    -0.397 OA 
ENDROOT
BRANCH   2   5
HETATM    5  C   UNL     1     -11.525   9.685  70.229  1.00  0.00    -0.233 C  
BRANCH   5   6
HETATM    6  N   UNL     1     -11.154   8.928  71.415  1.00  0.00    -0.279 NA 
HETATM    7  C   UNL     1     -12.046   8.289  72.267  1.00  0.00    -0.379 A  
HETATM    8  N   UNL     1     -11.409   7.715  73.271  1.00  0.00    -0.261 NA 
HETATM    9  C   UNL     1     -13.522   8.227  72.090  1.00  0.00    -0.301 C  
HETATM   10  C   UNL     1     -10.082   7.984  73.086  1.00  0.00    -0.232 A  
HETATM   11  C   UNL     1      -9.903   8.733  71.953  1.00  0.00    -0.324 A  
HETATM   12  N   UNL     1      -8.666   9.214  71.436  1.00  0.00    -0.116 N  
HETATM   13  O   UNL     1      -7.663   9.012  72.131  1.00  0.00    -0.351 OA 
HETATM   14  O   UNL     1      -8.672   9.804  70.349  1.00  0.00    -0.195 OA 
ENDBRANCH   5   6
ENDBRANCH   2   5
TORSDOF 2
ENDMDL
MODEL      118
REMARK 921   NORMALIZED FREE ENERGY PREDICTED BY IDOCK:   -3.44 KCAL/MOL
REMARK 922        TOTAL FREE ENERGY PREDICTED BY IDOCK:   -3.80 KCAL/MOL
REMARK 923 INTER-LIGAND FREE ENERGY PREDICTED BY IDOCK:   -3.73 KCAL/MOL
REMARK 924 INTRA-LIGAND FREE ENERGY PREDICTED BY IDOCK:   -0.07 KCAL/MOL
REMARK 927      BINDING AFFINITY PREDICTED BY RF-SCORE:    0.00 PKD
ROOT
HETATM    1  C   UNL     1      -5.583  19.741  63.989  1.00  0.00    -0.297 C  
HETATM    2  C   UNL     1      -6.592  19.301  65.044  1.00  0.00    -0.146 C  
HETATM    3  H   UNL     1      -6.667  17.921  66.413  1.00  0.00     0.000 HD 
HETATM    4  O   UNL     1      -6.038  18.196  65.756  1.00  0.00    -0.201 OA 
ENDROOT
BRANCH   2   5
HETATM    5  C   UNL     1      -6.944  20.462  65.984  1.00  0.00    -0.236 C  
BRANCH   5   6
HETATM    6  N   UNL     1      -7.435  20.024  67.282  1.00  0.00    -0.264 NA 
HETATM    7  C   UNL     1      -6.673  19.949  68.440  1.00  0.00    -0.297 A  
HETATM    8  N   UNL     1      -7.392  19.485  69.447  1.00  0.00    -0.288 NA 
HETATM    9  C   UNL     1      -5.244  20.343  68.567  1.00  0.00    -0.257 C  
HETATM   10  C   UNL     1      -8.640  19.245  68.947  1.00  0.00    -0.296 A  
HETATM   11  C   UNL     1      -8.688  19.565  67.615  1.00  0.00    -0.315 A  
HETATM   12  N   UNL     1      -9.813  19.444  66.750  1.00  0.00    -0.336 N  
HETATM   13  O   UNL     1     -10.821  18.911  67.229  1.00  0.00    -0.458 OA 
HETATM   14  O   UNL     1      -9.711  19.864  65.591  1.00  0.00    -0.342 OA 
ENDBRANCH   5   6
ENDBRANCH   2   5
TORSDOF 2
ENDMDL
MODEL      119
REMARK 921   NORMALIZED FREE ENERGY PREDICTED BY IDOCK:   -3.44 KCAL/MOL
REMARK 922        TOTAL FREE ENERGY PREDICTED BY IDOCK:   -3.80 KCAL/MOL
REMARK 923 INTER-LIGAND FREE ENERGY PREDICTED BY IDOCK:   -3.69 KCAL/MOL
REMARK 924 INTRA-LIGAND FREE ENERGY PREDICTED BY IDOCK:   -0.12 KCAL/MOL
REMARK 927      BINDING AFFINITY PREDICTED BY RF-SCORE:    0.00 PKD
ROOT
HETATM    1  C   UNL     1      -9.863  19.125  66.892  1.00  0.00    -0.403 C  
HETATM    2  C   UNL     1     -10.294  17.752  66.390  1.00  0.00    -0.351 C  
HETATM    3  H   UNL     1      -9.464  16.311  65.381  1.00  0.00     0.000 HD 
HETATM    4  O   UNL     1      -9.195  17.167  65.694  1.00  0.00    -0.509 OA 
ENDROOT
BRANCH   2   5
HETATM    5  C   UNL     1     -10.766  16.866  67.552  1.00  0.00    -0.270 C  
BRANCH   5   6
HETATM    6  N   UNL     1     -10.198  15.527  67.523  1.00  0.00    -0.250 NA 
HETATM    7  C   UNL     1     -10.753  14.438  66.862  1.00  0.00    -0.292 A  
HETATM    8  N   UNL     1     -10.023  13.354  67.049  1.00  0.00    -0.242 NA 
HETATM    9  C   UNL     1     -11.990  14.462  66.036  1.00  0.00    -0.377 C  
HETATM   10  C   UNL     1      -8.979  13.726  67.847  1.00  0.00    -0.193 A  
HETATM   11  C   UNL     1      -9.070  15.059  68.155  1.00  0.00    -0.178 A  
HETATM   12  N   UNL     1      -8.172  15.808  68.969  1.00  0.00    -0.217 N  
HETATM   13  O   UNL     1      -7.272  15.170  69.528  1.00  0.00    -0.179 OA 
HETATM   14  O   UNL     1      -8.352  17.027  69.074  1.00  0.00    -0.225 OA 
ENDBRANCH   5   6
ENDBRANCH   2   5
TORSDOF 2
ENDMDL
MODEL      120
REMARK 921   NORMALIZED FREE ENERGY PREDICTED BY IDOCK:   -3.43 KCAL/MOL
REMARK 922        TOTAL FREE ENERGY PREDICTED BY IDOCK:   -3.79 KCAL/MOL
REMARK 923 INTER-LIGAND FREE ENERGY PREDICTED BY IDOCK:   -3.69 KCAL/MOL
REMARK 924 INTRA-LIGAND FREE ENERGY PREDICTED BY IDOCK:   -0.10 KCAL/MOL
REMARK 927      BINDING AFFINITY PREDICTED BY RF-SCORE:    0.00 PKD
ROOT
HETATM    1  C   UNL     1      -8.688   6.068  69.844  1.00  0.00    -0.131 C  
HETATM    2  C   UNL     1      -9.736   7.151  69.620  1.00  0.00    -0.158 C  
HETATM    3  H   UNL     1     -11.680   7.231  69.610  1.00  0.00     0.000 HD 
HETATM    4  O   UNL     1     -11.026   6.556  69.749  1.00  0.00    -0.273 OA 
ENDROOT
BRANCH   2   5
HETATM    5  C   UNL     1      -9.546   8.311  70.608  1.00  0.00    -0.171 C  
BRANCH   5   6
HETATM    6  N   UNL     1     -10.798   8.819  71.148  1.00  0.00    -0.249 NA 
HETATM    7  C   UNL     1     -11.391   8.389  72.329  1.00  0.00    -0.378 A  
HETATM    8  N   UNL     1     -12.535   9.015  72.535  1.00  0.00    -0.299 NA 
HETATM    9  C   UNL     1     -10.831   7.375  73.263  1.00  0.00    -0.417 C  
HETATM   10  C   UNL     1     -12.705   9.862  71.477  1.00  0.00    -0.415 A  
HETATM   11  C   UNL     1     -11.650   9.754  70.609  1.00  0.00    -0.313 A  
HETATM   12  N   UNL     1     -11.473  10.469  69.389  1.00  0.00    -0.260 N  
HETATM   13  O   UNL     1     -12.411  11.192  69.034  1.00  0.00    -0.439 OA 
HETATM   14  O   UNL     1     -10.415  10.317  68.766  1.00  0.00    -0.182 OA 
ENDBRANCH   5   6
ENDBRANCH   2   5
TORSDOF 2
ENDMDL
MODEL      121
REMARK 921   NORMALIZED FREE ENERGY PREDICTED BY IDOCK:   -3.43 KCAL/MOL
REMARK 922        TOTAL FREE ENERGY PREDICTED BY IDOCK:   -3.79 KCAL/MOL
REMARK 923 INTER-LIGAND FREE ENERGY PREDICTED BY IDOCK:   -3.54 KCAL/MOL
REMARK 924 INTRA-LIGAND FREE ENERGY PREDICTED BY IDOCK:   -0.25 KCAL/MOL
REMARK 927      BINDING AFFINITY PREDICTED BY RF-SCORE:    0.00 PKD
ROOT
HETATM    1  C   UNL     1      -9.115   8.864  68.109  1.00  0.00    -0.142 C  
HETATM    2  C   UNL     1     -10.074   9.998  68.450  1.00  0.00    -0.165 C  
HETATM    3  H   UNL     1     -10.753  10.807  70.084  1.00  0.00     0.000 HD 
HETATM    4  O   UNL     1     -10.156  10.099  69.871  1.00  0.00    -0.244 OA 
ENDROOT
BRANCH   2   5
HETATM    5  C   UNL     1      -9.613  11.316  67.813  1.00  0.00    -0.174 C  
BRANCH   5   6
HETATM    6  N   UNL     1     -10.648  11.967  67.024  1.00  0.00    -0.221 NA 
HETATM    7  C   UNL     1     -11.675  12.747  67.540  1.00  0.00    -0.364 A  
HETATM    8  N   UNL     1     -12.472  13.172  66.578  1.00  0.00    -0.324 NA 
HETATM    9  C   UNL     1     -11.867  13.089  68.976  1.00  0.00    -0.362 C  
HETATM   10  C   UNL     1     -11.973  12.662  65.413  1.00  0.00    -0.446 A  
HETATM   11  C   UNL     1     -10.853  11.914  65.665  1.00  0.00    -0.286 A  
HETATM   12  N   UNL     1     -10.060  11.218  64.707  1.00  0.00    -0.265 N  
HETATM   13  O   UNL     1     -10.479  11.215  63.543  1.00  0.00    -0.364 OA 
HETATM   14  O   UNL     1      -9.025  10.660  65.094  1.00  0.00    -0.187 OA 
ENDBRANCH   5   6
ENDBRANCH   2   5
TORSDOF 2
ENDMDL
MODEL      122
REMARK 921   NORMALIZED FREE ENERGY PREDICTED BY IDOCK:   -3.42 KCAL/MOL
REMARK 922        TOTAL FREE ENERGY PREDICTED BY IDOCK:   -3.78 KCAL/MOL
REMARK 923 INTER-LIGAND FREE ENERGY PREDICTED BY IDOCK:   -3.53 KCAL/MOL
REMARK 924 INTRA-LIGAND FREE ENERGY PREDICTED BY IDOCK:   -0.25 KCAL/MOL
REMARK 927      BINDING AFFINITY PREDICTED BY RF-SCORE:    0.00 PKD
ROOT
HETATM    1  C   UNL     1      -8.686  10.515  67.854  1.00  0.00    -0.126 C  
HETATM    2  C   UNL     1      -9.062  11.988  67.955  1.00  0.00    -0.188 C  
HETATM    3  H   UNL     1      -8.436  13.646  67.152  1.00  0.00     0.000 HD 
HETATM    4  O   UNL     1      -8.202  12.727  67.090  1.00  0.00    -0.179 OA 
ENDROOT
BRANCH   2   5
HETATM    5  C   UNL     1     -10.541  12.202  67.603  1.00  0.00    -0.210 C  
BRANCH   5   6
HETATM    6  N   UNL     1     -11.232  13.084  68.532  1.00  0.00    -0.256 NA 
HETATM    7  C   UNL     1     -11.287  14.469  68.428  1.00  0.00    -0.289 A  
HETATM    8  N   UNL     1     -11.960  14.989  69.438  1.00  0.00    -0.312 NA 
HETATM    9  C   UNL     1     -10.693  15.281  67.332  1.00  0.00    -0.293 C  
HETATM   10  C   UNL     1     -12.347  13.940  70.222  1.00  0.00    -0.345 A  
HETATM   11  C   UNL     1     -11.906  12.759  69.686  1.00  0.00    -0.317 A  
HETATM   12  N   UNL     1     -12.106  11.453  70.220  1.00  0.00    -0.358 N  
HETATM   13  O   UNL     1     -12.654  11.389  71.327  1.00  0.00    -0.394 OA 
HETATM   14  O   UNL     1     -11.716  10.482  69.560  1.00  0.00    -0.262 OA 
ENDBRANCH   5   6
ENDBRANCH   2   5
TORSDOF 2
ENDMDL
MODEL      123
REMARK 921   NORMALIZED FREE ENERGY PREDICTED BY IDOCK:   -3.42 KCAL/MOL
REMARK 922        TOTAL FREE ENERGY PREDICTED BY IDOCK:   -3.78 KCAL/MOL
REMARK 923 INTER-LIGAND FREE ENERGY PREDICTED BY IDOCK:   -3.57 KCAL/MOL
REMARK 924 INTRA-LIGAND FREE ENERGY PREDICTED BY IDOCK:   -0.21 KCAL/MOL
REMARK 927      BINDING AFFINITY PREDICTED BY RF-SCORE:    0.00 PKD
ROOT
HETATM    1  C   UNL     1      -7.850  12.123  67.242  1.00  0.00    -0.176 C  
HETATM    2  C   UNL     1      -8.195  13.578  67.538  1.00  0.00    -0.183 C  
HETATM    3  H   UNL     1      -7.305  15.294  67.326  1.00  0.00     0.000 HD 
HETATM    4  O   UNL     1      -7.090  14.387  67.142  1.00  0.00    -0.150 OA 
ENDROOT
BRANCH   2   5
HETATM    5  C   UNL     1      -9.487  13.991  66.821  1.00  0.00    -0.282 C  
BRANCH   5   6
HETATM    6  N   UNL     1     -10.319  14.892  67.605  1.00  0.00    -0.240 NA 
HETATM    7  C   UNL     1     -11.174  14.503  68.628  1.00  0.00    -0.261 A  
HETATM    8  N   UNL     1     -11.816  15.543  69.127  1.00  0.00    -0.360 NA 
HETATM    9  C   UNL     1     -11.352  13.113  69.129  1.00  0.00    -0.335 C  
HETATM   10  C   UNL     1     -11.387  16.632  68.421  1.00  0.00    -0.142 A  
HETATM   11  C   UNL     1     -10.469  16.253  67.476  1.00  0.00    -0.302 A  
HETATM   12  N   UNL     1      -9.805  17.103  66.546  1.00  0.00    -0.283 N  
HETATM   13  O   UNL     1     -10.161  18.287  66.529  1.00  0.00    -0.354 OA 
HETATM   14  O   UNL     1      -8.935  16.610  65.817  1.00  0.00    -0.498 OA 
ENDBRANCH   5   6
ENDBRANCH   2   5
TORSDOF 2
ENDMDL
MODEL      124
REMARK 921   NORMALIZED FREE ENERGY PREDICTED BY IDOCK:   -3.41 KCAL/MOL
REMARK 922        TOTAL FREE ENERGY PREDICTED BY IDOCK:   -3.77 KCAL/MOL
REMARK 923 INTER-LIGAND FREE ENERGY PREDICTED BY IDOCK:   -3.56 KCAL/MOL
REMARK 924 INTRA-LIGAND FREE ENERGY PREDICTED BY IDOCK:   -0.21 KCAL/MOL
REMARK 927      BINDING AFFINITY PREDICTED BY RF-SCORE:    0.00 PKD
ROOT
HETATM    1  C   UNL     1      -9.556   9.993  64.790  1.00  0.00    -0.374 C  
HETATM    2  C   UNL     1     -10.521  10.968  65.454  1.00  0.00    -0.241 C  
HETATM    3  H   UNL     1     -11.216  11.237  67.251  1.00  0.00     0.000 HD 
HETATM    4  O   UNL     1     -10.615  10.629  66.836  1.00  0.00    -0.246 OA 
ENDROOT
BRANCH   2   5
HETATM    5  C   UNL     1     -10.057  12.418  65.255  1.00  0.00    -0.265 C  
BRANCH   5   6
HETATM    6  N   UNL     1     -10.483  13.310  66.324  1.00  0.00    -0.282 NA 
HETATM    7  C   UNL     1     -11.719  13.941  66.393  1.00  0.00    -0.383 A  
HETATM    8  N   UNL     1     -11.794  14.711  67.463  1.00  0.00    -0.380 NA 
HETATM    9  C   UNL     1     -12.832  13.778  65.420  1.00  0.00    -0.455 C  
HETATM   10  C   UNL     1     -10.593  14.595  68.104  1.00  0.00    -0.237 A  
HETATM   11  C   UNL     1      -9.769  13.741  67.417  1.00  0.00    -0.235 A  
HETATM   12  N   UNL     1      -8.438  13.376  67.768  1.00  0.00    -0.167 N  
HETATM   13  O   UNL     1      -7.945  13.959  68.741  1.00  0.00    -0.129 OA 
HETATM   14  O   UNL     1      -7.863  12.521  67.084  1.00  0.00    -0.169 OA 
ENDBRANCH   5   6
ENDBRANCH   2   5
TORSDOF 2
ENDMDL
MODEL      125
REMARK 921   NORMALIZED FREE ENERGY PREDICTED BY IDOCK:   -3.41 KCAL/MOL
REMARK 922        TOTAL FREE ENERGY PREDICTED BY IDOCK:   -3.77 KCAL/MOL
REMARK 923 INTER-LIGAND FREE ENERGY PREDICTED BY IDOCK:   -3.77 KCAL/MOL
REMARK 924 INTRA-LIGAND FREE ENERGY PREDICTED BY IDOCK:   -0.00 KCAL/MOL
REMARK 927      BINDING AFFINITY PREDICTED BY RF-SCORE:    0.00 PKD
ROOT
HETATM    1  C   UNL     1     -12.262  14.905  64.211  1.00  0.00    -0.365 C  
HETATM    2  C   UNL     1     -11.932  13.441  64.479  1.00  0.00    -0.407 C  
HETATM    3  H   UNL     1     -12.430  11.733  63.694  1.00  0.00     0.000 HD 
HETATM    4  O   UNL     1     -12.635  12.645  63.528  1.00  0.00    -0.696 OA 
ENDROOT
BRANCH   2   5
HETATM    5  C   UNL     1     -10.418  13.200  64.413  1.00  0.00    -0.407 C  
BRANCH   5   6
HETATM    6  N   UNL     1      -9.893  12.512  65.584  1.00  0.00    -0.248 NA 
HETATM    7  C   UNL     1      -9.892  13.022  66.876  1.00  0.00    -0.240 A  
HETATM    8  N   UNL     1      -9.318  12.178  67.714  1.00  0.00    -0.186 NA 
HETATM    9  C   UNL     1     -10.467  14.329  67.294  1.00  0.00    -0.269 C  
HETATM   10  C   UNL     1      -8.928  11.102  66.968  1.00  0.00    -0.154 A  
HETATM   11  C   UNL     1      -9.267  11.289  65.653  1.00  0.00    -0.213 A  
HETATM   12  N   UNL     1      -9.019  10.393  64.573  1.00  0.00    -0.201 N  
HETATM   13  O   UNL     1      -8.349   9.387  64.835  1.00  0.00    -0.132 OA 
HETATM   14  O   UNL     1      -9.473  10.677  63.458  1.00  0.00    -0.250 OA 
ENDBRANCH   5   6
ENDBRANCH   2   5
TORSDOF 2
ENDMDL
MODEL      126
REMARK 921   NORMALIZED FREE ENERGY PREDICTED BY IDOCK:   -3.40 KCAL/MOL
REMARK 922        TOTAL FREE ENERGY PREDICTED BY IDOCK:   -3.76 KCAL/MOL
REMARK 923 INTER-LIGAND FREE ENERGY PREDICTED BY IDOCK:   -3.54 KCAL/MOL
REMARK 924 INTRA-LIGAND FREE ENERGY PREDICTED BY IDOCK:   -0.22 KCAL/MOL
REMARK 927      BINDING AFFINITY PREDICTED BY RF-SCORE:    0.00 PKD
ROOT
HETATM    1  C   UNL     1      -7.249  11.188  68.377  1.00  0.00    -0.083 C  
HETATM    2  C   UNL     1      -8.621  11.151  67.716  1.00  0.00    -0.131 C  
HETATM    3  H   UNL     1     -10.466  11.082  68.331  1.00  0.00     0.000 HD 
HETATM    4  O   UNL     1      -9.610  11.105  68.743  1.00  0.00    -0.192 OA 
ENDROOT
BRANCH   2   5
HETATM    5  C   UNL     1      -8.818  12.363  66.793  1.00  0.00    -0.189 C  
BRANCH   5   6
HETATM    6  N   UNL     1     -10.210  12.599  66.442  1.00  0.00    -0.246 NA 
HETATM    7  C   UNL     1     -10.911  11.919  65.454  1.00  0.00    -0.294 A  
HETATM    8  N   UNL     1     -12.143  12.382  65.349  1.00  0.00    -0.520 NA 
HETATM    9  C   UNL     1     -10.379  10.807  64.620  1.00  0.00    -0.394 C  
HETATM   10  C   UNL     1     -12.257  13.382  66.272  1.00  0.00    -0.398 A  
HETATM   11  C   UNL     1     -11.077  13.536  66.952  1.00  0.00    -0.296 A  
HETATM   12  N   UNL     1     -10.806  14.481  67.984  1.00  0.00    -0.241 N  
HETATM   13  O   UNL     1     -11.696  15.305  68.224  1.00  0.00    -0.343 OA 
HETATM   14  O   UNL     1      -9.711  14.427  68.557  1.00  0.00    -0.216 OA 
ENDBRANCH   5   6
ENDBRANCH   2   5
TORSDOF 2
ENDMDL
MODEL      127
REMARK 921   NORMALIZED FREE ENERGY PREDICTED BY IDOCK:   -3.37 KCAL/MOL
REMARK 922        TOTAL FREE ENERGY PREDICTED BY IDOCK:   -3.73 KCAL/MOL
REMARK 923 INTER-LIGAND FREE ENERGY PREDICTED BY IDOCK:   -3.80 KCAL/MOL
REMARK 924 INTRA-LIGAND FREE ENERGY PREDICTED BY IDOCK:    0.07 KCAL/MOL
REMARK 927      BINDING AFFINITY PREDICTED BY RF-SCORE:    0.00 PKD
ROOT
HETATM    1  C   UNL     1     -11.024   6.010  71.095  1.00  0.00    -0.341 C  
HETATM    2  C   UNL     1     -10.960   6.128  72.613  1.00  0.00    -0.256 C  
HETATM    3  H   UNL     1      -9.822   5.417  74.021  1.00  0.00     0.000 HD 
HETATM    4  O   UNL     1      -9.862   5.343  73.074  1.00  0.00    -0.159 OA 
ENDROOT
BRANCH   2   5
HETATM    5  C   UNL     1     -10.829   7.596  73.043  1.00  0.00    -0.400 C  
BRANCH   5   6
HETATM    6  N   UNL     1     -10.539   8.497  71.938  1.00  0.00    -0.295 NA 
HETATM    7  C   UNL     1      -9.275   8.738  71.414  1.00  0.00    -0.255 A  
HETATM    8  N   UNL     1      -9.331   9.628  70.440  1.00  0.00    -0.250 NA 
HETATM    9  C   UNL     1      -8.012   8.088  71.859  1.00  0.00    -0.140 C  
HETATM   10  C   UNL     1     -10.645   9.984  70.322  1.00  0.00    -0.295 A  
HETATM   11  C   UNL     1     -11.405   9.304  71.238  1.00  0.00    -0.353 A  
HETATM   12  N   UNL     1     -12.813   9.413  71.425  1.00  0.00    -0.337 N  
HETATM   13  O   UNL     1     -13.392  10.276  70.756  1.00  0.00    -0.349 OA 
HETATM   14  O   UNL     1     -13.358   8.658  72.240  1.00  0.00    -0.370 OA 
ENDBRANCH   5   6
ENDBRANCH   2   5
TORSDOF 2
ENDMDL
MODEL      128
REMARK 921   NORMALIZED FREE ENERGY PREDICTED BY IDOCK:   -3.35 KCAL/MOL
REMARK 922        TOTAL FREE ENERGY PREDICTED BY IDOCK:   -3.70 KCAL/MOL
REMARK 923 INTER-LIGAND FREE ENERGY PREDICTED BY IDOCK:   -3.58 KCAL/MOL
REMARK 924 INTRA-LIGAND FREE ENERGY PREDICTED BY IDOCK:   -0.12 KCAL/MOL
REMARK 927      BINDING AFFINITY PREDICTED BY RF-SCORE:    0.00 PKD
ROOT
HETATM    1  C   UNL     1     -11.406  14.701  65.849  1.00  0.00    -0.338 C  
HETATM    2  C   UNL     1     -11.893  13.851  67.017  1.00  0.00    -0.415 C  
HETATM    3  H   UNL     1     -12.677  12.083  67.224  1.00  0.00     0.000 HD 
HETATM    4  O   UNL     1     -12.374  12.613  66.496  1.00  0.00    -0.500 OA 
ENDROOT
BRANCH   2   5
HETATM    5  C   UNL     1     -10.773  13.638  68.045  1.00  0.00    -0.247 C  
BRANCH   5   6
HETATM    6  N   UNL     1     -10.444  12.236  68.256  1.00  0.00    -0.220 NA 
HETATM    7  C   UNL     1      -9.602  11.483  67.447  1.00  0.00    -0.168 A  
HETATM    8  N   UNL     1      -9.527  10.237  67.878  1.00  0.00    -0.141 NA 
HETATM    9  C   UNL     1      -8.858  11.986  66.260  1.00  0.00    -0.075 C  
HETATM   10  C   UNL     1     -10.333  10.162  68.978  1.00  0.00    -0.212 A  
HETATM   11  C   UNL     1     -10.911  11.380  69.225  1.00  0.00    -0.229 A  
HETATM   12  N   UNL     1     -11.817  11.695  70.279  1.00  0.00    -0.345 N  
HETATM   13  O   UNL     1     -12.190  10.751  70.985  1.00  0.00    -0.342 OA 
HETATM   14  O   UNL     1     -12.178  12.871  70.413  1.00  0.00    -0.354 OA 
ENDBRANCH   5   6
ENDBRANCH   2   5
TORSDOF 2
ENDMDL
MODEL      129
REMARK 921   NORMALIZED FREE ENERGY PREDICTED BY IDOCK:   -3.35 KCAL/MOL
REMARK 922        TOTAL FREE ENERGY PREDICTED BY IDOCK:   -3.70 KCAL/MOL
REMARK 923 INTER-LIGAND FREE ENERGY PREDICTED BY IDOCK:   -3.46 KCAL/MOL
REMARK 924 INTRA-LIGAND FREE ENERGY PREDICTED BY IDOCK:   -0.24 KCAL/MOL
REMARK 927      BINDING AFFINITY PREDICTED BY RF-SCORE:    0.00 PKD
ROOT
HETATM    1  C   UNL     1     -10.735  16.320  67.429  1.00  0.00    -0.287 C  
HETATM    2  C   UNL     1     -10.705  14.908  66.854  1.00  0.00    -0.308 C  
HETATM    3  H   UNL     1     -10.076  14.085  65.207  1.00  0.00     0.000 HD 
HETATM    4  O   UNL     1     -10.096  14.965  65.566  1.00  0.00    -0.328 OA 
ENDROOT
BRANCH   2   5
HETATM    5  C   UNL     1      -9.959  13.950  67.793  1.00  0.00    -0.241 C  
BRANCH   5   6
HETATM    6  N   UNL     1     -10.720  12.754  68.119  1.00  0.00    -0.219 NA 
HETATM    7  C   UNL     1     -11.740  12.688  69.060  1.00  0.00    -0.318 A  
HETATM    8  N   UNL     1     -12.216  11.459  69.152  1.00  0.00    -0.378 NA 
HETATM    9  C   UNL     1     -12.260  13.831  69.858  1.00  0.00    -0.383 C  
HETATM   10  C   UNL     1     -11.498  10.703  68.270  1.00  0.00    -0.245 A  
HETATM   11  C   UNL     1     -10.569  11.478  67.627  1.00  0.00    -0.199 A  
HETATM   12  N   UNL     1      -9.632  11.046  66.644  1.00  0.00    -0.186 N  
HETATM   13  O   UNL     1      -9.594   9.832  66.416  1.00  0.00    -0.174 OA 
HETATM   14  O   UNL     1      -8.920  11.897  66.096  1.00  0.00    -0.195 OA 
ENDBRANCH   5   6
ENDBRANCH   2   5
TORSDOF 2
ENDMDL
MODEL      130
REMARK 921   NORMALIZED FREE ENERGY PREDICTED BY IDOCK:   -3.33 KCAL/MOL
REMARK 922        TOTAL FREE ENERGY PREDICTED BY IDOCK:   -3.68 KCAL/MOL
REMARK 923 INTER-LIGAND FREE ENERGY PREDICTED BY IDOCK:   -3.53 KCAL/MOL
REMARK 924 INTRA-LIGAND FREE ENERGY PREDICTED BY IDOCK:   -0.14 KCAL/MOL
REMARK 927      BINDING AFFINITY PREDICTED BY RF-SCORE:    0.00 PKD
ROOT
HETATM    1  C   UNL     1      -8.550   6.852  68.574  1.00  0.00    -0.123 C  
HETATM    2  C   UNL     1      -9.307   7.999  67.913  1.00  0.00    -0.138 C  
HETATM    3  H   UNL     1     -11.171   8.409  67.541  1.00  0.00     0.000 HD 
HETATM    4  O   UNL     1     -10.699   7.694  67.953  1.00  0.00    -0.189 OA 
ENDROOT
BRANCH   2   5
HETATM    5  C   UNL     1      -8.997   9.332  68.607  1.00  0.00    -0.132 C  
BRANCH   5   6
HETATM    6  N   UNL     1     -10.166   9.951  69.213  1.00  0.00    -0.195 NA 
HETATM    7  C   UNL     1     -10.584   9.757  70.524  1.00  0.00    -0.312 A  
HETATM    8  N   UNL     1     -11.695  10.428  70.768  1.00  0.00    -0.347 NA 
HETATM    9  C   UNL     1      -9.887   8.926  71.543  1.00  0.00    -0.384 C  
HETATM   10  C   UNL     1     -12.020  11.066  69.605  1.00  0.00    -0.353 A  
HETATM   11  C   UNL     1     -11.095  10.783  68.634  1.00  0.00    -0.259 A  
HETATM   12  N   UNL     1     -11.099  11.257  67.290  1.00  0.00    -0.291 N  
HETATM   13  O   UNL     1     -12.085  11.916  66.941  1.00  0.00    -0.599 OA 
HETATM   14  O   UNL     1     -10.137  10.975  66.565  1.00  0.00    -0.211 OA 
ENDBRANCH   5   6
ENDBRANCH   2   5
TORSDOF 2
ENDMDL
MODEL      131
REMARK 921   NORMALIZED FREE ENERGY PREDICTED BY IDOCK:   -3.31 KCAL/MOL
REMARK 922        TOTAL FREE ENERGY PREDICTED BY IDOCK:   -3.66 KCAL/MOL
REMARK 923 INTER-LIGAND FREE ENERGY PREDICTED BY IDOCK:   -3.54 KCAL/MOL
REMARK 924 INTRA-LIGAND FREE ENERGY PREDICTED BY IDOCK:   -0.12 KCAL/MOL
REMARK 927      BINDING AFFINITY PREDICTED BY RF-SCORE:    0.00 PKD
ROOT
HETATM    1  C   UNL     1      -9.431  13.623  66.802  1.00  0.00    -0.275 C  
HETATM    2  C   UNL     1     -10.475  13.475  67.903  1.00  0.00    -0.250 C  
HETATM    3  H   UNL     1     -11.749  14.651  68.785  1.00  0.00     0.000 HD 
HETATM    4  O   UNL     1     -11.098  14.743  68.099  1.00  0.00    -0.259 OA 
ENDROOT
BRANCH   2   5
HETATM    5  C   UNL     1     -11.499  12.389  67.546  1.00  0.00    -0.346 C  
BRANCH   5   6
HETATM    6  N   UNL     1     -11.138  11.070  68.045  1.00  0.00    -0.262 NA 
HETATM    7  C   UNL     1     -11.290  10.645  69.359  1.00  0.00    -0.284 A  
HETATM    8  N   UNL     1     -10.842   9.412  69.508  1.00  0.00    -0.232 NA 
HETATM    9  C   UNL     1     -11.887  11.441  70.466  1.00  0.00    -0.394 C  
HETATM   10  C   UNL     1     -10.382   9.020  68.284  1.00  0.00    -0.209 A  
HETATM   11  C   UNL     1     -10.550  10.027  67.369  1.00  0.00    -0.271 A  
HETATM   12  N   UNL     1     -10.186   9.997  65.992  1.00  0.00    -0.237 N  
HETATM   13  O   UNL     1      -9.574   8.994  65.606  1.00  0.00    -0.247 OA 
HETATM   14  O   UNL     1     -10.490  10.964  65.282  1.00  0.00    -0.271 OA 
ENDBRANCH   5   6
ENDBRANCH   2   5
TORSDOF 2
ENDMDL
MODEL      132
REMARK 921   NORMALIZED FREE ENERGY PREDICTED BY IDOCK:   -3.28 KCAL/MOL
REMARK 922        TOTAL FREE ENERGY PREDICTED BY IDOCK:   -3.62 KCAL/MOL
REMARK 923 INTER-LIGAND FREE ENERGY PREDICTED BY IDOCK:   -3.40 KCAL/MOL
REMARK 924 INTRA-LIGAND FREE ENERGY PREDICTED BY IDOCK:   -0.22 KCAL/MOL
REMARK 927      BINDING AFFINITY PREDICTED BY RF-SCORE:    0.00 PKD
ROOT
HETATM    1  C   UNL     1      -9.188  10.065  65.430  1.00  0.00    -0.259 C  
HETATM    2  C   UNL     1      -9.440  10.809  66.736  1.00  0.00    -0.173 C  
HETATM    3  H   UNL     1      -9.300  12.652  67.341  1.00  0.00     0.000 HD 
HETATM    4  O   UNL     1      -9.142  12.188  66.527  1.00  0.00    -0.208 OA 
ENDROOT
BRANCH   2   5
HETATM    5  C   UNL     1     -10.885  10.606  67.212  1.00  0.00    -0.287 C  
BRANCH   5   6
HETATM    6  N   UNL     1     -10.981  10.206  68.608  1.00  0.00    -0.236 NA 
HETATM    7  C   UNL     1     -10.713   8.932  69.094  1.00  0.00    -0.143 A  
HETATM    8  N   UNL     1     -10.921   8.874  70.397  1.00  0.00    -0.240 NA 
HETATM    9  C   UNL     1     -10.241   7.776  68.286  1.00  0.00    -0.236 C  
HETATM   10  C   UNL     1     -11.337  10.118  70.775  1.00  0.00    -0.354 A  
HETATM   11  C   UNL     1     -11.385  10.953  69.689  1.00  0.00    -0.292 A  
HETATM   12  N   UNL     1     -11.778  12.322  69.684  1.00  0.00    -0.317 N  
HETATM   13  O   UNL     1     -12.206  12.777  70.752  1.00  0.00    -0.367 OA 
HETATM   14  O   UNL     1     -11.680  12.958  68.627  1.00  0.00    -0.286 OA 
ENDBRANCH   5   6
ENDBRANCH   2   5
TORSDOF 2
ENDMDL
MODEL      133
REMARK 921   NORMALIZED FREE ENERGY PREDICTED BY IDOCK:   -3.27 KCAL/MOL
REMARK 922        TOTAL FREE ENERGY PREDICTED BY IDOCK:   -3.61 KCAL/MOL
REMARK 923 INTER-LIGAND FREE ENERGY PREDICTED BY IDOCK:   -3.44 KCAL/MOL
REMARK 924 INTRA-LIGAND FREE ENERGY PREDICTED BY IDOCK:   -0.17 KCAL/MOL
REMARK 927      BINDING AFFINITY PREDICTED BY RF-SCORE:    0.00 PKD
ROOT
HETATM    1  C   UNL     1     -10.667   7.420  66.972  1.00  0.00    -0.389 C  
HETATM    2  C   UNL     1     -10.631   6.529  68.208  1.00  0.00    -0.249 C  
HETATM    3  H   UNL     1     -10.096   4.699  68.594  1.00  0.00     0.000 HD 
HETATM    4  O   UNL     1     -10.119   5.255  67.823  1.00  0.00    -0.157 OA 
ENDROOT
BRANCH   2   5
HETATM    5  C   UNL     1      -9.787   7.168  69.319  1.00  0.00    -0.161 C  
BRANCH   5   6
HETATM    6  N   UNL     1     -10.586   7.767  70.378  1.00  0.00    -0.223 NA 
HETATM    7  C   UNL     1     -10.923   9.112  70.461  1.00  0.00    -0.258 A  
HETATM    8  N   UNL     1     -11.627   9.354  71.551  1.00  0.00    -0.373 NA 
HETATM    9  C   UNL     1     -10.567  10.159  69.465  1.00  0.00    -0.269 C  
HETATM   10  C   UNL     1     -11.751   8.159  72.200  1.00  0.00    -0.359 A  
HETATM   11  C   UNL     1     -11.114   7.169  71.498  1.00  0.00    -0.239 A  
HETATM   12  N   UNL     1     -11.018   5.794  71.860  1.00  0.00    -0.260 N  
HETATM   13  O   UNL     1     -11.479   5.482  72.964  1.00  0.00    -0.291 OA 
HETATM   14  O   UNL     1     -10.480   5.013  71.065  1.00  0.00    -0.213 OA 
ENDBRANCH   5   6
ENDBRANCH   2   5
TORSDOF 2
ENDMDL
MODEL      134
REMARK 921   NORMALIZED FREE ENERGY PREDICTED BY IDOCK:   -3.25 KCAL/MOL
REMARK 922        TOTAL FREE ENERGY PREDICTED BY IDOCK:   -3.59 KCAL/MOL
REMARK 923 INTER-LIGAND FREE ENERGY PREDICTED BY IDOCK:   -3.42 KCAL/MOL
REMARK 924 INTRA-LIGAND FREE ENERGY PREDICTED BY IDOCK:   -0.17 KCAL/MOL
REMARK 927      BINDING AFFINITY PREDICTED BY RF-SCORE:    0.00 PKD
ROOT
HETATM    1  C   UNL     1      -9.758   4.941  68.050  1.00  0.00    -0.202 C  
HETATM    2  C   UNL     1      -9.994   5.350  69.499  1.00  0.00    -0.219 C  
HETATM    3  H   UNL     1      -8.979   6.290  70.866  1.00  0.00     0.000 HD 
HETATM    4  O   UNL     1      -8.832   6.035  69.963  1.00  0.00    -0.136 OA 
ENDROOT
BRANCH   2   5
HETATM    5  C   UNL     1     -11.253   6.218  69.625  1.00  0.00    -0.437 C  
BRANCH   5   6
HETATM    6  N   UNL     1     -11.157   7.223  70.674  1.00  0.00    -0.257 NA 
HETATM    7  C   UNL     1     -11.308   6.977  72.032  1.00  0.00    -0.264 A  
HETATM    8  N   UNL     1     -11.198   8.095  72.728  1.00  0.00    -0.384 NA 
HETATM    9  C   UNL     1     -11.546   5.646  72.652  1.00  0.00    -0.307 C  
HETATM   10  C   UNL     1     -10.979   9.091  71.819  1.00  0.00    -0.372 A  
HETATM   11  C   UNL     1     -10.955   8.578  70.549  1.00  0.00    -0.241 A  
HETATM   12  N   UNL     1     -10.760   9.306  69.340  1.00  0.00    -0.224 N  
HETATM   13  O   UNL     1     -10.698  10.537  69.442  1.00  0.00    -0.211 OA 
HETATM   14  O   UNL     1     -10.678   8.673  68.279  1.00  0.00    -0.164 OA 
ENDBRANCH   5   6
ENDBRANCH   2   5
TORSDOF 2
ENDMDL
MODEL      135
REMARK 921   NORMALIZED FREE ENERGY PREDICTED BY IDOCK:   -3.22 KCAL/MOL
REMARK 922        TOTAL FREE ENERGY PREDICTED BY IDOCK:   -3.56 KCAL/MOL
REMARK 923 INTER-LIGAND FREE ENERGY PREDICTED BY IDOCK:   -3.36 KCAL/MOL
REMARK 924 INTRA-LIGAND FREE ENERGY PREDICTED BY IDOCK:   -0.20 KCAL/MOL
REMARK 927      BINDING AFFINITY PREDICTED BY RF-SCORE:    0.00 PKD
ROOT
HETATM    1  C   UNL     1     -11.975  12.139  63.654  1.00  0.00    -0.628 C  
HETATM    2  C   UNL     1     -10.587  11.895  64.235  1.00  0.00    -0.334 C  
HETATM    3  H   UNL     1      -9.294  12.939  65.246  1.00  0.00     0.000 HD 
HETATM    4  O   UNL     1     -10.159  13.091  64.883  1.00  0.00    -0.278 OA 
ENDROOT
BRANCH   2   5
HETATM    5  C   UNL     1     -10.599  10.700  65.199  1.00  0.00    -0.120 C  
BRANCH   5   6
HETATM    6  N   UNL     1      -9.680  10.854  66.318  1.00  0.00    -0.197 NA 
HETATM    7  C   UNL     1      -8.333  10.514  66.297  1.00  0.00    -0.152 A  
HETATM    8  N   UNL     1      -7.774  10.740  67.472  1.00  0.00    -0.103 NA 
HETATM    9  C   UNL     1      -7.589   9.983  65.124  1.00  0.00    -0.138 C  
HETATM   10  C   UNL     1      -8.763  11.226  68.280  1.00  0.00    -0.158 A  
HETATM   11  C   UNL     1      -9.945  11.300  67.591  1.00  0.00    -0.178 A  
HETATM   12  N   UNL     1     -11.199  11.749  68.097  1.00  0.00    -0.239 N  
HETATM   13  O   UNL     1     -11.244  12.012  69.305  1.00  0.00    -0.244 OA 
HETATM   14  O   UNL     1     -12.152  11.836  67.313  1.00  0.00    -0.595 OA 
ENDBRANCH   5   6
ENDBRANCH   2   5
TORSDOF 2
ENDMDL
MODEL      136
REMARK 921   NORMALIZED FREE ENERGY PREDICTED BY IDOCK:   -3.21 KCAL/MOL
REMARK 922        TOTAL FREE ENERGY PREDICTED BY IDOCK:   -3.55 KCAL/MOL
REMARK 923 INTER-LIGAND FREE ENERGY PREDICTED BY IDOCK:   -3.35 KCAL/MOL
REMARK 924 INTRA-LIGAND FREE ENERGY PREDICTED BY IDOCK:   -0.20 KCAL/MOL
REMARK 927      BINDING AFFINITY PREDICTED BY RF-SCORE:    0.00 PKD
ROOT
HETATM    1  C   UNL     1      -7.416  11.220  68.984  1.00  0.00    -0.116 C  
HETATM    2  C   UNL     1      -7.772  12.046  67.753  1.00  0.00    -0.139 C  
HETATM    3  H   UNL     1      -7.400  11.940  65.847  1.00  0.00     0.000 HD 
HETATM    4  O   UNL     1      -7.178  11.425  66.615  1.00  0.00    -0.140 OA 
ENDROOT
BRANCH   2   5
HETATM    5  C   UNL     1      -9.294  12.175  67.601  1.00  0.00    -0.187 C  
BRANCH   5   6
HETATM    6  N   UNL     1      -9.691  13.026  66.489  1.00  0.00    -0.262 NA 
HETATM    7  C   UNL     1      -9.617  14.413  66.479  1.00  0.00    -0.293 A  
HETATM    8  N   UNL     1     -10.080  14.901  65.343  1.00  0.00    -0.364 NA 
HETATM    9  C   UNL     1      -9.079  15.262  67.577  1.00  0.00    -0.189 C  
HETATM   10  C   UNL     1     -10.472  13.826  64.597  1.00  0.00    -0.412 A  
HETATM   11  C   UNL     1     -10.246  12.662  65.285  1.00  0.00    -0.284 A  
HETATM   12  N   UNL     1     -10.531  11.340  64.839  1.00  0.00    -0.302 N  
HETATM   13  O   UNL     1     -11.126  11.238  63.760  1.00  0.00    -0.380 OA 
HETATM   14  O   UNL     1     -10.181  10.391  65.552  1.00  0.00    -0.278 OA 
ENDBRANCH   5   6
ENDBRANCH   2   5
TORSDOF 2
ENDMDL
MODEL      137
REMARK 921   NORMALIZED FREE ENERGY PREDICTED BY IDOCK:   -3.20 KCAL/MOL
REMARK 922        TOTAL FREE ENERGY PREDICTED BY IDOCK:   -3.54 KCAL/MOL
REMARK 923 INTER-LIGAND FREE ENERGY PREDICTED BY IDOCK:   -3.33 KCAL/MOL
REMARK 924 INTRA-LIGAND FREE ENERGY PREDICTED BY IDOCK:   -0.21 KCAL/MOL
REMARK 927      BINDING AFFINITY PREDICTED BY RF-SCORE:    0.00 PKD
ROOT
HETATM    1  C   UNL     1      -6.152  12.258  67.806  1.00  0.00    -0.102 C  
HETATM    2  C   UNL     1      -7.481  12.591  67.137  1.00  0.00    -0.075 C  
HETATM    3  H   UNL     1      -8.790  11.620  66.075  1.00  0.00     0.000 HD 
HETATM    4  O   UNL     1      -7.961  11.413  66.492  1.00  0.00    -0.164 OA 
ENDROOT
BRANCH   2   5
HETATM    5  C   UNL     1      -8.491  13.129  68.161  1.00  0.00    -0.173 C  
BRANCH   5   6
HETATM    6  N   UNL     1      -9.782  13.460  67.577  1.00  0.00    -0.219 NA 
HETATM    7  C   UNL     1     -10.048  14.593  66.818  1.00  0.00    -0.265 A  
HETATM    8  N   UNL     1     -11.318  14.629  66.458  1.00  0.00    -0.348 NA 
HETATM    9  C   UNL     1      -9.056  15.633  66.434  1.00  0.00    -0.355 C  
HETATM   10  C   UNL     1     -11.899  13.514  66.990  1.00  0.00    -0.402 A  
HETATM   11  C   UNL     1     -10.973  12.782  67.687  1.00  0.00    -0.244 A  
HETATM   12  N   UNL     1     -11.202  11.562  68.386  1.00  0.00    -0.231 N  
HETATM   13  O   UNL     1     -12.375  11.173  68.445  1.00  0.00    -0.556 OA 
HETATM   14  O   UNL     1     -10.232  10.983  68.890  1.00  0.00    -0.195 OA 
ENDBRANCH   5   6
ENDBRANCH   2   5
TORSDOF 2
ENDMDL
MODEL      138
REMARK 921   NORMALIZED FREE ENERGY PREDICTED BY IDOCK:   -3.19 KCAL/MOL
REMARK 922        TOTAL FREE ENERGY PREDICTED BY IDOCK:   -3.52 KCAL/MOL
REMARK 923 INTER-LIGAND FREE ENERGY PREDICTED BY IDOCK:   -3.33 KCAL/MOL
REMARK 924 INTRA-LIGAND FREE ENERGY PREDICTED BY IDOCK:   -0.19 KCAL/MOL
REMARK 927      BINDING AFFINITY PREDICTED BY RF-SCORE:    0.00 PKD
ROOT
HETATM    1  C   UNL     1     -11.468  16.012  71.469  1.00  0.00    -0.459 C  
HETATM    2  C   UNL     1     -11.751  14.782  70.613  1.00  0.00    -0.297 C  
HETATM    3  H   UNL     1     -13.322  13.727  70.163  1.00  0.00     0.000 HD 
HETATM    4  O   UNL     1     -13.145  14.493  70.696  1.00  0.00    -0.357 OA 
ENDROOT
BRANCH   2   5
HETATM    5  C   UNL     1     -11.304  15.009  69.163  1.00  0.00    -0.296 C  
BRANCH   5   6
HETATM    6  N   UNL     1     -10.304  14.052  68.712  1.00  0.00    -0.240 NA 
HETATM    7  C   UNL     1     -10.555  12.720  68.406  1.00  0.00    -0.248 A  
HETATM    8  N   UNL     1      -9.442  12.100  68.058  1.00  0.00    -0.195 NA 
HETATM    9  C   UNL     1     -11.886  12.056  68.442  1.00  0.00    -0.360 C  
HETATM   10  C   UNL     1      -8.444  13.029  68.141  1.00  0.00    -0.176 A  
HETATM   11  C   UNL     1      -8.952  14.236  68.546  1.00  0.00    -0.185 A  
HETATM   12  N   UNL     1      -8.221  15.441  68.754  1.00  0.00    -0.158 N  
HETATM   13  O   UNL     1      -6.991  15.366  68.647  1.00  0.00    -0.106 OA 
HETATM   14  O   UNL     1      -8.850  16.469  69.036  1.00  0.00    -0.257 OA 
ENDBRANCH   5   6
ENDBRANCH   2   5
TORSDOF 2
ENDMDL
MODEL      139
REMARK 921   NORMALIZED FREE ENERGY PREDICTED BY IDOCK:   -3.19 KCAL/MOL
REMARK 922        TOTAL FREE ENERGY PREDICTED BY IDOCK:   -3.52 KCAL/MOL
REMARK 923 INTER-LIGAND FREE ENERGY PREDICTED BY IDOCK:   -3.60 KCAL/MOL
REMARK 924 INTRA-LIGAND FREE ENERGY PREDICTED BY IDOCK:    0.07 KCAL/MOL
REMARK 927      BINDING AFFINITY PREDICTED BY RF-SCORE:    0.00 PKD
ROOT
HETATM    1  C   UNL     1     -14.196   7.380  71.532  1.00  0.00    -0.571 C  
HETATM    2  C   UNL     1     -13.202   8.530  71.633  1.00  0.00    -0.343 C  
HETATM    3  H   UNL     1     -13.267  10.384  72.220  1.00  0.00     0.000 HD 
HETATM    4  O   UNL     1     -13.887   9.667  72.156  1.00  0.00    -0.366 OA 
ENDROOT
BRANCH   2   5
HETATM    5  C   UNL     1     -12.001   8.141  72.507  1.00  0.00    -0.350 C  
BRANCH   5   6
HETATM    6  N   UNL     1     -10.961   7.433  71.774  1.00  0.00    -0.231 NA 
HETATM    7  C   UNL     1     -10.657   6.085  71.921  1.00  0.00    -0.226 A  
HETATM    8  N   UNL     1      -9.646   5.744  71.144  1.00  0.00    -0.165 NA 
HETATM    9  C   UNL     1     -11.366   5.127  72.812  1.00  0.00    -0.311 C  
HETATM   10  C   UNL     1      -9.271   6.878  70.482  1.00  0.00    -0.156 A  
HETATM   11  C   UNL     1     -10.065   7.931  70.858  1.00  0.00    -0.190 A  
HETATM   12  N   UNL     1      -9.976   9.274  70.392  1.00  0.00    -0.219 N  
HETATM   13  O   UNL     1      -9.028   9.535  69.641  1.00  0.00    -0.159 OA 
HETATM   14  O   UNL     1     -10.830  10.085  70.769  1.00  0.00    -0.312 OA 
ENDBRANCH   5   6
ENDBRANCH   2   5
TORSDOF 2
ENDMDL
MODEL      140
REMARK 921   NORMALIZED FREE ENERGY PREDICTED BY IDOCK:   -3.19 KCAL/MOL
REMARK 922        TOTAL FREE ENERGY PREDICTED BY IDOCK:   -3.52 KCAL/MOL
REMARK 923 INTER-LIGAND FREE ENERGY PREDICTED BY IDOCK:   -3.38 KCAL/MOL
REMARK 924 INTRA-LIGAND FREE ENERGY PREDICTED BY IDOCK:   -0.13 KCAL/MOL
REMARK 927      BINDING AFFINITY PREDICTED BY RF-SCORE:    0.00 PKD
ROOT
HETATM    1  C   UNL     1     -11.647  12.633  69.008  1.00  0.00    -0.367 C  
HETATM    2  C   UNL     1     -11.075  12.347  67.624  1.00  0.00    -0.259 C  
HETATM    3  H   UNL     1     -11.761  11.626  65.953  1.00  0.00     0.000 HD 
HETATM    4  O   UNL     1     -12.117  11.804  66.816  1.00  0.00    -0.547 OA 
ENDROOT
BRANCH   2   5
HETATM    5  C   UNL     1     -10.480  13.619  67.003  1.00  0.00    -0.270 C  
BRANCH   5   6
HETATM    6  N   UNL     1      -9.430  14.218  67.813  1.00  0.00    -0.211 NA 
HETATM    7  C   UNL     1      -8.162  13.682  68.000  1.00  0.00    -0.162 A  
HETATM    8  N   UNL     1      -7.447  14.439  68.812  1.00  0.00    -0.128 NA 
HETATM    9  C   UNL     1      -7.645  12.436  67.373  1.00  0.00    -0.160 C  
HETATM   10  C   UNL     1      -8.251  15.482  69.172  1.00  0.00    -0.247 A  
HETATM   11  C   UNL     1      -9.478  15.363  68.573  1.00  0.00    -0.202 A  
HETATM   12  N   UNL     1     -10.583  16.252  68.711  1.00  0.00    -0.278 N  
HETATM   13  O   UNL     1     -10.451  17.172  69.526  1.00  0.00    -0.286 OA 
HETATM   14  O   UNL     1     -11.593  16.045  68.027  1.00  0.00    -0.265 OA 
ENDBRANCH   5   6
ENDBRANCH   2   5
TORSDOF 2
ENDMDL
MODEL      141
REMARK 921   NORMALIZED FREE ENERGY PREDICTED BY IDOCK:   -3.18 KCAL/MOL
REMARK 922        TOTAL FREE ENERGY PREDICTED BY IDOCK:   -3.51 KCAL/MOL
REMARK 923 INTER-LIGAND FREE ENERGY PREDICTED BY IDOCK:   -3.30 KCAL/MOL
REMARK 924 INTRA-LIGAND FREE ENERGY PREDICTED BY IDOCK:   -0.21 KCAL/MOL
REMARK 927      BINDING AFFINITY PREDICTED BY RF-SCORE:    0.00 PKD
ROOT
HETATM    1  C   UNL     1      -6.324  20.851  65.017  1.00  0.00    -0.251 C  
HETATM    2  C   UNL     1      -6.910  19.445  64.961  1.00  0.00     0.022 C  
HETATM    3  H   UNL     1      -6.270  17.687  64.429  1.00  0.00     0.000 HD 
HETATM    4  O   UNL     1      -5.905  18.564  64.463  1.00  0.00    -0.235 OA 
ENDROOT
BRANCH   2   5
HETATM    5  C   UNL     1      -7.415  19.007  66.343  1.00  0.00    -0.258 C  
BRANCH   5   6
HETATM    6  N   UNL     1      -8.601  18.166  66.283  1.00  0.00    -0.448 NA 
HETATM    7  C   UNL     1      -9.896  18.625  66.076  1.00  0.00    -0.184 A  
HETATM    8  N   UNL     1     -10.759  17.626  66.106  1.00  0.00    -0.194 NA 
HETATM    9  C   UNL     1     -10.287  20.040  65.836  1.00  0.00    -0.529 C  
HETATM   10  C   UNL     1     -10.030  16.496  66.342  1.00  0.00    -0.303 A  
HETATM   11  C   UNL     1      -8.699  16.806  66.459  1.00  0.00    -0.275 A  
HETATM   12  N   UNL     1      -7.632  15.897  66.714  1.00  0.00    -0.215 N  
HETATM   13  O   UNL     1      -7.951  14.724  66.943  1.00  0.00    -0.159 OA 
HETATM   14  O   UNL     1      -6.474  16.331  66.701  1.00  0.00    -0.273 OA 
ENDBRANCH   5   6
ENDBRANCH   2   5
TORSDOF 2
ENDMDL
MODEL      142
REMARK 921   NORMALIZED FREE ENERGY PREDICTED BY IDOCK:   -3.18 KCAL/MOL
REMARK 922        TOTAL FREE ENERGY PREDICTED BY IDOCK:   -3.51 KCAL/MOL
REMARK 923 INTER-LIGAND FREE ENERGY PREDICTED BY IDOCK:   -3.34 KCAL/MOL
REMARK 924 INTRA-LIGAND FREE ENERGY PREDICTED BY IDOCK:   -0.17 KCAL/MOL
REMARK 927      BINDING AFFINITY PREDICTED BY RF-SCORE:    0.00 PKD
ROOT
HETATM    1  C   UNL     1     -10.945   8.611  72.089  1.00  0.00    -0.434 C  
HETATM    2  C   UNL     1     -10.240   8.057  70.856  1.00  0.00    -0.192 C  
HETATM    3  H   UNL     1     -10.781   7.097  69.253  1.00  0.00     0.000 HD 
HETATM    4  O   UNL     1     -11.220   7.443  70.022  1.00  0.00    -0.251 OA 
ENDROOT
BRANCH   2   5
HETATM    5  C   UNL     1      -9.479   9.166  70.116  1.00  0.00    -0.208 C  
BRANCH   5   6
HETATM    6  N   UNL     1      -9.656   9.121  68.672  1.00  0.00    -0.150 NA 
HETATM    7  C   UNL     1      -8.933   8.313  67.804  1.00  0.00    -0.136 A  
HETATM    8  N   UNL     1      -9.300   8.522  66.552  1.00  0.00    -0.187 NA 
HETATM    9  C   UNL     1      -7.891   7.327  68.199  1.00  0.00    -0.118 C  
HETATM   10  C   UNL     1     -10.271   9.482  66.593  1.00  0.00    -0.240 A  
HETATM   11  C   UNL     1     -10.502   9.868  67.888  1.00  0.00    -0.236 A  
HETATM   12  N   UNL     1     -11.434  10.851  68.330  1.00  0.00    -0.311 N  
HETATM   13  O   UNL     1     -12.029  11.483  67.448  1.00  0.00    -0.623 OA 
HETATM   14  O   UNL     1     -11.581  11.016  69.547  1.00  0.00    -0.255 OA 
ENDBRANCH   5   6
ENDBRANCH   2   5
TORSDOF 2
ENDMDL
MODEL      143
REMARK 921   NORMALIZED FREE ENERGY PREDICTED BY IDOCK:   -3.17 KCAL/MOL
REMARK 922        TOTAL FREE ENERGY PREDICTED BY IDOCK:   -3.50 KCAL/MOL
REMARK 923 INTER-LIGAND FREE ENERGY PREDICTED BY IDOCK:   -3.38 KCAL/MOL
REMARK 924 INTRA-LIGAND FREE ENERGY PREDICTED BY IDOCK:   -0.13 KCAL/MOL
REMARK 927      BINDING AFFINITY PREDICTED BY RF-SCORE:    0.00 PKD
ROOT
HETATM    1  C   UNL     1     -10.294  13.257  67.514  1.00  0.00    -0.229 C  
HETATM    2  C   UNL     1     -11.171  12.849  68.692  1.00  0.00    -0.281 C  
HETATM    3  H   UNL     1     -12.653  13.643  69.670  1.00  0.00     0.000 HD 
HETATM    4  O   UNL     1     -12.106  13.897  68.935  1.00  0.00    -0.351 OA 
ENDROOT
BRANCH   2   5
HETATM    5  C   UNL     1     -11.874  11.513  68.415  1.00  0.00    -0.283 C  
BRANCH   5   6
HETATM    6  N   UNL     1     -11.129  10.359  68.895  1.00  0.00    -0.239 NA 
HETATM    7  C   UNL     1     -10.314   9.552  68.111  1.00  0.00    -0.208 A  
HETATM    8  N   UNL     1      -9.801   8.567  68.825  1.00  0.00    -0.168 NA 
HETATM    9  C   UNL     1     -10.027   9.752  66.665  1.00  0.00    -0.292 C  
HETATM   10  C   UNL     1     -10.286   8.719  70.093  1.00  0.00    -0.208 A  
HETATM   11  C   UNL     1     -11.109   9.813  70.157  1.00  0.00    -0.285 A  
HETATM   12  N   UNL     1     -11.806  10.288  71.305  1.00  0.00    -0.360 N  
HETATM   13  O   UNL     1     -11.733   9.590  72.323  1.00  0.00    -0.108 OA 
HETATM   14  O   UNL     1     -12.441  11.347  71.212  1.00  0.00    -0.364 OA 
ENDBRANCH   5   6
ENDBRANCH   2   5
TORSDOF 2
ENDMDL
MODEL      144
REMARK 921   NORMALIZED FREE ENERGY PREDICTED BY IDOCK:   -3.16 KCAL/MOL
REMARK 922        TOTAL FREE ENERGY PREDICTED BY IDOCK:   -3.49 KCAL/MOL
REMARK 923 INTER-LIGAND FREE ENERGY PREDICTED BY IDOCK:   -3.30 KCAL/MOL
REMARK 924 INTRA-LIGAND FREE ENERGY PREDICTED BY IDOCK:   -0.19 KCAL/MOL
REMARK 927      BINDING AFFINITY PREDICTED BY RF-SCORE:    0.00 PKD
ROOT
HETATM    1  C   UNL     1     -10.190  10.356  69.392  1.00  0.00    -0.257 C  
HETATM    2  C   UNL     1     -10.359   8.974  70.012  1.00  0.00    -0.206 C  
HETATM    3  H   UNL     1      -9.283   7.358  70.131  1.00  0.00     0.000 HD 
HETATM    4  O   UNL     1      -9.178   8.220  69.744  1.00  0.00    -0.153 OA 
ENDROOT
BRANCH   2   5
HETATM    5  C   UNL     1     -10.636   9.079  71.518  1.00  0.00    -0.345 C  
BRANCH   5   6
HETATM    6  N   UNL     1     -10.714   7.786  72.181  1.00  0.00    -0.232 NA 
HETATM    7  C   UNL     1     -11.779   6.899  72.080  1.00  0.00    -0.300 A  
HETATM    8  N   UNL     1     -11.570   5.827  72.822  1.00  0.00    -0.258 NA 
HETATM    9  C   UNL     1     -12.996   7.095  71.246  1.00  0.00    -0.378 C  
HETATM   10  C   UNL     1     -10.359   6.009  73.425  1.00  0.00    -0.235 A  
HETATM   11  C   UNL     1      -9.816   7.210  73.049  1.00  0.00    -0.195 A  
HETATM   12  N   UNL     1      -8.570   7.753  73.474  1.00  0.00    -0.199 N  
HETATM   13  O   UNL     1      -7.959   7.117  74.341  1.00  0.00    -0.124 OA 
HETATM   14  O   UNL     1      -8.187   8.815  72.967  1.00  0.00    -0.418 OA 
ENDBRANCH   5   6
ENDBRANCH   2   5
TORSDOF 2
ENDMDL
MODEL      145
REMARK 921   NORMALIZED FREE ENERGY PREDICTED BY IDOCK:   -3.14 KCAL/MOL
REMARK 922        TOTAL FREE ENERGY PREDICTED BY IDOCK:   -3.47 KCAL/MOL
REMARK 923 INTER-LIGAND FREE ENERGY PREDICTED BY IDOCK:   -3.41 KCAL/MOL
REMARK 924 INTRA-LIGAND FREE ENERGY PREDICTED BY IDOCK:   -0.06 KCAL/MOL
REMARK 927      BINDING AFFINITY PREDICTED BY RF-SCORE:    0.00 PKD
ROOT
HETATM    1  C   UNL     1     -10.568  17.399  68.181  1.00  0.00    -0.376 C  
HETATM    2  C   UNL     1     -11.083  15.965  68.194  1.00  0.00    -0.338 C  
HETATM    3  H   UNL     1     -11.445  14.600  66.855  1.00  0.00     0.000 HD 
HETATM    4  O   UNL     1     -11.124  15.495  66.848  1.00  0.00    -0.306 OA 
ENDROOT
BRANCH   2   5
HETATM    5  C   UNL     1     -10.200  15.073  69.079  1.00  0.00    -0.242 C  
BRANCH   5   6
HETATM    6  N   UNL     1      -9.745  13.865  68.408  1.00  0.00    -0.226 NA 
HETATM    7  C   UNL     1      -8.655  13.790  67.550  1.00  0.00    -0.193 A  
HETATM    8  N   UNL     1      -8.515  12.566  67.074  1.00  0.00    -0.180 NA 
HETATM    9  C   UNL     1      -7.742  14.913  67.206  1.00  0.00    -0.227 C  
HETATM   10  C   UNL     1      -9.527  11.826  67.616  1.00  0.00    -0.180 A  
HETATM   11  C   UNL     1     -10.299  12.606  68.437  1.00  0.00    -0.235 A  
HETATM   12  N   UNL     1     -11.447  12.193  69.172  1.00  0.00    -0.276 N  
HETATM   13  O   UNL     1     -11.839  11.037  68.977  1.00  0.00    -0.310 OA 
HETATM   14  O   UNL     1     -11.979  13.007  69.938  1.00  0.00    -0.320 OA 
ENDBRANCH   5   6
ENDBRANCH   2   5
TORSDOF 2
ENDMDL
MODEL      146
REMARK 921   NORMALIZED FREE ENERGY PREDICTED BY IDOCK:   -3.13 KCAL/MOL
REMARK 922        TOTAL FREE ENERGY PREDICTED BY IDOCK:   -3.45 KCAL/MOL
REMARK 923 INTER-LIGAND FREE ENERGY PREDICTED BY IDOCK:   -3.23 KCAL/MOL
REMARK 924 INTRA-LIGAND FREE ENERGY PREDICTED BY IDOCK:   -0.22 KCAL/MOL
REMARK 927      BINDING AFFINITY PREDICTED BY RF-SCORE:    0.00 PKD
ROOT
HETATM    1  C   UNL     1      -7.849  12.128  67.242  1.00  0.00    -0.176 C  
HETATM    2  C   UNL     1      -8.125  13.601  67.517  1.00  0.00    -0.184 C  
HETATM    3  H   UNL     1      -7.199  15.279  67.187  1.00  0.00     0.000 HD 
HETATM    4  O   UNL     1      -7.027  14.361  67.016  1.00  0.00    -0.074 OA 
ENDROOT
BRANCH   2   5
HETATM    5  C   UNL     1      -9.453  14.037  66.883  1.00  0.00    -0.265 C  
BRANCH   5   6
HETATM    6  N   UNL     1     -10.188  15.000  67.691  1.00  0.00    -0.235 NA 
HETATM    7  C   UNL     1      -9.985  16.374  67.678  1.00  0.00    -0.252 A  
HETATM    8  N   UNL     1     -10.782  16.975  68.543  1.00  0.00    -0.362 NA 
HETATM    9  C   UNL     1      -9.020  17.101  66.810  1.00  0.00    -0.263 C  
HETATM   10  C   UNL     1     -11.515  15.988  69.139  1.00  0.00    -0.347 A  
HETATM   11  C   UNL     1     -11.162  14.764  68.633  1.00  0.00    -0.273 A  
HETATM   12  N   UNL     1     -11.699  13.500  69.010  1.00  0.00    -0.305 N  
HETATM   13  O   UNL     1     -12.498  13.500  69.954  1.00  0.00    -0.252 OA 
HETATM   14  O   UNL     1     -11.331  12.495  68.388  1.00  0.00    -0.247 OA 
ENDBRANCH   5   6
ENDBRANCH   2   5
TORSDOF 2
ENDMDL
MODEL      147
REMARK 921   NORMALIZED FREE ENERGY PREDICTED BY IDOCK:   -3.12 KCAL/MOL
REMARK 922        TOTAL FREE ENERGY PREDICTED BY IDOCK:   -3.44 KCAL/MOL
REMARK 923 INTER-LIGAND FREE ENERGY PREDICTED BY IDOCK:   -3.35 KCAL/MOL
REMARK 924 INTRA-LIGAND FREE ENERGY PREDICTED BY IDOCK:   -0.09 KCAL/MOL
REMARK 927      BINDING AFFINITY PREDICTED BY RF-SCORE:    0.00 PKD
ROOT
HETATM    1  C   UNL     1     -11.621  10.034  70.118  1.00  0.00    -0.320 C  
HETATM    2  C   UNL     1     -12.081  11.203  69.256  1.00  0.00    -0.308 C  
HETATM    3  H   UNL     1     -12.213  13.132  69.475  1.00  0.00     0.000 HD 
HETATM    4  O   UNL     1     -11.926  12.402  70.013  1.00  0.00    -0.328 OA 
ENDROOT
BRANCH   2   5
HETATM    5  C   UNL     1     -11.294  11.257  67.939  1.00  0.00    -0.299 C  
BRANCH   5   6
HETATM    6  N   UNL     1     -10.178  12.190  67.973  1.00  0.00    -0.195 NA 
HETATM    7  C   UNL     1      -8.891  11.880  68.394  1.00  0.00    -0.159 A  
HETATM    8  N   UNL     1      -8.110  12.944  68.340  1.00  0.00    -0.148 NA 
HETATM    9  C   UNL     1      -8.421  10.540  68.835  1.00  0.00    -0.152 C  
HETATM   10  C   UNL     1      -8.890  13.969  67.886  1.00  0.00    -0.185 A  
HETATM   11  C   UNL     1     -10.168  13.529  67.659  1.00  0.00    -0.239 A  
HETATM   12  N   UNL     1     -11.266  14.306  67.190  1.00  0.00    -0.311 N  
HETATM   13  O   UNL     1     -11.068  15.520  67.064  1.00  0.00    -0.312 OA 
HETATM   14  O   UNL     1     -12.335  13.730  66.953  1.00  0.00    -0.392 OA 
ENDBRANCH   5   6
ENDBRANCH   2   5
TORSDOF 2
ENDMDL
MODEL      148
REMARK 921   NORMALIZED FREE ENERGY PREDICTED BY IDOCK:   -3.11 KCAL/MOL
REMARK 922        TOTAL FREE ENERGY PREDICTED BY IDOCK:   -3.43 KCAL/MOL
REMARK 923 INTER-LIGAND FREE ENERGY PREDICTED BY IDOCK:   -3.28 KCAL/MOL
REMARK 924 INTRA-LIGAND FREE ENERGY PREDICTED BY IDOCK:   -0.15 KCAL/MOL
REMARK 927      BINDING AFFINITY PREDICTED BY RF-SCORE:    0.00 PKD
ROOT
HETATM    1  C   UNL     1     -10.811  19.585  67.120  1.00  0.00    -0.555 C  
HETATM    2  C   UNL     1     -10.323  18.211  67.567  1.00  0.00    -0.392 C  
HETATM    3  H   UNL     1      -9.745  16.579  66.680  1.00  0.00     0.000 HD 
HETATM    4  O   UNL     1     -10.050  17.436  66.402  1.00  0.00    -0.302 OA 
ENDROOT
BRANCH   2   5
HETATM    5  C   UNL     1      -9.087  18.335  68.469  1.00  0.00    -0.311 C  
BRANCH   5   6
HETATM    6  N   UNL     1      -7.891  17.741  67.892  1.00  0.00    -0.226 NA 
HETATM    7  C   UNL     1      -7.036  18.374  66.998  1.00  0.00    -0.194 A  
HETATM    8  N   UNL     1      -6.059  17.565  66.630  1.00  0.00    -0.179 NA 
HETATM    9  C   UNL     1      -7.168  19.774  66.514  1.00  0.00    -0.255 C  
HETATM   10  C   UNL     1      -6.273  16.384  67.280  1.00  0.00    -0.177 A  
HETATM   11  C   UNL     1      -7.398  16.468  68.059  1.00  0.00    -0.144 A  
HETATM   12  N   UNL     1      -7.946  15.439  68.878  1.00  0.00    -0.161 N  
HETATM   13  O   UNL     1      -7.403  14.330  68.807  1.00  0.00    -0.120 OA 
HETATM   14  O   UNL     1      -8.922  15.711  69.589  1.00  0.00    -0.262 OA 
ENDBRANCH   5   6
ENDBRANCH   2   5
TORSDOF 2
ENDMDL
MODEL      149
REMARK 921   NORMALIZED FREE ENERGY PREDICTED BY IDOCK:   -3.10 KCAL/MOL
REMARK 922        TOTAL FREE ENERGY PREDICTED BY IDOCK:   -3.42 KCAL/MOL
REMARK 923 INTER-LIGAND FREE ENERGY PREDICTED BY IDOCK:   -3.29 KCAL/MOL
REMARK 924 INTRA-LIGAND FREE ENERGY PREDICTED BY IDOCK:   -0.13 KCAL/MOL
REMARK 927      BINDING AFFINITY PREDICTED BY RF-SCORE:    0.00 PKD
ROOT
HETATM    1  C   UNL     1     -10.360  16.691  68.550  1.00  0.00    -0.303 C  
HETATM    2  C   UNL     1      -9.165  15.767  68.345  1.00  0.00    -0.192 C  
HETATM    3  H   UNL     1      -8.885  13.994  67.596  1.00  0.00     0.000 HD 
HETATM    4  O   UNL     1      -9.630  14.570  67.724  1.00  0.00    -0.209 OA 
ENDROOT
BRANCH   2   5
HETATM    5  C   UNL     1      -8.077  16.455  67.508  1.00  0.00    -0.148 C  
BRANCH   5   6
HETATM    6  N   UNL     1      -7.430  17.559  68.201  1.00  0.00    -0.210 NA 
HETATM    7  C   UNL     1      -6.511  17.426  69.234  1.00  0.00    -0.245 A  
HETATM    8  N   UNL     1      -6.128  18.608  69.679  1.00  0.00    -0.262 NA 
HETATM    9  C   UNL     1      -5.996  16.139  69.777  1.00  0.00    -0.177 C  
HETATM   10  C   UNL     1      -6.806  19.534  68.938  1.00  0.00    -0.341 A  
HETATM   11  C   UNL     1      -7.617  18.911  68.026  1.00  0.00    -0.265 A  
HETATM   12  N   UNL     1      -8.482  19.540  67.084  1.00  0.00    -0.286 N  
HETATM   13  O   UNL     1      -8.578  20.770  67.161  1.00  0.00    -0.273 OA 
HETATM   14  O   UNL     1      -9.081  18.827  66.269  1.00  0.00    -0.374 OA 
ENDBRANCH   5   6
ENDBRANCH   2   5
TORSDOF 2
ENDMDL
MODEL      150
REMARK 921   NORMALIZED FREE ENERGY PREDICTED BY IDOCK:   -3.09 KCAL/MOL
REMARK 922        TOTAL FREE ENERGY PREDICTED BY IDOCK:   -3.41 KCAL/MOL
REMARK 923 INTER-LIGAND FREE ENERGY PREDICTED BY IDOCK:   -3.54 KCAL/MOL
REMARK 924 INTRA-LIGAND FREE ENERGY PREDICTED BY IDOCK:    0.13 KCAL/MOL
REMARK 927      BINDING AFFINITY PREDICTED BY RF-SCORE:    0.00 PKD
ROOT
HETATM    1  C   UNL     1      -8.147  10.847  67.441  1.00  0.00    -0.114 C  
HETATM    2  C   UNL     1      -9.229  10.620  66.393  1.00  0.00    -0.168 C  
HETATM    3  H   UNL     1      -9.433   9.496  64.818  1.00  0.00     0.000 HD 
HETATM    4  O   UNL     1      -8.758   9.638  65.472  1.00  0.00    -0.138 OA 
ENDROOT
BRANCH   2   5
HETATM    5  C   UNL     1     -10.549  10.194  67.051  1.00  0.00    -0.225 C  
BRANCH   5   6
HETATM    6  N   UNL     1     -11.068  11.176  67.991  1.00  0.00    -0.252 NA 
HETATM    7  C   UNL     1     -11.098  11.022  69.371  1.00  0.00    -0.262 A  
HETATM    8  N   UNL     1     -11.657  12.070  69.949  1.00  0.00    -0.275 NA 
HETATM    9  C   UNL     1     -10.569   9.855  70.126  1.00  0.00    -0.350 C  
HETATM   10  C   UNL     1     -12.006  12.923  68.941  1.00  0.00    -0.250 A  
HETATM   11  C   UNL     1     -11.657  12.390  67.727  1.00  0.00    -0.352 A  
HETATM   12  N   UNL     1     -11.865  12.980  66.446  1.00  0.00    -0.389 N  
HETATM   13  O   UNL     1     -12.507  14.036  66.424  1.00  0.00    -0.452 OA 
HETATM   14  O   UNL     1     -11.407  12.403  65.452  1.00  0.00    -0.313 OA 
ENDBRANCH   5   6
ENDBRANCH   2   5
TORSDOF 2
ENDMDL
MODEL      151
REMARK 921   NORMALIZED FREE ENERGY PREDICTED BY IDOCK:   -3.08 KCAL/MOL
REMARK 922        TOTAL FREE ENERGY PREDICTED BY IDOCK:   -3.40 KCAL/MOL
REMARK 923 INTER-LIGAND FREE ENERGY PREDICTED BY IDOCK:   -3.26 KCAL/MOL
REMARK 924 INTRA-LIGAND FREE ENERGY PREDICTED BY IDOCK:   -0.14 KCAL/MOL
REMARK 927      BINDING AFFINITY PREDICTED BY RF-SCORE:    0.00 PKD
ROOT
HETATM    1  C   UNL     1     -12.953   9.407  71.830  1.00  0.00    -0.502 C  
HETATM    2  C   UNL     1     -12.474   7.997  72.156  1.00  0.00    -0.296 C  
HETATM    3  H   UNL     1     -12.325   6.316  71.189  1.00  0.00     0.000 HD 
HETATM    4  O   UNL     1     -12.624   7.195  70.986  1.00  0.00    -0.357 OA 
ENDROOT
BRANCH   2   5
HETATM    5  C   UNL     1     -11.021   8.012  72.651  1.00  0.00    -0.382 C  
BRANCH   5   6
HETATM    6  N   UNL     1     -10.107   7.293  71.777  1.00  0.00    -0.179 NA 
HETATM    7  C   UNL     1      -9.385   7.861  70.735  1.00  0.00    -0.157 A  
HETATM    8  N   UNL     1      -8.669   6.946  70.106  1.00  0.00    -0.141 NA 
HETATM    9  C   UNL     1      -9.386   9.301  70.362  1.00  0.00    -0.295 C  
HETATM   10  C   UNL     1      -8.925   5.761  70.734  1.00  0.00    -0.148 A  
HETATM   11  C   UNL     1      -9.811   5.950  71.763  1.00  0.00    -0.163 A  
HETATM   12  N   UNL     1     -10.323   4.952  72.641  1.00  0.00    -0.190 N  
HETATM   13  O   UNL     1     -10.006   3.783  72.390  1.00  0.00    -0.151 OA 
HETATM   14  O   UNL     1     -11.049   5.308  73.577  1.00  0.00    -0.302 OA 
ENDBRANCH   5   6
ENDBRANCH   2   5
TORSDOF 2
ENDMDL
MODEL      152
REMARK 921   NORMALIZED FREE ENERGY PREDICTED BY IDOCK:   -3.07 KCAL/MOL
REMARK 922        TOTAL FREE ENERGY PREDICTED BY IDOCK:   -3.39 KCAL/MOL
REMARK 923 INTER-LIGAND FREE ENERGY PREDICTED BY IDOCK:   -3.21 KCAL/MOL
REMARK 924 INTRA-LIGAND FREE ENERGY PREDICTED BY IDOCK:   -0.18 KCAL/MOL
REMARK 927      BINDING AFFINITY PREDICTED BY RF-SCORE:    0.00 PKD
ROOT
HETATM    1  C   UNL     1      -9.294   6.580  68.448  1.00  0.00    -0.122 C  
HETATM    2  C   UNL     1      -9.557   7.330  67.147  1.00  0.00    -0.160 C  
HETATM    3  H   UNL     1     -11.130   7.832  66.120  1.00  0.00     0.000 HD 
HETATM    4  O   UNL     1     -10.966   7.365  66.931  1.00  0.00    -0.324 OA 
ENDROOT
BRANCH   2   5
HETATM    5  C   UNL     1      -8.955   8.741  67.197  1.00  0.00    -0.131 C  
BRANCH   5   6
HETATM    6  N   UNL     1      -9.503   9.636  66.189  1.00  0.00    -0.198 NA 
HETATM    7  C   UNL     1      -9.065   9.722  64.873  1.00  0.00    -0.229 A  
HETATM    8  N   UNL     1      -9.736  10.648  64.214  1.00  0.00    -0.286 NA 
HETATM    9  C   UNL     1      -7.999   8.886  64.257  1.00  0.00    -0.146 C  
HETATM   10  C   UNL     1     -10.621  11.187  65.103  1.00  0.00    -0.253 A  
HETATM   11  C   UNL     1     -10.491  10.582  66.327  1.00  0.00    -0.183 A  
HETATM   12  N   UNL     1     -11.234  10.878  67.506  1.00  0.00    -0.315 N  
HETATM   13  O   UNL     1     -12.010  11.839  67.442  1.00  0.00    -0.617 OA 
HETATM   14  O   UNL     1     -11.053  10.173  68.507  1.00  0.00    -0.245 OA 
ENDBRANCH   5   6
ENDBRANCH   2   5
TORSDOF 2
ENDMDL
MODEL      153
REMARK 921   NORMALIZED FREE ENERGY PREDICTED BY IDOCK:   -3.07 KCAL/MOL
REMARK 922        TOTAL FREE ENERGY PREDICTED BY IDOCK:   -3.39 KCAL/MOL
REMARK 923 INTER-LIGAND FREE ENERGY PREDICTED BY IDOCK:   -3.18 KCAL/MOL
REMARK 924 INTRA-LIGAND FREE ENERGY PREDICTED BY IDOCK:   -0.21 KCAL/MOL
REMARK 927      BINDING AFFINITY PREDICTED BY RF-SCORE:    0.00 PKD
ROOT
HETATM    1  C   UNL     1      -9.592  10.947  68.790  1.00  0.00    -0.195 C  
HETATM    2  C   UNL     1      -9.546   9.424  68.730  1.00  0.00    -0.154 C  
HETATM    3  H   UNL     1      -8.448   8.029  69.526  1.00  0.00     0.000 HD 
HETATM    4  O   UNL     1      -8.477   8.978  69.563  1.00  0.00    -0.117 OA 
ENDROOT
BRANCH   2   5
HETATM    5  C   UNL     1     -10.890   8.818  69.159  1.00  0.00    -0.053 C  
BRANCH   5   6
HETATM    6  N   UNL     1     -10.766   7.481  69.719  1.00  0.00    -0.244 NA 
HETATM    7  C   UNL     1     -10.706   6.307  68.979  1.00  0.00    -0.302 A  
HETATM    8  N   UNL     1     -10.628   5.254  69.773  1.00  0.00    -0.281 NA 
HETATM    9  C   UNL     1     -10.710   6.215  67.494  1.00  0.00    -0.393 C  
HETATM   10  C   UNL     1     -10.644   5.736  71.051  1.00  0.00    -0.253 A  
HETATM   11  C   UNL     1     -10.733   7.104  71.041  1.00  0.00    -0.232 A  
HETATM   12  N   UNL     1     -10.784   7.962  72.177  1.00  0.00    -0.238 N  
HETATM   13  O   UNL     1     -10.845   7.410  73.282  1.00  0.00    -0.374 OA 
HETATM   14  O   UNL     1     -10.774   9.185  71.991  1.00  0.00    -0.341 OA 
ENDBRANCH   5   6
ENDBRANCH   2   5
TORSDOF 2
ENDMDL
MODEL      154
REMARK 921   NORMALIZED FREE ENERGY PREDICTED BY IDOCK:   -3.06 KCAL/MOL
REMARK 922        TOTAL FREE ENERGY PREDICTED BY IDOCK:   -3.38 KCAL/MOL
REMARK 923 INTER-LIGAND FREE ENERGY PREDICTED BY IDOCK:   -3.19 KCAL/MOL
REMARK 924 INTRA-LIGAND FREE ENERGY PREDICTED BY IDOCK:   -0.19 KCAL/MOL
REMARK 927      BINDING AFFINITY PREDICTED BY RF-SCORE:    0.00 PKD
ROOT
HETATM    1  C   UNL     1      -7.054   6.707  73.182  1.00  0.00    -0.077 C  
HETATM    2  C   UNL     1      -8.428   7.364  73.118  1.00  0.00    -0.129 C  
HETATM    3  H   UNL     1      -9.135   9.151  73.414  1.00  0.00     0.000 HD 
HETATM    4  O   UNL     1      -8.279   8.742  73.454  1.00  0.00    -0.389 OA 
ENDROOT
BRANCH   2   5
HETATM    5  C   UNL     1      -9.057   7.183  71.729  1.00  0.00    -0.139 C  
BRANCH   5   6
HETATM    6  N   UNL     1     -10.504   7.340  71.728  1.00  0.00    -0.197 NA 
HETATM    7  C   UNL     1     -11.409   6.406  72.217  1.00  0.00    -0.290 A  
HETATM    8  N   UNL     1     -12.651   6.821  72.045  1.00  0.00    -0.273 NA 
HETATM    9  C   UNL     1     -11.059   5.114  72.865  1.00  0.00    -0.359 C  
HETATM   10  C   UNL     1     -12.567   8.038  71.430  1.00  0.00    -0.289 A  
HETATM   11  C   UNL     1     -11.255   8.374  71.221  1.00  0.00    -0.259 A  
HETATM   12  N   UNL     1     -10.768   9.561  70.600  1.00  0.00    -0.284 N  
HETATM   13  O   UNL     1     -11.618  10.320  70.120  1.00  0.00    -0.262 OA 
HETATM   14  O   UNL     1      -9.546   9.749  70.570  1.00  0.00    -0.239 OA 
ENDBRANCH   5   6
ENDBRANCH   2   5
TORSDOF 2
ENDMDL
MODEL      155
REMARK 921   NORMALIZED FREE ENERGY PREDICTED BY IDOCK:   -3.06 KCAL/MOL
REMARK 922        TOTAL FREE ENERGY PREDICTED BY IDOCK:   -3.37 KCAL/MOL
REMARK 923 INTER-LIGAND FREE ENERGY PREDICTED BY IDOCK:   -3.14 KCAL/MOL
REMARK 924 INTRA-LIGAND FREE ENERGY PREDICTED BY IDOCK:   -0.24 KCAL/MOL
REMARK 927      BINDING AFFINITY PREDICTED BY RF-SCORE:    0.00 PKD
ROOT
HETATM    1  C   UNL     1      -9.840   7.475  68.613  1.00  0.00    -0.169 C  
HETATM    2  C   UNL     1     -10.781   8.362  69.420  1.00  0.00    -0.152 C  
HETATM    3  H   UNL     1     -11.898   8.140  70.997  1.00  0.00     0.000 HD 
HETATM    4  O   UNL     1     -11.312   7.587  70.494  1.00  0.00    -0.275 OA 
ENDROOT
BRANCH   2   5
HETATM    5  C   UNL     1     -10.052   9.613  69.930  1.00  0.00    -0.246 C  
BRANCH   5   6
HETATM    6  N   UNL     1     -10.678  10.857  69.506  1.00  0.00    -0.229 NA 
HETATM    7  C   UNL     1     -11.788  11.437  70.106  1.00  0.00    -0.355 A  
HETATM    8  N   UNL     1     -12.140  12.543  69.475  1.00  0.00    -0.235 NA 
HETATM    9  C   UNL     1     -12.498  10.917  71.306  1.00  0.00    -0.493 C  
HETATM   10  C   UNL     1     -11.258  12.691  68.443  1.00  0.00    -0.279 A  
HETATM   11  C   UNL     1     -10.352  11.662  68.440  1.00  0.00    -0.204 A  
HETATM   12  N   UNL     1      -9.287  11.468  67.515  1.00  0.00    -0.164 N  
HETATM   13  O   UNL     1      -9.230  12.258  66.565  1.00  0.00    -0.221 OA 
HETATM   14  O   UNL     1      -8.503  10.530  67.709  1.00  0.00    -0.114 OA 
ENDBRANCH   5   6
ENDBRANCH   2   5
TORSDOF 2
ENDMDL
MODEL      156
REMARK 921   NORMALIZED FREE ENERGY PREDICTED BY IDOCK:   -3.05 KCAL/MOL
REMARK 922        TOTAL FREE ENERGY PREDICTED BY IDOCK:   -3.37 KCAL/MOL
REMARK 923 INTER-LIGAND FREE ENERGY PREDICTED BY IDOCK:   -3.13 KCAL/MOL
REMARK 924 INTRA-LIGAND FREE ENERGY PREDICTED BY IDOCK:   -0.24 KCAL/MOL
REMARK 927      BINDING AFFINITY PREDICTED BY RF-SCORE:    0.00 PKD
ROOT
HETATM    1  C   UNL     1     -10.290  11.354  65.028  1.00  0.00    -0.342 C  
HETATM    2  C   UNL     1     -10.794  12.403  66.012  1.00  0.00    -0.273 C  
HETATM    3  H   UNL     1     -12.530  13.108  66.532  1.00  0.00     0.000 HD 
HETATM    4  O   UNL     1     -12.216  12.455  65.918  1.00  0.00    -0.629 OA 
ENDROOT
BRANCH   2   5
HETATM    5  C   UNL     1     -10.331  12.081  67.440  1.00  0.00    -0.207 C  
BRANCH   5   6
HETATM    6  N   UNL     1     -10.003  13.266  68.220  1.00  0.00    -0.234 NA 
HETATM    7  C   UNL     1     -10.898  13.972  69.014  1.00  0.00    -0.243 A  
HETATM    8  N   UNL     1     -10.310  15.016  69.569  1.00  0.00    -0.238 NA 
HETATM    9  C   UNL     1     -12.324  13.616  69.242  1.00  0.00    -0.158 C  
HETATM   10  C   UNL     1      -9.017  15.006  69.131  1.00  0.00    -0.186 A  
HETATM   11  C   UNL     1      -8.807  13.940  68.296  1.00  0.00    -0.185 A  
HETATM   12  N   UNL     1      -7.590  13.600  67.637  1.00  0.00    -0.164 N  
HETATM   13  O   UNL     1      -6.655  14.400  67.760  1.00  0.00    -0.153 OA 
HETATM   14  O   UNL     1      -7.548  12.549  66.985  1.00  0.00    -0.119 OA 
ENDBRANCH   5   6
ENDBRANCH   2   5
TORSDOF 2
ENDMDL
MODEL      157
REMARK 921   NORMALIZED FREE ENERGY PREDICTED BY IDOCK:   -3.05 KCAL/MOL
REMARK 922        TOTAL FREE ENERGY PREDICTED BY IDOCK:   -3.36 KCAL/MOL
REMARK 923 INTER-LIGAND FREE ENERGY PREDICTED BY IDOCK:   -3.41 KCAL/MOL
REMARK 924 INTRA-LIGAND FREE ENERGY PREDICTED BY IDOCK:    0.05 KCAL/MOL
REMARK 927      BINDING AFFINITY PREDICTED BY RF-SCORE:    0.00 PKD
ROOT
HETATM    1  C   UNL     1      -9.397   9.488  65.390  1.00  0.00    -0.324 C  
HETATM    2  C   UNL     1     -10.284   9.470  66.630  1.00  0.00    -0.240 C  
HETATM    3  H   UNL     1     -11.191   8.104  67.677  1.00  0.00     0.000 HD 
HETATM    4  O   UNL     1     -10.638   8.116  66.904  1.00  0.00    -0.329 OA 
ENDROOT
BRANCH   2   5
HETATM    5  C   UNL     1      -9.571  10.122  67.823  1.00  0.00    -0.148 C  
BRANCH   5   6
HETATM    6  N   UNL     1      -9.372  11.555  67.662  1.00  0.00    -0.168 NA 
HETATM    7  C   UNL     1      -8.162  12.164  67.354  1.00  0.00    -0.175 A  
HETATM    8  N   UNL     1      -8.294  13.477  67.308  1.00  0.00    -0.191 NA 
HETATM    9  C   UNL     1      -6.878  11.459  67.091  1.00  0.00    -0.124 C  
HETATM   10  C   UNL     1      -9.603  13.740  67.596  1.00  0.00    -0.219 A  
HETATM   11  C   UNL     1     -10.284  12.572  67.822  1.00  0.00    -0.217 A  
HETATM   12  N   UNL     1     -11.662  12.440  68.157  1.00  0.00    -0.341 N  
HETATM   13  O   UNL     1     -12.284  13.491  68.353  1.00  0.00    -0.315 OA 
HETATM   14  O   UNL     1     -12.140  11.302  68.241  1.00  0.00    -0.619 OA 
ENDBRANCH   5   6
ENDBRANCH   2   5
TORSDOF 2
ENDMDL
MODEL      158
REMARK 921   NORMALIZED FREE ENERGY PREDICTED BY IDOCK:   -3.04 KCAL/MOL
REMARK 922        TOTAL FREE ENERGY PREDICTED BY IDOCK:   -3.36 KCAL/MOL
REMARK 923 INTER-LIGAND FREE ENERGY PREDICTED BY IDOCK:   -3.69 KCAL/MOL
REMARK 924 INTRA-LIGAND FREE ENERGY PREDICTED BY IDOCK:    0.33 KCAL/MOL
REMARK 927      BINDING AFFINITY PREDICTED BY RF-SCORE:    0.00 PKD
ROOT
HETATM    1  C   UNL     1     -12.708  12.946  65.058  1.00  0.00    -0.474 C  
HETATM    2  C   UNL     1     -11.194  12.882  65.226  1.00  0.00    -0.288 C  
HETATM    3  H   UNL     1      -9.651  13.504  64.217  1.00  0.00     0.000 HD 
HETATM    4  O   UNL     1     -10.595  13.543  64.113  1.00  0.00    -0.365 OA 
ENDROOT
BRANCH   2   5
HETATM    5  C   UNL     1     -10.763  13.511  66.558  1.00  0.00    -0.287 C  
BRANCH   5   6
HETATM    6  N   UNL     1     -11.345  12.854  67.719  1.00  0.00    -0.280 NA 
HETATM    7  C   UNL     1     -11.385  11.481  67.924  1.00  0.00    -0.303 A  
HETATM    8  N   UNL     1     -12.006  11.192  69.053  1.00  0.00    -0.419 NA 
HETATM    9  C   UNL     1     -10.802  10.451  67.022  1.00  0.00    -0.269 C  
HETATM   10  C   UNL     1     -12.388  12.385  69.597  1.00  0.00     0.021 A  
HETATM   11  C   UNL     1     -11.996  13.421  68.790  1.00  0.00    -0.324 A  
HETATM   12  N   UNL     1     -12.220  14.810  69.018  1.00  0.00    -0.201 N  
HETATM   13  O   UNL     1     -12.919  15.102  69.995  1.00  0.00    -0.152 OA 
HETATM   14  O   UNL     1     -11.720  15.623  68.230  1.00  0.00    -0.349 OA 
ENDBRANCH   5   6
ENDBRANCH   2   5
TORSDOF 2
ENDMDL
MODEL      159
REMARK 921   NORMALIZED FREE ENERGY PREDICTED BY IDOCK:   -3.04 KCAL/MOL
REMARK 922        TOTAL FREE ENERGY PREDICTED BY IDOCK:   -3.35 KCAL/MOL
REMARK 923 INTER-LIGAND FREE ENERGY PREDICTED BY IDOCK:   -3.41 KCAL/MOL
REMARK 924 INTRA-LIGAND FREE ENERGY PREDICTED BY IDOCK:    0.06 KCAL/MOL
REMARK 927      BINDING AFFINITY PREDICTED BY RF-SCORE:    0.00 PKD
ROOT
HETATM    1  C   UNL     1     -10.057  16.915  68.953  1.00  0.00    -0.297 C  
HETATM    2  C   UNL     1     -10.789  17.134  67.634  1.00  0.00    -0.241 C  
HETATM    3  H   UNL     1     -11.197  18.662  66.501  1.00  0.00     0.000 HD 
HETATM    4  O   UNL     1     -10.741  18.525  67.324  1.00  0.00    -0.419 OA 
ENDROOT
BRANCH   2   5
HETATM    5  C   UNL     1     -10.173  16.281  66.517  1.00  0.00    -0.300 C  
BRANCH   5   6
HETATM    6  N   UNL     1      -8.910  15.663  66.894  1.00  0.00    -0.229 NA 
HETATM    7  C   UNL     1      -7.663  16.266  66.788  1.00  0.00    -0.260 A  
HETATM    8  N   UNL     1      -6.708  15.442  67.178  1.00  0.00    -0.275 NA 
HETATM    9  C   UNL     1      -7.406  17.654  66.317  1.00  0.00    -0.345 C  
HETATM   10  C   UNL     1      -7.328  14.280  67.540  1.00  0.00    -0.179 A  
HETATM   11  C   UNL     1      -8.683  14.392  67.368  1.00  0.00    -0.204 A  
HETATM   12  N   UNL     1      -9.661  13.390  67.629  1.00  0.00    -0.217 N  
HETATM   13  O   UNL     1      -9.235  12.276  67.956  1.00  0.00    -0.182 OA 
HETATM   14  O   UNL     1     -10.856  13.687  67.504  1.00  0.00    -0.260 OA 
ENDBRANCH   5   6
ENDBRANCH   2   5
TORSDOF 2
ENDMDL
MODEL      160
REMARK 921   NORMALIZED FREE ENERGY PREDICTED BY IDOCK:   -3.01 KCAL/MOL
REMARK 922        TOTAL FREE ENERGY PREDICTED BY IDOCK:   -3.32 KCAL/MOL
REMARK 923 INTER-LIGAND FREE ENERGY PREDICTED BY IDOCK:   -3.12 KCAL/MOL
REMARK 924 INTRA-LIGAND FREE ENERGY PREDICTED BY IDOCK:   -0.20 KCAL/MOL
REMARK 927      BINDING AFFINITY PREDICTED BY RF-SCORE:    0.00 PKD
ROOT
HETATM    1  C   UNL     1     -12.514  10.188  71.054  1.00  0.00    -0.474 C  
HETATM    2  C   UNL     1     -11.132   9.564  71.210  1.00  0.00    -0.379 C  
HETATM    3  H   UNL     1     -10.306   8.290  72.427  1.00  0.00     0.000 HD 
HETATM    4  O   UNL     1     -11.167   8.680  72.329  1.00  0.00    -0.353 OA 
ENDROOT
BRANCH   2   5
HETATM    5  C   UNL     1     -10.710   8.837  69.926  1.00  0.00    -0.223 C  
BRANCH   5   6
HETATM    6  N   UNL     1      -9.520   8.016  70.093  1.00  0.00    -0.160 NA 
HETATM    7  C   UNL     1      -8.222   8.500  70.189  1.00  0.00    -0.121 A  
HETATM    8  N   UNL     1      -7.357   7.508  70.302  1.00  0.00    -0.075 NA 
HETATM    9  C   UNL     1      -7.828   9.935  70.185  1.00  0.00    -0.186 C  
HETATM   10  C   UNL     1      -8.090   6.356  70.272  1.00  0.00    -0.120 A  
HETATM   11  C   UNL     1      -9.423   6.645  70.140  1.00  0.00    -0.158 A  
HETATM   12  N   UNL     1     -10.494   5.708  70.064  1.00  0.00    -0.272 N  
HETATM   13  O   UNL     1     -10.179   4.513  70.022  1.00  0.00    -0.210 OA 
HETATM   14  O   UNL     1     -11.653   6.141  70.035  1.00  0.00    -0.392 OA 
ENDBRANCH   5   6
ENDBRANCH   2   5
TORSDOF 2
ENDMDL
MODEL      161
REMARK 921   NORMALIZED FREE ENERGY PREDICTED BY IDOCK:   -3.01 KCAL/MOL
REMARK 922        TOTAL FREE ENERGY PREDICTED BY IDOCK:   -3.32 KCAL/MOL
REMARK 923 INTER-LIGAND FREE ENERGY PREDICTED BY IDOCK:   -3.32 KCAL/MOL
REMARK 924 INTRA-LIGAND FREE ENERGY PREDICTED BY IDOCK:    0.00 KCAL/MOL
REMARK 927      BINDING AFFINITY PREDICTED BY RF-SCORE:    0.00 PKD
ROOT
HETATM    1  C   UNL     1      -6.568  15.380  67.498  1.00  0.00    -0.191 C  
HETATM    2  C   UNL     1      -7.222  16.612  66.884  1.00  0.00    -0.226 C  
HETATM    3  H   UNL     1      -6.742  17.910  65.517  1.00  0.00     0.000 HD 
HETATM    4  O   UNL     1      -6.335  17.142  65.900  1.00  0.00    -0.104 OA 
ENDROOT
BRANCH   2   5
HETATM    5  C   UNL     1      -8.592  16.265  66.285  1.00  0.00    -0.339 C  
BRANCH   5   6
HETATM    6  N   UNL     1      -9.674  16.311  67.258  1.00  0.00    -0.235 NA 
HETATM    7  C   UNL     1     -10.316  15.200  67.790  1.00  0.00    -0.243 A  
HETATM    8  N   UNL     1     -11.275  15.565  68.621  1.00  0.00    -0.304 NA 
HETATM    9  C   UNL     1      -9.983  13.780  67.495  1.00  0.00    -0.233 C  
HETATM   10  C   UNL     1     -11.272  16.931  68.633  1.00  0.00    -0.091 A  
HETATM   11  C   UNL     1     -10.298  17.411  67.798  1.00  0.00    -0.358 A  
HETATM   12  N   UNL     1      -9.993  18.779  67.540  1.00  0.00    -0.323 N  
HETATM   13  O   UNL     1     -10.746  19.616  68.053  1.00  0.00    -0.381 OA 
HETATM   14  O   UNL     1      -9.019  19.040  66.824  1.00  0.00    -0.291 OA 
ENDBRANCH   5   6
ENDBRANCH   2   5
TORSDOF 2
ENDMDL
MODEL      162
REMARK 921   NORMALIZED FREE ENERGY PREDICTED BY IDOCK:   -2.99 KCAL/MOL
REMARK 922        TOTAL FREE ENERGY PREDICTED BY IDOCK:   -3.30 KCAL/MOL
REMARK 923 INTER-LIGAND FREE ENERGY PREDICTED BY IDOCK:   -3.05 KCAL/MOL
REMARK 924 INTRA-LIGAND FREE ENERGY PREDICTED BY IDOCK:   -0.25 KCAL/MOL
REMARK 927      BINDING AFFINITY PREDICTED BY RF-SCORE:    0.00 PKD
ROOT
HETATM    1  C   UNL     1     -10.072   9.783  66.577  1.00  0.00    -0.307 C  
HETATM    2  C   UNL     1     -10.548   9.975  68.013  1.00  0.00    -0.235 C  
HETATM    3  H   UNL     1     -12.100  10.771  68.873  1.00  0.00     0.000 HD 
HETATM    4  O   UNL     1     -11.803  10.652  67.979  1.00  0.00    -0.494 OA 
ENDROOT
BRANCH   2   5
HETATM    5  C   UNL     1     -10.649   8.628  68.741  1.00  0.00    -0.140 C  
BRANCH   5   6
HETATM    6  N   UNL     1      -9.939   8.605  70.012  1.00  0.00    -0.182 NA 
HETATM    7  C   UNL     1     -10.434   9.099  71.212  1.00  0.00    -0.328 A  
HETATM    8  N   UNL     1      -9.544   8.965  72.178  1.00  0.00    -0.322 NA 
HETATM    9  C   UNL     1     -11.784   9.691  71.417  1.00  0.00    -0.478 C  
HETATM   10  C   UNL     1      -8.447   8.383  71.611  1.00  0.00    -0.163 A  
HETATM   11  C   UNL     1      -8.666   8.157  70.276  1.00  0.00    -0.133 A  
HETATM   12  N   UNL     1      -7.754   7.575  69.350  1.00  0.00    -0.109 N  
HETATM   13  O   UNL     1      -6.618   7.333  69.773  1.00  0.00    -0.038 OA 
HETATM   14  O   UNL     1      -8.145   7.361  68.196  1.00  0.00    -0.121 OA 
ENDBRANCH   5   6
ENDBRANCH   2   5
TORSDOF 2
ENDMDL
MODEL      163
REMARK 921   NORMALIZED FREE ENERGY PREDICTED BY IDOCK:   -2.97 KCAL/MOL
REMARK 922        TOTAL FREE ENERGY PREDICTED BY IDOCK:   -3.28 KCAL/MOL
REMARK 923 INTER-LIGAND FREE ENERGY PREDICTED BY IDOCK:   -3.13 KCAL/MOL
REMARK 924 INTRA-LIGAND FREE ENERGY PREDICTED BY IDOCK:   -0.14 KCAL/MOL
REMARK 927      BINDING AFFINITY PREDICTED BY RF-SCORE:    0.00 PKD
ROOT
HETATM    1  C   UNL     1     -10.820   6.670  67.406  1.00  0.00    -0.434 C  
HETATM    2  C   UNL     1     -10.590   7.219  68.810  1.00  0.00    -0.181 C  
HETATM    3  H   UNL     1     -10.671   8.970  69.653  1.00  0.00     0.000 HD 
HETATM    4  O   UNL     1     -10.814   8.627  68.779  1.00  0.00    -0.116 OA 
ENDROOT
BRANCH   2   5
HETATM    5  C   UNL     1     -11.504   6.522  69.827  1.00  0.00    -0.379 C  
BRANCH   5   6
HETATM    6  N   UNL     1     -11.120   6.767  71.209  1.00  0.00    -0.252 NA 
HETATM    7  C   UNL     1     -11.696   7.718  72.042  1.00  0.00    -0.304 A  
HETATM    8  N   UNL     1     -11.110   7.722  73.226  1.00  0.00    -0.297 NA 
HETATM    9  C   UNL     1     -12.828   8.614  71.684  1.00  0.00    -0.380 C  
HETATM   10  C   UNL     1     -10.133   6.770  73.174  1.00  0.00    -0.205 A  
HETATM   11  C   UNL     1     -10.118   6.173  71.940  1.00  0.00    -0.189 A  
HETATM   12  N   UNL     1      -9.237   5.141  71.504  1.00  0.00    -0.144 N  
HETATM   13  O   UNL     1      -8.337   4.817  72.288  1.00  0.00    -0.112 OA 
HETATM   14  O   UNL     1      -9.417   4.649  70.383  1.00  0.00    -0.141 OA 
ENDBRANCH   5   6
ENDBRANCH   2   5
TORSDOF 2
ENDMDL
MODEL      164
REMARK 921   NORMALIZED FREE ENERGY PREDICTED BY IDOCK:   -2.97 KCAL/MOL
REMARK 922        TOTAL FREE ENERGY PREDICTED BY IDOCK:   -3.27 KCAL/MOL
REMARK 923 INTER-LIGAND FREE ENERGY PREDICTED BY IDOCK:   -3.11 KCAL/MOL
REMARK 924 INTRA-LIGAND FREE ENERGY PREDICTED BY IDOCK:   -0.16 KCAL/MOL
REMARK 927      BINDING AFFINITY PREDICTED BY RF-SCORE:    0.00 PKD
ROOT
HETATM    1  C   UNL     1     -13.544   7.297  71.671  1.00  0.00    -0.435 C  
HETATM    2  C   UNL     1     -12.077   6.888  71.601  1.00  0.00    -0.353 C  
HETATM    3  H   UNL     1     -10.989   5.462  72.354  1.00  0.00     0.000 HD 
HETATM    4  O   UNL     1     -11.903   5.718  72.398  1.00  0.00    -0.293 OA 
ENDROOT
BRANCH   2   5
HETATM    5  C   UNL     1     -11.643   6.654  70.147  1.00  0.00    -0.386 C  
BRANCH   5   6
HETATM    6  N   UNL     1     -10.204   6.748  69.954  1.00  0.00    -0.187 NA 
HETATM    7  C   UNL     1      -9.332   5.667  69.904  1.00  0.00    -0.147 A  
HETATM    8  N   UNL     1      -8.086   6.076  69.751  1.00  0.00    -0.112 NA 
HETATM    9  C   UNL     1      -9.720   4.234  69.992  1.00  0.00    -0.287 C  
HETATM   10  C   UNL     1      -8.132   7.440  69.707  1.00  0.00    -0.127 A  
HETATM   11  C   UNL     1      -9.425   7.875  69.834  1.00  0.00    -0.160 A  
HETATM   12  N   UNL     1      -9.872   9.228  69.842  1.00  0.00    -0.187 N  
HETATM   13  O   UNL     1      -8.993  10.099  69.824  1.00  0.00    -0.199 OA 
HETATM   14  O   UNL     1     -11.089   9.445  69.878  1.00  0.00    -0.238 OA 
ENDBRANCH   5   6
ENDBRANCH   2   5
TORSDOF 2
ENDMDL
MODEL      165
REMARK 921   NORMALIZED FREE ENERGY PREDICTED BY IDOCK:   -2.96 KCAL/MOL
REMARK 922        TOTAL FREE ENERGY PREDICTED BY IDOCK:   -3.27 KCAL/MOL
REMARK 923 INTER-LIGAND FREE ENERGY PREDICTED BY IDOCK:   -3.22 KCAL/MOL
REMARK 924 INTRA-LIGAND FREE ENERGY PREDICTED BY IDOCK:   -0.05 KCAL/MOL
REMARK 927      BINDING AFFINITY PREDICTED BY RF-SCORE:    0.00 PKD
ROOT
HETATM    1  C   UNL     1      -9.314  12.773  67.165  1.00  0.00    -0.216 C  
HETATM    2  C   UNL     1     -10.639  12.523  67.877  1.00  0.00    -0.218 C  
HETATM    3  H   UNL     1     -12.215  13.580  68.303  1.00  0.00     0.000 HD 
HETATM    4  O   UNL     1     -11.389  13.736  67.860  1.00  0.00    -0.271 OA 
ENDROOT
BRANCH   2   5
HETATM    5  C   UNL     1     -11.408  11.371  67.214  1.00  0.00    -0.275 C  
BRANCH   5   6
HETATM    6  N   UNL     1     -10.558  10.249  66.844  1.00  0.00    -0.238 NA 
HETATM    7  C   UNL     1     -10.055   9.302  67.726  1.00  0.00    -0.204 A  
HETATM    8  N   UNL     1      -9.291   8.429  67.095  1.00  0.00    -0.147 NA 
HETATM    9  C   UNL     1     -10.333   9.242  69.187  1.00  0.00    -0.222 C  
HETATM   10  C   UNL     1      -9.282   8.807  65.782  1.00  0.00    -0.206 A  
HETATM   11  C   UNL     1     -10.051   9.928  65.606  1.00  0.00    -0.237 A  
HETATM   12  N   UNL     1     -10.278  10.621  64.382  1.00  0.00    -0.354 N  
HETATM   13  O   UNL     1      -9.644  10.224  63.398  1.00  0.00    -0.301 OA 
HETATM   14  O   UNL     1     -11.075  11.568  64.382  1.00  0.00    -0.330 OA 
ENDBRANCH   5   6
ENDBRANCH   2   5
TORSDOF 2
ENDMDL
MODEL      166
REMARK 921   NORMALIZED FREE ENERGY PREDICTED BY IDOCK:   -2.96 KCAL/MOL
REMARK 922        TOTAL FREE ENERGY PREDICTED BY IDOCK:   -3.27 KCAL/MOL
REMARK 923 INTER-LIGAND FREE ENERGY PREDICTED BY IDOCK:   -3.32 KCAL/MOL
REMARK 924 INTRA-LIGAND FREE ENERGY PREDICTED BY IDOCK:    0.05 KCAL/MOL
REMARK 927      BINDING AFFINITY PREDICTED BY RF-SCORE:    0.00 PKD
ROOT
HETATM    1  C   UNL     1      -6.743  17.408  66.080  1.00  0.00    -0.262 C  
HETATM    2  C   UNL     1      -7.132  16.145  66.841  1.00  0.00    -0.187 C  
HETATM    3  H   UNL     1      -6.186  14.616  67.582  1.00  0.00     0.000 HD 
HETATM    4  O   UNL     1      -5.944  15.403  67.108  1.00  0.00    -0.306 OA 
ENDROOT
BRANCH   2   5
HETATM    5  C   UNL     1      -7.886  16.494  68.132  1.00  0.00    -0.168 C  
BRANCH   5   6
HETATM    6  N   UNL     1      -7.670  17.863  68.574  1.00  0.00    -0.290 NA 
HETATM    7  C   UNL     1      -6.571  18.303  69.301  1.00  0.00    -0.236 A  
HETATM    8  N   UNL     1      -6.676  19.590  69.580  1.00  0.00    -0.333 NA 
HETATM    9  C   UNL     1      -5.410  17.468  69.712  1.00  0.00    -0.207 C  
HETATM   10  C   UNL     1      -7.860  20.004  69.038  1.00  0.00     0.049 A  
HETATM   11  C   UNL     1      -8.490  18.956  68.418  1.00  0.00    -0.350 A  
HETATM   12  N   UNL     1      -9.746  18.994  67.747  1.00  0.00    -0.314 N  
HETATM   13  O   UNL     1     -10.373  20.058  67.810  1.00  0.00    -0.399 OA 
HETATM   14  O   UNL     1     -10.131  17.974  67.162  1.00  0.00    -0.317 OA 
ENDBRANCH   5   6
ENDBRANCH   2   5
TORSDOF 2
ENDMDL
MODEL      167
REMARK 921   NORMALIZED FREE ENERGY PREDICTED BY IDOCK:   -2.96 KCAL/MOL
REMARK 922        TOTAL FREE ENERGY PREDICTED BY IDOCK:   -3.26 KCAL/MOL
REMARK 923 INTER-LIGAND FREE ENERGY PREDICTED BY IDOCK:   -3.10 KCAL/MOL
REMARK 924 INTRA-LIGAND FREE ENERGY PREDICTED BY IDOCK:   -0.16 KCAL/MOL
REMARK 927      BINDING AFFINITY PREDICTED BY RF-SCORE:    0.00 PKD
ROOT
HETATM    1  C   UNL     1     -10.231   4.908  66.239  1.00  0.00    -0.312 C  
HETATM    2  C   UNL     1      -9.664   6.167  66.884  1.00  0.00    -0.149 C  
HETATM    3  H   UNL     1      -8.272   7.453  66.446  1.00  0.00     0.000 HD 
HETATM    4  O   UNL     1      -8.626   6.668  66.044  1.00  0.00    -0.139 OA 
ENDROOT
BRANCH   2   5
HETATM    5  C   UNL     1     -10.766   7.212  67.108  1.00  0.00    -0.352 C  
BRANCH   5   6
HETATM    6  N   UNL     1     -10.380   8.268  68.032  1.00  0.00    -0.217 NA 
HETATM    7  C   UNL     1      -9.808   9.480  67.665  1.00  0.00    -0.165 A  
HETATM    8  N   UNL     1      -9.541  10.214  68.730  1.00  0.00    -0.162 NA 
HETATM    9  C   UNL     1      -9.536   9.926  66.272  1.00  0.00    -0.265 C  
HETATM   10  C   UNL     1      -9.933   9.478  69.812  1.00  0.00    -0.213 A  
HETATM   11  C   UNL     1     -10.448   8.274  69.405  1.00  0.00    -0.220 A  
HETATM   12  N   UNL     1     -10.951   7.237  70.242  1.00  0.00    -0.256 N  
HETATM   13  O   UNL     1     -10.827   7.403  71.461  1.00  0.00    -0.224 OA 
HETATM   14  O   UNL     1     -11.464   6.246  69.706  1.00  0.00    -0.430 OA 
ENDBRANCH   5   6
ENDBRANCH   2   5
TORSDOF 2
ENDMDL
MODEL      168
REMARK 921   NORMALIZED FREE ENERGY PREDICTED BY IDOCK:   -2.95 KCAL/MOL
REMARK 922        TOTAL FREE ENERGY PREDICTED BY IDOCK:   -3.26 KCAL/MOL
REMARK 923 INTER-LIGAND FREE ENERGY PREDICTED BY IDOCK:   -3.18 KCAL/MOL
REMARK 924 INTRA-LIGAND FREE ENERGY PREDICTED BY IDOCK:   -0.07 KCAL/MOL
REMARK 927      BINDING AFFINITY PREDICTED BY RF-SCORE:    0.00 PKD
ROOT
HETATM    1  C   UNL     1      -9.000   6.759  67.824  1.00  0.00    -0.116 C  
HETATM    2  C   UNL     1      -9.553   7.758  66.814  1.00  0.00    -0.212 C  
HETATM    3  H   UNL     1     -11.321   8.298  66.211  1.00  0.00     0.000 HD 
HETATM    4  O   UNL     1     -10.976   7.675  66.840  1.00  0.00    -0.253 OA 
ENDROOT
BRANCH   2   5
HETATM    5  C   UNL     1      -9.062   9.179  67.125  1.00  0.00    -0.126 C  
BRANCH   5   6
HETATM    6  N   UNL     1     -10.113  10.183  67.041  1.00  0.00    -0.213 NA 
HETATM    7  C   UNL     1     -10.838  10.672  68.120  1.00  0.00    -0.245 A  
HETATM    8  N   UNL     1     -11.742  11.547  67.721  1.00  0.00    -0.577 NA 
HETATM    9  C   UNL     1     -10.638  10.292  69.545  1.00  0.00    -0.270 C  
HETATM   10  C   UNL     1     -11.619  11.634  66.363  1.00  0.00    -0.062 A  
HETATM   11  C   UNL     1     -10.625  10.799  65.923  1.00  0.00    -0.147 A  
HETATM   12  N   UNL     1     -10.208  10.608  64.574  1.00  0.00    -0.349 N  
HETATM   13  O   UNL     1     -10.872  11.186  63.706  1.00  0.00    -0.376 OA 
HETATM   14  O   UNL     1      -9.231   9.879  64.359  1.00  0.00    -0.238 OA 
ENDBRANCH   5   6
ENDBRANCH   2   5
TORSDOF 2
ENDMDL
MODEL      169
REMARK 921   NORMALIZED FREE ENERGY PREDICTED BY IDOCK:   -2.95 KCAL/MOL
REMARK 922        TOTAL FREE ENERGY PREDICTED BY IDOCK:   -3.25 KCAL/MOL
REMARK 923 INTER-LIGAND FREE ENERGY PREDICTED BY IDOCK:   -3.15 KCAL/MOL
REMARK 924 INTRA-LIGAND FREE ENERGY PREDICTED BY IDOCK:   -0.10 KCAL/MOL
REMARK 927      BINDING AFFINITY PREDICTED BY RF-SCORE:    0.00 PKD
ROOT
HETATM    1  C   UNL     1      -6.622  13.286  67.805  1.00  0.00    -0.156 C  
HETATM    2  C   UNL     1      -8.050  13.267  67.274  1.00  0.00    -0.142 C  
HETATM    3  H   UNL     1      -9.804  12.845  68.001  1.00  0.00     0.000 HD 
HETATM    4  O   UNL     1      -8.914  12.857  68.332  1.00  0.00    -0.187 OA 
ENDROOT
BRANCH   2   5
HETATM    5  C   UNL     1      -8.447  14.643  66.719  1.00  0.00    -0.110 C  
BRANCH   5   6
HETATM    6  N   UNL     1      -9.548  15.260  67.443  1.00  0.00    -0.207 NA 
HETATM    7  C   UNL     1      -9.409  16.166  68.487  1.00  0.00    -0.209 A  
HETATM    8  N   UNL     1     -10.589  16.522  68.960  1.00  0.00    -0.302 NA 
HETATM    9  C   UNL     1      -8.122  16.694  69.013  1.00  0.00    -0.199 C  
HETATM   10  C   UNL     1     -11.518  15.839  68.227  1.00  0.00    -0.337 A  
HETATM   11  C   UNL     1     -10.899  15.053  67.290  1.00  0.00    -0.310 A  
HETATM   12  N   UNL     1     -11.531  14.193  66.348  1.00  0.00    -0.341 N  
HETATM   13  O   UNL     1     -12.759  14.074  66.447  1.00  0.00    -0.369 OA 
HETATM   14  O   UNL     1     -10.825  13.618  65.510  1.00  0.00    -0.284 OA 
ENDBRANCH   5   6
ENDBRANCH   2   5
TORSDOF 2
ENDMDL
MODEL      170
REMARK 921   NORMALIZED FREE ENERGY PREDICTED BY IDOCK:   -2.95 KCAL/MOL
REMARK 922        TOTAL FREE ENERGY PREDICTED BY IDOCK:   -3.25 KCAL/MOL
REMARK 923 INTER-LIGAND FREE ENERGY PREDICTED BY IDOCK:   -3.04 KCAL/MOL
REMARK 924 INTRA-LIGAND FREE ENERGY PREDICTED BY IDOCK:   -0.21 KCAL/MOL
REMARK 927      BINDING AFFINITY PREDICTED BY RF-SCORE:    0.00 PKD
ROOT
HETATM    1  C   UNL     1      -7.749   9.517  69.637  1.00  0.00    -0.112 C  
HETATM    2  C   UNL     1      -8.262  10.685  68.803  1.00  0.00    -0.142 C  
HETATM    3  H   UNL     1      -7.712  11.576  67.164  1.00  0.00     0.000 HD 
HETATM    4  O   UNL     1      -7.392  10.848  67.684  1.00  0.00    -0.091 OA 
ENDROOT
BRANCH   2   5
HETATM    5  C   UNL     1      -9.714  10.448  68.364  1.00  0.00    -0.158 C  
BRANCH   5   6
HETATM    6  N   UNL     1     -10.655  11.388  68.954  1.00  0.00    -0.203 NA 
HETATM    7  C   UNL     1     -10.824  12.707  68.551  1.00  0.00    -0.252 A  
HETATM    8  N   UNL     1     -11.727  13.315  69.299  1.00  0.00    -0.308 NA 
HETATM    9  C   UNL     1     -10.111  13.370  67.426  1.00  0.00    -0.237 C  
HETATM   10  C   UNL     1     -12.154  12.391  70.210  1.00  0.00    -0.297 A  
HETATM   11  C   UNL     1     -11.504  11.200  70.018  1.00  0.00    -0.292 A  
HETATM   12  N   UNL     1     -11.675  10.004  70.775  1.00  0.00    -0.323 N  
HETATM   13  O   UNL     1     -12.418  10.078  71.760  1.00  0.00    -0.389 OA 
HETATM   14  O   UNL     1     -11.071   8.987  70.412  1.00  0.00    -0.239 OA 
ENDBRANCH   5   6
ENDBRANCH   2   5
TORSDOF 2
ENDMDL
MODEL      171
REMARK 921   NORMALIZED FREE ENERGY PREDICTED BY IDOCK:   -2.94 KCAL/MOL
REMARK 922        TOTAL FREE ENERGY PREDICTED BY IDOCK:   -3.25 KCAL/MOL
REMARK 923 INTER-LIGAND FREE ENERGY PREDICTED BY IDOCK:   -3.06 KCAL/MOL
REMARK 924 INTRA-LIGAND FREE ENERGY PREDICTED BY IDOCK:   -0.18 KCAL/MOL
REMARK 927      BINDING AFFINITY PREDICTED BY RF-SCORE:    0.00 PKD
ROOT
HETATM    1  C   UNL     1      -6.490  13.450  67.844  1.00  0.00    -0.151 C  
HETATM    2  C   UNL     1      -7.983  13.748  67.778  1.00  0.00    -0.169 C  
HETATM    3  H   UNL     1      -9.079  15.328  67.482  1.00  0.00     0.000 HD 
HETATM    4  O   UNL     1      -8.148  15.141  67.523  1.00  0.00    -0.149 OA 
ENDROOT
BRANCH   2   5
HETATM    5  C   UNL     1      -8.667  12.890  66.705  1.00  0.00    -0.037 C  
BRANCH   5   6
HETATM    6  N   UNL     1     -10.090  12.698  66.941  1.00  0.00    -0.227 NA 
HETATM    7  C   UNL     1     -10.633  11.871  67.916  1.00  0.00    -0.201 A  
HETATM    8  N   UNL     1     -11.952  11.882  67.860  1.00  0.00    -0.577 NA 
HETATM    9  C   UNL     1      -9.861  11.079  68.912  1.00  0.00    -0.189 C  
HETATM   10  C   UNL     1     -12.285  12.719  66.833  1.00  0.00    -0.039 A  
HETATM   11  C   UNL     1     -11.154  13.228  66.250  1.00  0.00    -0.290 A  
HETATM   12  N   UNL     1     -11.095  14.128  65.147  1.00  0.00    -0.331 N  
HETATM   13  O   UNL     1     -12.171  14.405  64.604  1.00  0.00    -0.444 OA 
HETATM   14  O   UNL     1      -9.989  14.561  64.800  1.00  0.00    -0.260 OA 
ENDBRANCH   5   6
ENDBRANCH   2   5
TORSDOF 2
ENDMDL
MODEL      172
REMARK 921   NORMALIZED FREE ENERGY PREDICTED BY IDOCK:   -2.93 KCAL/MOL
REMARK 922        TOTAL FREE ENERGY PREDICTED BY IDOCK:   -3.23 KCAL/MOL
REMARK 923 INTER-LIGAND FREE ENERGY PREDICTED BY IDOCK:   -3.90 KCAL/MOL
REMARK 924 INTRA-LIGAND FREE ENERGY PREDICTED BY IDOCK:    0.66 KCAL/MOL
REMARK 927      BINDING AFFINITY PREDICTED BY RF-SCORE:    0.00 PKD
ROOT
HETATM    1  C   UNL     1     -11.606  12.689  65.656  1.00  0.00    -0.418 C  
HETATM    2  C   UNL     1     -11.850  14.194  65.682  1.00  0.00    -0.375 C  
HETATM    3  H   UNL     1     -13.054  15.428  64.782  1.00  0.00     0.000 HD 
HETATM    4  O   UNL     1     -12.902  14.490  64.766  1.00  0.00    -0.603 OA 
ENDROOT
BRANCH   2   5
HETATM    5  C   UNL     1     -12.182  14.671  67.102  1.00  0.00    -0.062 C  
BRANCH   5   6
HETATM    6  N   UNL     1     -11.105  15.429  67.722  1.00  0.00    -0.312 NA 
HETATM    7  C   UNL     1     -10.139  16.153  67.034  1.00  0.00    -0.270 A  
HETATM    8  N   UNL     1      -9.279  16.704  67.871  1.00  0.00    -0.217 NA 
HETATM    9  C   UNL     1     -10.065  16.317  65.557  1.00  0.00    -0.276 C  
HETATM   10  C   UNL     1      -9.676  16.335  69.125  1.00  0.00    -0.265 A  
HETATM   11  C   UNL     1     -10.795  15.546  69.056  1.00  0.00    -0.249 A  
HETATM   12  N   UNL     1     -11.495  14.964  70.152  1.00  0.00    -0.266 N  
HETATM   13  O   UNL     1     -10.988  15.110  71.270  1.00  0.00    -0.280 OA 
HETATM   14  O   UNL     1     -12.543  14.348  69.919  1.00  0.00    -0.303 OA 
ENDBRANCH   5   6
ENDBRANCH   2   5
TORSDOF 2
ENDMDL
MODEL      173
REMARK 921   NORMALIZED FREE ENERGY PREDICTED BY IDOCK:   -2.92 KCAL/MOL
REMARK 922        TOTAL FREE ENERGY PREDICTED BY IDOCK:   -3.22 KCAL/MOL
REMARK 923 INTER-LIGAND FREE ENERGY PREDICTED BY IDOCK:   -3.19 KCAL/MOL
REMARK 924 INTRA-LIGAND FREE ENERGY PREDICTED BY IDOCK:   -0.03 KCAL/MOL
REMARK 927      BINDING AFFINITY PREDICTED BY RF-SCORE:    0.00 PKD
ROOT
HETATM    1  C   UNL     1     -11.445   9.612  71.375  1.00  0.00    -0.455 C  
HETATM    2  C   UNL     1     -11.082  10.592  70.266  1.00  0.00    -0.285 C  
HETATM    3  H   UNL     1      -9.489  10.992  69.223  1.00  0.00     0.000 HD 
HETATM    4  O   UNL     1      -9.716  10.381  69.915  1.00  0.00    -0.149 OA 
ENDROOT
BRANCH   2   5
HETATM    5  C   UNL     1     -12.011  10.419  69.056  1.00  0.00     0.076 C  
BRANCH   5   6
HETATM    6  N   UNL     1     -11.341  10.623  67.781  1.00  0.00    -0.440 NA 
HETATM    7  C   UNL     1     -11.283  11.829  67.093  1.00  0.00    -0.316 A  
HETATM    8  N   UNL     1     -10.633  11.688  65.952  1.00  0.00    -0.264 NA 
HETATM    9  C   UNL     1     -11.852  13.122  67.558  1.00  0.00    -0.409 C  
HETATM   10  C   UNL     1     -10.263  10.376  65.881  1.00  0.00    -0.234 A  
HETATM   11  C   UNL     1     -10.693   9.701  66.994  1.00  0.00    -0.155 A  
HETATM   12  N   UNL     1     -10.505   8.317  67.276  1.00  0.00    -0.299 N  
HETATM   13  O   UNL     1      -9.981   7.639  66.384  1.00  0.00    -0.182 OA 
HETATM   14  O   UNL     1     -10.881   7.884  68.373  1.00  0.00    -0.075 OA 
ENDBRANCH   5   6
ENDBRANCH   2   5
TORSDOF 2
ENDMDL
MODEL      174
REMARK 921   NORMALIZED FREE ENERGY PREDICTED BY IDOCK:   -2.90 KCAL/MOL
REMARK 922        TOTAL FREE ENERGY PREDICTED BY IDOCK:   -3.20 KCAL/MOL
REMARK 923 INTER-LIGAND FREE ENERGY PREDICTED BY IDOCK:   -3.08 KCAL/MOL
REMARK 924 INTRA-LIGAND FREE ENERGY PREDICTED BY IDOCK:   -0.12 KCAL/MOL
REMARK 927      BINDING AFFINITY PREDICTED BY RF-SCORE:    0.00 PKD
ROOT
HETATM    1  C   UNL     1     -11.624  13.305  68.810  1.00  0.00    -0.350 C  
HETATM    2  C   UNL     1     -11.456  14.814  68.675  1.00  0.00    -0.302 C  
HETATM    3  H   UNL     1     -10.991  16.278  69.868  1.00  0.00     0.000 HD 
HETATM    4  O   UNL     1     -11.096  15.337  69.952  1.00  0.00    -0.253 OA 
ENDROOT
BRANCH   2   5
HETATM    5  C   UNL     1     -10.409  15.155  67.606  1.00  0.00    -0.248 C  
BRANCH   5   6
HETATM    6  N   UNL     1      -9.387  16.080  68.074  1.00  0.00    -0.201 NA 
HETATM    7  C   UNL     1      -9.511  17.464  68.093  1.00  0.00    -0.288 A  
HETATM    8  N   UNL     1      -8.405  18.028  68.543  1.00  0.00    -0.307 NA 
HETATM    9  C   UNL     1     -10.717  18.234  67.684  1.00  0.00    -0.373 C  
HETATM   10  C   UNL     1      -7.538  17.009  68.817  1.00  0.00    -0.243 A  
HETATM   11  C   UNL     1      -8.121  15.801  68.531  1.00  0.00    -0.153 A  
HETATM   12  N   UNL     1      -7.529  14.514  68.679  1.00  0.00    -0.121 N  
HETATM   13  O   UNL     1      -6.338  14.490  69.012  1.00  0.00    -0.088 OA 
HETATM   14  O   UNL     1      -8.227  13.517  68.459  1.00  0.00    -0.152 OA 
ENDBRANCH   5   6
ENDBRANCH   2   5
TORSDOF 2
ENDMDL
MODEL      175
REMARK 921   NORMALIZED FREE ENERGY PREDICTED BY IDOCK:   -2.89 KCAL/MOL
REMARK 922        TOTAL FREE ENERGY PREDICTED BY IDOCK:   -3.19 KCAL/MOL
REMARK 923 INTER-LIGAND FREE ENERGY PREDICTED BY IDOCK:   -3.05 KCAL/MOL
REMARK 924 INTRA-LIGAND FREE ENERGY PREDICTED BY IDOCK:   -0.14 KCAL/MOL
REMARK 927      BINDING AFFINITY PREDICTED BY RF-SCORE:    0.00 PKD
ROOT
HETATM    1  C   UNL     1     -12.258  11.470  70.205  1.00  0.00    -0.415 C  
HETATM    2  C   UNL     1     -11.910  11.866  68.776  1.00  0.00    -0.313 C  
HETATM    3  H   UNL     1     -10.681  13.118  67.935  1.00  0.00     0.000 HD 
HETATM    4  O   UNL     1     -10.899  12.871  68.826  1.00  0.00    -0.249 OA 
ENDROOT
BRANCH   2   5
HETATM    5  C   UNL     1     -11.456  10.645  67.963  1.00  0.00    -0.212 C  
BRANCH   5   6
HETATM    6  N   UNL     1     -10.142  10.810  67.361  1.00  0.00    -0.187 NA 
HETATM    7  C   UNL     1      -8.937  10.482  67.969  1.00  0.00    -0.135 A  
HETATM    8  N   UNL     1      -7.917  10.778  67.184  1.00  0.00    -0.120 NA 
HETATM    9  C   UNL     1      -8.783   9.866  69.315  1.00  0.00    -0.172 C  
HETATM   10  C   UNL     1      -8.452  11.314  66.047  1.00  0.00    -0.102 A  
HETATM   11  C   UNL     1      -9.820  11.348  66.137  1.00  0.00    -0.222 A  
HETATM   12  N   UNL     1     -10.725  11.843  65.155  1.00  0.00    -0.282 N  
HETATM   13  O   UNL     1     -10.221  12.380  64.161  1.00  0.00    -0.344 OA 
HETATM   14  O   UNL     1     -11.939  11.718  65.359  1.00  0.00    -0.294 OA 
ENDBRANCH   5   6
ENDBRANCH   2   5
TORSDOF 2
ENDMDL
MODEL      176
REMARK 921   NORMALIZED FREE ENERGY PREDICTED BY IDOCK:   -2.89 KCAL/MOL
REMARK 922        TOTAL FREE ENERGY PREDICTED BY IDOCK:   -3.19 KCAL/MOL
REMARK 923 INTER-LIGAND FREE ENERGY PREDICTED BY IDOCK:   -3.42 KCAL/MOL
REMARK 924 INTRA-LIGAND FREE ENERGY PREDICTED BY IDOCK:    0.23 KCAL/MOL
REMARK 927      BINDING AFFINITY PREDICTED BY RF-SCORE:    0.00 PKD
ROOT
HETATM    1  C   UNL     1     -11.007  10.201  68.117  1.00  0.00    -0.313 C  
HETATM    2  C   UNL     1     -10.472  10.704  69.453  1.00  0.00    -0.225 C  
HETATM    3  H   UNL     1     -11.230  11.561  71.026  1.00  0.00     0.000 HD 
HETATM    4  O   UNL     1     -11.564  11.248  70.193  1.00  0.00    -0.310 OA 
ENDROOT
BRANCH   2   5
HETATM    5  C   UNL     1      -9.771   9.576  70.222  1.00  0.00    -0.263 C  
BRANCH   5   6
HETATM    6  N   UNL     1     -10.472   8.302  70.143  1.00  0.00    -0.220 NA 
HETATM    7  C   UNL     1     -11.549   7.933  70.938  1.00  0.00    -0.273 A  
HETATM    8  N   UNL     1     -11.946   6.706  70.651  1.00  0.00    -0.392 NA 
HETATM    9  C   UNL     1     -12.199   8.785  71.970  1.00  0.00    -0.447 C  
HETATM   10  C   UNL     1     -11.119   6.257  69.661  1.00  0.00    -0.412 A  
HETATM   11  C   UNL     1     -10.201   7.222  69.336  1.00  0.00    -0.192 A  
HETATM   12  N   UNL     1      -9.170   7.122  68.357  1.00  0.00    -0.134 N  
HETATM   13  O   UNL     1      -9.034   6.021  67.811  1.00  0.00    -0.114 OA 
HETATM   14  O   UNL     1      -8.480   8.123  68.126  1.00  0.00    -0.125 OA 
ENDBRANCH   5   6
ENDBRANCH   2   5
TORSDOF 2
ENDMDL
MODEL      177
REMARK 921   NORMALIZED FREE ENERGY PREDICTED BY IDOCK:   -2.87 KCAL/MOL
REMARK 922        TOTAL FREE ENERGY PREDICTED BY IDOCK:   -3.17 KCAL/MOL
REMARK 923 INTER-LIGAND FREE ENERGY PREDICTED BY IDOCK:   -3.04 KCAL/MOL
REMARK 924 INTRA-LIGAND FREE ENERGY PREDICTED BY IDOCK:   -0.12 KCAL/MOL
REMARK 927      BINDING AFFINITY PREDICTED BY RF-SCORE:    0.00 PKD
ROOT
HETATM    1  C   UNL     1     -12.370   7.416  71.210  1.00  0.00    -0.380 C  
HETATM    2  C   UNL     1     -11.243   8.385  71.544  1.00  0.00    -0.267 C  
HETATM    3  H   UNL     1     -10.286   8.910  73.154  1.00  0.00     0.000 HD 
HETATM    4  O   UNL     1     -10.989   8.307  72.946  1.00  0.00    -0.324 OA 
ENDROOT
BRANCH   2   5
HETATM    5  C   UNL     1      -9.986   8.069  70.722  1.00  0.00    -0.188 C  
BRANCH   5   6
HETATM    6  N   UNL     1     -10.211   8.116  69.285  1.00  0.00    -0.210 NA 
HETATM    7  C   UNL     1     -10.376   9.278  68.540  1.00  0.00    -0.209 A  
HETATM    8  N   UNL     1     -10.595   8.994  67.269  1.00  0.00    -0.269 NA 
HETATM    9  C   UNL     1     -10.305  10.666  69.070  1.00  0.00    -0.237 C  
HETATM   10  C   UNL     1     -10.582   7.632  67.173  1.00  0.00    -0.340 A  
HETATM   11  C   UNL     1     -10.353   7.071  68.402  1.00  0.00    -0.193 A  
HETATM   12  N   UNL     1     -10.277   5.681  68.704  1.00  0.00    -0.184 N  
HETATM   13  O   UNL     1     -10.535   4.901  67.779  1.00  0.00    -0.060 OA 
HETATM   14  O   UNL     1      -9.973   5.345  69.855  1.00  0.00    -0.183 OA 
ENDBRANCH   5   6
ENDBRANCH   2   5
TORSDOF 2
ENDMDL
MODEL      178
REMARK 921   NORMALIZED FREE ENERGY PREDICTED BY IDOCK:   -2.87 KCAL/MOL
REMARK 922        TOTAL FREE ENERGY PREDICTED BY IDOCK:   -3.16 KCAL/MOL
REMARK 923 INTER-LIGAND FREE ENERGY PREDICTED BY IDOCK:   -3.26 KCAL/MOL
REMARK 924 INTRA-LIGAND FREE ENERGY PREDICTED BY IDOCK:    0.10 KCAL/MOL
REMARK 927      BINDING AFFINITY PREDICTED BY RF-SCORE:    0.00 PKD
ROOT
HETATM    1  C   UNL     1     -10.435   6.200  69.376  1.00  0.00    -0.316 C  
HETATM    2  C   UNL     1      -9.397   5.957  70.465  1.00  0.00    -0.163 C  
HETATM    3  H   UNL     1      -7.455   5.972  70.571  1.00  0.00     0.000 HD 
HETATM    4  O   UNL     1      -8.102   6.123  69.892  1.00  0.00    -0.114 OA 
ENDROOT
BRANCH   2   5
HETATM    5  C   UNL     1      -9.618   6.904  71.654  1.00  0.00    -0.161 C  
BRANCH   5   6
HETATM    6  N   UNL     1     -10.407   8.079  71.315  1.00  0.00    -0.191 NA 
HETATM    7  C   UNL     1      -9.891   9.275  70.833  1.00  0.00    -0.293 A  
HETATM    8  N   UNL     1     -10.852  10.162  70.651  1.00  0.00    -0.293 NA 
HETATM    9  C   UNL     1      -8.458   9.547  70.538  1.00  0.00    -0.213 C  
HETATM   10  C   UNL     1     -12.014   9.549  71.023  1.00  0.00    -0.328 A  
HETATM   11  C   UNL     1     -11.763   8.268  71.439  1.00  0.00    -0.287 A  
HETATM   12  N   UNL     1     -12.719   7.321  71.908  1.00  0.00    -0.304 N  
HETATM   13  O   UNL     1     -13.879   7.729  72.039  1.00  0.00    -0.294 OA 
HETATM   14  O   UNL     1     -12.334   6.173  72.162  1.00  0.00    -0.299 OA 
ENDBRANCH   5   6
ENDBRANCH   2   5
TORSDOF 2
ENDMDL
MODEL      179
REMARK 921   NORMALIZED FREE ENERGY PREDICTED BY IDOCK:   -2.84 KCAL/MOL
REMARK 922        TOTAL FREE ENERGY PREDICTED BY IDOCK:   -3.13 KCAL/MOL
REMARK 923 INTER-LIGAND FREE ENERGY PREDICTED BY IDOCK:   -3.23 KCAL/MOL
REMARK 924 INTRA-LIGAND FREE ENERGY PREDICTED BY IDOCK:    0.10 KCAL/MOL
REMARK 927      BINDING AFFINITY PREDICTED BY RF-SCORE:    0.00 PKD
ROOT
HETATM    1  C   UNL     1      -9.162   7.617  71.943  1.00  0.00    -0.167 C  
HETATM    2  C   UNL     1     -10.433   6.892  72.370  1.00  0.00    -0.208 C  
HETATM    3  H   UNL     1     -11.549   6.854  73.962  1.00  0.00     0.000 HD 
HETATM    4  O   UNL     1     -10.756   7.305  73.696  1.00  0.00    -0.378 OA 
ENDROOT
BRANCH   2   5
HETATM    5  C   UNL     1     -11.581   7.174  71.391  1.00  0.00    -0.283 C  
BRANCH   5   6
HETATM    6  N   UNL     1     -11.131   7.716  70.117  1.00  0.00    -0.247 NA 
HETATM    7  C   UNL     1     -10.660   6.961  69.050  1.00  0.00    -0.217 A  
HETATM    8  N   UNL     1     -10.298   7.740  68.047  1.00  0.00    -0.208 NA 
HETATM    9  C   UNL     1     -10.578   5.476  69.006  1.00  0.00    -0.271 C  
HETATM   10  C   UNL     1     -10.524   9.023  68.457  1.00  0.00    -0.196 A  
HETATM   11  C   UNL     1     -11.032   9.032  69.730  1.00  0.00    -0.166 A  
HETATM   12  N   UNL     1     -11.386  10.178  70.499  1.00  0.00    -0.316 N  
HETATM   13  O   UNL     1     -11.122  11.279  70.000  1.00  0.00    -0.194 OA 
HETATM   14  O   UNL     1     -11.916  10.005  71.603  1.00  0.00    -0.376 OA 
ENDBRANCH   5   6
ENDBRANCH   2   5
TORSDOF 2
ENDMDL
MODEL      180
REMARK 921   NORMALIZED FREE ENERGY PREDICTED BY IDOCK:   -2.84 KCAL/MOL
REMARK 922        TOTAL FREE ENERGY PREDICTED BY IDOCK:   -3.13 KCAL/MOL
REMARK 923 INTER-LIGAND FREE ENERGY PREDICTED BY IDOCK:   -2.97 KCAL/MOL
REMARK 924 INTRA-LIGAND FREE ENERGY PREDICTED BY IDOCK:   -0.16 KCAL/MOL
REMARK 927      BINDING AFFINITY PREDICTED BY RF-SCORE:    0.00 PKD
ROOT
HETATM    1  C   UNL     1      -7.904   7.481  65.603  1.00  0.00    -0.110 C  
HETATM    2  C   UNL     1      -9.211   7.987  66.201  1.00  0.00    -0.163 C  
HETATM    3  H   UNL     1     -10.742   7.183  67.091  1.00  0.00     0.000 HD 
HETATM    4  O   UNL     1      -9.927   6.867  66.717  1.00  0.00    -0.182 OA 
ENDROOT
BRANCH   2   5
HETATM    5  C   UNL     1      -8.945   9.040  67.287  1.00  0.00    -0.127 C  
BRANCH   5   6
HETATM    6  N   UNL     1     -10.069   9.939  67.504  1.00  0.00    -0.185 NA 
HETATM    7  C   UNL     1     -10.480  10.931  66.623  1.00  0.00    -0.254 A  
HETATM    8  N   UNL     1     -11.507  11.601  67.115  1.00  0.00    -0.478 NA 
HETATM    9  C   UNL     1      -9.878  11.215  65.293  1.00  0.00    -0.296 C  
HETATM   10  C   UNL     1     -11.773  11.051  68.337  1.00  0.00    -0.259 A  
HETATM   11  C   UNL     1     -10.897  10.030  68.599  1.00  0.00    -0.229 A  
HETATM   12  N   UNL     1     -10.854   9.224  69.773  1.00  0.00    -0.232 N  
HETATM   13  O   UNL     1     -11.626   9.540  70.686  1.00  0.00    -0.267 OA 
HETATM   14  O   UNL     1     -10.053   8.282  69.810  1.00  0.00    -0.189 OA 
ENDBRANCH   5   6
ENDBRANCH   2   5
TORSDOF 2
ENDMDL
MODEL      181
REMARK 921   NORMALIZED FREE ENERGY PREDICTED BY IDOCK:   -2.81 KCAL/MOL
REMARK 922        TOTAL FREE ENERGY PREDICTED BY IDOCK:   -3.10 KCAL/MOL
REMARK 923 INTER-LIGAND FREE ENERGY PREDICTED BY IDOCK:   -3.04 KCAL/MOL
REMARK 924 INTRA-LIGAND FREE ENERGY PREDICTED BY IDOCK:   -0.06 KCAL/MOL
REMARK 927      BINDING AFFINITY PREDICTED BY RF-SCORE:    0.00 PKD
ROOT
HETATM    1  C   UNL     1     -10.017  11.138  64.645  1.00  0.00    -0.345 C  
HETATM    2  C   UNL     1      -9.205  10.586  65.811  1.00  0.00    -0.182 C  
HETATM    3  H   UNL     1      -7.348  10.086  66.105  1.00  0.00     0.000 HD 
HETATM    4  O   UNL     1      -7.855  10.430  65.378  1.00  0.00    -0.147 OA 
ENDROOT
BRANCH   2   5
HETATM    5  C   UNL     1      -9.307  11.507  67.035  1.00  0.00    -0.178 C  
BRANCH   5   6
HETATM    6  N   UNL     1      -9.443  10.783  68.290  1.00  0.00    -0.158 NA 
HETATM    7  C   UNL     1      -8.420  10.097  68.931  1.00  0.00    -0.139 A  
HETATM    8  N   UNL     1      -8.862   9.516  70.032  1.00  0.00    -0.205 NA 
HETATM    9  C   UNL     1      -7.006  10.020  68.475  1.00  0.00    -0.066 C  
HETATM   10  C   UNL     1     -10.192   9.815  70.116  1.00  0.00    -0.275 A  
HETATM   11  C   UNL     1     -10.572  10.590  69.051  1.00  0.00    -0.222 A  
HETATM   12  N   UNL     1     -11.879  11.094  68.788  1.00  0.00    -0.334 N  
HETATM   13  O   UNL     1     -12.778  10.716  69.548  1.00  0.00    -0.229 OA 
HETATM   14  O   UNL     1     -12.032  11.855  67.825  1.00  0.00    -0.559 OA 
ENDBRANCH   5   6
ENDBRANCH   2   5
TORSDOF 2
ENDMDL
MODEL      182
REMARK 921   NORMALIZED FREE ENERGY PREDICTED BY IDOCK:   -2.81 KCAL/MOL
REMARK 922        TOTAL FREE ENERGY PREDICTED BY IDOCK:   -3.10 KCAL/MOL
REMARK 923 INTER-LIGAND FREE ENERGY PREDICTED BY IDOCK:   -3.14 KCAL/MOL
REMARK 924 INTRA-LIGAND FREE ENERGY PREDICTED BY IDOCK:    0.04 KCAL/MOL
REMARK 927      BINDING AFFINITY PREDICTED BY RF-SCORE:    0.00 PKD
ROOT
HETATM    1  C   UNL     1     -11.388  15.726  67.901  1.00  0.00    -0.277 C  
HETATM    2  C   UNL     1     -11.278  14.391  67.174  1.00  0.00    -0.328 C  
HETATM    3  H   UNL     1     -12.457  13.294  66.084  1.00  0.00     0.000 HD 
HETATM    4  O   UNL     1     -12.526  14.126  66.537  1.00  0.00    -0.447 OA 
ENDROOT
BRANCH   2   5
HETATM    5  C   UNL     1     -10.120  14.410  66.166  1.00  0.00    -0.309 C  
BRANCH   5   6
HETATM    6  N   UNL     1      -8.809  14.467  66.796  1.00  0.00    -0.242 NA 
HETATM    7  C   UNL     1      -8.018  15.605  66.892  1.00  0.00    -0.243 A  
HETATM    8  N   UNL     1      -6.872  15.332  67.487  1.00  0.00    -0.184 NA 
HETATM    9  C   UNL     1      -8.390  16.964  66.412  1.00  0.00    -0.333 C  
HETATM   10  C   UNL     1      -6.901  13.999  67.782  1.00  0.00    -0.175 A  
HETATM   11  C   UNL     1      -8.083  13.446  67.361  1.00  0.00    -0.172 A  
HETATM   12  N   UNL     1      -8.477  12.082  67.484  1.00  0.00    -0.156 N  
HETATM   13  O   UNL     1      -7.629  11.302  67.934  1.00  0.00    -0.094 OA 
HETATM   14  O   UNL     1      -9.619  11.766  67.129  1.00  0.00    -0.178 OA 
ENDBRANCH   5   6
ENDBRANCH   2   5
TORSDOF 2
ENDMDL
MODEL      183
REMARK 921   NORMALIZED FREE ENERGY PREDICTED BY IDOCK:   -2.81 KCAL/MOL
REMARK 922        TOTAL FREE ENERGY PREDICTED BY IDOCK:   -3.10 KCAL/MOL
REMARK 923 INTER-LIGAND FREE ENERGY PREDICTED BY IDOCK:   -3.19 KCAL/MOL
REMARK 924 INTRA-LIGAND FREE ENERGY PREDICTED BY IDOCK:    0.09 KCAL/MOL
REMARK 927      BINDING AFFINITY PREDICTED BY RF-SCORE:    0.00 PKD
ROOT
HETATM    1  C   UNL     1     -10.303   8.022  67.099  1.00  0.00    -0.395 C  
HETATM    2  C   UNL     1     -10.837   6.827  67.880  1.00  0.00    -0.247 C  
HETATM    3  H   UNL     1     -11.289   4.980  67.469  1.00  0.00     0.000 HD 
HETATM    4  O   UNL     1     -10.956   5.725  66.982  1.00  0.00    -0.274 OA 
ENDROOT
BRANCH   2   5
HETATM    5  C   UNL     1      -9.923   6.496  69.068  1.00  0.00    -0.145 C  
BRANCH   5   6
HETATM    6  N   UNL     1      -9.778   7.597  70.008  1.00  0.00    -0.172 NA 
HETATM    7  C   UNL     1      -8.653   8.402  70.129  1.00  0.00    -0.131 A  
HETATM    8  N   UNL     1      -8.812   9.291  71.092  1.00  0.00    -0.293 NA 
HETATM    9  C   UNL     1      -7.426   8.310  69.292  1.00  0.00    -0.085 C  
HETATM   10  C   UNL     1     -10.052   9.068  71.619  1.00  0.00    -0.335 A  
HETATM   11  C   UNL     1     -10.663   8.026  70.970  1.00  0.00    -0.220 A  
HETATM   12  N   UNL     1     -11.957   7.495  71.241  1.00  0.00    -0.298 N  
HETATM   13  O   UNL     1     -12.550   7.962  72.220  1.00  0.00    -0.276 OA 
HETATM   14  O   UNL     1     -12.394   6.606  70.499  1.00  0.00    -0.314 OA 
ENDBRANCH   5   6
ENDBRANCH   2   5
TORSDOF 2
ENDMDL
MODEL      184
REMARK 921   NORMALIZED FREE ENERGY PREDICTED BY IDOCK:   -2.80 KCAL/MOL
REMARK 922        TOTAL FREE ENERGY PREDICTED BY IDOCK:   -3.09 KCAL/MOL
REMARK 923 INTER-LIGAND FREE ENERGY PREDICTED BY IDOCK:   -3.02 KCAL/MOL
REMARK 924 INTRA-LIGAND FREE ENERGY PREDICTED BY IDOCK:   -0.07 KCAL/MOL
REMARK 927      BINDING AFFINITY PREDICTED BY RF-SCORE:    0.00 PKD
ROOT
HETATM    1  C   UNL     1      -7.425   6.664  69.861  1.00  0.00    -0.095 C  
HETATM    2  C   UNL     1      -8.745   7.413  69.718  1.00  0.00    -0.141 C  
HETATM    3  H   UNL     1     -10.630   6.933  69.742  1.00  0.00     0.000 HD 
HETATM    4  O   UNL     1      -9.807   6.467  69.830  1.00  0.00    -0.164 OA 
ENDROOT
BRANCH   2   5
HETATM    5  C   UNL     1      -8.862   8.524  70.771  1.00  0.00    -0.161 C  
BRANCH   5   6
HETATM    6  N   UNL     1     -10.187   8.618  71.365  1.00  0.00    -0.230 NA 
HETATM    7  C   UNL     1     -11.211   9.438  70.910  1.00  0.00    -0.325 A  
HETATM    8  N   UNL     1     -12.280   9.325  71.676  1.00  0.00    -0.346 NA 
HETATM    9  C   UNL     1     -11.148  10.324  69.716  1.00  0.00    -0.340 C  
HETATM   10  C   UNL     1     -11.958   8.426  72.653  1.00  0.00    -0.277 A  
HETATM   11  C   UNL     1     -10.673   7.981  72.483  1.00  0.00    -0.341 A  
HETATM   12  N   UNL     1      -9.980   7.046  73.305  1.00  0.00    -0.203 N  
HETATM   13  O   UNL     1     -10.567   6.668  74.325  1.00  0.00    -0.271 OA 
HETATM   14  O   UNL     1      -8.848   6.685  72.958  1.00  0.00    -0.128 OA 
ENDBRANCH   5   6
ENDBRANCH   2   5
TORSDOF 2
ENDMDL
MODEL      185
REMARK 921   NORMALIZED FREE ENERGY PREDICTED BY IDOCK:   -2.80 KCAL/MOL
REMARK 922        TOTAL FREE ENERGY PREDICTED BY IDOCK:   -3.09 KCAL/MOL
REMARK 923 INTER-LIGAND FREE ENERGY PREDICTED BY IDOCK:   -3.09 KCAL/MOL
REMARK 924 INTRA-LIGAND FREE ENERGY PREDICTED BY IDOCK:    0.00 KCAL/MOL
REMARK 927      BINDING AFFINITY PREDICTED BY RF-SCORE:    0.00 PKD
ROOT
HETATM    1  C   UNL     1     -11.431  12.905  68.897  1.00  0.00    -0.350 C  
HETATM    2  C   UNL     1     -11.879  11.481  69.202  1.00  0.00    -0.340 C  
HETATM    3  H   UNL     1     -12.561   9.981  68.167  1.00  0.00     0.000 HD 
HETATM    4  O   UNL     1     -12.281  10.869  67.977  1.00  0.00    -0.422 OA 
ENDROOT
BRANCH   2   5
HETATM    5  C   UNL     1     -10.759  10.688  69.891  1.00  0.00    -0.204 C  
BRANCH   5   6
HETATM    6  N   UNL     1     -10.398   9.469  69.184  1.00  0.00    -0.199 NA 
HETATM    7  C   UNL     1      -9.598   9.410  68.049  1.00  0.00    -0.138 A  
HETATM    8  N   UNL     1      -9.479   8.167  67.622  1.00  0.00    -0.142 NA 
HETATM    9  C   UNL     1      -8.940  10.571  67.390  1.00  0.00    -0.139 C  
HETATM   10  C   UNL     1     -10.212   7.395  68.478  1.00  0.00    -0.183 A  
HETATM   11  C   UNL     1     -10.790   8.177  69.444  1.00  0.00    -0.086 A  
HETATM   12  N   UNL     1     -11.631   7.736  70.506  1.00  0.00    -0.214 N  
HETATM   13  O   UNL     1     -11.945   6.539  70.500  1.00  0.00    -0.388 OA 
HETATM   14  O   UNL     1     -11.999   8.565  71.348  1.00  0.00    -0.284 OA 
ENDBRANCH   5   6
ENDBRANCH   2   5
TORSDOF 2
ENDMDL
MODEL      186
REMARK 921   NORMALIZED FREE ENERGY PREDICTED BY IDOCK:   -2.80 KCAL/MOL
REMARK 922        TOTAL FREE ENERGY PREDICTED BY IDOCK:   -3.08 KCAL/MOL
REMARK 923 INTER-LIGAND FREE ENERGY PREDICTED BY IDOCK:   -2.96 KCAL/MOL
REMARK 924 INTRA-LIGAND FREE ENERGY PREDICTED BY IDOCK:   -0.12 KCAL/MOL
REMARK 927      BINDING AFFINITY PREDICTED BY RF-SCORE:    0.00 PKD
ROOT
HETATM    1  C   UNL     1     -11.636  10.344  70.654  1.00  0.00    -0.440 C  
HETATM    2  C   UNL     1     -10.369   9.526  70.431  1.00  0.00    -0.276 C  
HETATM    3  H   UNL     1      -9.002   8.733  71.565  1.00  0.00     0.000 HD 
HETATM    4  O   UNL     1      -9.792   9.242  71.704  1.00  0.00    -0.278 OA 
ENDROOT
BRANCH   2   5
HETATM    5  C   UNL     1     -10.676   8.243  69.647  1.00  0.00    -0.194 C  
BRANCH   5   6
HETATM    6  N   UNL     1     -10.502   7.031  70.435  1.00  0.00    -0.203 NA 
HETATM    7  C   UNL     1     -11.439   6.511  71.318  1.00  0.00    -0.318 A  
HETATM    8  N   UNL     1     -10.978   5.423  71.907  1.00  0.00    -0.195 NA 
HETATM    9  C   UNL     1     -12.793   7.072  71.576  1.00  0.00    -0.420 C  
HETATM   10  C   UNL     1      -9.719   5.225  71.414  1.00  0.00    -0.164 A  
HETATM   11  C   UNL     1      -9.404   6.206  70.510  1.00  0.00    -0.161 A  
HETATM   12  N   UNL     1      -8.181   6.342  69.793  1.00  0.00    -0.124 N  
HETATM   13  O   UNL     1      -7.280   5.547  70.085  1.00  0.00    -0.063 OA 
HETATM   14  O   UNL     1      -8.093   7.239  68.945  1.00  0.00    -0.124 OA 
ENDBRANCH   5   6
ENDBRANCH   2   5
TORSDOF 2
ENDMDL
MODEL      187
REMARK 921   NORMALIZED FREE ENERGY PREDICTED BY IDOCK:   -2.80 KCAL/MOL
REMARK 922        TOTAL FREE ENERGY PREDICTED BY IDOCK:   -3.08 KCAL/MOL
REMARK 923 INTER-LIGAND FREE ENERGY PREDICTED BY IDOCK:   -2.87 KCAL/MOL
REMARK 924 INTRA-LIGAND FREE ENERGY PREDICTED BY IDOCK:   -0.21 KCAL/MOL
REMARK 927      BINDING AFFINITY PREDICTED BY RF-SCORE:    0.00 PKD
ROOT
HETATM    1  C   UNL     1      -7.183   8.520  68.890  1.00  0.00    -0.078 C  
HETATM    2  C   UNL     1      -8.236   8.521  69.992  1.00  0.00    -0.121 C  
HETATM    3  H   UNL     1      -8.863   9.795  71.322  1.00  0.00     0.000 HD 
HETATM    4  O   UNL     1      -8.207   9.794  70.635  1.00  0.00    -0.246 OA 
ENDROOT
BRANCH   2   5
HETATM    5  C   UNL     1      -9.626   8.205  69.422  1.00  0.00    -0.167 C  
BRANCH   5   6
HETATM    6  N   UNL     1     -10.506   7.550  70.379  1.00  0.00    -0.218 NA 
HETATM    7  C   UNL     1     -11.414   8.202  71.205  1.00  0.00    -0.276 A  
HETATM    8  N   UNL     1     -12.042   7.340  71.984  1.00  0.00    -0.300 NA 
HETATM    9  C   UNL     1     -11.677   9.666  71.222  1.00  0.00    -0.458 C  
HETATM   10  C   UNL     1     -11.540   6.108  71.676  1.00  0.00    -0.257 A  
HETATM   11  C   UNL     1     -10.590   6.214  70.695  1.00  0.00    -0.249 A  
HETATM   12  N   UNL     1      -9.838   5.150  70.117  1.00  0.00    -0.209 N  
HETATM   13  O   UNL     1      -9.995   4.031  70.618  1.00  0.00    -0.187 OA 
HETATM   14  O   UNL     1      -9.080   5.410  69.175  1.00  0.00    -0.105 OA 
ENDBRANCH   5   6
ENDBRANCH   2   5
TORSDOF 2
ENDMDL
MODEL      188
REMARK 921   NORMALIZED FREE ENERGY PREDICTED BY IDOCK:   -2.76 KCAL/MOL
REMARK 922        TOTAL FREE ENERGY PREDICTED BY IDOCK:   -3.04 KCAL/MOL
REMARK 923 INTER-LIGAND FREE ENERGY PREDICTED BY IDOCK:   -2.84 KCAL/MOL
REMARK 924 INTRA-LIGAND FREE ENERGY PREDICTED BY IDOCK:   -0.19 KCAL/MOL
REMARK 927      BINDING AFFINITY PREDICTED BY RF-SCORE:    0.00 PKD
ROOT
HETATM    1  C   UNL     1     -10.772   8.969  71.775  1.00  0.00    -0.437 C  
HETATM    2  C   UNL     1      -9.346   8.435  71.707  1.00  0.00    -0.226 C  
HETATM    3  H   UNL     1      -7.856   8.276  72.947  1.00  0.00     0.000 HD 
HETATM    4  O   UNL     1      -8.745   8.609  72.988  1.00  0.00    -0.380 OA 
ENDROOT
BRANCH   2   5
HETATM    5  C   UNL     1      -9.331   6.965  71.267  1.00  0.00    -0.164 C  
BRANCH   5   6
HETATM    6  N   UNL     1      -8.783   6.768  69.934  1.00  0.00    -0.141 NA 
HETATM    7  C   UNL     1      -7.436   6.851  69.603  1.00  0.00    -0.099 A  
HETATM    8  N   UNL     1      -7.256   6.656  68.310  1.00  0.00    -0.083 NA 
HETATM    9  C   UNL     1      -6.323   7.108  70.556  1.00  0.00    -0.039 C  
HETATM   10  C   UNL     1      -8.497   6.449  67.777  1.00  0.00    -0.117 A  
HETATM   11  C   UNL     1      -9.452   6.518  68.758  1.00  0.00    -0.128 A  
HETATM   12  N   UNL     1     -10.858   6.363  68.591  1.00  0.00    -0.287 N  
HETATM   13  O   UNL     1     -11.265   6.245  67.429  1.00  0.00    -0.328 OA 
HETATM   14  O   UNL     1     -11.574   6.367  69.600  1.00  0.00    -0.417 OA 
ENDBRANCH   5   6
ENDBRANCH   2   5
TORSDOF 2
ENDMDL
MODEL      189
REMARK 921   NORMALIZED FREE ENERGY PREDICTED BY IDOCK:   -2.75 KCAL/MOL
REMARK 922        TOTAL FREE ENERGY PREDICTED BY IDOCK:   -3.03 KCAL/MOL
REMARK 923 INTER-LIGAND FREE ENERGY PREDICTED BY IDOCK:   -2.85 KCAL/MOL
REMARK 924 INTRA-LIGAND FREE ENERGY PREDICTED BY IDOCK:   -0.18 KCAL/MOL
REMARK 927      BINDING AFFINITY PREDICTED BY RF-SCORE:    0.00 PKD
ROOT
HETATM    1  C   UNL     1     -10.044   9.003  71.918  1.00  0.00    -0.323 C  
HETATM    2  C   UNL     1     -10.308   7.686  71.196  1.00  0.00    -0.200 C  
HETATM    3  H   UNL     1     -11.806   6.894  70.242  1.00  0.00     0.000 HD 
HETATM    4  O   UNL     1     -11.642   7.715  70.692  1.00  0.00    -0.285 OA 
ENDROOT
BRANCH   2   5
HETATM    5  C   UNL     1      -9.283   7.460  70.076  1.00  0.00    -0.148 C  
BRANCH   5   6
HETATM    6  N   UNL     1      -9.873   6.939  68.852  1.00  0.00    -0.146 NA 
HETATM    7  C   UNL     1     -10.131   5.598  68.597  1.00  0.00    -0.183 A  
HETATM    8  N   UNL     1     -10.638   5.439  67.388  1.00  0.00    -0.195 NA 
HETATM    9  C   UNL     1      -9.894   4.474  69.542  1.00  0.00    -0.277 C  
HETATM   10  C   UNL     1     -10.709   6.686  66.835  1.00  0.00    -0.331 A  
HETATM   11  C   UNL     1     -10.239   7.624  67.717  1.00  0.00    -0.201 A  
HETATM   12  N   UNL     1     -10.147   9.028  67.498  1.00  0.00    -0.211 N  
HETATM   13  O   UNL     1     -10.436   9.429  66.364  1.00  0.00    -0.204 OA 
HETATM   14  O   UNL     1      -9.780   9.747  68.436  1.00  0.00    -0.146 OA 
ENDBRANCH   5   6
ENDBRANCH   2   5
TORSDOF 2
ENDMDL
MODEL      190
REMARK 921   NORMALIZED FREE ENERGY PREDICTED BY IDOCK:   -2.75 KCAL/MOL
REMARK 922        TOTAL FREE ENERGY PREDICTED BY IDOCK:   -3.03 KCAL/MOL
REMARK 923 INTER-LIGAND FREE ENERGY PREDICTED BY IDOCK:   -2.82 KCAL/MOL
REMARK 924 INTRA-LIGAND FREE ENERGY PREDICTED BY IDOCK:   -0.21 KCAL/MOL
REMARK 927      BINDING AFFINITY PREDICTED BY RF-SCORE:    0.00 PKD
ROOT
HETATM    1  C   UNL     1      -7.482   7.626  67.943  1.00  0.00    -0.108 C  
HETATM    2  C   UNL     1      -8.209   8.091  69.199  1.00  0.00    -0.130 C  
HETATM    3  H   UNL     1      -9.720   9.253  69.588  1.00  0.00     0.000 HD 
HETATM    4  O   UNL     1      -9.266   8.963  68.804  1.00  0.00    -0.140 OA 
ENDROOT
BRANCH   2   5
HETATM    5  C   UNL     1      -8.732   6.893  70.004  1.00  0.00    -0.142 C  
BRANCH   5   6
HETATM    6  N   UNL     1      -9.387   7.276  71.246  1.00  0.00    -0.155 NA 
HETATM    7  C   UNL     1      -8.732   7.660  72.410  1.00  0.00    -0.130 A  
HETATM    8  N   UNL     1      -9.597   7.915  73.374  1.00  0.00    -0.287 NA 
HETATM    9  C   UNL     1      -7.258   7.790  72.573  1.00  0.00    -0.094 C  
HETATM   10  C   UNL     1     -10.836   7.691  72.847  1.00  0.00    -0.389 A  
HETATM   11  C   UNL     1     -10.731   7.292  71.539  1.00  0.00    -0.219 A  
HETATM   12  N   UNL     1     -11.802   6.960  70.661  1.00  0.00    -0.372 N  
HETATM   13  O   UNL     1     -12.935   6.942  71.156  1.00  0.00    -0.336 OA 
HETATM   14  O   UNL     1     -11.536   6.704  69.480  1.00  0.00    -0.320 OA 
ENDBRANCH   5   6
ENDBRANCH   2   5
TORSDOF 2
ENDMDL
MODEL      191
REMARK 921   NORMALIZED FREE ENERGY PREDICTED BY IDOCK:   -2.75 KCAL/MOL
REMARK 922        TOTAL FREE ENERGY PREDICTED BY IDOCK:   -3.02 KCAL/MOL
REMARK 923 INTER-LIGAND FREE ENERGY PREDICTED BY IDOCK:   -2.83 KCAL/MOL
REMARK 924 INTRA-LIGAND FREE ENERGY PREDICTED BY IDOCK:   -0.19 KCAL/MOL
REMARK 927      BINDING AFFINITY PREDICTED BY RF-SCORE:    0.00 PKD
ROOT
HETATM    1  C   UNL     1     -11.614   6.610  70.354  1.00  0.00    -0.457 C  
HETATM    2  C   UNL     1     -10.513   6.198  69.384  1.00  0.00    -0.256 C  
HETATM    3  H   UNL     1      -9.410   4.619  69.113  1.00  0.00     0.000 HD 
HETATM    4  O   UNL     1     -10.096   4.876  69.719  1.00  0.00    -0.232 OA 
ENDROOT
BRANCH   2   5
HETATM    5  C   UNL     1     -11.002   6.288  67.931  1.00  0.00    -0.327 C  
BRANCH   5   6
HETATM    6  N   UNL     1      -9.923   6.467  66.971  1.00  0.00    -0.151 NA 
HETATM    7  C   UNL     1      -9.232   5.437  66.345  1.00  0.00    -0.147 A  
HETATM    8  N   UNL     1      -8.289   5.916  65.554  1.00  0.00    -0.140 NA 
HETATM    9  C   UNL     1      -9.503   3.983  66.511  1.00  0.00    -0.208 C  
HETATM   10  C   UNL     1      -8.352   7.276  65.662  1.00  0.00    -0.140 A  
HETATM   11  C   UNL     1      -9.348   7.637  66.533  1.00  0.00    -0.189 A  
HETATM   12  N   UNL     1      -9.712   8.962  66.909  1.00  0.00    -0.183 N  
HETATM   13  O   UNL     1      -8.997   9.873  66.476  1.00  0.00    -0.143 OA 
HETATM   14  O   UNL     1     -10.697   9.115  67.642  1.00  0.00    -0.262 OA 
ENDBRANCH   5   6
ENDBRANCH   2   5
TORSDOF 2
ENDMDL
MODEL      192
REMARK 921   NORMALIZED FREE ENERGY PREDICTED BY IDOCK:   -2.69 KCAL/MOL
REMARK 922        TOTAL FREE ENERGY PREDICTED BY IDOCK:   -2.97 KCAL/MOL
REMARK 923 INTER-LIGAND FREE ENERGY PREDICTED BY IDOCK:   -2.97 KCAL/MOL
REMARK 924 INTRA-LIGAND FREE ENERGY PREDICTED BY IDOCK:    0.00 KCAL/MOL
REMARK 927      BINDING AFFINITY PREDICTED BY RF-SCORE:    0.00 PKD
ROOT
HETATM    1  C   UNL     1     -10.440   5.508  68.417  1.00  0.00    -0.227 C  
HETATM    2  C   UNL     1      -9.996   5.694  69.863  1.00  0.00    -0.204 C  
HETATM    3  H   UNL     1      -8.297   5.711  70.810  1.00  0.00     0.000 HD 
HETATM    4  O   UNL     1      -8.574   5.595  69.908  1.00  0.00    -0.121 OA 
ENDROOT
BRANCH   2   5
HETATM    5  C   UNL     1     -10.489   7.037  70.420  1.00  0.00    -0.206 C  
BRANCH   5   6
HETATM    6  N   UNL     1      -9.774   7.463  71.614  1.00  0.00    -0.155 NA 
HETATM    7  C   UNL     1      -8.810   8.463  71.653  1.00  0.00    -0.186 A  
HETATM    8  N   UNL     1      -8.321   8.596  72.873  1.00  0.00    -0.415 NA 
HETATM    9  C   UNL     1      -8.377   9.298  70.500  1.00  0.00    -0.237 C  
HETATM   10  C   UNL     1      -8.961   7.671  73.646  1.00  0.00    -0.256 A  
HETATM   11  C   UNL     1      -9.857   6.959  72.890  1.00  0.00    -0.172 A  
HETATM   12  N   UNL     1     -10.703   5.905  73.340  1.00  0.00    -0.262 N  
HETATM   13  O   UNL     1     -10.548   5.535  74.510  1.00  0.00    -0.270 OA 
HETATM   14  O   UNL     1     -11.520   5.426  72.544  1.00  0.00    -0.259 OA 
ENDBRANCH   5   6
ENDBRANCH   2   5
TORSDOF 2
ENDMDL
MODEL      193
REMARK 921   NORMALIZED FREE ENERGY PREDICTED BY IDOCK:   -2.68 KCAL/MOL
REMARK 922        TOTAL FREE ENERGY PREDICTED BY IDOCK:   -2.95 KCAL/MOL
REMARK 923 INTER-LIGAND FREE ENERGY PREDICTED BY IDOCK:   -2.73 KCAL/MOL
REMARK 924 INTRA-LIGAND FREE ENERGY PREDICTED BY IDOCK:   -0.22 KCAL/MOL
REMARK 927      BINDING AFFINITY PREDICTED BY RF-SCORE:    0.00 PKD
ROOT
HETATM    1  C   UNL     1     -12.105   8.121  72.226  1.00  0.00    -0.419 C  
HETATM    2  C   UNL     1     -11.386   7.458  71.057  1.00  0.00    -0.275 C  
HETATM    3  H   UNL     1     -11.885   6.249  69.617  1.00  0.00     0.000 HD 
HETATM    4  O   UNL     1     -12.332   6.663  70.346  1.00  0.00    -0.274 OA 
ENDROOT
BRANCH   2   5
HETATM    5  C   UNL     1     -10.731   8.508  70.149  1.00  0.00    -0.235 C  
BRANCH   5   6
HETATM    6  N   UNL     1      -9.539   8.021  69.472  1.00  0.00    -0.163 NA 
HETATM    7  C   UNL     1      -9.519   7.429  68.215  1.00  0.00    -0.142 A  
HETATM    8  N   UNL     1      -8.294   7.064  67.887  1.00  0.00    -0.117 NA 
HETATM    9  C   UNL     1     -10.699   7.233  67.329  1.00  0.00    -0.391 C  
HETATM   10  C   UNL     1      -7.495   7.411  68.939  1.00  0.00    -0.101 A  
HETATM   11  C   UNL     1      -8.242   7.998  69.928  1.00  0.00    -0.119 A  
HETATM   12  N   UNL     1      -7.766   8.484  71.179  1.00  0.00    -0.092 N  
HETATM   13  O   UNL     1      -6.575   8.272  71.436  1.00  0.00    -0.043 OA 
HETATM   14  O   UNL     1      -8.562   9.068  71.924  1.00  0.00    -0.361 OA 
ENDBRANCH   5   6
ENDBRANCH   2   5
TORSDOF 2
ENDMDL
MODEL      194
REMARK 921   NORMALIZED FREE ENERGY PREDICTED BY IDOCK:   -2.65 KCAL/MOL
REMARK 922        TOTAL FREE ENERGY PREDICTED BY IDOCK:   -2.91 KCAL/MOL
REMARK 923 INTER-LIGAND FREE ENERGY PREDICTED BY IDOCK:   -2.76 KCAL/MOL
REMARK 924 INTRA-LIGAND FREE ENERGY PREDICTED BY IDOCK:   -0.15 KCAL/MOL
REMARK 927      BINDING AFFINITY PREDICTED BY RF-SCORE:    0.00 PKD
ROOT
HETATM    1  C   UNL     1     -10.342   7.441  67.640  1.00  0.00    -0.297 C  
HETATM    2  C   UNL     1     -10.984   7.047  68.965  1.00  0.00    -0.130 C  
HETATM    3  H   UNL     1     -10.545   5.834  70.422  1.00  0.00     0.000 HD 
HETATM    4  O   UNL     1     -10.145   6.080  69.596  1.00  0.00    -0.169 OA 
ENDROOT
BRANCH   2   5
HETATM    5  C   UNL     1     -11.201   8.277  69.857  1.00  0.00    -0.028 C  
BRANCH   5   6
HETATM    6  N   UNL     1     -10.776   8.074  71.233  1.00  0.00    -0.226 NA 
HETATM    7  C   UNL     1     -11.553   7.505  72.234  1.00  0.00    -0.310 A  
HETATM    8  N   UNL     1     -10.902   7.486  73.382  1.00  0.00    -0.367 NA 
HETATM    9  C   UNL     1     -12.930   6.965  72.063  1.00  0.00    -0.178 C  
HETATM   10  C   UNL     1      -9.684   8.056  73.141  1.00  0.00    -0.270 A  
HETATM   11  C   UNL     1      -9.587   8.429  71.826  1.00  0.00    -0.234 A  
HETATM   12  N   UNL     1      -8.474   9.060  71.200  1.00  0.00    -0.196 N  
HETATM   13  O   UNL     1      -7.538   9.387  71.939  1.00  0.00    -0.215 OA 
HETATM   14  O   UNL     1      -8.516   9.250  69.978  1.00  0.00    -0.139 OA 
ENDBRANCH   5   6
ENDBRANCH   2   5
TORSDOF 2
ENDMDL
MODEL      195
REMARK 921   NORMALIZED FREE ENERGY PREDICTED BY IDOCK:   -2.64 KCAL/MOL
REMARK 922        TOTAL FREE ENERGY PREDICTED BY IDOCK:   -2.90 KCAL/MOL
REMARK 923 INTER-LIGAND FREE ENERGY PREDICTED BY IDOCK:   -2.76 KCAL/MOL
REMARK 924 INTRA-LIGAND FREE ENERGY PREDICTED BY IDOCK:   -0.14 KCAL/MOL
REMARK 927      BINDING AFFINITY PREDICTED BY RF-SCORE:    0.00 PKD
ROOT
HETATM    1  C   UNL     1      -6.651  11.553  69.458  1.00  0.00    -0.120 C  
HETATM    2  C   UNL     1      -7.577  11.945  68.312  1.00  0.00    -0.116 C  
HETATM    3  H   UNL     1      -7.350  12.663  66.519  1.00  0.00     0.000 HD 
HETATM    4  O   UNL     1      -6.774  12.419  67.234  1.00  0.00    -0.150 OA 
ENDROOT
BRANCH   2   5
HETATM    5  C   UNL     1      -8.455  10.760  67.888  1.00  0.00    -0.122 C  
BRANCH   5   6
HETATM    6  N   UNL     1      -9.629  11.157  67.124  1.00  0.00    -0.172 NA 
HETATM    7  C   UNL     1     -10.823  11.609  67.673  1.00  0.00    -0.225 A  
HETATM    8  N   UNL     1     -11.709  11.860  66.726  1.00  0.00    -0.590 NA 
HETATM    9  C   UNL     1     -11.092  11.809  69.122  1.00  0.00    -0.294 C  
HETATM   10  C   UNL     1     -11.099  11.564  65.541  1.00  0.00    -0.191 A  
HETATM   11  C   UNL     1      -9.819  11.125  65.763  1.00  0.00    -0.235 A  
HETATM   12  N   UNL     1      -8.876  10.716  64.777  1.00  0.00    -0.190 N  
HETATM   13  O   UNL     1      -9.285  10.666  63.611  1.00  0.00    -0.215 OA 
HETATM   14  O   UNL     1      -7.729  10.431  65.143  1.00  0.00    -0.145 OA 
ENDBRANCH   5   6
ENDBRANCH   2   5
TORSDOF 2
ENDMDL
MODEL      196
REMARK 921   NORMALIZED FREE ENERGY PREDICTED BY IDOCK:   -2.64 KCAL/MOL
REMARK 922        TOTAL FREE ENERGY PREDICTED BY IDOCK:   -2.90 KCAL/MOL
REMARK 923 INTER-LIGAND FREE ENERGY PREDICTED BY IDOCK:   -2.71 KCAL/MOL
REMARK 924 INTRA-LIGAND FREE ENERGY PREDICTED BY IDOCK:   -0.19 KCAL/MOL
REMARK 927      BINDING AFFINITY PREDICTED BY RF-SCORE:    0.00 PKD
ROOT
HETATM    1  C   UNL     1      -7.895   9.408  70.266  1.00  0.00    -0.165 C  
HETATM    2  C   UNL     1      -7.844   8.853  68.847  1.00  0.00    -0.096 C  
HETATM    3  H   UNL     1      -6.895   7.414  67.946  1.00  0.00     0.000 HD 
HETATM    4  O   UNL     1      -6.927   7.760  68.830  1.00  0.00    -0.062 OA 
ENDROOT
BRANCH   2   5
HETATM    5  C   UNL     1      -9.241   8.430  68.373  1.00  0.00    -0.135 C  
BRANCH   5   6
HETATM    6  N   UNL     1      -9.714   9.188  67.224  1.00  0.00    -0.163 NA 
HETATM    7  C   UNL     1      -9.243   9.046  65.925  1.00  0.00    -0.230 A  
HETATM    8  N   UNL     1      -9.844   9.896  65.112  1.00  0.00    -0.313 NA 
HETATM    9  C   UNL     1      -8.215   8.069  65.475  1.00  0.00    -0.138 C  
HETATM   10  C   UNL     1     -10.715  10.612  65.882  1.00  0.00    -0.035 A  
HETATM   11  C   UNL     1     -10.648  10.197  67.187  1.00  0.00    -0.246 A  
HETATM   12  N   UNL     1     -11.398  10.710  68.284  1.00  0.00    -0.300 N  
HETATM   13  O   UNL     1     -12.114  11.691  68.051  1.00  0.00    -0.597 OA 
HETATM   14  O   UNL     1     -11.279  10.159  69.386  1.00  0.00    -0.230 OA 
ENDBRANCH   5   6
ENDBRANCH   2   5
TORSDOF 2
ENDMDL
MODEL      197
REMARK 921   NORMALIZED FREE ENERGY PREDICTED BY IDOCK:   -2.64 KCAL/MOL
REMARK 922        TOTAL FREE ENERGY PREDICTED BY IDOCK:   -2.90 KCAL/MOL
REMARK 923 INTER-LIGAND FREE ENERGY PREDICTED BY IDOCK:   -2.71 KCAL/MOL
REMARK 924 INTRA-LIGAND FREE ENERGY PREDICTED BY IDOCK:   -0.19 KCAL/MOL
REMARK 927      BINDING AFFINITY PREDICTED BY RF-SCORE:    0.00 PKD
ROOT
HETATM    1  C   UNL     1     -11.070   6.305  67.570  1.00  0.00    -0.379 C  
HETATM    2  C   UNL     1     -10.148   6.378  68.781  1.00  0.00    -0.158 C  
HETATM    3  H   UNL     1      -9.286   7.796  69.795  1.00  0.00     0.000 HD 
HETATM    4  O   UNL     1      -9.861   7.750  69.040  1.00  0.00    -0.163 OA 
ENDROOT
BRANCH   2   5
HETATM    5  C   UNL     1     -10.785   5.692  69.998  1.00  0.00    -0.320 C  
BRANCH   5   6
HETATM    6  N   UNL     1     -10.487   6.360  71.257  1.00  0.00    -0.211 NA 
HETATM    7  C   UNL     1      -9.320   6.196  71.992  1.00  0.00    -0.149 A  
HETATM    8  N   UNL     1      -9.360   6.909  73.102  1.00  0.00    -0.138 NA 
HETATM    9  C   UNL     1      -8.159   5.351  71.600  1.00  0.00    -0.117 C  
HETATM   10  C   UNL     1     -10.568   7.545  73.106  1.00  0.00    -0.388 A  
HETATM   11  C   UNL     1     -11.281   7.218  71.982  1.00  0.00    -0.250 A  
HETATM   12  N   UNL     1     -12.584   7.676  71.636  1.00  0.00    -0.329 N  
HETATM   13  O   UNL     1     -13.168   8.366  72.480  1.00  0.00    -0.257 OA 
HETATM   14  O   UNL     1     -13.049   7.351  70.536  1.00  0.00     0.151 OA 
ENDBRANCH   5   6
ENDBRANCH   2   5
TORSDOF 2
ENDMDL
MODEL      198
REMARK 921   NORMALIZED FREE ENERGY PREDICTED BY IDOCK:   -2.62 KCAL/MOL
REMARK 922        TOTAL FREE ENERGY PREDICTED BY IDOCK:   -2.88 KCAL/MOL
REMARK 923 INTER-LIGAND FREE ENERGY PREDICTED BY IDOCK:   -2.67 KCAL/MOL
REMARK 924 INTRA-LIGAND FREE ENERGY PREDICTED BY IDOCK:   -0.21 KCAL/MOL
REMARK 927      BINDING AFFINITY PREDICTED BY RF-SCORE:    0.00 PKD
ROOT
HETATM    1  C   UNL     1      -9.166   2.636  71.221  1.00  0.00    -0.193 C  
HETATM    2  C   UNL     1      -9.951   3.920  71.461  1.00  0.00    -0.139 C  
HETATM    3  H   UNL     1     -10.837   4.751  72.981  1.00  0.00     0.000 HD 
HETATM    4  O   UNL     1     -10.348   3.950  72.831  1.00  0.00    -0.157 OA 
ENDROOT
BRANCH   2   5
HETATM    5  C   UNL     1      -9.115   5.152  71.085  1.00  0.00    -0.143 C  
BRANCH   5   6
HETATM    6  N   UNL     1      -9.776   6.412  71.393  1.00  0.00    -0.173 NA 
HETATM    7  C   UNL     1     -10.817   6.968  70.659  1.00  0.00    -0.246 A  
HETATM    8  N   UNL     1     -11.182   8.130  71.168  1.00  0.00    -0.252 NA 
HETATM    9  C   UNL     1     -11.464   6.355  69.468  1.00  0.00    -0.412 C  
HETATM   10  C   UNL     1     -10.370   8.349  72.244  1.00  0.00    -0.333 A  
HETATM   11  C   UNL     1      -9.494   7.306  72.398  1.00  0.00    -0.149 A  
HETATM   12  N   UNL     1      -8.490   7.178  73.401  1.00  0.00    -0.126 N  
HETATM   13  O   UNL     1      -8.334   8.148  74.152  1.00  0.00    -0.253 OA 
HETATM   14  O   UNL     1      -7.840   6.126  73.451  1.00  0.00    -0.100 OA 
ENDBRANCH   5   6
ENDBRANCH   2   5
TORSDOF 2
ENDMDL
MODEL      199
REMARK 921   NORMALIZED FREE ENERGY PREDICTED BY IDOCK:   -2.61 KCAL/MOL
REMARK 922        TOTAL FREE ENERGY PREDICTED BY IDOCK:   -2.87 KCAL/MOL
REMARK 923 INTER-LIGAND FREE ENERGY PREDICTED BY IDOCK:   -2.67 KCAL/MOL
REMARK 924 INTRA-LIGAND FREE ENERGY PREDICTED BY IDOCK:   -0.20 KCAL/MOL
REMARK 927      BINDING AFFINITY PREDICTED BY RF-SCORE:    0.00 PKD
ROOT
HETATM    1  C   UNL     1      -8.790   8.156  67.873  1.00  0.00    -0.131 C  
HETATM    2  C   UNL     1      -9.127   9.639  67.979  1.00  0.00    -0.125 C  
HETATM    3  H   UNL     1      -9.122  10.974  69.394  1.00  0.00     0.000 HD 
HETATM    4  O   UNL     1      -8.912  10.049  69.328  1.00  0.00    -0.155 OA 
ENDROOT
BRANCH   2   5
HETATM    5  C   UNL     1      -8.287  10.464  66.994  1.00  0.00    -0.127 C  
BRANCH   5   6
HETATM    6  N   UNL     1      -9.039  10.912  65.831  1.00  0.00    -0.187 NA 
HETATM    7  C   UNL     1      -9.107  10.241  64.617  1.00  0.00    -0.228 A  
HETATM    8  N   UNL     1      -9.840  10.914  63.748  1.00  0.00    -0.306 NA 
HETATM    9  C   UNL     1      -8.468   8.933  64.310  1.00  0.00    -0.165 C  
HETATM   10  C   UNL     1     -10.253  12.046  64.392  1.00  0.00    -0.302 A  
HETATM   11  C   UNL     1      -9.768  12.067  65.673  1.00  0.00    -0.223 A  
HETATM   12  N   UNL     1      -9.977  13.086  66.647  1.00  0.00    -0.244 N  
HETATM   13  O   UNL     1     -10.582  14.096  66.266  1.00  0.00    -0.278 OA 
HETATM   14  O   UNL     1      -9.539  12.906  67.790  1.00  0.00    -0.198 OA 
ENDBRANCH   5   6
ENDBRANCH   2   5
TORSDOF 2
ENDMDL
MODEL      200
REMARK 921   NORMALIZED FREE ENERGY PREDICTED BY IDOCK:   -2.60 KCAL/MOL
REMARK 922        TOTAL FREE ENERGY PREDICTED BY IDOCK:   -2.87 KCAL/MOL
REMARK 923 INTER-LIGAND FREE ENERGY PREDICTED BY IDOCK:   -2.72 KCAL/MOL
REMARK 924 INTRA-LIGAND FREE ENERGY PREDICTED BY IDOCK:   -0.15 KCAL/MOL
REMARK 927      BINDING AFFINITY PREDICTED BY RF-SCORE:    0.00 PKD
ROOT
HETATM    1  C   UNL     1      -7.991  15.859  69.245  1.00  0.00    -0.229 C  
HETATM    2  C   UNL     1      -8.777  16.235  67.995  1.00  0.00    -0.178 C  
HETATM    3  H   UNL     1      -8.924  17.807  66.860  1.00  0.00     0.000 HD 
HETATM    4  O   UNL     1      -8.434  17.572  67.639  1.00  0.00    -0.211 OA 
ENDROOT
BRANCH   2   5
HETATM    5  C   UNL     1      -8.492  15.252  66.852  1.00  0.00    -0.252 C  
BRANCH   5   6
HETATM    6  N   UNL     1      -8.996  13.910  67.105  1.00  0.00    -0.226 NA 
HETATM    7  C   UNL     1     -10.339  13.557  67.152  1.00  0.00    -0.250 A  
HETATM    8  N   UNL     1     -10.478  12.275  67.434  1.00  0.00    -0.209 NA 
HETATM    9  C   UNL     1     -11.486  14.472  66.906  1.00  0.00    -0.375 C  
HETATM   10  C   UNL     1      -9.216  11.776  67.584  1.00  0.00    -0.180 A  
HETATM   11  C   UNL     1      -8.288  12.766  67.390  1.00  0.00    -0.189 A  
HETATM   12  N   UNL     1      -6.872  12.634  67.470  1.00  0.00    -0.141 N  
HETATM   13  O   UNL     1      -6.441  11.536  67.841  1.00  0.00    -0.053 OA 
HETATM   14  O   UNL     1      -6.173  13.613  67.179  1.00  0.00    -0.229 OA 
ENDBRANCH   5   6
ENDBRANCH   2   5
TORSDOF 2
ENDMDL
MODEL      201
REMARK 921   NORMALIZED FREE ENERGY PREDICTED BY IDOCK:   -2.60 KCAL/MOL
REMARK 922        TOTAL FREE ENERGY PREDICTED BY IDOCK:   -2.86 KCAL/MOL
REMARK 923 INTER-LIGAND FREE ENERGY PREDICTED BY IDOCK:   -2.66 KCAL/MOL
REMARK 924 INTRA-LIGAND FREE ENERGY PREDICTED BY IDOCK:   -0.20 KCAL/MOL
REMARK 927      BINDING AFFINITY PREDICTED BY RF-SCORE:    0.00 PKD
ROOT
HETATM    1  C   UNL     1      -6.967  10.029  70.050  1.00  0.00    -0.135 C  
HETATM    2  C   UNL     1      -7.835   8.968  69.384  1.00  0.00    -0.094 C  
HETATM    3  H   UNL     1      -7.836   7.025  69.288  1.00  0.00     0.000 HD 
HETATM    4  O   UNL     1      -7.295   7.687  69.703  1.00  0.00    -0.084 OA 
ENDROOT
BRANCH   2   5
HETATM    5  C   UNL     1      -9.298   9.095  69.833  1.00  0.00    -0.186 C  
BRANCH   5   6
HETATM    6  N   UNL     1     -10.091   7.907  69.555  1.00  0.00    -0.190 NA 
HETATM    7  C   UNL     1     -10.568   7.540  68.303  1.00  0.00    -0.136 A  
HETATM    8  N   UNL     1     -11.282   6.431  68.379  1.00  0.00    -0.288 NA 
HETATM    9  C   UNL     1     -10.315   8.267  67.030  1.00  0.00    -0.393 C  
HETATM   10  C   UNL     1     -11.283   6.065  69.695  1.00  0.00    -0.357 A  
HETATM   11  C   UNL     1     -10.560   6.962  70.438  1.00  0.00    -0.219 A  
HETATM   12  N   UNL     1     -10.340   6.922  71.845  1.00  0.00    -0.190 N  
HETATM   13  O   UNL     1     -10.938   6.039  72.470  1.00  0.00    -0.231 OA 
HETATM   14  O   UNL     1      -9.586   7.764  72.346  1.00  0.00    -0.156 OA 
ENDBRANCH   5   6
ENDBRANCH   2   5
TORSDOF 2
ENDMDL
MODEL      202
REMARK 921   NORMALIZED FREE ENERGY PREDICTED BY IDOCK:   -2.59 KCAL/MOL
REMARK 922        TOTAL FREE ENERGY PREDICTED BY IDOCK:   -2.85 KCAL/MOL
REMARK 923 INTER-LIGAND FREE ENERGY PREDICTED BY IDOCK:   -2.75 KCAL/MOL
REMARK 924 INTRA-LIGAND FREE ENERGY PREDICTED BY IDOCK:   -0.10 KCAL/MOL
REMARK 927      BINDING AFFINITY PREDICTED BY RF-SCORE:    0.00 PKD
ROOT
HETATM    1  C   UNL     1      -9.468   3.047  71.430  1.00  0.00    -0.216 C  
HETATM    2  C   UNL     1      -9.548   4.473  71.963  1.00  0.00    -0.153 C  
HETATM    3  H   UNL     1      -8.844   5.428  73.505  1.00  0.00     0.000 HD 
HETATM    4  O   UNL     1      -8.795   4.539  73.173  1.00  0.00    -0.110 OA 
ENDROOT
BRANCH   2   5
HETATM    5  C   UNL     1      -9.036   5.477  70.921  1.00  0.00    -0.143 C  
BRANCH   5   6
HETATM    6  N   UNL     1      -9.103   6.859  71.371  1.00  0.00    -0.148 NA 
HETATM    7  C   UNL     1      -8.052   7.564  71.944  1.00  0.00    -0.094 A  
HETATM    8  N   UNL     1      -8.431   8.784  72.277  1.00  0.00    -0.396 NA 
HETATM    9  C   UNL     1      -6.672   7.048  72.154  1.00  0.00    -0.057 C  
HETATM   10  C   UNL     1      -9.747   8.886  71.928  1.00  0.00    -0.279 A  
HETATM   11  C   UNL     1     -10.182   7.711  71.372  1.00  0.00    -0.185 A  
HETATM   12  N   UNL     1     -11.494   7.430  70.893  1.00  0.00    -0.280 N  
HETATM   13  O   UNL     1     -12.349   8.304  71.082  1.00  0.00    -0.289 OA 
HETATM   14  O   UNL     1     -11.697   6.343  70.338  1.00  0.00    -0.396 OA 
ENDBRANCH   5   6
ENDBRANCH   2   5
TORSDOF 2
ENDMDL
MODEL      203
REMARK 921   NORMALIZED FREE ENERGY PREDICTED BY IDOCK:   -2.58 KCAL/MOL
REMARK 922        TOTAL FREE ENERGY PREDICTED BY IDOCK:   -2.84 KCAL/MOL
REMARK 923 INTER-LIGAND FREE ENERGY PREDICTED BY IDOCK:   -2.67 KCAL/MOL
REMARK 924 INTRA-LIGAND FREE ENERGY PREDICTED BY IDOCK:   -0.17 KCAL/MOL
REMARK 927      BINDING AFFINITY PREDICTED BY RF-SCORE:    0.00 PKD
ROOT
HETATM    1  C   UNL     1      -7.624  10.202  65.620  1.00  0.00    -0.144 C  
HETATM    2  C   UNL     1      -8.923  10.854  66.079  1.00  0.00    -0.186 C  
HETATM    3  H   UNL     1     -10.286  11.976  65.262  1.00  0.00     0.000 HD 
HETATM    4  O   UNL     1      -9.476  11.569  64.976  1.00  0.00    -0.222 OA 
ENDROOT
BRANCH   2   5
HETATM    5  C   UNL     1      -9.901   9.803  66.622  1.00  0.00    -0.215 C  
BRANCH   5   6
HETATM    6  N   UNL     1     -10.249  10.008  68.020  1.00  0.00    -0.171 NA 
HETATM    7  C   UNL     1     -11.062  11.027  68.500  1.00  0.00    -0.243 A  
HETATM    8  N   UNL     1     -11.163  10.968  69.815  1.00  0.00    -0.271 NA 
HETATM    9  C   UNL     1     -11.751  12.051  67.670  1.00  0.00    -0.365 C  
HETATM   10  C   UNL     1     -10.404   9.904  70.211  1.00  0.00    -0.281 A  
HETATM   11  C   UNL     1      -9.828   9.301  69.122  1.00  0.00    -0.167 A  
HETATM   12  N   UNL     1      -8.964   8.168  69.134  1.00  0.00    -0.144 N  
HETATM   13  O   UNL     1      -8.628   7.743  70.245  1.00  0.00    -0.135 OA 
HETATM   14  O   UNL     1      -8.601   7.695  68.049  1.00  0.00    -0.123 OA 
ENDBRANCH   5   6
ENDBRANCH   2   5
TORSDOF 2
ENDMDL
MODEL      204
REMARK 921   NORMALIZED FREE ENERGY PREDICTED BY IDOCK:   -2.58 KCAL/MOL
REMARK 922        TOTAL FREE ENERGY PREDICTED BY IDOCK:   -2.84 KCAL/MOL
REMARK 923 INTER-LIGAND FREE ENERGY PREDICTED BY IDOCK:   -2.62 KCAL/MOL
REMARK 924 INTRA-LIGAND FREE ENERGY PREDICTED BY IDOCK:   -0.22 KCAL/MOL
REMARK 927      BINDING AFFINITY PREDICTED BY RF-SCORE:    0.00 PKD
ROOT
HETATM    1  C   UNL     1     -10.759  13.297  67.399  1.00  0.00    -0.266 C  
HETATM    2  C   UNL     1     -11.022  11.929  68.019  1.00  0.00    -0.224 C  
HETATM    3  H   UNL     1     -11.378  10.138  67.348  1.00  0.00     0.000 HD 
HETATM    4  O   UNL     1     -11.214  10.991  66.962  1.00  0.00    -0.308 OA 
ENDROOT
BRANCH   2   5
HETATM    5  C   UNL     1      -9.868  11.515  68.943  1.00  0.00    -0.075 C  
BRANCH   5   6
HETATM    6  N   UNL     1      -9.861  10.094  69.254  1.00  0.00    -0.209 NA 
HETATM    7  C   UNL     1     -10.653   9.483  70.217  1.00  0.00    -0.266 A  
HETATM    8  N   UNL     1     -10.395   8.190  70.287  1.00  0.00    -0.205 NA 
HETATM    9  C   UNL     1     -11.673  10.162  71.061  1.00  0.00    -0.470 C  
HETATM   10  C   UNL     1      -9.418   7.943  69.366  1.00  0.00    -0.156 A  
HETATM   11  C   UNL     1      -9.070   9.102  68.721  1.00  0.00    -0.136 A  
HETATM   12  N   UNL     1      -8.085   9.248  67.703  1.00  0.00    -0.104 N  
HETATM   13  O   UNL     1      -7.412   8.245  67.440  1.00  0.00    -0.091 OA 
HETATM   14  O   UNL     1      -7.957  10.354  67.162  1.00  0.00    -0.112 OA 
ENDBRANCH   5   6
ENDBRANCH   2   5
TORSDOF 2
ENDMDL
MODEL      205
REMARK 921   NORMALIZED FREE ENERGY PREDICTED BY IDOCK:   -2.57 KCAL/MOL
REMARK 922        TOTAL FREE ENERGY PREDICTED BY IDOCK:   -2.83 KCAL/MOL
REMARK 923 INTER-LIGAND FREE ENERGY PREDICTED BY IDOCK:   -2.57 KCAL/MOL
REMARK 924 INTRA-LIGAND FREE ENERGY PREDICTED BY IDOCK:   -0.25 KCAL/MOL
REMARK 927      BINDING AFFINITY PREDICTED BY RF-SCORE:    0.00 PKD
ROOT
HETATM    1  C   UNL     1      -7.638  10.218  66.964  1.00  0.00    -0.099 C  
HETATM    2  C   UNL     1      -8.784  11.181  66.676  1.00  0.00    -0.166 C  
HETATM    3  H   UNL     1     -10.659  11.013  66.186  1.00  0.00     0.000 HD 
HETATM    4  O   UNL     1      -9.944  10.412  66.365  1.00  0.00    -0.204 OA 
ENDROOT
BRANCH   2   5
HETATM    5  C   UNL     1      -9.025  12.117  67.868  1.00  0.00    -0.184 C  
BRANCH   5   6
HETATM    6  N   UNL     1      -8.956  13.528  67.516  1.00  0.00    -0.199 NA 
HETATM    7  C   UNL     1      -7.784  14.266  67.405  1.00  0.00    -0.173 A  
HETATM    8  N   UNL     1      -8.049  15.525  67.104  1.00  0.00    -0.197 NA 
HETATM    9  C   UNL     1      -6.405  13.738  67.580  1.00  0.00    -0.062 C  
HETATM   10  C   UNL     1      -9.409  15.622  67.023  1.00  0.00    -0.226 A  
HETATM   11  C   UNL     1      -9.987  14.405  67.278  1.00  0.00    -0.247 A  
HETATM   12  N   UNL     1     -11.381  14.111  67.292  1.00  0.00    -0.316 N  
HETATM   13  O   UNL     1     -12.148  15.071  67.151  1.00  0.00    -0.159 OA 
HETATM   14  O   UNL     1     -11.732  12.936  67.453  1.00  0.00    -0.340 OA 
ENDBRANCH   5   6
ENDBRANCH   2   5
TORSDOF 2
ENDMDL
MODEL      206
REMARK 921   NORMALIZED FREE ENERGY PREDICTED BY IDOCK:   -2.55 KCAL/MOL
REMARK 922        TOTAL FREE ENERGY PREDICTED BY IDOCK:   -2.80 KCAL/MOL
REMARK 923 INTER-LIGAND FREE ENERGY PREDICTED BY IDOCK:   -3.15 KCAL/MOL
REMARK 924 INTRA-LIGAND FREE ENERGY PREDICTED BY IDOCK:    0.35 KCAL/MOL
REMARK 927      BINDING AFFINITY PREDICTED BY RF-SCORE:    0.00 PKD
ROOT
HETATM    1  C   UNL     1      -8.538  12.616  67.988  1.00  0.00    -0.189 C  
HETATM    2  C   UNL     1      -9.846  13.380  67.826  1.00  0.00    -0.234 C  
HETATM    3  H   UNL     1     -10.418  14.982  66.881  1.00  0.00     0.000 HD 
HETATM    4  O   UNL     1      -9.602  14.505  66.983  1.00  0.00    -0.230 OA 
ENDROOT
BRANCH   2   5
HETATM    5  C   UNL     1     -10.945  12.472  67.256  1.00  0.00    -0.261 C  
BRANCH   5   6
HETATM    6  N   UNL     1     -10.480  11.127  66.952  1.00  0.00    -0.235 NA 
HETATM    7  C   UNL     1     -10.119  10.673  65.689  1.00  0.00    -0.272 A  
HETATM    8  N   UNL     1      -9.772   9.400  65.729  1.00  0.00    -0.283 NA 
HETATM    9  C   UNL     1     -10.101  11.490  64.445  1.00  0.00    -0.328 C  
HETATM   10  C   UNL     1      -9.911   9.005  67.029  1.00  0.00    -0.230 A  
HETATM   11  C   UNL     1     -10.351  10.051  67.798  1.00  0.00    -0.215 A  
HETATM   12  N   UNL     1     -10.620  10.026  69.197  1.00  0.00    -0.206 N  
HETATM   13  O   UNL     1     -10.537   8.925  69.754  1.00  0.00    -0.219 OA 
HETATM   14  O   UNL     1     -10.927  11.086  69.756  1.00  0.00    -0.250 OA 
ENDBRANCH   5   6
ENDBRANCH   2   5
TORSDOF 2
ENDMDL
MODEL      207
REMARK 921   NORMALIZED FREE ENERGY PREDICTED BY IDOCK:   -2.52 KCAL/MOL
REMARK 922        TOTAL FREE ENERGY PREDICTED BY IDOCK:   -2.77 KCAL/MOL
REMARK 923 INTER-LIGAND FREE ENERGY PREDICTED BY IDOCK:   -2.58 KCAL/MOL
REMARK 924 INTRA-LIGAND FREE ENERGY PREDICTED BY IDOCK:   -0.19 KCAL/MOL
REMARK 927      BINDING AFFINITY PREDICTED BY RF-SCORE:    0.00 PKD
ROOT
HETATM    1  C   UNL     1      -9.883  13.447  66.860  1.00  0.00    -0.256 C  
HETATM    2  C   UNL     1     -10.211  12.021  66.431  1.00  0.00    -0.216 C  
HETATM    3  H   UNL     1     -10.614  11.128  64.750  1.00  0.00     0.000 HD 
HETATM    4  O   UNL     1     -10.409  12.016  65.018  1.00  0.00    -0.263 OA 
ENDROOT
BRANCH   2   5
HETATM    5  C   UNL     1      -9.097  11.052  66.851  1.00  0.00    -0.156 C  
BRANCH   5   6
HETATM    6  N   UNL     1      -9.540   9.669  66.941  1.00  0.00    -0.159 NA 
HETATM    7  C   UNL     1     -10.309   9.143  67.971  1.00  0.00    -0.222 A  
HETATM    8  N   UNL     1     -10.521   7.852  67.787  1.00  0.00    -0.224 NA 
HETATM    9  C   UNL     1     -10.849   9.905  69.129  1.00  0.00    -0.248 C  
HETATM   10  C   UNL     1      -9.880   7.520  66.628  1.00  0.00    -0.204 A  
HETATM   11  C   UNL     1      -9.265   8.622  66.093  1.00  0.00    -0.213 A  
HETATM   12  N   UNL     1      -8.494   8.671  64.896  1.00  0.00    -0.174 N  
HETATM   13  O   UNL     1      -8.283   7.590  64.333  1.00  0.00    -0.114 OA 
HETATM   14  O   UNL     1      -8.082   9.770  64.507  1.00  0.00    -0.130 OA 
ENDBRANCH   5   6
ENDBRANCH   2   5
TORSDOF 2
ENDMDL
MODEL      208
REMARK 921   NORMALIZED FREE ENERGY PREDICTED BY IDOCK:   -2.52 KCAL/MOL
REMARK 922        TOTAL FREE ENERGY PREDICTED BY IDOCK:   -2.77 KCAL/MOL
REMARK 923 INTER-LIGAND FREE ENERGY PREDICTED BY IDOCK:   -2.59 KCAL/MOL
REMARK 924 INTRA-LIGAND FREE ENERGY PREDICTED BY IDOCK:   -0.17 KCAL/MOL
REMARK 927      BINDING AFFINITY PREDICTED BY RF-SCORE:    0.00 PKD
ROOT
HETATM    1  C   UNL     1     -10.270   5.057  68.834  1.00  0.00    -0.184 C  
HETATM    2  C   UNL     1     -10.138   4.790  70.329  1.00  0.00    -0.234 C  
HETATM    3  H   UNL     1      -8.667   4.579  71.584  1.00  0.00     0.000 HD 
HETATM    4  O   UNL     1      -8.749   4.745  70.652  1.00  0.00    -0.104 OA 
ENDROOT
BRANCH   2   5
HETATM    5  C   UNL     1     -10.876   5.861  71.144  1.00  0.00    -0.269 C  
BRANCH   5   6
HETATM    6  N   UNL     1     -10.182   6.234  72.368  1.00  0.00    -0.185 NA 
HETATM    7  C   UNL     1     -10.329   5.599  73.595  1.00  0.00    -0.240 A  
HETATM    8  N   UNL     1      -9.593   6.187  74.520  1.00  0.00    -0.209 NA 
HETATM    9  C   UNL     1     -11.180   4.407  73.859  1.00  0.00    -0.180 C  
HETATM   10  C   UNL     1      -8.958   7.226  73.901  1.00  0.00    -0.219 A  
HETATM   11  C   UNL     1      -9.310   7.276  72.577  1.00  0.00    -0.143 A  
HETATM   12  N   UNL     1      -8.861   8.223  71.611  1.00  0.00    -0.155 N  
HETATM   13  O   UNL     1      -8.154   9.146  72.032  1.00  0.00    -0.321 OA 
HETATM   14  O   UNL     1      -9.209   8.071  70.433  1.00  0.00    -0.153 OA 
ENDBRANCH   5   6
ENDBRANCH   2   5
TORSDOF 2
ENDMDL
MODEL      209
REMARK 921   NORMALIZED FREE ENERGY PREDICTED BY IDOCK:   -2.50 KCAL/MOL
REMARK 922        TOTAL FREE ENERGY PREDICTED BY IDOCK:   -2.75 KCAL/MOL
REMARK 923 INTER-LIGAND FREE ENERGY PREDICTED BY IDOCK:   -2.55 KCAL/MOL
REMARK 924 INTRA-LIGAND FREE ENERGY PREDICTED BY IDOCK:   -0.20 KCAL/MOL
REMARK 927      BINDING AFFINITY PREDICTED BY RF-SCORE:    0.00 PKD
ROOT
HETATM    1  C   UNL     1     -12.021   8.265  72.223  1.00  0.00    -0.448 C  
HETATM    2  C   UNL     1     -11.262   7.468  71.169  1.00  0.00    -0.257 C  
HETATM    3  H   UNL     1     -11.720   6.125  69.838  1.00  0.00     0.000 HD 
HETATM    4  O   UNL     1     -12.192   6.622  70.496  1.00  0.00    -0.364 OA 
ENDROOT
BRANCH   2   5
HETATM    5  C   UNL     1     -10.536   8.403  70.192  1.00  0.00    -0.233 C  
BRANCH   5   6
HETATM    6  N   UNL     1      -9.223   7.917  69.797  1.00  0.00    -0.150 NA 
HETATM    7  C   UNL     1      -8.086   7.950  70.595  1.00  0.00    -0.102 A  
HETATM    8  N   UNL     1      -7.042   7.467  69.946  1.00  0.00    -0.063 NA 
HETATM    9  C   UNL     1      -8.023   8.444  71.997  1.00  0.00    -0.184 C  
HETATM   10  C   UNL     1      -7.491   7.116  68.705  1.00  0.00    -0.102 A  
HETATM   11  C   UNL     1      -8.829   7.389  68.590  1.00  0.00    -0.126 A  
HETATM   12  N   UNL     1      -9.648   7.169  67.445  1.00  0.00    -0.132 N  
HETATM   13  O   UNL     1      -9.072   6.778  66.422  1.00  0.00    -0.148 OA 
HETATM   14  O   UNL     1     -10.862   7.390  67.539  1.00  0.00    -0.242 OA 
ENDBRANCH   5   6
ENDBRANCH   2   5
TORSDOF 2
ENDMDL
MODEL      210
REMARK 921   NORMALIZED FREE ENERGY PREDICTED BY IDOCK:   -2.50 KCAL/MOL
REMARK 922        TOTAL FREE ENERGY PREDICTED BY IDOCK:   -2.75 KCAL/MOL
REMARK 923 INTER-LIGAND FREE ENERGY PREDICTED BY IDOCK:   -2.63 KCAL/MOL
REMARK 924 INTRA-LIGAND FREE ENERGY PREDICTED BY IDOCK:   -0.11 KCAL/MOL
REMARK 927      BINDING AFFINITY PREDICTED BY RF-SCORE:    0.00 PKD
ROOT
HETATM    1  C   UNL     1      -6.396   4.294  71.245  1.00  0.00    -0.018 C  
HETATM    2  C   UNL     1      -7.519   5.299  71.015  1.00  0.00    -0.087 C  
HETATM    3  H   UNL     1      -7.800   6.836  69.857  1.00  0.00     0.000 HD 
HETATM    4  O   UNL     1      -7.100   6.210  70.001  1.00  0.00    -0.067 OA 
ENDROOT
BRANCH   2   5
HETATM    5  C   UNL     1      -8.823   4.585  70.634  1.00  0.00    -0.100 C  
BRANCH   5   6
HETATM    6  N   UNL     1     -10.017   5.312  71.039  1.00  0.00    -0.190 NA 
HETATM    7  C   UNL     1     -10.795   6.101  70.201  1.00  0.00    -0.329 A  
HETATM    8  N   UNL     1     -11.791   6.655  70.868  1.00  0.00    -0.377 NA 
HETATM    9  C   UNL     1     -10.572   6.302  68.744  1.00  0.00    -0.313 C  
HETATM   10  C   UNL     1     -11.667   6.234  72.161  1.00  0.00    -0.319 A  
HETATM   11  C   UNL     1     -10.579   5.411  72.290  1.00  0.00    -0.225 A  
HETATM   12  N   UNL     1     -10.122   4.783  73.485  1.00  0.00    -0.153 N  
HETATM   13  O   UNL     1     -10.714   5.087  74.528  1.00  0.00    -0.355 OA 
HETATM   14  O   UNL     1      -9.171   3.996  73.409  1.00  0.00    -0.102 OA 
ENDBRANCH   5   6
ENDBRANCH   2   5
TORSDOF 2
ENDMDL
MODEL      211
REMARK 921   NORMALIZED FREE ENERGY PREDICTED BY IDOCK:   -2.48 KCAL/MOL
REMARK 922        TOTAL FREE ENERGY PREDICTED BY IDOCK:   -2.72 KCAL/MOL
REMARK 923 INTER-LIGAND FREE ENERGY PREDICTED BY IDOCK:   -3.09 KCAL/MOL
REMARK 924 INTRA-LIGAND FREE ENERGY PREDICTED BY IDOCK:    0.37 KCAL/MOL
REMARK 927      BINDING AFFINITY PREDICTED BY RF-SCORE:    0.00 PKD
ROOT
HETATM    1  C   UNL     1      -8.214   6.078  72.687  1.00  0.00    -0.111 C  
HETATM    2  C   UNL     1      -9.420   5.929  73.608  1.00  0.00    -0.140 C  
HETATM    3  H   UNL     1     -10.338   7.058  74.898  1.00  0.00     0.000 HD 
HETATM    4  O   UNL     1      -9.586   7.151  74.324  1.00  0.00    -0.257 OA 
ENDROOT
BRANCH   2   5
HETATM    5  C   UNL     1     -10.678   5.564  72.808  1.00  0.00    -0.247 C  
BRANCH   5   6
HETATM    6  N   UNL     1     -10.565   5.862  71.388  1.00  0.00    -0.243 NA 
HETATM    7  C   UNL     1     -10.070   4.992  70.425  1.00  0.00    -0.260 A  
HETATM    8  N   UNL     1     -10.064   5.562  69.234  1.00  0.00    -0.201 NA 
HETATM    9  C   UNL     1      -9.616   3.596  70.668  1.00  0.00    -0.254 C  
HETATM   10  C   UNL     1     -10.552   6.825  69.412  1.00  0.00    -0.233 A  
HETATM   11  C   UNL     1     -10.863   7.033  70.731  1.00  0.00    -0.246 A  
HETATM   12  N   UNL     1     -11.388   8.227  71.304  1.00  0.00    -0.259 N  
HETATM   13  O   UNL     1     -11.488   9.202  70.551  1.00  0.00    -0.262 OA 
HETATM   14  O   UNL     1     -11.697   8.217  72.502  1.00  0.00    -0.378 OA 
ENDBRANCH   5   6
ENDBRANCH   2   5
TORSDOF 2
ENDMDL
MODEL      212
REMARK 921   NORMALIZED FREE ENERGY PREDICTED BY IDOCK:   -2.46 KCAL/MOL
REMARK 922        TOTAL FREE ENERGY PREDICTED BY IDOCK:   -2.71 KCAL/MOL
REMARK 923 INTER-LIGAND FREE ENERGY PREDICTED BY IDOCK:   -2.50 KCAL/MOL
REMARK 924 INTRA-LIGAND FREE ENERGY PREDICTED BY IDOCK:   -0.21 KCAL/MOL
REMARK 927      BINDING AFFINITY PREDICTED BY RF-SCORE:    0.00 PKD
ROOT
HETATM    1  C   UNL     1      -6.795   5.742  70.768  1.00  0.00    -0.054 C  
HETATM    2  C   UNL     1      -8.099   6.520  70.633  1.00  0.00    -0.113 C  
HETATM    3  H   UNL     1      -8.728   8.012  69.556  1.00  0.00     0.000 HD 
HETATM    4  O   UNL     1      -7.915   7.527  69.640  1.00  0.00    -0.119 OA 
ENDROOT
BRANCH   2   5
HETATM    5  C   UNL     1      -9.262   5.582  70.282  1.00  0.00    -0.149 C  
BRANCH   5   6
HETATM    6  N   UNL     1     -10.149   5.319  71.406  1.00  0.00    -0.195 NA 
HETATM    7  C   UNL     1     -10.023   4.255  72.291  1.00  0.00    -0.172 A  
HETATM    8  N   UNL     1     -10.997   4.268  73.182  1.00  0.00    -0.218 NA 
HETATM    9  C   UNL     1      -8.941   3.234  72.272  1.00  0.00    -0.131 C  
HETATM   10  C   UNL     1     -11.779   5.345  72.880  1.00  0.00    -0.162 A  
HETATM   11  C   UNL     1     -11.278   6.004  71.787  1.00  0.00    -0.275 A  
HETATM   12  N   UNL     1     -11.823   7.167  71.170  1.00  0.00    -0.308 N  
HETATM   13  O   UNL     1     -12.907   7.568  71.610  1.00  0.00    -0.336 OA 
HETATM   14  O   UNL     1     -11.194   7.688  70.241  1.00  0.00    -0.265 OA 
ENDBRANCH   5   6
ENDBRANCH   2   5
TORSDOF 2
ENDMDL
MODEL      213
REMARK 921   NORMALIZED FREE ENERGY PREDICTED BY IDOCK:   -2.45 KCAL/MOL
REMARK 922        TOTAL FREE ENERGY PREDICTED BY IDOCK:   -2.70 KCAL/MOL
REMARK 923 INTER-LIGAND FREE ENERGY PREDICTED BY IDOCK:   -2.85 KCAL/MOL
REMARK 924 INTRA-LIGAND FREE ENERGY PREDICTED BY IDOCK:    0.15 KCAL/MOL
REMARK 927      BINDING AFFINITY PREDICTED BY RF-SCORE:    0.00 PKD
ROOT
HETATM    1  C   UNL     1      -8.143   6.188  72.809  1.00  0.00    -0.106 C  
HETATM    2  C   UNL     1      -9.242   5.866  73.814  1.00  0.00    -0.127 C  
HETATM    3  H   UNL     1     -10.209   6.849  75.187  1.00  0.00     0.000 HD 
HETATM    4  O   UNL     1      -9.523   7.049  74.560  1.00  0.00    -0.223 OA 
ENDROOT
BRANCH   2   5
HETATM    5  C   UNL     1     -10.493   5.331  73.105  1.00  0.00    -0.212 C  
BRANCH   5   6
HETATM    6  N   UNL     1     -10.615   5.786  71.729  1.00  0.00    -0.231 NA 
HETATM    7  C   UNL     1     -11.242   6.960  71.328  1.00  0.00    -0.268 A  
HETATM    8  N   UNL     1     -11.217   7.080  70.013  1.00  0.00    -0.280 NA 
HETATM    9  C   UNL     1     -11.852   7.971  72.233  1.00  0.00    -0.424 C  
HETATM   10  C   UNL     1     -10.575   5.972  69.538  1.00  0.00    -0.296 A  
HETATM   11  C   UNL     1     -10.200   5.160  70.577  1.00  0.00    -0.260 A  
HETATM   12  N   UNL     1      -9.516   3.914  70.480  1.00  0.00    -0.166 N  
HETATM   13  O   UNL     1      -9.324   3.478  69.338  1.00  0.00    -0.149 OA 
HETATM   14  O   UNL     1      -9.173   3.348  71.525  1.00  0.00    -0.104 OA 
ENDBRANCH   5   6
ENDBRANCH   2   5
TORSDOF 2
ENDMDL
MODEL      214
REMARK 921   NORMALIZED FREE ENERGY PREDICTED BY IDOCK:   -2.42 KCAL/MOL
REMARK 922        TOTAL FREE ENERGY PREDICTED BY IDOCK:   -2.66 KCAL/MOL
REMARK 923 INTER-LIGAND FREE ENERGY PREDICTED BY IDOCK:   -2.70 KCAL/MOL
REMARK 924 INTRA-LIGAND FREE ENERGY PREDICTED BY IDOCK:    0.04 KCAL/MOL
REMARK 927      BINDING AFFINITY PREDICTED BY RF-SCORE:    0.00 PKD
ROOT
HETATM    1  C   UNL     1      -9.709  10.977  68.550  1.00  0.00    -0.189 C  
HETATM    2  C   UNL     1     -11.006  10.235  68.249  1.00  0.00    -0.264 C  
HETATM    3  H   UNL     1     -12.788  10.729  67.646  1.00  0.00     0.000 HD 
HETATM    4  O   UNL     1     -11.980  11.191  67.834  1.00  0.00    -0.624 OA 
ENDROOT
BRANCH   2   5
HETATM    5  C   UNL     1     -10.784   9.152  67.184  1.00  0.00    -0.143 C  
BRANCH   5   6
HETATM    6  N   UNL     1      -9.542   9.318  66.444  1.00  0.00    -0.217 NA 
HETATM    7  C   UNL     1      -9.375  10.144  65.339  1.00  0.00    -0.216 A  
HETATM    8  N   UNL     1      -8.144  10.055  64.868  1.00  0.00    -0.148 NA 
HETATM    9  C   UNL     1     -10.415  11.030  64.752  1.00  0.00    -0.384 C  
HETATM   10  C   UNL     1      -7.493   9.157  65.664  1.00  0.00    -0.093 A  
HETATM   11  C   UNL     1      -8.335   8.687  66.638  1.00  0.00    -0.108 A  
HETATM   12  N   UNL     1      -8.022   7.733  67.649  1.00  0.00    -0.122 N  
HETATM   13  O   UNL     1      -6.904   7.209  67.584  1.00  0.00    -0.068 OA 
HETATM   14  O   UNL     1      -8.877   7.485  68.508  1.00  0.00    -0.128 OA 
ENDBRANCH   5   6
ENDBRANCH   2   5
TORSDOF 2
ENDMDL
MODEL      215
REMARK 921   NORMALIZED FREE ENERGY PREDICTED BY IDOCK:   -2.42 KCAL/MOL
REMARK 922        TOTAL FREE ENERGY PREDICTED BY IDOCK:   -2.66 KCAL/MOL
REMARK 923 INTER-LIGAND FREE ENERGY PREDICTED BY IDOCK:   -2.61 KCAL/MOL
REMARK 924 INTRA-LIGAND FREE ENERGY PREDICTED BY IDOCK:   -0.06 KCAL/MOL
REMARK 927      BINDING AFFINITY PREDICTED BY RF-SCORE:    0.00 PKD
ROOT
HETATM    1  C   UNL     1      -6.355  11.401  69.400  1.00  0.00    -0.100 C  
HETATM    2  C   UNL     1      -7.389  11.745  68.335  1.00  0.00    -0.094 C  
HETATM    3  H   UNL     1      -7.390  12.728  66.657  1.00  0.00     0.000 HD 
HETATM    4  O   UNL     1      -6.745  12.514  67.321  1.00  0.00    -0.156 OA 
ENDROOT
BRANCH   2   5
HETATM    5  C   UNL     1      -8.030  10.473  67.763  1.00  0.00    -0.106 C  
BRANCH   5   6
HETATM    6  N   UNL     1      -8.901  10.730  66.625  1.00  0.00    -0.142 NA 
HETATM    7  C   UNL     1      -8.558  10.526  65.294  1.00  0.00    -0.177 A  
HETATM    8  N   UNL     1      -9.547  10.881  64.494  1.00  0.00    -0.244 NA 
HETATM    9  C   UNL     1      -7.266   9.972  64.806  1.00  0.00    -0.136 C  
HETATM   10  C   UNL     1     -10.552  11.330  65.303  1.00  0.00    -0.261 A  
HETATM   11  C   UNL     1     -10.174  11.250  66.618  1.00  0.00    -0.229 A  
HETATM   12  N   UNL     1     -10.948  11.633  67.751  1.00  0.00    -0.218 N  
HETATM   13  O   UNL     1     -12.034  12.176  67.518  1.00  0.00    -0.544 OA 
HETATM   14  O   UNL     1     -10.489  11.411  68.879  1.00  0.00    -0.200 OA 
ENDBRANCH   5   6
ENDBRANCH   2   5
TORSDOF 2
ENDMDL
MODEL      216
REMARK 921   NORMALIZED FREE ENERGY PREDICTED BY IDOCK:   -2.42 KCAL/MOL
REMARK 922        TOTAL FREE ENERGY PREDICTED BY IDOCK:   -2.66 KCAL/MOL
REMARK 923 INTER-LIGAND FREE ENERGY PREDICTED BY IDOCK:   -2.52 KCAL/MOL
REMARK 924 INTRA-LIGAND FREE ENERGY PREDICTED BY IDOCK:   -0.14 KCAL/MOL
REMARK 927      BINDING AFFINITY PREDICTED BY RF-SCORE:    0.00 PKD
ROOT
HETATM    1  C   UNL     1      -9.422   9.036  67.034  1.00  0.00    -0.212 C  
HETATM    2  C   UNL     1      -9.605   8.078  68.205  1.00  0.00    -0.146 C  
HETATM    3  H   UNL     1      -9.092   6.244  68.601  1.00  0.00     0.000 HD 
HETATM    4  O   UNL     1      -8.979   6.841  67.871  1.00  0.00    -0.116 OA 
ENDROOT
BRANCH   2   5
HETATM    5  C   UNL     1      -9.029   8.675  69.497  1.00  0.00    -0.145 C  
BRANCH   5   6
HETATM    6  N   UNL     1      -9.477   7.987  70.699  1.00  0.00    -0.161 NA 
HETATM    7  C   UNL     1      -8.826   6.913  71.294  1.00  0.00    -0.135 A  
HETATM    8  N   UNL     1      -9.493   6.486  72.351  1.00  0.00    -0.146 NA 
HETATM    9  C   UNL     1      -7.543   6.315  70.837  1.00  0.00    -0.096 C  
HETATM   10  C   UNL     1     -10.600   7.279  72.451  1.00  0.00    -0.237 A  
HETATM   11  C   UNL     1     -10.613   8.207  71.442  1.00  0.00    -0.220 A  
HETATM   12  N   UNL     1     -11.607   9.200  71.210  1.00  0.00    -0.304 N  
HETATM   13  O   UNL     1     -12.605   9.161  71.940  1.00  0.00    -0.336 OA 
HETATM   14  O   UNL     1     -11.420  10.019  70.302  1.00  0.00    -0.265 OA 
ENDBRANCH   5   6
ENDBRANCH   2   5
TORSDOF 2
ENDMDL
MODEL      217
REMARK 921   NORMALIZED FREE ENERGY PREDICTED BY IDOCK:   -2.42 KCAL/MOL
REMARK 922        TOTAL FREE ENERGY PREDICTED BY IDOCK:   -2.66 KCAL/MOL
REMARK 923 INTER-LIGAND FREE ENERGY PREDICTED BY IDOCK:   -2.41 KCAL/MOL
REMARK 924 INTRA-LIGAND FREE ENERGY PREDICTED BY IDOCK:   -0.25 KCAL/MOL
REMARK 927      BINDING AFFINITY PREDICTED BY RF-SCORE:    0.00 PKD
ROOT
HETATM    1  C   UNL     1     -10.036   2.940  72.380  1.00  0.00    -0.231 C  
HETATM    2  C   UNL     1     -10.642   4.334  72.263  1.00  0.00    -0.029 C  
HETATM    3  H   UNL     1     -11.855   5.422  73.326  1.00  0.00     0.000 HD 
HETATM    4  O   UNL     1     -11.478   4.552  73.398  1.00  0.00    -0.316 OA 
ENDROOT
BRANCH   2   5
HETATM    5  C   UNL     1      -9.544   5.401  72.153  1.00  0.00    -0.154 C  
BRANCH   5   6
HETATM    6  N   UNL     1      -9.823   6.414  71.146  1.00  0.00    -0.179 NA 
HETATM    7  C   UNL     1     -10.614   7.539  71.343  1.00  0.00    -0.210 A  
HETATM    8  N   UNL     1     -10.704   8.249  70.234  1.00  0.00    -0.232 NA 
HETATM    9  C   UNL     1     -11.269   7.927  72.621  1.00  0.00    -0.459 C  
HETATM   10  C   UNL     1      -9.973   7.584  69.292  1.00  0.00    -0.179 A  
HETATM   11  C   UNL     1      -9.426   6.449  69.830  1.00  0.00    -0.154 A  
HETATM   12  N   UNL     1      -8.608   5.495  69.158  1.00  0.00    -0.103 N  
HETATM   13  O   UNL     1      -8.454   5.662  67.942  1.00  0.00    -0.104 OA 
HETATM   14  O   UNL     1      -8.122   4.569  69.818  1.00  0.00    -0.060 OA 
ENDBRANCH   5   6
ENDBRANCH   2   5
TORSDOF 2
ENDMDL
MODEL      218
REMARK 921   NORMALIZED FREE ENERGY PREDICTED BY IDOCK:   -2.41 KCAL/MOL
REMARK 922        TOTAL FREE ENERGY PREDICTED BY IDOCK:   -2.65 KCAL/MOL
REMARK 923 INTER-LIGAND FREE ENERGY PREDICTED BY IDOCK:   -2.54 KCAL/MOL
REMARK 924 INTRA-LIGAND FREE ENERGY PREDICTED BY IDOCK:   -0.11 KCAL/MOL
REMARK 927      BINDING AFFINITY PREDICTED BY RF-SCORE:    0.00 PKD
ROOT
HETATM    1  C   UNL     1     -11.534   9.053  71.112  1.00  0.00    -0.376 C  
HETATM    2  C   UNL     1     -10.902  10.092  70.194  1.00  0.00    -0.311 C  
HETATM    3  H   UNL     1      -9.125  10.426  69.478  1.00  0.00     0.000 HD 
HETATM    4  O   UNL     1      -9.519   9.778  70.051  1.00  0.00    -0.225 OA 
ENDROOT
BRANCH   2   5
HETATM    5  C   UNL     1     -11.619  10.132  68.837  1.00  0.00     0.009 C  
BRANCH   5   6
HETATM    6  N   UNL     1     -10.794   9.656  67.736  1.00  0.00    -0.259 NA 
HETATM    7  C   UNL     1     -10.593   8.321  67.408  1.00  0.00    -0.253 A  
HETATM    8  N   UNL     1      -9.770   8.208  66.382  1.00  0.00    -0.226 NA 
HETATM    9  C   UNL     1     -11.218   7.156  68.090  1.00  0.00     0.098 C  
HETATM   10  C   UNL     1      -9.417   9.480  66.032  1.00  0.00    -0.233 A  
HETATM   11  C   UNL     1     -10.032  10.387  66.855  1.00  0.00    -0.206 A  
HETATM   12  N   UNL     1      -9.905  11.805  66.807  1.00  0.00    -0.196 N  
HETATM   13  O   UNL     1      -9.085  12.258  65.998  1.00  0.00    -0.146 OA 
HETATM   14  O   UNL     1     -10.602  12.485  67.571  1.00  0.00    -0.216 OA 
ENDBRANCH   5   6
ENDBRANCH   2   5
TORSDOF 2
ENDMDL
MODEL      219
REMARK 921   NORMALIZED FREE ENERGY PREDICTED BY IDOCK:   -2.41 KCAL/MOL
REMARK 922        TOTAL FREE ENERGY PREDICTED BY IDOCK:   -2.65 KCAL/MOL
REMARK 923 INTER-LIGAND FREE ENERGY PREDICTED BY IDOCK:   -2.44 KCAL/MOL
REMARK 924 INTRA-LIGAND FREE ENERGY PREDICTED BY IDOCK:   -0.21 KCAL/MOL
REMARK 927      BINDING AFFINITY PREDICTED BY RF-SCORE:    0.00 PKD
ROOT
HETATM    1  C   UNL     1     -10.586   5.654  68.290  1.00  0.00    -0.253 C  
HETATM    2  C   UNL     1     -10.793   7.033  68.904  1.00  0.00    -0.167 C  
HETATM    3  H   UNL     1     -11.448   7.721  70.602  1.00  0.00     0.000 HD 
HETATM    4  O   UNL     1     -11.319   6.861  70.219  1.00  0.00    -0.293 OA 
ENDROOT
BRANCH   2   5
HETATM    5  C   UNL     1      -9.481   7.830  68.917  1.00  0.00    -0.150 C  
BRANCH   5   6
HETATM    6  N   UNL     1      -9.429   8.871  67.901  1.00  0.00    -0.141 NA 
HETATM    7  C   UNL     1      -8.925   8.709  66.617  1.00  0.00    -0.145 A  
HETATM    8  N   UNL     1      -8.985   9.842  65.942  1.00  0.00    -0.146 NA 
HETATM    9  C   UNL     1      -8.397   7.441  66.045  1.00  0.00    -0.143 C  
HETATM   10  C   UNL     1      -9.527  10.765  66.791  1.00  0.00    -0.173 A  
HETATM   11  C   UNL     1      -9.804  10.190  68.004  1.00  0.00    -0.148 A  
HETATM   12  N   UNL     1     -10.367  10.834  69.143  1.00  0.00    -0.214 N  
HETATM   13  O   UNL     1     -10.538  12.056  69.057  1.00  0.00    -0.190 OA 
HETATM   14  O   UNL     1     -10.636  10.144  70.135  1.00  0.00    -0.272 OA 
ENDBRANCH   5   6
ENDBRANCH   2   5
TORSDOF 2
ENDMDL
MODEL      220
REMARK 921   NORMALIZED FREE ENERGY PREDICTED BY IDOCK:   -2.40 KCAL/MOL
REMARK 922        TOTAL FREE ENERGY PREDICTED BY IDOCK:   -2.64 KCAL/MOL
REMARK 923 INTER-LIGAND FREE ENERGY PREDICTED BY IDOCK:   -2.43 KCAL/MOL
REMARK 924 INTRA-LIGAND FREE ENERGY PREDICTED BY IDOCK:   -0.21 KCAL/MOL
REMARK 927      BINDING AFFINITY PREDICTED BY RF-SCORE:    0.00 PKD
ROOT
HETATM    1  C   UNL     1      -6.707   8.526  64.139  1.00  0.00    -0.075 C  
HETATM    2  C   UNL     1      -7.473   9.152  65.298  1.00  0.00    -0.097 C  
HETATM    3  H   UNL     1      -7.764  10.956  65.966  1.00  0.00     0.000 HD 
HETATM    4  O   UNL     1      -7.286  10.565  65.244  1.00  0.00    -0.134 OA 
ENDROOT
BRANCH   2   5
HETATM    5  C   UNL     1      -8.960   8.774  65.240  1.00  0.00    -0.133 C  
BRANCH   5   6
HETATM    6  N   UNL     1      -9.558   8.586  66.553  1.00  0.00    -0.216 NA 
HETATM    7  C   UNL     1      -9.385   7.467  67.357  1.00  0.00    -0.132 A  
HETATM    8  N   UNL     1     -10.081   7.578  68.474  1.00  0.00    -0.179 NA 
HETATM    9  C   UNL     1      -8.527   6.293  67.039  1.00  0.00    -0.108 C  
HETATM   10  C   UNL     1     -10.727   8.780  68.405  1.00  0.00    -0.062 A  
HETATM   11  C   UNL     1     -10.423   9.415  67.229  1.00  0.00    -0.264 A  
HETATM   12  N   UNL     1     -10.909  10.682  66.795  1.00  0.00    -0.211 N  
HETATM   13  O   UNL     1     -11.762  11.219  67.511  1.00  0.00    -0.574 OA 
HETATM   14  O   UNL     1     -10.463  11.153  65.741  1.00  0.00    -0.249 OA 
ENDBRANCH   5   6
ENDBRANCH   2   5
TORSDOF 2
ENDMDL
MODEL      221
REMARK 921   NORMALIZED FREE ENERGY PREDICTED BY IDOCK:   -2.40 KCAL/MOL
REMARK 922        TOTAL FREE ENERGY PREDICTED BY IDOCK:   -2.64 KCAL/MOL
REMARK 923 INTER-LIGAND FREE ENERGY PREDICTED BY IDOCK:   -2.72 KCAL/MOL
REMARK 924 INTRA-LIGAND FREE ENERGY PREDICTED BY IDOCK:    0.08 KCAL/MOL
REMARK 927      BINDING AFFINITY PREDICTED BY RF-SCORE:    0.00 PKD
ROOT
HETATM    1  C   UNL     1     -11.744  12.176  69.429  1.00  0.00    -0.391 C  
HETATM    2  C   UNL     1     -11.107  11.237  68.411  1.00  0.00    -0.240 C  
HETATM    3  H   UNL     1     -11.564   9.520  67.621  1.00  0.00     0.000 HD 
HETATM    4  O   UNL     1     -11.961  10.105  68.255  1.00  0.00    -0.014 OA 
ENDROOT
BRANCH   2   5
HETATM    5  C   UNL     1     -10.869  11.956  67.076  1.00  0.00    -0.259 C  
BRANCH   5   6
HETATM    6  N   UNL     1      -9.923  13.058  67.177  1.00  0.00    -0.231 NA 
HETATM    7  C   UNL     1     -10.268  14.402  67.248  1.00  0.00    -0.252 A  
HETATM    8  N   UNL     1      -9.189  15.162  67.299  1.00  0.00    -0.193 NA 
HETATM    9  C   UNL     1     -11.653  14.943  67.282  1.00  0.00    -0.337 C  
HETATM   10  C   UNL     1      -8.120  14.313  67.252  1.00  0.00    -0.178 A  
HETATM   11  C   UNL     1      -8.549  13.014  67.172  1.00  0.00    -0.195 A  
HETATM   12  N   UNL     1      -7.731  11.849  67.098  1.00  0.00    -0.159 N  
HETATM   13  O   UNL     1      -6.512  12.037  67.004  1.00  0.00    -0.149 OA 
HETATM   14  O   UNL     1      -8.282  10.742  67.121  1.00  0.00    -0.120 OA 
ENDBRANCH   5   6
ENDBRANCH   2   5
TORSDOF 2
ENDMDL
MODEL      222
REMARK 921   NORMALIZED FREE ENERGY PREDICTED BY IDOCK:   -2.39 KCAL/MOL
REMARK 922        TOTAL FREE ENERGY PREDICTED BY IDOCK:   -2.63 KCAL/MOL
REMARK 923 INTER-LIGAND FREE ENERGY PREDICTED BY IDOCK:   -2.37 KCAL/MOL
REMARK 924 INTRA-LIGAND FREE ENERGY PREDICTED BY IDOCK:   -0.25 KCAL/MOL
REMARK 927      BINDING AFFINITY PREDICTED BY RF-SCORE:    0.00 PKD
ROOT
HETATM    1  C   UNL     1     -12.768   7.049  71.243  1.00  0.00    -0.400 C  
HETATM    2  C   UNL     1     -11.418   6.470  71.649  1.00  0.00    -0.297 C  
HETATM    3  H   UNL     1     -10.789   5.195  72.976  1.00  0.00     0.000 HD 
HETATM    4  O   UNL     1     -11.630   5.557  72.724  1.00  0.00    -0.308 OA 
ENDROOT
BRANCH   2   5
HETATM    5  C   UNL     1     -10.732   5.791  70.455  1.00  0.00    -0.302 C  
BRANCH   5   6
HETATM    6  N   UNL     1      -9.473   6.418  70.081  1.00  0.00    -0.160 NA 
HETATM    7  C   UNL     1      -9.346   7.509  69.229  1.00  0.00    -0.151 A  
HETATM    8  N   UNL     1      -8.075   7.826  69.059  1.00  0.00    -0.123 NA 
HETATM    9  C   UNL     1     -10.468   8.249  68.592  1.00  0.00    -0.199 C  
HETATM   10  C   UNL     1      -7.354   6.933  69.800  1.00  0.00    -0.085 A  
HETATM   11  C   UNL     1      -8.195   6.055  70.433  1.00  0.00    -0.116 A  
HETATM   12  N   UNL     1      -7.816   4.978  71.286  1.00  0.00    -0.098 N  
HETATM   13  O   UNL     1      -6.603   4.759  71.391  1.00  0.00    -0.028 OA 
HETATM   14  O   UNL     1      -8.708   4.333  71.850  1.00  0.00    -0.107 OA 
ENDBRANCH   5   6
ENDBRANCH   2   5
TORSDOF 2
ENDMDL
MODEL      223
REMARK 921   NORMALIZED FREE ENERGY PREDICTED BY IDOCK:   -2.39 KCAL/MOL
REMARK 922        TOTAL FREE ENERGY PREDICTED BY IDOCK:   -2.62 KCAL/MOL
REMARK 923 INTER-LIGAND FREE ENERGY PREDICTED BY IDOCK:   -2.40 KCAL/MOL
REMARK 924 INTRA-LIGAND FREE ENERGY PREDICTED BY IDOCK:   -0.22 KCAL/MOL
REMARK 927      BINDING AFFINITY PREDICTED BY RF-SCORE:    0.00 PKD
ROOT
HETATM    1  C   UNL     1      -7.765   7.844  66.155  1.00  0.00    -0.091 C  
HETATM    2  C   UNL     1      -8.920   7.303  66.988  1.00  0.00    -0.130 C  
HETATM    3  H   UNL     1     -10.259   5.907  66.779  1.00  0.00     0.000 HD 
HETATM    4  O   UNL     1      -9.539   6.245  66.259  1.00  0.00    -0.153 OA 
ENDROOT
BRANCH   2   5
HETATM    5  C   UNL     1      -8.430   6.832  68.365  1.00  0.00    -0.122 C  
BRANCH   5   6
HETATM    6  N   UNL     1      -9.048   7.545  69.472  1.00  0.00    -0.143 NA 
HETATM    7  C   UNL     1     -10.330   7.314  69.955  1.00  0.00    -0.219 A  
HETATM    8  N   UNL     1     -10.617   8.142  70.943  1.00  0.00    -0.207 NA 
HETATM    9  C   UNL     1     -11.270   6.272  69.459  1.00  0.00    -0.500 C  
HETATM   10  C   UNL     1      -9.517   8.934  71.110  1.00  0.00    -0.265 A  
HETATM   11  C   UNL     1      -8.542   8.587  70.212  1.00  0.00    -0.137 A  
HETATM   12  N   UNL     1      -7.258   9.190  70.075  1.00  0.00    -0.059 N  
HETATM   13  O   UNL     1      -7.038  10.185  70.775  1.00  0.00    -0.333 OA 
HETATM   14  O   UNL     1      -6.460   8.695  69.269  1.00  0.00    -0.041 OA 
ENDBRANCH   5   6
ENDBRANCH   2   5
TORSDOF 2
ENDMDL
MODEL      224
REMARK 921   NORMALIZED FREE ENERGY PREDICTED BY IDOCK:   -2.37 KCAL/MOL
REMARK 922        TOTAL FREE ENERGY PREDICTED BY IDOCK:   -2.60 KCAL/MOL
REMARK 923 INTER-LIGAND FREE ENERGY PREDICTED BY IDOCK:   -2.35 KCAL/MOL
REMARK 924 INTRA-LIGAND FREE ENERGY PREDICTED BY IDOCK:   -0.25 KCAL/MOL
REMARK 927      BINDING AFFINITY PREDICTED BY RF-SCORE:    0.00 PKD
ROOT
HETATM    1  C   UNL     1      -6.344   5.074  69.450  1.00  0.00    -0.034 C  
HETATM    2  C   UNL     1      -7.765   5.611  69.324  1.00  0.00    -0.088 C  
HETATM    3  H   UNL     1      -9.285   5.277  68.158  1.00  0.00     0.000 HD 
HETATM    4  O   UNL     1      -8.399   4.942  68.236  1.00  0.00    -0.092 OA 
ENDROOT
BRANCH   2   5
HETATM    5  C   UNL     1      -8.540   5.423  70.636  1.00  0.00    -0.127 C  
BRANCH   5   6
HETATM    6  N   UNL     1      -9.235   6.625  71.073  1.00  0.00    -0.160 NA 
HETATM    7  C   UNL     1     -10.473   7.046  70.605  1.00  0.00    -0.210 A  
HETATM    8  N   UNL     1     -10.824   8.188  71.167  1.00  0.00    -0.228 NA 
HETATM    9  C   UNL     1     -11.321   6.323  69.619  1.00  0.00    -0.492 C  
HETATM   10  C   UNL     1      -9.804   8.530  72.009  1.00  0.00    -0.312 A  
HETATM   11  C   UNL     1      -8.813   7.584  71.963  1.00  0.00    -0.117 A  
HETATM   12  N   UNL     1      -7.590   7.596  72.693  1.00  0.00    -0.087 N  
HETATM   13  O   UNL     1      -7.360   8.608  73.366  1.00  0.00    -0.342 OA 
HETATM   14  O   UNL     1      -6.841   6.615  72.601  1.00  0.00    -0.064 OA 
ENDBRANCH   5   6
ENDBRANCH   2   5
TORSDOF 2
ENDMDL
MODEL      225
REMARK 921   NORMALIZED FREE ENERGY PREDICTED BY IDOCK:   -2.36 KCAL/MOL
REMARK 922        TOTAL FREE ENERGY PREDICTED BY IDOCK:   -2.60 KCAL/MOL
REMARK 923 INTER-LIGAND FREE ENERGY PREDICTED BY IDOCK:   -2.43 KCAL/MOL
REMARK 924 INTRA-LIGAND FREE ENERGY PREDICTED BY IDOCK:   -0.17 KCAL/MOL
REMARK 927      BINDING AFFINITY PREDICTED BY RF-SCORE:    0.00 PKD
ROOT
HETATM    1  C   UNL     1      -9.869  13.387  66.881  1.00  0.00    -0.256 C  
HETATM    2  C   UNL     1     -10.032  11.921  66.497  1.00  0.00    -0.202 C  
HETATM    3  H   UNL     1     -10.234  10.928  64.837  1.00  0.00     0.000 HD 
HETATM    4  O   UNL     1     -10.133  11.842  65.077  1.00  0.00    -0.249 OA 
ENDROOT
BRANCH   2   5
HETATM    5  C   UNL     1      -8.863  11.081  67.031  1.00  0.00    -0.143 C  
BRANCH   5   6
HETATM    6  N   UNL     1      -9.151   9.655  67.074  1.00  0.00    -0.134 NA 
HETATM    7  C   UNL     1      -8.799   8.739  66.091  1.00  0.00    -0.168 A  
HETATM    8  N   UNL     1      -9.226   7.529  66.401  1.00  0.00    -0.172 NA 
HETATM    9  C   UNL     1      -8.031   9.046  64.854  1.00  0.00    -0.126 C  
HETATM   10  C   UNL     1      -9.875   7.647  67.598  1.00  0.00    -0.164 A  
HETATM   11  C   UNL     1      -9.844   8.948  68.028  1.00  0.00    -0.168 A  
HETATM   12  N   UNL     1     -10.419   9.463  69.225  1.00  0.00    -0.213 N  
HETATM   13  O   UNL     1     -11.091   8.672  69.898  1.00  0.00    -0.218 OA 
HETATM   14  O   UNL     1     -10.223  10.651  69.508  1.00  0.00    -0.218 OA 
ENDBRANCH   5   6
ENDBRANCH   2   5
TORSDOF 2
ENDMDL
MODEL      226
REMARK 921   NORMALIZED FREE ENERGY PREDICTED BY IDOCK:   -2.36 KCAL/MOL
REMARK 922        TOTAL FREE ENERGY PREDICTED BY IDOCK:   -2.60 KCAL/MOL
REMARK 923 INTER-LIGAND FREE ENERGY PREDICTED BY IDOCK:   -2.44 KCAL/MOL
REMARK 924 INTRA-LIGAND FREE ENERGY PREDICTED BY IDOCK:   -0.15 KCAL/MOL
REMARK 927      BINDING AFFINITY PREDICTED BY RF-SCORE:    0.00 PKD
ROOT
HETATM    1  C   UNL     1     -11.032   8.831  71.995  1.00  0.00    -0.438 C  
HETATM    2  C   UNL     1      -9.635   8.221  72.018  1.00  0.00    -0.248 C  
HETATM    3  H   UNL     1      -8.374   7.673  73.394  1.00  0.00     0.000 HD 
HETATM    4  O   UNL     1      -9.245   8.054  73.380  1.00  0.00    -0.266 OA 
ENDROOT
BRANCH   2   5
HETATM    5  C   UNL     1      -9.606   6.891  71.252  1.00  0.00    -0.165 C  
BRANCH   5   6
HETATM    6  N   UNL     1      -8.933   5.823  71.977  1.00  0.00    -0.138 NA 
HETATM    7  C   UNL     1      -7.561   5.605  71.986  1.00  0.00    -0.100 A  
HETATM    8  N   UNL     1      -7.259   4.542  72.707  1.00  0.00    -0.078 NA 
HETATM    9  C   UNL     1      -6.544   6.446  71.298  1.00  0.00    -0.051 C  
HETATM   10  C   UNL     1      -8.442   4.047  73.175  1.00  0.00    -0.093 A  
HETATM   11  C   UNL     1      -9.486   4.817  72.734  1.00  0.00    -0.132 A  
HETATM   12  N   UNL     1     -10.870   4.614  73.005  1.00  0.00    -0.233 N  
HETATM   13  O   UNL     1     -11.164   3.586  73.626  1.00  0.00    -0.233 OA 
HETATM   14  O   UNL     1     -11.679   5.458  72.601  1.00  0.00    -0.271 OA 
ENDBRANCH   5   6
ENDBRANCH   2   5
TORSDOF 2
ENDMDL
MODEL      227
REMARK 921   NORMALIZED FREE ENERGY PREDICTED BY IDOCK:   -2.33 KCAL/MOL
REMARK 922        TOTAL FREE ENERGY PREDICTED BY IDOCK:   -2.56 KCAL/MOL
REMARK 923 INTER-LIGAND FREE ENERGY PREDICTED BY IDOCK:   -2.68 KCAL/MOL
REMARK 924 INTRA-LIGAND FREE ENERGY PREDICTED BY IDOCK:    0.12 KCAL/MOL
REMARK 927      BINDING AFFINITY PREDICTED BY RF-SCORE:    0.00 PKD
ROOT
HETATM    1  C   UNL     1      -6.875   8.324  64.353  1.00  0.00    -0.069 C  
HETATM    2  C   UNL     1      -7.584   9.332  65.251  1.00  0.00    -0.099 C  
HETATM    3  H   UNL     1      -7.276  11.174  65.795  1.00  0.00     0.000 HD 
HETATM    4  O   UNL     1      -6.835  10.546  65.236  1.00  0.00    -0.123 OA 
ENDROOT
BRANCH   2   5
HETATM    5  C   UNL     1      -9.032   9.553  64.792  1.00  0.00    -0.218 C  
BRANCH   5   6
HETATM    6  N   UNL     1      -9.887  10.108  65.830  1.00  0.00    -0.228 NA 
HETATM    7  C   UNL     1     -10.399  11.399  65.836  1.00  0.00    -0.250 A  
HETATM    8  N   UNL     1     -11.112  11.617  66.927  1.00  0.00    -0.295 NA 
HETATM    9  C   UNL     1     -10.203  12.417  64.769  1.00  0.00    -0.303 C  
HETATM   10  C   UNL     1     -11.065  10.461  67.652  1.00  0.00    -0.293 A  
HETATM   11  C   UNL     1     -10.312   9.520  66.998  1.00  0.00    -0.250 A  
HETATM   12  N   UNL     1     -10.027   8.197  67.443  1.00  0.00    -0.188 N  
HETATM   13  O   UNL     1     -10.424   7.900  68.576  1.00  0.00    -0.206 OA 
HETATM   14  O   UNL     1      -9.402   7.444  66.686  1.00  0.00    -0.156 OA 
ENDBRANCH   5   6
ENDBRANCH   2   5
TORSDOF 2
ENDMDL
MODEL      228
REMARK 921   NORMALIZED FREE ENERGY PREDICTED BY IDOCK:   -2.32 KCAL/MOL
REMARK 922        TOTAL FREE ENERGY PREDICTED BY IDOCK:   -2.55 KCAL/MOL
REMARK 923 INTER-LIGAND FREE ENERGY PREDICTED BY IDOCK:   -2.69 KCAL/MOL
REMARK 924 INTRA-LIGAND FREE ENERGY PREDICTED BY IDOCK:    0.14 KCAL/MOL
REMARK 927      BINDING AFFINITY PREDICTED BY RF-SCORE:    0.00 PKD
ROOT
HETATM    1  C   UNL     1      -9.200   6.866  69.182  1.00  0.00    -0.141 C  
HETATM    2  C   UNL     1     -10.540   6.257  68.785  1.00  0.00    -0.262 C  
HETATM    3  H   UNL     1     -12.330   6.208  69.543  1.00  0.00     0.000 HD 
HETATM    4  O   UNL     1     -11.495   6.587  69.791  1.00  0.00    -0.388 OA 
ENDROOT
BRANCH   2   5
HETATM    5  C   UNL     1     -10.978   6.754  67.400  1.00  0.00    -0.337 C  
BRANCH   5   6
HETATM    6  N   UNL     1     -10.015   7.649  66.777  1.00  0.00    -0.243 NA 
HETATM    7  C   UNL     1      -9.990   9.029  66.935  1.00  0.00    -0.246 A  
HETATM    8  N   UNL     1      -9.019   9.566  66.219  1.00  0.00    -0.151 NA 
HETATM    9  C   UNL     1     -10.907   9.822  67.799  1.00  0.00    -0.306 C  
HETATM   10  C   UNL     1      -8.401   8.533  65.575  1.00  0.00    -0.156 A  
HETATM   11  C   UNL     1      -9.001   7.344  65.901  1.00  0.00    -0.077 A  
HETATM   12  N   UNL     1      -8.643   6.051  65.423  1.00  0.00    -0.148 N  
HETATM   13  O   UNL     1      -7.761   6.007  64.557  1.00  0.00    -0.086 OA 
HETATM   14  O   UNL     1      -9.234   5.068  65.888  1.00  0.00    -0.147 OA 
ENDBRANCH   5   6
ENDBRANCH   2   5
TORSDOF 2
ENDMDL
MODEL      229
REMARK 921   NORMALIZED FREE ENERGY PREDICTED BY IDOCK:   -2.31 KCAL/MOL
REMARK 922        TOTAL FREE ENERGY PREDICTED BY IDOCK:   -2.54 KCAL/MOL
REMARK 923 INTER-LIGAND FREE ENERGY PREDICTED BY IDOCK:   -2.41 KCAL/MOL
REMARK 924 INTRA-LIGAND FREE ENERGY PREDICTED BY IDOCK:   -0.14 KCAL/MOL
REMARK 927      BINDING AFFINITY PREDICTED BY RF-SCORE:    0.00 PKD
ROOT
HETATM    1  C   UNL     1     -10.766  10.636  67.181  1.00  0.00    -0.327 C  
HETATM    2  C   UNL     1     -11.024   9.433  68.081  1.00  0.00    -0.045 C  
HETATM    3  H   UNL     1     -10.818   7.505  67.926  1.00  0.00     0.000 HD 
HETATM    4  O   UNL     1     -10.658   8.255  67.365  1.00  0.00    -0.284 OA 
ENDROOT
BRANCH   2   5
HETATM    5  C   UNL     1     -10.250   9.559  69.401  1.00  0.00    -0.206 C  
BRANCH   5   6
HETATM    6  N   UNL     1      -9.382   8.423  69.670  1.00  0.00    -0.160 NA 
HETATM    7  C   UNL     1      -8.079   8.285  69.207  1.00  0.00    -0.116 A  
HETATM    8  N   UNL     1      -7.563   7.132  69.591  1.00  0.00    -0.101 NA 
HETATM    9  C   UNL     1      -7.333   9.289  68.401  1.00  0.00    -0.077 C  
HETATM   10  C   UNL     1      -8.536   6.496  70.309  1.00  0.00    -0.136 A  
HETATM   11  C   UNL     1      -9.666   7.271  70.366  1.00  0.00    -0.172 A  
HETATM   12  N   UNL     1     -10.890   6.945  71.017  1.00  0.00    -0.235 N  
HETATM   13  O   UNL     1     -10.972   5.809  71.500  1.00  0.00    -0.262 OA 
HETATM   14  O   UNL     1     -11.785   7.799  71.048  1.00  0.00    -0.284 OA 
ENDBRANCH   5   6
ENDBRANCH   2   5
TORSDOF 2
ENDMDL
MODEL      230
REMARK 921   NORMALIZED FREE ENERGY PREDICTED BY IDOCK:   -2.28 KCAL/MOL
REMARK 922        TOTAL FREE ENERGY PREDICTED BY IDOCK:   -2.51 KCAL/MOL
REMARK 923 INTER-LIGAND FREE ENERGY PREDICTED BY IDOCK:   -2.45 KCAL/MOL
REMARK 924 INTRA-LIGAND FREE ENERGY PREDICTED BY IDOCK:   -0.06 KCAL/MOL
REMARK 927      BINDING AFFINITY PREDICTED BY RF-SCORE:    0.00 PKD
ROOT
HETATM    1  C   UNL     1     -11.253   6.299  70.324  1.00  0.00    -0.455 C  
HETATM    2  C   UNL     1     -11.568   6.869  71.702  1.00  0.00    -0.287 C  
HETATM    3  H   UNL     1     -13.179   7.382  72.665  1.00  0.00     0.000 HD 
HETATM    4  O   UNL     1     -12.982   7.027  71.805  1.00  0.00    -0.359 OA 
ENDROOT
BRANCH   2   5
HETATM    5  C   UNL     1     -11.015   5.962  72.810  1.00  0.00    -0.265 C  
BRANCH   5   6
HETATM    6  N   UNL     1      -9.581   5.739  72.709  1.00  0.00    -0.149 NA 
HETATM    7  C   UNL     1      -8.608   6.723  72.835  1.00  0.00    -0.116 A  
HETATM    8  N   UNL     1      -7.401   6.215  72.662  1.00  0.00    -0.089 NA 
HETATM    9  C   UNL     1      -8.859   8.157  73.139  1.00  0.00    -0.325 C  
HETATM   10  C   UNL     1      -7.577   4.884  72.411  1.00  0.00    -0.091 A  
HETATM   11  C   UNL     1      -8.911   4.570  72.431  1.00  0.00    -0.124 A  
HETATM   12  N   UNL     1      -9.488   3.287  72.207  1.00  0.00    -0.115 N  
HETATM   13  O   UNL     1      -8.711   2.385  71.870  1.00  0.00    -0.069 OA 
HETATM   14  O   UNL     1     -10.710   3.158  72.349  1.00  0.00    -0.001 OA 
ENDBRANCH   5   6
ENDBRANCH   2   5
TORSDOF 2
ENDMDL
MODEL      231
REMARK 921   NORMALIZED FREE ENERGY PREDICTED BY IDOCK:   -2.27 KCAL/MOL
REMARK 922        TOTAL FREE ENERGY PREDICTED BY IDOCK:   -2.49 KCAL/MOL
REMARK 923 INTER-LIGAND FREE ENERGY PREDICTED BY IDOCK:   -2.50 KCAL/MOL
REMARK 924 INTRA-LIGAND FREE ENERGY PREDICTED BY IDOCK:    0.01 KCAL/MOL
REMARK 927      BINDING AFFINITY PREDICTED BY RF-SCORE:    0.00 PKD
ROOT
HETATM    1  C   UNL     1     -10.019  10.678  69.030  1.00  0.00    -0.226 C  
HETATM    2  C   UNL     1     -11.208  10.236  68.185  1.00  0.00    -0.229 C  
HETATM    3  H   UNL     1     -12.785  11.094  67.437  1.00  0.00     0.000 HD 
HETATM    4  O   UNL     1     -12.043  11.370  67.964  1.00  0.00    -0.629 OA 
ENDROOT
BRANCH   2   5
HETATM    5  C   UNL     1     -10.739   9.610  66.864  1.00  0.00    -0.115 C  
BRANCH   5   6
HETATM    6  N   UNL     1      -9.472   8.902  66.979  1.00  0.00    -0.157 NA 
HETATM    7  C   UNL     1      -9.315   7.626  67.505  1.00  0.00    -0.139 A  
HETATM    8  N   UNL     1      -8.043   7.271  67.505  1.00  0.00    -0.113 NA 
HETATM    9  C   UNL     1     -10.412   6.749  67.996  1.00  0.00    -0.253 C  
HETATM   10  C   UNL     1      -7.351   8.325  66.980  1.00  0.00    -0.084 A  
HETATM   11  C   UNL     1      -8.211   9.342  66.654  1.00  0.00    -0.115 A  
HETATM   12  N   UNL     1      -7.863  10.604  66.091  1.00  0.00    -0.148 N  
HETATM   13  O   UNL     1      -6.655  10.838  65.969  1.00  0.00    -0.125 OA 
HETATM   14  O   UNL     1      -8.775  11.377  65.774  1.00  0.00    -0.162 OA 
ENDBRANCH   5   6
ENDBRANCH   2   5
TORSDOF 2
ENDMDL
MODEL      232
REMARK 921   NORMALIZED FREE ENERGY PREDICTED BY IDOCK:   -2.24 KCAL/MOL
REMARK 922        TOTAL FREE ENERGY PREDICTED BY IDOCK:   -2.46 KCAL/MOL
REMARK 923 INTER-LIGAND FREE ENERGY PREDICTED BY IDOCK:   -2.79 KCAL/MOL
REMARK 924 INTRA-LIGAND FREE ENERGY PREDICTED BY IDOCK:    0.33 KCAL/MOL
REMARK 927      BINDING AFFINITY PREDICTED BY RF-SCORE:    0.00 PKD
ROOT
HETATM    1  C   UNL     1     -10.436   9.645  68.752  1.00  0.00    -0.238 C  
HETATM    2  C   UNL     1      -9.285   9.172  67.873  1.00  0.00    -0.133 C  
HETATM    3  H   UNL     1      -9.068   7.885  66.430  1.00  0.00     0.000 HD 
HETATM    4  O   UNL     1      -9.786   8.180  66.978  1.00  0.00    -0.187 OA 
ENDROOT
BRANCH   2   5
HETATM    5  C   UNL     1      -8.651  10.349  67.119  1.00  0.00    -0.130 C  
BRANCH   5   6
HETATM    6  N   UNL     1      -9.442  10.797  65.982  1.00  0.00    -0.186 NA 
HETATM    7  C   UNL     1     -10.420  11.783  66.029  1.00  0.00    -0.246 A  
HETATM    8  N   UNL     1     -10.982  11.943  64.845  1.00  0.00    -0.306 NA 
HETATM    9  C   UNL     1     -10.795  12.577  67.230  1.00  0.00    -0.277 C  
HETATM   10  C   UNL     1     -10.376  11.050  64.009  1.00  0.00    -0.371 A  
HETATM   11  C   UNL     1      -9.428  10.331  64.689  1.00  0.00    -0.293 A  
HETATM   12  N   UNL     1      -8.594   9.304  64.158  1.00  0.00    -0.193 N  
HETATM   13  O   UNL     1      -8.814   8.966  62.989  1.00  0.00    -0.136 OA 
HETATM   14  O   UNL     1      -7.725   8.816  64.891  1.00  0.00    -0.095 OA 
ENDBRANCH   5   6
ENDBRANCH   2   5
TORSDOF 2
ENDMDL
MODEL      233
REMARK 921   NORMALIZED FREE ENERGY PREDICTED BY IDOCK:   -2.24 KCAL/MOL
REMARK 922        TOTAL FREE ENERGY PREDICTED BY IDOCK:   -2.46 KCAL/MOL
REMARK 923 INTER-LIGAND FREE ENERGY PREDICTED BY IDOCK:   -2.24 KCAL/MOL
REMARK 924 INTRA-LIGAND FREE ENERGY PREDICTED BY IDOCK:   -0.22 KCAL/MOL
REMARK 927      BINDING AFFINITY PREDICTED BY RF-SCORE:    0.00 PKD
ROOT
HETATM    1  C   UNL     1      -8.903   1.633  71.100  1.00  0.00    -0.108 C  
HETATM    2  C   UNL     1      -9.645   2.921  71.436  1.00  0.00    -0.153 C  
HETATM    3  H   UNL     1     -10.449   3.693  73.031  1.00  0.00     0.000 HD 
HETATM    4  O   UNL     1      -9.986   2.890  72.821  1.00  0.00    -0.125 OA 
ENDROOT
BRANCH   2   5
HETATM    5  C   UNL     1      -8.794   4.151  71.089  1.00  0.00    -0.106 C  
BRANCH   5   6
HETATM    6  N   UNL     1      -9.557   5.224  70.470  1.00  0.00    -0.165 NA 
HETATM    7  C   UNL     1      -9.927   5.271  69.132  1.00  0.00    -0.205 A  
HETATM    8  N   UNL     1     -10.584   6.385  68.865  1.00  0.00    -0.224 NA 
HETATM    9  C   UNL     1      -9.650   4.219  68.117  1.00  0.00    -0.196 C  
HETATM   10  C   UNL     1     -10.643   7.085  70.036  1.00  0.00    -0.230 A  
HETATM   11  C   UNL     1     -10.013   6.391  71.036  1.00  0.00    -0.181 A  
HETATM   12  N   UNL     1      -9.860   6.801  72.392  1.00  0.00    -0.158 N  
HETATM   13  O   UNL     1     -10.257   7.938  72.672  1.00  0.00    -0.245 OA 
HETATM   14  O   UNL     1      -9.339   6.011  73.189  1.00  0.00    -0.140 OA 
ENDBRANCH   5   6
ENDBRANCH   2   5
TORSDOF 2
ENDMDL
MODEL      234
REMARK 921   NORMALIZED FREE ENERGY PREDICTED BY IDOCK:   -2.24 KCAL/MOL
REMARK 922        TOTAL FREE ENERGY PREDICTED BY IDOCK:   -2.45 KCAL/MOL
REMARK 923 INTER-LIGAND FREE ENERGY PREDICTED BY IDOCK:   -2.84 KCAL/MOL
REMARK 924 INTRA-LIGAND FREE ENERGY PREDICTED BY IDOCK:    0.38 KCAL/MOL
REMARK 927      BINDING AFFINITY PREDICTED BY RF-SCORE:    0.00 PKD
ROOT
HETATM    1  C   UNL     1     -11.845  10.108  70.541  1.00  0.00    -0.408 C  
HETATM    2  C   UNL     1     -10.893   9.108  69.897  1.00  0.00    -0.228 C  
HETATM    3  H   UNL     1      -8.993   8.709  70.025  1.00  0.00     0.000 HD 
HETATM    4  O   UNL     1      -9.587   9.332  70.426  1.00  0.00    -0.207 OA 
ENDROOT
BRANCH   2   5
HETATM    5  C   UNL     1     -11.364   7.667  70.139  1.00  0.00    -0.132 C  
BRANCH   5   6
HETATM    6  N   UNL     1     -10.578   6.676  69.420  1.00  0.00    -0.221 NA 
HETATM    7  C   UNL     1     -10.153   6.796  68.103  1.00  0.00    -0.164 A  
HETATM    8  N   UNL     1      -9.489   5.719  67.724  1.00  0.00    -0.111 NA 
HETATM    9  C   UNL     1     -10.384   7.970  67.219  1.00  0.00    -0.371 C  
HETATM   10  C   UNL     1      -9.481   4.875  68.797  1.00  0.00    -0.145 A  
HETATM   11  C   UNL     1     -10.150   5.442  69.851  1.00  0.00    -0.252 A  
HETATM   12  N   UNL     1     -10.360   4.865  71.137  1.00  0.00    -0.189 N  
HETATM   13  O   UNL     1      -9.979   3.698  71.285  1.00  0.00    -0.170 OA 
HETATM   14  O   UNL     1     -10.911   5.551  72.006  1.00  0.00    -0.242 OA 
ENDBRANCH   5   6
ENDBRANCH   2   5
TORSDOF 2
ENDMDL
MODEL      235
REMARK 921   NORMALIZED FREE ENERGY PREDICTED BY IDOCK:   -2.21 KCAL/MOL
REMARK 922        TOTAL FREE ENERGY PREDICTED BY IDOCK:   -2.43 KCAL/MOL
REMARK 923 INTER-LIGAND FREE ENERGY PREDICTED BY IDOCK:   -2.46 KCAL/MOL
REMARK 924 INTRA-LIGAND FREE ENERGY PREDICTED BY IDOCK:    0.04 KCAL/MOL
REMARK 927      BINDING AFFINITY PREDICTED BY RF-SCORE:    0.00 PKD
ROOT
HETATM    1  C   UNL     1     -11.072   7.716  70.791  1.00  0.00    -0.276 C  
HETATM    2  C   UNL     1     -10.580   6.438  70.122  1.00  0.00    -0.240 C  
HETATM    3  H   UNL     1     -11.194   5.298  68.671  1.00  0.00     0.000 HD 
HETATM    4  O   UNL     1     -11.501   6.095  69.088  1.00  0.00    -0.379 OA 
ENDROOT
BRANCH   2   5
HETATM    5  C   UNL     1      -9.156   6.617  69.577  1.00  0.00    -0.144 C  
BRANCH   5   6
HETATM    6  N   UNL     1      -8.766   8.012  69.434  1.00  0.00    -0.136 NA 
HETATM    7  C   UNL     1      -9.037   8.809  68.329  1.00  0.00    -0.141 A  
HETATM    8  N   UNL     1      -8.526  10.016  68.483  1.00  0.00    -0.111 NA 
HETATM    9  C   UNL     1      -9.810   8.392  67.127  1.00  0.00    -0.279 C  
HETATM   10  C   UNL     1      -7.904  10.017  69.699  1.00  0.00    -0.167 A  
HETATM   11  C   UNL     1      -8.034   8.792  70.299  1.00  0.00    -0.106 A  
HETATM   12  N   UNL     1      -7.514   8.405  71.568  1.00  0.00    -0.089 N  
HETATM   13  O   UNL     1      -6.794   9.230  72.143  1.00  0.00    -0.308 OA 
HETATM   14  O   UNL     1      -7.800   7.283  72.003  1.00  0.00    -0.089 OA 
ENDBRANCH   5   6
ENDBRANCH   2   5
TORSDOF 2
ENDMDL
MODEL      236
REMARK 921   NORMALIZED FREE ENERGY PREDICTED BY IDOCK:   -2.18 KCAL/MOL
REMARK 922        TOTAL FREE ENERGY PREDICTED BY IDOCK:   -2.39 KCAL/MOL
REMARK 923 INTER-LIGAND FREE ENERGY PREDICTED BY IDOCK:   -2.21 KCAL/MOL
REMARK 924 INTRA-LIGAND FREE ENERGY PREDICTED BY IDOCK:   -0.19 KCAL/MOL
REMARK 927      BINDING AFFINITY PREDICTED BY RF-SCORE:    0.00 PKD
ROOT
HETATM    1  C   UNL     1      -7.719   7.824  66.105  1.00  0.00    -0.089 C  
HETATM    2  C   UNL     1      -8.775   7.101  66.933  1.00  0.00    -0.126 C  
HETATM    3  H   UNL     1      -9.998   5.616  66.646  1.00  0.00     0.000 HD 
HETATM    4  O   UNL     1      -9.340   6.067  66.130  1.00  0.00    -0.161 OA 
ENDROOT
BRANCH   2   5
HETATM    5  C   UNL     1      -8.169   6.546  68.230  1.00  0.00    -0.114 C  
BRANCH   5   6
HETATM    6  N   UNL     1      -9.157   6.309  69.272  1.00  0.00    -0.134 NA 
HETATM    7  C   UNL     1      -9.780   5.093  69.520  1.00  0.00    -0.192 A  
HETATM    8  N   UNL     1     -10.650   5.203  70.508  1.00  0.00    -0.207 NA 
HETATM    9  C   UNL     1      -9.516   3.818  68.799  1.00  0.00    -0.220 C  
HETATM   10  C   UNL     1     -10.606   6.507  70.913  1.00  0.00    -0.230 A  
HETATM   11  C   UNL     1      -9.697   7.206  70.163  1.00  0.00    -0.171 A  
HETATM   12  N   UNL     1      -9.379   8.590  70.283  1.00  0.00    -0.159 N  
HETATM   13  O   UNL     1     -10.057   9.244  71.084  1.00  0.00    -0.288 OA 
HETATM   14  O   UNL     1      -8.466   9.046  69.583  1.00  0.00    -0.117 OA 
ENDBRANCH   5   6
ENDBRANCH   2   5
TORSDOF 2
ENDMDL
MODEL      237
REMARK 921   NORMALIZED FREE ENERGY PREDICTED BY IDOCK:   -2.17 KCAL/MOL
REMARK 922        TOTAL FREE ENERGY PREDICTED BY IDOCK:   -2.39 KCAL/MOL
REMARK 923 INTER-LIGAND FREE ENERGY PREDICTED BY IDOCK:   -2.16 KCAL/MOL
REMARK 924 INTRA-LIGAND FREE ENERGY PREDICTED BY IDOCK:   -0.23 KCAL/MOL
REMARK 927      BINDING AFFINITY PREDICTED BY RF-SCORE:    0.00 PKD
ROOT
HETATM    1  C   UNL     1     -11.555   8.320  70.795  1.00  0.00    -0.250 C  
HETATM    2  C   UNL     1     -11.436   7.163  71.780  1.00  0.00    -0.267 C  
HETATM    3  H   UNL     1     -12.678   6.029  72.757  1.00  0.00     0.000 HD 
HETATM    4  O   UNL     1     -12.752   6.750  72.143  1.00  0.00    -0.232 OA 
ENDROOT
BRANCH   2   5
HETATM    5  C   UNL     1     -10.625   6.009  71.174  1.00  0.00    -0.246 C  
BRANCH   5   6
HETATM    6  N   UNL     1      -9.421   5.693  71.928  1.00  0.00    -0.151 NA 
HETATM    7  C   UNL     1      -9.383   4.939  73.094  1.00  0.00    -0.121 A  
HETATM    8  N   UNL     1      -8.150   4.855  73.559  1.00  0.00    -0.106 NA 
HETATM    9  C   UNL     1     -10.552   4.288  73.745  1.00  0.00    -0.311 C  
HETATM   10  C   UNL     1      -7.366   5.566  72.697  1.00  0.00    -0.095 A  
HETATM   11  C   UNL     1      -8.128   6.095  71.688  1.00  0.00    -0.110 A  
HETATM   12  N   UNL     1      -7.669   6.901  70.607  1.00  0.00    -0.094 N  
HETATM   13  O   UNL     1      -6.478   7.232  70.633  1.00  0.00    -0.042 OA 
HETATM   14  O   UNL     1      -8.479   7.223  69.729  1.00  0.00    -0.133 OA 
ENDBRANCH   5   6
ENDBRANCH   2   5
TORSDOF 2
ENDMDL
MODEL      238
REMARK 921   NORMALIZED FREE ENERGY PREDICTED BY IDOCK:   -2.14 KCAL/MOL
REMARK 922        TOTAL FREE ENERGY PREDICTED BY IDOCK:   -2.35 KCAL/MOL
REMARK 923 INTER-LIGAND FREE ENERGY PREDICTED BY IDOCK:   -2.26 KCAL/MOL
REMARK 924 INTRA-LIGAND FREE ENERGY PREDICTED BY IDOCK:   -0.09 KCAL/MOL
REMARK 927      BINDING AFFINITY PREDICTED BY RF-SCORE:    0.00 PKD
ROOT
HETATM    1  C   UNL     1      -6.393  11.679  69.867  1.00  0.00    -0.124 C  
HETATM    2  C   UNL     1      -7.446  11.215  68.868  1.00  0.00    -0.125 C  
HETATM    3  H   UNL     1      -7.470  10.760  66.977  1.00  0.00     0.000 HD 
HETATM    4  O   UNL     1      -6.814  11.050  67.600  1.00  0.00    -0.077 OA 
ENDROOT
BRANCH   2   5
HETATM    5  C   UNL     1      -8.116   9.918  69.341  1.00  0.00    -0.139 C  
BRANCH   5   6
HETATM    6  N   UNL     1      -9.019   9.343  68.354  1.00  0.00    -0.128 NA 
HETATM    7  C   UNL     1      -8.687   8.330  67.463  1.00  0.00    -0.129 A  
HETATM    8  N   UNL     1      -9.706   8.046  66.673  1.00  0.00    -0.229 NA 
HETATM    9  C   UNL     1      -7.376   7.629  67.394  1.00  0.00    -0.092 C  
HETATM   10  C   UNL     1     -10.720   8.885  67.040  1.00  0.00    -0.110 A  
HETATM   11  C   UNL     1     -10.317   9.695  68.069  1.00  0.00    -0.218 A  
HETATM   12  N   UNL     1     -11.091  10.702  68.715  1.00  0.00    -0.246 N  
HETATM   13  O   UNL     1     -12.209  10.929  68.235  1.00  0.00    -0.526 OA 
HETATM   14  O   UNL     1     -10.602  11.284  69.691  1.00  0.00    -0.120 OA 
ENDBRANCH   5   6
ENDBRANCH   2   5
TORSDOF 2
ENDMDL
MODEL      239
REMARK 921   NORMALIZED FREE ENERGY PREDICTED BY IDOCK:   -2.11 KCAL/MOL
REMARK 922        TOTAL FREE ENERGY PREDICTED BY IDOCK:   -2.32 KCAL/MOL
REMARK 923 INTER-LIGAND FREE ENERGY PREDICTED BY IDOCK:   -2.08 KCAL/MOL
REMARK 924 INTRA-LIGAND FREE ENERGY PREDICTED BY IDOCK:   -0.24 KCAL/MOL
REMARK 927      BINDING AFFINITY PREDICTED BY RF-SCORE:    0.00 PKD
ROOT
HETATM    1  C   UNL     1      -5.715  11.886  69.225  1.00  0.00    -0.067 C  
HETATM    2  C   UNL     1      -7.126  11.903  68.650  1.00  0.00    -0.102 C  
HETATM    3  H   UNL     1      -8.060  12.911  67.273  1.00  0.00     0.000 HD 
HETATM    4  O   UNL     1      -7.180  12.901  67.632  1.00  0.00    -0.118 OA 
ENDROOT
BRANCH   2   5
HETATM    5  C   UNL     1      -7.515  10.520  68.110  1.00  0.00    -0.090 C  
BRANCH   5   6
HETATM    6  N   UNL     1      -8.896  10.157  68.395  1.00  0.00    -0.120 NA 
HETATM    7  C   UNL     1      -9.980  10.437  67.573  1.00  0.00    -0.181 A  
HETATM    8  N   UNL     1     -11.105  10.011  68.118  1.00  0.00    -0.233 NA 
HETATM    9  C   UNL     1      -9.914  11.110  66.247  1.00  0.00    -0.261 C  
HETATM   10  C   UNL     1     -10.763   9.451  69.315  1.00  0.00    -0.211 A  
HETATM   11  C   UNL     1      -9.408   9.534  69.508  1.00  0.00    -0.190 A  
HETATM   12  N   UNL     1      -8.678   9.067  70.639  1.00  0.00    -0.193 N  
HETATM   13  O   UNL     1      -9.346   8.625  71.581  1.00  0.00    -0.214 OA 
HETATM   14  O   UNL     1      -7.444   9.142  70.614  1.00  0.00    -0.095 OA 
ENDBRANCH   5   6
ENDBRANCH   2   5
TORSDOF 2
ENDMDL
MODEL      240
REMARK 921   NORMALIZED FREE ENERGY PREDICTED BY IDOCK:   -2.10 KCAL/MOL
REMARK 922        TOTAL FREE ENERGY PREDICTED BY IDOCK:   -2.31 KCAL/MOL
REMARK 923 INTER-LIGAND FREE ENERGY PREDICTED BY IDOCK:   -2.16 KCAL/MOL
REMARK 924 INTRA-LIGAND FREE ENERGY PREDICTED BY IDOCK:   -0.15 KCAL/MOL
REMARK 927      BINDING AFFINITY PREDICTED BY RF-SCORE:    0.00 PKD
ROOT
HETATM    1  C   UNL     1      -6.206   8.020  70.240  1.00  0.00    -0.032 C  
HETATM    2  C   UNL     1      -7.472   8.778  69.855  1.00  0.00    -0.053 C  
HETATM    3  H   UNL     1      -8.382  10.381  70.477  1.00  0.00     0.000 HD 
HETATM    4  O   UNL     1      -7.593   9.908  70.717  1.00  0.00    -0.305 OA 
ENDROOT
BRANCH   2   5
HETATM    5  C   UNL     1      -7.436   9.191  68.378  1.00  0.00    -0.082 C  
BRANCH   5   6
HETATM    6  N   UNL     1      -8.726   9.638  67.873  1.00  0.00    -0.119 NA 
HETATM    7  C   UNL     1      -9.135  10.963  67.787  1.00  0.00    -0.149 A  
HETATM    8  N   UNL     1     -10.367  11.046  67.320  1.00  0.00    -0.202 NA 
HETATM    9  C   UNL     1      -8.314  12.150  68.149  1.00  0.00    -0.170 C  
HETATM   10  C   UNL     1     -10.781   9.763  67.101  1.00  0.00    -0.202 A  
HETATM   11  C   UNL     1      -9.788   8.880  67.439  1.00  0.00    -0.193 A  
HETATM   12  N   UNL     1      -9.848   7.459  67.358  1.00  0.00    -0.157 N  
HETATM   13  O   UNL     1     -10.937   6.971  67.036  1.00  0.00    -0.375 OA 
HETATM   14  O   UNL     1      -8.826   6.811  67.621  1.00  0.00    -0.119 OA 
ENDBRANCH   5   6
ENDBRANCH   2   5
TORSDOF 2
ENDMDL
MODEL      241
REMARK 921   NORMALIZED FREE ENERGY PREDICTED BY IDOCK:   -2.09 KCAL/MOL
REMARK 922        TOTAL FREE ENERGY PREDICTED BY IDOCK:   -2.30 KCAL/MOL
REMARK 923 INTER-LIGAND FREE ENERGY PREDICTED BY IDOCK:   -2.09 KCAL/MOL
REMARK 924 INTRA-LIGAND FREE ENERGY PREDICTED BY IDOCK:   -0.21 KCAL/MOL
REMARK 927      BINDING AFFINITY PREDICTED BY RF-SCORE:    0.00 PKD
ROOT
HETATM    1  C   UNL     1      -6.865   4.563  69.924  1.00  0.00    -0.041 C  
HETATM    2  C   UNL     1      -7.706   5.232  68.843  1.00  0.00    -0.082 C  
HETATM    3  H   UNL     1      -8.180   4.835  66.999  1.00  0.00     0.000 HD 
HETATM    4  O   UNL     1      -7.656   4.418  67.673  1.00  0.00    -0.076 OA 
ENDROOT
BRANCH   2   5
HETATM    5  C   UNL     1      -9.148   5.447  69.324  1.00  0.00    -0.108 C  
BRANCH   5   6
HETATM    6  N   UNL     1      -9.680   6.758  68.983  1.00  0.00    -0.145 NA 
HETATM    7  C   UNL     1     -10.390   7.055  67.826  1.00  0.00    -0.202 A  
HETATM    8  N   UNL     1     -10.710   8.335  67.787  1.00  0.00    -0.154 NA 
HETATM    9  C   UNL     1     -10.767   6.082  66.765  1.00  0.00    -0.374 C  
HETATM   10  C   UNL     1     -10.200   8.893  68.925  1.00  0.00    -0.206 A  
HETATM   11  C   UNL     1      -9.558   7.940  69.673  1.00  0.00    -0.164 A  
HETATM   12  N   UNL     1      -8.896   8.139  70.919  1.00  0.00    -0.137 N  
HETATM   13  O   UNL     1      -8.814   9.307  71.319  1.00  0.00    -0.290 OA 
HETATM   14  O   UNL     1      -8.442   7.151  71.508  1.00  0.00    -0.115 OA 
ENDBRANCH   5   6
ENDBRANCH   2   5
TORSDOF 2
ENDMDL
MODEL      242
REMARK 921   NORMALIZED FREE ENERGY PREDICTED BY IDOCK:   -2.08 KCAL/MOL
REMARK 922        TOTAL FREE ENERGY PREDICTED BY IDOCK:   -2.29 KCAL/MOL
REMARK 923 INTER-LIGAND FREE ENERGY PREDICTED BY IDOCK:   -2.07 KCAL/MOL
REMARK 924 INTRA-LIGAND FREE ENERGY PREDICTED BY IDOCK:   -0.21 KCAL/MOL
REMARK 927      BINDING AFFINITY PREDICTED BY RF-SCORE:    0.00 PKD
ROOT
HETATM    1  C   UNL     1      -9.632   9.529  70.694  1.00  0.00    -0.292 C  
HETATM    2  C   UNL     1      -9.337   8.332  69.798  1.00  0.00    -0.158 C  
HETATM    3  H   UNL     1     -10.354   7.238  68.551  1.00  0.00     0.000 HD 
HETATM    4  O   UNL     1     -10.537   7.984  69.110  1.00  0.00    -0.219 OA 
ENDROOT
BRANCH   2   5
HETATM    5  C   UNL     1      -8.194   8.645  68.822  1.00  0.00    -0.121 C  
BRANCH   5   6
HETATM    6  N   UNL     1      -8.279   7.897  67.577  1.00  0.00    -0.123 NA 
HETATM    7  C   UNL     1      -7.821   6.598  67.392  1.00  0.00    -0.113 A  
HETATM    8  N   UNL     1      -8.010   6.206  66.145  1.00  0.00    -0.105 NA 
HETATM    9  C   UNL     1      -7.212   5.735  68.440  1.00  0.00    -0.079 C  
HETATM   10  C   UNL     1      -8.591   7.258  65.496  1.00  0.00    -0.075 A  
HETATM   11  C   UNL     1      -8.761   8.311  66.357  1.00  0.00    -0.142 A  
HETATM   12  N   UNL     1      -9.325   9.582  66.047  1.00  0.00    -0.197 N  
HETATM   13  O   UNL     1      -9.605   9.786  64.860  1.00  0.00    -0.290 OA 
HETATM   14  O   UNL     1      -9.488  10.393  66.967  1.00  0.00    -0.159 OA 
ENDBRANCH   5   6
ENDBRANCH   2   5
TORSDOF 2
ENDMDL
MODEL      243
REMARK 921   NORMALIZED FREE ENERGY PREDICTED BY IDOCK:   -2.07 KCAL/MOL
REMARK 922        TOTAL FREE ENERGY PREDICTED BY IDOCK:   -2.27 KCAL/MOL
REMARK 923 INTER-LIGAND FREE ENERGY PREDICTED BY IDOCK:   -2.11 KCAL/MOL
REMARK 924 INTRA-LIGAND FREE ENERGY PREDICTED BY IDOCK:   -0.17 KCAL/MOL
REMARK 927      BINDING AFFINITY PREDICTED BY RF-SCORE:    0.00 PKD
ROOT
HETATM    1  C   UNL     1     -10.399   8.257  66.864  1.00  0.00    -0.391 C  
HETATM    2  C   UNL     1      -9.836   8.049  68.265  1.00  0.00    -0.170 C  
HETATM    3  H   UNL     1     -10.536   7.439  69.974  1.00  0.00     0.000 HD 
HETATM    4  O   UNL     1     -10.887   7.568  69.100  1.00  0.00    -0.189 OA 
ENDROOT
BRANCH   2   5
HETATM    5  C   UNL     1      -8.644   7.082  68.238  1.00  0.00    -0.129 C  
BRANCH   5   6
HETATM    6  N   UNL     1      -8.891   5.844  68.964  1.00  0.00    -0.119 NA 
HETATM    7  C   UNL     1      -9.465   4.701  68.421  1.00  0.00    -0.145 A  
HETATM    8  N   UNL     1      -9.587   3.757  69.336  1.00  0.00    -0.184 NA 
HETATM    9  C   UNL     1      -9.883   4.529  67.004  1.00  0.00    -0.232 C  
HETATM   10  C   UNL     1      -9.095   4.282  70.497  1.00  0.00    -0.106 A  
HETATM   11  C   UNL     1      -8.665   5.568  70.292  1.00  0.00    -0.130 A  
HETATM   12  N   UNL     1      -8.099   6.442  71.263  1.00  0.00    -0.116 N  
HETATM   13  O   UNL     1      -8.078   6.030  72.429  1.00  0.00    -0.109 OA 
HETATM   14  O   UNL     1      -7.681   7.545  70.889  1.00  0.00    -0.087 OA 
ENDBRANCH   5   6
ENDBRANCH   2   5
TORSDOF 2
ENDMDL
MODEL      244
REMARK 921   NORMALIZED FREE ENERGY PREDICTED BY IDOCK:   -2.06 KCAL/MOL
REMARK 922        TOTAL FREE ENERGY PREDICTED BY IDOCK:   -2.26 KCAL/MOL
REMARK 923 INTER-LIGAND FREE ENERGY PREDICTED BY IDOCK:   -2.10 KCAL/MOL
REMARK 924 INTRA-LIGAND FREE ENERGY PREDICTED BY IDOCK:   -0.16 KCAL/MOL
REMARK 927      BINDING AFFINITY PREDICTED BY RF-SCORE:    0.00 PKD
ROOT
HETATM    1  C   UNL     1      -6.738   9.682  69.254  1.00  0.00    -0.049 C  
HETATM    2  C   UNL     1      -8.019  10.016  68.499  1.00  0.00    -0.102 C  
HETATM    3  H   UNL     1      -8.458  10.784  66.766  1.00  0.00     0.000 HD 
HETATM    4  O   UNL     1      -7.659  10.576  67.238  1.00  0.00    -0.094 OA 
ENDROOT
BRANCH   2   5
HETATM    5  C   UNL     1      -8.900   8.769  68.335  1.00  0.00    -0.138 C  
BRANCH   5   6
HETATM    6  N   UNL     1      -9.889   8.620  69.392  1.00  0.00    -0.180 NA 
HETATM    7  C   UNL     1     -11.033   9.396  69.531  1.00  0.00    -0.173 A  
HETATM    8  N   UNL     1     -11.714   9.042  70.605  1.00  0.00    -0.244 NA 
HETATM    9  C   UNL     1     -11.466  10.477  68.605  1.00  0.00    -0.290 C  
HETATM   10  C   UNL     1     -11.011   8.025  71.186  1.00  0.00    -0.243 A  
HETATM   11  C   UNL     1      -9.882   7.753  70.459  1.00  0.00    -0.182 A  
HETATM   12  N   UNL     1      -8.897   6.766  70.753  1.00  0.00    -0.149 N  
HETATM   13  O   UNL     1      -9.028   6.158  71.822  1.00  0.00    -0.141 OA 
HETATM   14  O   UNL     1      -7.981   6.590  69.940  1.00  0.00    -0.112 OA 
ENDBRANCH   5   6
ENDBRANCH   2   5
TORSDOF 2
ENDMDL
MODEL      245
REMARK 921   NORMALIZED FREE ENERGY PREDICTED BY IDOCK:   -2.01 KCAL/MOL
REMARK 922        TOTAL FREE ENERGY PREDICTED BY IDOCK:   -2.20 KCAL/MOL
REMARK 923 INTER-LIGAND FREE ENERGY PREDICTED BY IDOCK:   -2.00 KCAL/MOL
REMARK 924 INTRA-LIGAND FREE ENERGY PREDICTED BY IDOCK:   -0.20 KCAL/MOL
REMARK 927      BINDING AFFINITY PREDICTED BY RF-SCORE:    0.00 PKD
ROOT
HETATM    1  C   UNL     1     -10.288   9.092  66.578  1.00  0.00    -0.269 C  
HETATM    2  C   UNL     1     -10.049   7.663  67.051  1.00  0.00    -0.268 C  
HETATM    3  H   UNL     1     -11.130   6.058  67.242  1.00  0.00     0.000 HD 
HETATM    4  O   UNL     1     -11.279   6.949  66.948  1.00  0.00    -0.353 OA 
ENDROOT
BRANCH   2   5
HETATM    5  C   UNL     1      -8.934   6.995  66.234  1.00  0.00    -0.151 C  
BRANCH   5   6
HETATM    6  N   UNL     1      -8.254   5.927  66.953  1.00  0.00    -0.105 NA 
HETATM    7  C   UNL     1      -7.288   6.113  67.933  1.00  0.00    -0.084 A  
HETATM    8  N   UNL     1      -6.836   4.953  68.374  1.00  0.00    -0.054 NA 
HETATM    9  C   UNL     1      -6.816   7.427  68.450  1.00  0.00    -0.063 C  
HETATM   10  C   UNL     1      -7.505   3.990  67.673  1.00  0.00    -0.068 A  
HETATM   11  C   UNL     1      -8.379   4.567  66.789  1.00  0.00    -0.105 A  
HETATM   12  N   UNL     1      -9.244   3.891  65.882  1.00  0.00    -0.147 N  
HETATM   13  O   UNL     1      -9.126   2.661  65.822  1.00  0.00    -0.141 OA 
HETATM   14  O   UNL     1     -10.038   4.564  65.213  1.00  0.00    -0.195 OA 
ENDBRANCH   5   6
ENDBRANCH   2   5
TORSDOF 2
ENDMDL
MODEL      246
REMARK 921   NORMALIZED FREE ENERGY PREDICTED BY IDOCK:   -2.00 KCAL/MOL
REMARK 922        TOTAL FREE ENERGY PREDICTED BY IDOCK:   -2.20 KCAL/MOL
REMARK 923 INTER-LIGAND FREE ENERGY PREDICTED BY IDOCK:   -2.07 KCAL/MOL
REMARK 924 INTRA-LIGAND FREE ENERGY PREDICTED BY IDOCK:   -0.13 KCAL/MOL
REMARK 927      BINDING AFFINITY PREDICTED BY RF-SCORE:    0.00 PKD
ROOT
HETATM    1  C   UNL     1      -9.863  13.261  66.903  1.00  0.00    -0.247 C  
HETATM    2  C   UNL     1     -10.145  11.783  66.660  1.00  0.00    -0.204 C  
HETATM    3  H   UNL     1      -9.969  10.557  65.160  1.00  0.00     0.000 HD 
HETATM    4  O   UNL     1      -9.793  11.479  65.312  1.00  0.00    -0.236 OA 
ENDROOT
BRANCH   2   5
HETATM    5  C   UNL     1      -9.376  10.907  67.659  1.00  0.00    -0.156 C  
BRANCH   5   6
HETATM    6  N   UNL     1      -8.517   9.922  67.019  1.00  0.00    -0.121 NA 
HETATM    7  C   UNL     1      -7.224  10.161  66.571  1.00  0.00    -0.104 A  
HETATM    8  N   UNL     1      -6.716   9.081  66.006  1.00  0.00    -0.075 NA 
HETATM    9  C   UNL     1      -6.481  11.443  66.707  1.00  0.00    -0.140 C  
HETATM   10  C   UNL     1      -7.684   8.120  66.075  1.00  0.00    -0.090 A  
HETATM   11  C   UNL     1      -8.803   8.618  66.690  1.00  0.00    -0.133 A  
HETATM   12  N   UNL     1     -10.020   7.920  66.938  1.00  0.00    -0.236 N  
HETATM   13  O   UNL     1     -10.107   6.779  66.468  1.00  0.00    -0.156 OA 
HETATM   14  O   UNL     1     -10.904   8.493  67.587  1.00  0.00    -0.169 OA 
ENDBRANCH   5   6
ENDBRANCH   2   5
TORSDOF 2
ENDMDL
MODEL      247
REMARK 921   NORMALIZED FREE ENERGY PREDICTED BY IDOCK:   -1.98 KCAL/MOL
REMARK 922        TOTAL FREE ENERGY PREDICTED BY IDOCK:   -2.17 KCAL/MOL
REMARK 923 INTER-LIGAND FREE ENERGY PREDICTED BY IDOCK:   -2.05 KCAL/MOL
REMARK 924 INTRA-LIGAND FREE ENERGY PREDICTED BY IDOCK:   -0.12 KCAL/MOL
REMARK 927      BINDING AFFINITY PREDICTED BY RF-SCORE:    0.00 PKD
ROOT
HETATM    1  C   UNL     1      -8.315  11.715  68.495  1.00  0.00    -0.140 C  
HETATM    2  C   UNL     1      -8.506  11.542  66.993  1.00  0.00    -0.164 C  
HETATM    3  H   UNL     1      -7.371  11.063  65.488  1.00  0.00     0.000 HD 
HETATM    4  O   UNL     1      -7.252  11.171  66.425  1.00  0.00    -0.138 OA 
ENDROOT
BRANCH   2   5
HETATM    5  C   UNL     1      -9.594  10.500  66.696  1.00  0.00    -0.172 C  
BRANCH   5   6
HETATM    6  N   UNL     1      -9.060   9.213  66.276  1.00  0.00    -0.166 NA 
HETATM    7  C   UNL     1      -8.757   8.158  67.127  1.00  0.00    -0.127 A  
HETATM    8  N   UNL     1      -8.260   7.138  66.453  1.00  0.00    -0.115 NA 
HETATM    9  C   UNL     1      -8.968   8.143  68.600  1.00  0.00    -0.137 C  
HETATM   10  C   UNL     1      -8.226   7.524  65.143  1.00  0.00    -0.120 A  
HETATM   11  C   UNL     1      -8.710   8.800  65.012  1.00  0.00    -0.148 A  
HETATM   12  N   UNL     1      -8.824   9.548  63.805  1.00  0.00    -0.226 N  
HETATM   13  O   UNL     1      -8.355   9.026  62.787  1.00  0.00    -0.178 OA 
HETATM   14  O   UNL     1      -9.367  10.659  63.851  1.00  0.00    -0.221 OA 
ENDBRANCH   5   6
ENDBRANCH   2   5
TORSDOF 2
ENDMDL
MODEL      248
REMARK 921   NORMALIZED FREE ENERGY PREDICTED BY IDOCK:   -1.98 KCAL/MOL
REMARK 922        TOTAL FREE ENERGY PREDICTED BY IDOCK:   -2.17 KCAL/MOL
REMARK 923 INTER-LIGAND FREE ENERGY PREDICTED BY IDOCK:   -2.33 KCAL/MOL
REMARK 924 INTRA-LIGAND FREE ENERGY PREDICTED BY IDOCK:    0.16 KCAL/MOL
REMARK 927      BINDING AFFINITY PREDICTED BY RF-SCORE:    0.00 PKD
ROOT
HETATM    1  C   UNL     1      -8.082   5.199  69.156  1.00  0.00    -0.084 C  
HETATM    2  C   UNL     1      -9.423   4.962  68.471  1.00  0.00    -0.143 C  
HETATM    3  H   UNL     1     -10.312   3.451  67.630  1.00  0.00     0.000 HD 
HETATM    4  O   UNL     1      -9.476   3.598  68.057  1.00  0.00    -0.178 OA 
ENDROOT
BRANCH   2   5
HETATM    5  C   UNL     1     -10.586   5.317  69.407  1.00  0.00    -0.145 C  
BRANCH   5   6
HETATM    6  N   UNL     1     -10.151   5.796  70.711  1.00  0.00    -0.192 NA 
HETATM    7  C   UNL     1      -9.847   4.986  71.798  1.00  0.00    -0.177 A  
HETATM    8  N   UNL     1      -9.515   5.715  72.848  1.00  0.00    -0.148 NA 
HETATM    9  C   UNL     1      -9.866   3.498  71.805  1.00  0.00    -0.230 C  
HETATM   10  C   UNL     1      -9.608   7.019  72.455  1.00  0.00    -0.145 A  
HETATM   11  C   UNL     1     -10.003   7.092  71.144  1.00  0.00    -0.183 A  
HETATM   12  N   UNL     1     -10.218   8.278  70.384  1.00  0.00    -0.198 N  
HETATM   13  O   UNL     1     -10.127   9.349  70.996  1.00  0.00    -0.288 OA 
HETATM   14  O   UNL     1     -10.488   8.165  69.182  1.00  0.00    -0.220 OA 
ENDBRANCH   5   6
ENDBRANCH   2   5
TORSDOF 2
ENDMDL
MODEL      249
REMARK 921   NORMALIZED FREE ENERGY PREDICTED BY IDOCK:   -1.98 KCAL/MOL
REMARK 922        TOTAL FREE ENERGY PREDICTED BY IDOCK:   -2.17 KCAL/MOL
REMARK 923 INTER-LIGAND FREE ENERGY PREDICTED BY IDOCK:   -2.38 KCAL/MOL
REMARK 924 INTRA-LIGAND FREE ENERGY PREDICTED BY IDOCK:    0.20 KCAL/MOL
REMARK 927      BINDING AFFINITY PREDICTED BY RF-SCORE:    0.00 PKD
ROOT
HETATM    1  C   UNL     1     -10.153  12.907  66.683  1.00  0.00    -0.247 C  
HETATM    2  C   UNL     1     -10.871  11.730  66.033  1.00  0.00    -0.296 C  
HETATM    3  H   UNL     1     -11.200  11.129  64.212  1.00  0.00     0.000 HD 
HETATM    4  O   UNL     1     -10.753  11.863  64.618  1.00  0.00    -0.280 OA 
ENDROOT
BRANCH   2   5
HETATM    5  C   UNL     1     -10.294  10.396  66.527  1.00  0.00    -0.224 C  
BRANCH   5   6
HETATM    6  N   UNL     1      -9.177  10.556  67.446  1.00  0.00    -0.142 NA 
HETATM    7  C   UNL     1      -9.287  10.654  68.827  1.00  0.00    -0.180 A  
HETATM    8  N   UNL     1      -8.101  10.825  69.382  1.00  0.00    -0.096 NA 
HETATM    9  C   UNL     1     -10.551  10.564  69.606  1.00  0.00    -0.281 C  
HETATM   10  C   UNL     1      -7.198  10.850  68.358  1.00  0.00    -0.087 A  
HETATM   11  C   UNL     1      -7.839  10.691  67.157  1.00  0.00    -0.117 A  
HETATM   12  N   UNL     1      -7.237  10.670  65.866  1.00  0.00    -0.137 N  
HETATM   13  O   UNL     1      -6.025  10.911  65.819  1.00  0.00    -0.136 OA 
HETATM   14  O   UNL     1      -7.953  10.427  64.887  1.00  0.00    -0.153 OA 
ENDBRANCH   5   6
ENDBRANCH   2   5
TORSDOF 2
ENDMDL
MODEL      250
REMARK 921   NORMALIZED FREE ENERGY PREDICTED BY IDOCK:   -1.96 KCAL/MOL
REMARK 922        TOTAL FREE ENERGY PREDICTED BY IDOCK:   -2.15 KCAL/MOL
REMARK 923 INTER-LIGAND FREE ENERGY PREDICTED BY IDOCK:   -1.93 KCAL/MOL
REMARK 924 INTRA-LIGAND FREE ENERGY PREDICTED BY IDOCK:   -0.22 KCAL/MOL
REMARK 927      BINDING AFFINITY PREDICTED BY RF-SCORE:    0.00 PKD
ROOT
HETATM    1  C   UNL     1      -6.775   6.174  64.708  1.00  0.00    -0.043 C  
HETATM    2  C   UNL     1      -8.114   6.228  65.435  1.00  0.00    -0.131 C  
HETATM    3  H   UNL     1      -9.602   5.006  65.710  1.00  0.00     0.000 HD 
HETATM    4  O   UNL     1      -8.767   4.973  65.257  1.00  0.00    -0.139 OA 
ENDROOT
BRANCH   2   5
HETATM    5  C   UNL     1      -7.918   6.559  66.921  1.00  0.00    -0.112 C  
BRANCH   5   6
HETATM    6  N   UNL     1      -8.914   7.485  67.441  1.00  0.00    -0.126 NA 
HETATM    7  C   UNL     1      -8.921   8.856  67.221  1.00  0.00    -0.128 A  
HETATM    8  N   UNL     1      -9.933   9.427  67.850  1.00  0.00    -0.173 NA 
HETATM    9  C   UNL     1      -7.947   9.607  66.384  1.00  0.00    -0.108 C  
HETATM   10  C   UNL     1     -10.596   8.425  68.498  1.00  0.00    -0.106 A  
HETATM   11  C   UNL     1      -9.983   7.221  68.264  1.00  0.00    -0.160 A  
HETATM   12  N   UNL     1     -10.378   5.951  68.774  1.00  0.00    -0.196 N  
HETATM   13  O   UNL     1     -11.313   5.948  69.583  1.00  0.00    -0.370 OA 
HETATM   14  O   UNL     1      -9.764   4.947  68.391  1.00  0.00    -0.142 OA 
ENDBRANCH   5   6
ENDBRANCH   2   5
TORSDOF 2
ENDMDL
MODEL      251
REMARK 921   NORMALIZED FREE ENERGY PREDICTED BY IDOCK:   -1.94 KCAL/MOL
REMARK 922        TOTAL FREE ENERGY PREDICTED BY IDOCK:   -2.13 KCAL/MOL
REMARK 923 INTER-LIGAND FREE ENERGY PREDICTED BY IDOCK:   -1.96 KCAL/MOL
REMARK 924 INTRA-LIGAND FREE ENERGY PREDICTED BY IDOCK:   -0.16 KCAL/MOL
REMARK 927      BINDING AFFINITY PREDICTED BY RF-SCORE:    0.00 PKD
ROOT
HETATM    1  C   UNL     1      -6.349   4.988  69.460  1.00  0.00    -0.034 C  
HETATM    2  C   UNL     1      -7.613   5.620  68.887  1.00  0.00    -0.088 C  
HETATM    3  H   UNL     1      -8.874   5.181  67.474  1.00  0.00     0.000 HD 
HETATM    4  O   UNL     1      -8.087   4.788  67.831  1.00  0.00    -0.092 OA 
ENDROOT
BRANCH   2   5
HETATM    5  C   UNL     1      -8.674   5.811  69.980  1.00  0.00    -0.132 C  
BRANCH   5   6
HETATM    6  N   UNL     1      -8.753   7.178  70.474  1.00  0.00    -0.148 NA 
HETATM    7  C   UNL     1      -8.127   7.649  71.622  1.00  0.00    -0.102 A  
HETATM    8  N   UNL     1      -8.414   8.922  71.824  1.00  0.00    -0.359 NA 
HETATM    9  C   UNL     1      -7.237   6.857  72.513  1.00  0.00    -0.081 C  
HETATM   10  C   UNL     1      -9.244   9.295  70.805  1.00  0.00    -0.253 A  
HETATM   11  C   UNL     1      -9.469   8.235  69.965  1.00  0.00    -0.167 A  
HETATM   12  N   UNL     1     -10.285   8.233  68.797  1.00  0.00    -0.207 N  
HETATM   13  O   UNL     1     -10.926   9.266  68.571  1.00  0.00    -0.122 OA 
HETATM   14  O   UNL     1     -10.309   7.211  68.099  1.00  0.00    -0.180 OA 
ENDBRANCH   5   6
ENDBRANCH   2   5
TORSDOF 2
ENDMDL
MODEL      252
REMARK 921   NORMALIZED FREE ENERGY PREDICTED BY IDOCK:   -1.89 KCAL/MOL
REMARK 922        TOTAL FREE ENERGY PREDICTED BY IDOCK:   -2.07 KCAL/MOL
REMARK 923 INTER-LIGAND FREE ENERGY PREDICTED BY IDOCK:   -1.83 KCAL/MOL
REMARK 924 INTRA-LIGAND FREE ENERGY PREDICTED BY IDOCK:   -0.25 KCAL/MOL
REMARK 927      BINDING AFFINITY PREDICTED BY RF-SCORE:    0.00 PKD
ROOT
HETATM    1  C   UNL     1      -6.624   8.580  63.979  1.00  0.00    -0.075 C  
HETATM    2  C   UNL     1      -7.538   9.140  65.062  1.00  0.00    -0.106 C  
HETATM    3  H   UNL     1      -8.167  10.906  65.581  1.00  0.00     0.000 HD 
HETATM    4  O   UNL     1      -7.597  10.557  64.906  1.00  0.00    -0.112 OA 
ENDROOT
BRANCH   2   5
HETATM    5  C   UNL     1      -8.932   8.502  64.987  1.00  0.00     0.050 C  
BRANCH   5   6
HETATM    6  N   UNL     1      -9.514   8.235  66.294  1.00  0.00    -0.213 NA 
HETATM    7  C   UNL     1     -10.261   9.142  67.036  1.00  0.00    -0.263 A  
HETATM    8  N   UNL     1     -10.623   8.617  68.192  1.00  0.00    -0.177 NA 
HETATM    9  C   UNL     1     -10.631  10.518  66.608  1.00  0.00    -0.263 C  
HETATM   10  C   UNL     1     -10.105   7.354  68.219  1.00  0.00    -0.177 A  
HETATM   11  C   UNL     1      -9.415   7.099  67.063  1.00  0.00    -0.155 A  
HETATM   12  N   UNL     1      -8.731   5.896  66.726  1.00  0.00    -0.116 N  
HETATM   13  O   UNL     1      -8.678   5.028  67.606  1.00  0.00    -0.104 OA 
HETATM   14  O   UNL     1      -8.231   5.799  65.598  1.00  0.00    -0.116 OA 
ENDBRANCH   5   6
ENDBRANCH   2   5
TORSDOF 2
ENDMDL
MODEL      253
REMARK 921   NORMALIZED FREE ENERGY PREDICTED BY IDOCK:   -1.89 KCAL/MOL
REMARK 922        TOTAL FREE ENERGY PREDICTED BY IDOCK:   -2.07 KCAL/MOL
REMARK 923 INTER-LIGAND FREE ENERGY PREDICTED BY IDOCK:   -1.91 KCAL/MOL
REMARK 924 INTRA-LIGAND FREE ENERGY PREDICTED BY IDOCK:   -0.16 KCAL/MOL
REMARK 927      BINDING AFFINITY PREDICTED BY RF-SCORE:    0.00 PKD
ROOT
HETATM    1  C   UNL     1      -6.056   5.248  70.679  1.00  0.00    -0.022 C  
HETATM    2  C   UNL     1      -7.046   6.196  70.012  1.00  0.00    -0.072 C  
HETATM    3  H   UNL     1      -8.547   6.011  68.788  1.00  0.00     0.000 HD 
HETATM    4  O   UNL     1      -7.929   5.421  69.204  1.00  0.00    -0.091 OA 
ENDROOT
BRANCH   2   5
HETATM    5  C   UNL     1      -7.809   7.018  71.060  1.00  0.00    -0.096 C  
BRANCH   5   6
HETATM    6  N   UNL     1      -9.245   6.786  71.040  1.00  0.00    -0.156 NA 
HETATM    7  C   UNL     1      -9.900   5.771  71.727  1.00  0.00    -0.166 A  
HETATM    8  N   UNL     1     -11.197   5.800  71.484  1.00  0.00    -0.222 NA 
HETATM    9  C   UNL     1      -9.257   4.782  72.634  1.00  0.00    -0.143 C  
HETATM   10  C   UNL     1     -11.403   6.839  70.621  1.00  0.00    -0.334 A  
HETATM   11  C   UNL     1     -10.214   7.456  70.331  1.00  0.00    -0.198 A  
HETATM   12  N   UNL     1     -10.023   8.572  69.465  1.00  0.00    -0.189 N  
HETATM   13  O   UNL     1     -11.017   8.963  68.843  1.00  0.00    -0.083 OA 
HETATM   14  O   UNL     1      -8.891   9.064  69.382  1.00  0.00    -0.137 OA 
ENDBRANCH   5   6
ENDBRANCH   2   5
TORSDOF 2
ENDMDL
MODEL      254
REMARK 921   NORMALIZED FREE ENERGY PREDICTED BY IDOCK:   -1.84 KCAL/MOL
REMARK 922        TOTAL FREE ENERGY PREDICTED BY IDOCK:   -2.01 KCAL/MOL
REMARK 923 INTER-LIGAND FREE ENERGY PREDICTED BY IDOCK:   -1.92 KCAL/MOL
REMARK 924 INTRA-LIGAND FREE ENERGY PREDICTED BY IDOCK:   -0.08 KCAL/MOL
REMARK 927      BINDING AFFINITY PREDICTED BY RF-SCORE:    0.00 PKD
ROOT
HETATM    1  C   UNL     1      -9.733   5.944  68.501  1.00  0.00    -0.151 C  
HETATM    2  C   UNL     1      -9.600   6.703  67.186  1.00  0.00    -0.138 C  
HETATM    3  H   UNL     1     -10.566   8.142  66.302  1.00  0.00     0.000 HD 
HETATM    4  O   UNL     1     -10.649   7.668  67.122  1.00  0.00    -0.315 OA 
ENDROOT
BRANCH   2   5
HETATM    5  C   UNL     1      -8.217   7.360  67.070  1.00  0.00    -0.121 C  
BRANCH   5   6
HETATM    6  N   UNL     1      -8.218   8.565  66.254  1.00  0.00    -0.106 NA 
HETATM    7  C   UNL     1      -8.319   9.861  66.743  1.00  0.00    -0.125 A  
HETATM    8  N   UNL     1      -8.325  10.737  65.755  1.00  0.00    -0.166 NA 
HETATM    9  C   UNL     1      -8.396  10.243  68.179  1.00  0.00    -0.118 C  
HETATM   10  C   UNL     1      -8.235  10.014  64.600  1.00  0.00    -0.163 A  
HETATM   11  C   UNL     1      -8.173   8.674  64.883  1.00  0.00    -0.157 A  
HETATM   12  N   UNL     1      -8.081   7.608  63.943  1.00  0.00    -0.090 N  
HETATM   13  O   UNL     1      -8.156   7.919  62.748  1.00  0.00    -0.158 OA 
HETATM   14  O   UNL     1      -7.944   6.456  64.372  1.00  0.00    -0.115 OA 
ENDBRANCH   5   6
ENDBRANCH   2   5
TORSDOF 2
ENDMDL
MODEL      255
REMARK 921   NORMALIZED FREE ENERGY PREDICTED BY IDOCK:   -1.83 KCAL/MOL
REMARK 922        TOTAL FREE ENERGY PREDICTED BY IDOCK:   -2.01 KCAL/MOL
REMARK 923 INTER-LIGAND FREE ENERGY PREDICTED BY IDOCK:   -2.37 KCAL/MOL
REMARK 924 INTRA-LIGAND FREE ENERGY PREDICTED BY IDOCK:    0.36 KCAL/MOL
REMARK 927      BINDING AFFINITY PREDICTED BY RF-SCORE:    0.00 PKD
ROOT
HETATM    1  C   UNL     1      -6.801  11.051  67.731  1.00  0.00    -0.069 C  
HETATM    2  C   UNL     1      -7.643  11.871  68.701  1.00  0.00    -0.119 C  
HETATM    3  H   UNL     1      -8.079  13.754  68.924  1.00  0.00     0.000 HD 
HETATM    4  O   UNL     1      -7.554  13.242  68.319  1.00  0.00    -0.119 OA 
ENDROOT
BRANCH   2   5
HETATM    5  C   UNL     1      -9.098  11.380  68.715  1.00  0.00    -0.089 C  
BRANCH   5   6
HETATM    6  N   UNL     1      -9.430  10.530  67.581  1.00  0.00    -0.149 NA 
HETATM    7  C   UNL     1      -9.356   9.143  67.574  1.00  0.00    -0.135 A  
HETATM    8  N   UNL     1      -9.689   8.661  66.391  1.00  0.00    -0.249 NA 
HETATM    9  C   UNL     1      -8.972   8.288  68.730  1.00  0.00    -0.144 C  
HETATM   10  C   UNL     1      -9.979   9.739  65.605  1.00  0.00    -0.282 A  
HETATM   11  C   UNL     1      -9.821  10.900  66.316  1.00  0.00    -0.216 A  
HETATM   12  N   UNL     1     -10.023  12.227  65.837  1.00  0.00    -0.251 N  
HETATM   13  O   UNL     1     -10.277  12.345  64.632  1.00  0.00    -0.291 OA 
HETATM   14  O   UNL     1      -9.922  13.163  66.639  1.00  0.00    -0.256 OA 
ENDBRANCH   5   6
ENDBRANCH   2   5
TORSDOF 2
ENDMDL
MODEL      256
REMARK 921   NORMALIZED FREE ENERGY PREDICTED BY IDOCK:   -1.83 KCAL/MOL
REMARK 922        TOTAL FREE ENERGY PREDICTED BY IDOCK:   -2.00 KCAL/MOL
REMARK 923 INTER-LIGAND FREE ENERGY PREDICTED BY IDOCK:   -2.27 KCAL/MOL
REMARK 924 INTRA-LIGAND FREE ENERGY PREDICTED BY IDOCK:    0.27 KCAL/MOL
REMARK 927      BINDING AFFINITY PREDICTED BY RF-SCORE:    0.00 PKD
ROOT
HETATM    1  C   UNL     1      -9.764   6.754  67.094  1.00  0.00    -0.191 C  
HETATM    2  C   UNL     1      -9.761   7.903  68.096  1.00  0.00    -0.159 C  
HETATM    3  H   UNL     1     -10.400   9.740  68.115  1.00  0.00     0.000 HD 
HETATM    4  O   UNL     1     -10.401   9.024  67.490  1.00  0.00    -0.231 OA 
ENDROOT
BRANCH   2   5
HETATM    5  C   UNL     1     -10.453   7.492  69.403  1.00  0.00    -0.222 C  
BRANCH   5   6
HETATM    6  N   UNL     1      -9.630   7.710  70.584  1.00  0.00    -0.164 NA 
HETATM    7  C   UNL     1      -9.046   8.919  70.938  1.00  0.00    -0.230 A  
HETATM    8  N   UNL     1      -8.333   8.791  72.042  1.00  0.00    -0.368 NA 
HETATM    9  C   UNL     1      -9.196  10.204  70.204  1.00  0.00     0.058 C  
HETATM   10  C   UNL     1      -8.440   7.482  72.418  1.00  0.00    -0.108 A  
HETATM   11  C   UNL     1      -9.230   6.797  71.532  1.00  0.00    -0.149 A  
HETATM   12  N   UNL     1      -9.568   5.414  71.584  1.00  0.00    -0.148 N  
HETATM   13  O   UNL     1      -9.018   4.746  72.468  1.00  0.00    -0.123 OA 
HETATM   14  O   UNL     1     -10.368   4.972  70.750  1.00  0.00    -0.235 OA 
ENDBRANCH   5   6
ENDBRANCH   2   5
TORSDOF 2
ENDMDL
MODEL      257
REMARK 921   NORMALIZED FREE ENERGY PREDICTED BY IDOCK:   -1.80 KCAL/MOL
REMARK 922        TOTAL FREE ENERGY PREDICTED BY IDOCK:   -1.97 KCAL/MOL
REMARK 923 INTER-LIGAND FREE ENERGY PREDICTED BY IDOCK:   -1.73 KCAL/MOL
REMARK 924 INTRA-LIGAND FREE ENERGY PREDICTED BY IDOCK:   -0.23 KCAL/MOL
REMARK 927      BINDING AFFINITY PREDICTED BY RF-SCORE:    0.00 PKD
ROOT
HETATM    1  C   UNL     1      -6.565   6.530  63.933  1.00  0.00    -0.034 C  
HETATM    2  C   UNL     1      -7.717   5.961  64.754  1.00  0.00    -0.099 C  
HETATM    3  H   UNL     1      -8.484   4.198  65.045  1.00  0.00     0.000 HD 
HETATM    4  O   UNL     1      -7.766   4.553  64.534  1.00  0.00    -0.078 OA 
ENDROOT
BRANCH   2   5
HETATM    5  C   UNL     1      -7.549   6.298  66.242  1.00  0.00    -0.090 C  
BRANCH   5   6
HETATM    6  N   UNL     1      -8.759   6.827  66.853  1.00  0.00    -0.115 NA 
HETATM    7  C   UNL     1      -9.834   6.062  67.288  1.00  0.00    -0.136 A  
HETATM    8  N   UNL     1     -10.795   6.831  67.767  1.00  0.00    -0.260 NA 
HETATM    9  C   UNL     1      -9.916   4.577  67.248  1.00  0.00    -0.187 C  
HETATM   10  C   UNL     1     -10.355   8.118  67.640  1.00  0.00    -0.247 A  
HETATM   11  C   UNL     1      -9.106   8.139  67.076  1.00  0.00    -0.143 A  
HETATM   12  N   UNL     1      -8.324   9.292  66.779  1.00  0.00    -0.122 N  
HETATM   13  O   UNL     1      -8.866  10.388  66.966  1.00  0.00    -0.136 OA 
HETATM   14  O   UNL     1      -7.175   9.129  66.350  1.00  0.00    -0.089 OA 
ENDBRANCH   5   6
ENDBRANCH   2   5
TORSDOF 2
ENDMDL
MODEL      258
REMARK 921   NORMALIZED FREE ENERGY PREDICTED BY IDOCK:   -1.78 KCAL/MOL
REMARK 922        TOTAL FREE ENERGY PREDICTED BY IDOCK:   -1.95 KCAL/MOL
REMARK 923 INTER-LIGAND FREE ENERGY PREDICTED BY IDOCK:   -2.02 KCAL/MOL
REMARK 924 INTRA-LIGAND FREE ENERGY PREDICTED BY IDOCK:    0.07 KCAL/MOL
REMARK 927      BINDING AFFINITY PREDICTED BY RF-SCORE:    0.00 PKD
ROOT
HETATM    1  C   UNL     1     -10.001  12.162  64.803  1.00  0.00    -0.224 C  
HETATM    2  C   UNL     1     -10.650  13.313  65.563  1.00  0.00    -0.287 C  
HETATM    3  H   UNL     1     -12.470  13.908  65.906  1.00  0.00     0.000 HD 
HETATM    4  O   UNL     1     -12.065  13.191  65.432  1.00  0.00    -0.380 OA 
ENDROOT
BRANCH   2   5
HETATM    5  C   UNL     1     -10.215  13.311  67.035  1.00  0.00    -0.244 C  
BRANCH   5   6
HETATM    6  N   UNL     1      -9.603  12.059  67.454  1.00  0.00    -0.174 NA 
HETATM    7  C   UNL     1     -10.299  10.918  67.833  1.00  0.00    -0.187 A  
HETATM    8  N   UNL     1      -9.467   9.957  68.190  1.00  0.00    -0.138 NA 
HETATM    9  C   UNL     1     -11.779  10.763  67.832  1.00  0.00    -0.059 C  
HETATM   10  C   UNL     1      -8.208  10.469  68.054  1.00  0.00    -0.112 A  
HETATM   11  C   UNL     1      -8.269  11.764  67.606  1.00  0.00    -0.145 A  
HETATM   12  N   UNL     1      -7.167  12.629  67.351  1.00  0.00    -0.148 N  
HETATM   13  O   UNL     1      -6.047  12.199  67.651  1.00  0.00    -0.081 OA 
HETATM   14  O   UNL     1      -7.395  13.744  66.864  1.00  0.00     0.163 OA 
ENDBRANCH   5   6
ENDBRANCH   2   5
TORSDOF 2
ENDMDL
MODEL      259
REMARK 921   NORMALIZED FREE ENERGY PREDICTED BY IDOCK:   -1.76 KCAL/MOL
REMARK 922        TOTAL FREE ENERGY PREDICTED BY IDOCK:   -1.92 KCAL/MOL
REMARK 923 INTER-LIGAND FREE ENERGY PREDICTED BY IDOCK:   -1.73 KCAL/MOL
REMARK 924 INTRA-LIGAND FREE ENERGY PREDICTED BY IDOCK:   -0.19 KCAL/MOL
REMARK 927      BINDING AFFINITY PREDICTED BY RF-SCORE:    0.00 PKD
ROOT
HETATM    1  C   UNL     1     -10.464   8.055  67.074  1.00  0.00    -0.410 C  
HETATM    2  C   UNL     1     -10.019   7.645  68.473  1.00  0.00    -0.180 C  
HETATM    3  H   UNL     1     -10.879   7.429  70.204  1.00  0.00     0.000 HD 
HETATM    4  O   UNL     1     -11.157   7.685  69.332  1.00  0.00    -0.126 OA 
ENDROOT
BRANCH   2   5
HETATM    5  C   UNL     1      -9.370   6.254  68.456  1.00  0.00    -0.121 C  
BRANCH   5   6
HETATM    6  N   UNL     1      -8.452   6.033  69.563  1.00  0.00    -0.118 NA 
HETATM    7  C   UNL     1      -8.802   5.494  70.795  1.00  0.00    -0.134 A  
HETATM    8  N   UNL     1      -7.758   5.450  71.602  1.00  0.00    -0.103 NA 
HETATM    9  C   UNL     1     -10.156   5.009  71.178  1.00  0.00    -0.293 C  
HETATM   10  C   UNL     1      -6.709   5.971  70.901  1.00  0.00    -0.061 A  
HETATM   11  C   UNL     1      -7.114   6.341  69.645  1.00  0.00    -0.073 A  
HETATM   12  N   UNL     1      -6.308   6.929  68.628  1.00  0.00    -0.030 N  
HETATM   13  O   UNL     1      -5.148   7.218  68.943  1.00  0.00    -0.013 OA 
HETATM   14  O   UNL     1      -6.814   7.120  67.515  1.00  0.00    -0.065 OA 
ENDBRANCH   5   6
ENDBRANCH   2   5
TORSDOF 2
ENDMDL
MODEL      260
REMARK 921   NORMALIZED FREE ENERGY PREDICTED BY IDOCK:   -1.73 KCAL/MOL
REMARK 922        TOTAL FREE ENERGY PREDICTED BY IDOCK:   -1.89 KCAL/MOL
REMARK 923 INTER-LIGAND FREE ENERGY PREDICTED BY IDOCK:   -1.91 KCAL/MOL
REMARK 924 INTRA-LIGAND FREE ENERGY PREDICTED BY IDOCK:    0.02 KCAL/MOL
REMARK 927      BINDING AFFINITY PREDICTED BY RF-SCORE:    0.00 PKD
ROOT
HETATM    1  C   UNL     1      -6.938   5.277  69.265  1.00  0.00    -0.055 C  
HETATM    2  C   UNL     1      -7.234   4.936  67.809  1.00  0.00    -0.070 C  
HETATM    3  H   UNL     1      -6.998   3.380  66.665  1.00  0.00     0.000 HD 
HETATM    4  O   UNL     1      -6.813   3.593  67.573  1.00  0.00    -0.048 OA 
ENDROOT
BRANCH   2   5
HETATM    5  C   UNL     1      -8.723   5.128  67.492  1.00  0.00    -0.103 C  
BRANCH   5   6
HETATM    6  N   UNL     1      -9.260   6.387  67.990  1.00  0.00    -0.112 NA 
HETATM    7  C   UNL     1      -9.115   7.619  67.365  1.00  0.00    -0.126 A  
HETATM    8  N   UNL     1      -9.684   8.576  68.076  1.00  0.00    -0.150 NA 
HETATM    9  C   UNL     1      -8.431   7.859  66.066  1.00  0.00    -0.145 C  
HETATM   10  C   UNL     1     -10.204   7.972  69.185  1.00  0.00    -0.217 A  
HETATM   11  C   UNL     1      -9.950   6.625  69.155  1.00  0.00    -0.157 A  
HETATM   12  N   UNL     1     -10.328   5.665  70.137  1.00  0.00    -0.247 N  
HETATM   13  O   UNL     1     -10.857   6.106  71.164  1.00  0.00    -0.247 OA 
HETATM   14  O   UNL     1     -10.096   4.470  69.911  1.00  0.00    -0.234 OA 
ENDBRANCH   5   6
ENDBRANCH   2   5
TORSDOF 2
ENDMDL
MODEL      261
REMARK 921   NORMALIZED FREE ENERGY PREDICTED BY IDOCK:   -1.73 KCAL/MOL
REMARK 922        TOTAL FREE ENERGY PREDICTED BY IDOCK:   -1.89 KCAL/MOL
REMARK 923 INTER-LIGAND FREE ENERGY PREDICTED BY IDOCK:   -1.72 KCAL/MOL
REMARK 924 INTRA-LIGAND FREE ENERGY PREDICTED BY IDOCK:   -0.17 KCAL/MOL
REMARK 927      BINDING AFFINITY PREDICTED BY RF-SCORE:    0.00 PKD
ROOT
HETATM    1  C   UNL     1      -6.109   7.925  70.357  1.00  0.00    -0.029 C  
HETATM    2  C   UNL     1      -7.506   8.485  70.116  1.00  0.00    -0.060 C  
HETATM    3  H   UNL     1      -8.531  10.005  70.765  1.00  0.00     0.000 HD 
HETATM    4  O   UNL     1      -7.660   9.655  70.916  1.00  0.00    -0.309 OA 
ENDROOT
BRANCH   2   5
HETATM    5  C   UNL     1      -7.728   8.781  68.626  1.00  0.00    -0.098 C  
BRANCH   5   6
HETATM    6  N   UNL     1      -8.771   7.964  68.026  1.00  0.00    -0.126 NA 
HETATM    7  C   UNL     1     -10.131   8.091  68.279  1.00  0.00    -0.196 A  
HETATM    8  N   UNL     1     -10.821   7.186  67.609  1.00  0.00    -0.229 NA 
HETATM    9  C   UNL     1     -10.757   9.108  69.167  1.00  0.00    -0.190 C  
HETATM   10  C   UNL     1      -9.908   6.448  66.911  1.00  0.00    -0.158 A  
HETATM   11  C   UNL     1      -8.640   6.906  67.156  1.00  0.00    -0.121 A  
HETATM   12  N   UNL     1      -7.427   6.388  66.617  1.00  0.00    -0.081 N  
HETATM   13  O   UNL     1      -7.524   5.363  65.931  1.00  0.00    -0.079 OA 
HETATM   14  O   UNL     1      -6.370   6.977  66.873  1.00  0.00    -0.048 OA 
ENDBRANCH   5   6
ENDBRANCH   2   5
TORSDOF 2
ENDMDL
MODEL      262
REMARK 921   NORMALIZED FREE ENERGY PREDICTED BY IDOCK:   -1.70 KCAL/MOL
REMARK 922        TOTAL FREE ENERGY PREDICTED BY IDOCK:   -1.86 KCAL/MOL
REMARK 923 INTER-LIGAND FREE ENERGY PREDICTED BY IDOCK:   -1.65 KCAL/MOL
REMARK 924 INTRA-LIGAND FREE ENERGY PREDICTED BY IDOCK:   -0.21 KCAL/MOL
REMARK 927      BINDING AFFINITY PREDICTED BY RF-SCORE:    0.00 PKD
ROOT
HETATM    1  C   UNL     1      -6.223   9.753  69.692  1.00  0.00    -0.045 C  
HETATM    2  C   UNL     1      -7.529   8.968  69.686  1.00  0.00    -0.076 C  
HETATM    3  H   UNL     1      -9.240   9.114  68.772  1.00  0.00     0.000 HD 
HETATM    4  O   UNL     1      -8.426   9.603  68.776  1.00  0.00    -0.117 OA 
ENDROOT
BRANCH   2   5
HETATM    5  C   UNL     1      -7.285   7.500  69.309  1.00  0.00    -0.086 C  
BRANCH   5   6
HETATM    6  N   UNL     1      -8.511   6.725  69.187  1.00  0.00    -0.127 NA 
HETATM    7  C   UNL     1      -9.255   6.234  70.252  1.00  0.00    -0.157 A  
HETATM    8  N   UNL     1     -10.295   5.543  69.821  1.00  0.00    -0.270 NA 
HETATM    9  C   UNL     1      -8.957   6.452  71.694  1.00  0.00    -0.144 C  
HETATM   10  C   UNL     1     -10.234   5.571  68.457  1.00  0.00    -0.184 A  
HETATM   11  C   UNL     1      -9.141   6.289  68.045  1.00  0.00    -0.112 A  
HETATM   12  N   UNL     1      -8.739   6.533  66.700  1.00  0.00    -0.124 N  
HETATM   13  O   UNL     1      -9.391   5.962  65.818  1.00  0.00    -0.113 OA 
HETATM   14  O   UNL     1      -7.772   7.279  66.502  1.00  0.00    -0.090 OA 
ENDBRANCH   5   6
ENDBRANCH   2   5
TORSDOF 2
ENDMDL
MODEL      263
REMARK 921   NORMALIZED FREE ENERGY PREDICTED BY IDOCK:   -1.68 KCAL/MOL
REMARK 922        TOTAL FREE ENERGY PREDICTED BY IDOCK:   -1.83 KCAL/MOL
REMARK 923 INTER-LIGAND FREE ENERGY PREDICTED BY IDOCK:   -1.88 KCAL/MOL
REMARK 924 INTRA-LIGAND FREE ENERGY PREDICTED BY IDOCK:    0.05 KCAL/MOL
REMARK 927      BINDING AFFINITY PREDICTED BY RF-SCORE:    0.00 PKD
ROOT
HETATM    1  C   UNL     1     -10.534   9.407  67.055  1.00  0.00    -0.302 C  
HETATM    2  C   UNL     1     -10.373   8.049  67.727  1.00  0.00    -0.231 C  
HETATM    3  H   UNL     1     -10.854   6.213  67.298  1.00  0.00     0.000 HD 
HETATM    4  O   UNL     1     -10.954   7.060  66.879  1.00  0.00    -0.371 OA 
ENDROOT
BRANCH   2   5
HETATM    5  C   UNL     1      -8.895   7.751  68.015  1.00  0.00    -0.124 C  
BRANCH   5   6
HETATM    6  N   UNL     1      -7.980   8.584  67.249  1.00  0.00    -0.101 NA 
HETATM    7  C   UNL     1      -7.584   8.341  65.940  1.00  0.00    -0.082 A  
HETATM    8  N   UNL     1      -6.724   9.256  65.532  1.00  0.00    -0.072 NA 
HETATM    9  C   UNL     1      -8.060   7.222  65.083  1.00  0.00    -0.128 C  
HETATM   10  C   UNL     1      -6.542  10.108  66.583  1.00  0.00    -0.075 A  
HETATM   11  C   UNL     1      -7.302   9.711  67.653  1.00  0.00    -0.090 A  
HETATM   12  N   UNL     1      -7.373  10.341  68.928  1.00  0.00    -0.083 N  
HETATM   13  O   UNL     1      -6.601  11.288  69.118  1.00  0.00    -0.070 OA 
HETATM   14  O   UNL     1      -8.180   9.902  69.757  1.00  0.00    -0.151 OA 
ENDBRANCH   5   6
ENDBRANCH   2   5
TORSDOF 2
ENDMDL
MODEL      264
REMARK 921   NORMALIZED FREE ENERGY PREDICTED BY IDOCK:   -1.65 KCAL/MOL
REMARK 922        TOTAL FREE ENERGY PREDICTED BY IDOCK:   -1.80 KCAL/MOL
REMARK 923 INTER-LIGAND FREE ENERGY PREDICTED BY IDOCK:   -1.58 KCAL/MOL
REMARK 924 INTRA-LIGAND FREE ENERGY PREDICTED BY IDOCK:   -0.22 KCAL/MOL
REMARK 927      BINDING AFFINITY PREDICTED BY RF-SCORE:    0.00 PKD
ROOT
HETATM    1  C   UNL     1      -9.946   8.317  67.758  1.00  0.00    -0.235 C  
HETATM    2  C   UNL     1      -8.764   7.458  67.326  1.00  0.00    -0.121 C  
HETATM    3  H   UNL     1      -8.006   5.752  67.873  1.00  0.00     0.000 HD 
HETATM    4  O   UNL     1      -8.743   6.288  68.142  1.00  0.00    -0.116 OA 
ENDROOT
BRANCH   2   5
HETATM    5  C   UNL     1      -8.856   7.108  65.834  1.00  0.00    -0.103 C  
BRANCH   5   6
HETATM    6  N   UNL     1      -8.004   5.993  65.451  1.00  0.00    -0.111 NA 
HETATM    7  C   UNL     1      -6.636   6.075  65.221  1.00  0.00    -0.043 A  
HETATM    8  N   UNL     1      -6.150   4.902  64.857  1.00  0.00    -0.029 NA 
HETATM    9  C   UNL     1      -5.802   7.298  65.371  1.00  0.00    -0.037 C  
HETATM   10  C   UNL     1      -7.207   4.038  64.838  1.00  0.00    -0.067 A  
HETATM   11  C   UNL     1      -8.359   4.689  65.195  1.00  0.00    -0.126 A  
HETATM   12  N   UNL     1      -9.664   4.125  65.284  1.00  0.00    -0.187 N  
HETATM   13  O   UNL     1      -9.783   2.951  64.911  1.00  0.00    -0.119 OA 
HETATM   14  O   UNL     1     -10.584   4.834  65.709  1.00  0.00    -0.286 OA 
ENDBRANCH   5   6
ENDBRANCH   2   5
TORSDOF 2
ENDMDL
MODEL      265
REMARK 921   NORMALIZED FREE ENERGY PREDICTED BY IDOCK:   -1.61 KCAL/MOL
REMARK 922        TOTAL FREE ENERGY PREDICTED BY IDOCK:   -1.76 KCAL/MOL
REMARK 923 INTER-LIGAND FREE ENERGY PREDICTED BY IDOCK:   -1.80 KCAL/MOL
REMARK 924 INTRA-LIGAND FREE ENERGY PREDICTED BY IDOCK:    0.04 KCAL/MOL
REMARK 927      BINDING AFFINITY PREDICTED BY RF-SCORE:    0.00 PKD
ROOT
HETATM    1  C   UNL     1     -10.378   8.268  66.833  1.00  0.00    -0.391 C  
HETATM    2  C   UNL     1      -9.667   8.035  68.161  1.00  0.00    -0.160 C  
HETATM    3  H   UNL     1     -10.157   7.310  69.899  1.00  0.00     0.000 HD 
HETATM    4  O   UNL     1     -10.600   7.455  69.071  1.00  0.00    -0.214 OA 
ENDROOT
BRANCH   2   5
HETATM    5  C   UNL     1      -8.430   7.146  67.973  1.00  0.00    -0.122 C  
BRANCH   5   6
HETATM    6  N   UNL     1      -7.795   7.310  66.674  1.00  0.00    -0.100 NA 
HETATM    7  C   UNL     1      -6.905   8.324  66.342  1.00  0.00    -0.066 A  
HETATM    8  N   UNL     1      -6.527   8.224  65.081  1.00  0.00    -0.052 NA 
HETATM    9  C   UNL     1      -6.414   9.384  67.264  1.00  0.00    -0.070 C  
HETATM   10  C   UNL     1      -7.178   7.137  64.571  1.00  0.00    -0.074 A  
HETATM   11  C   UNL     1      -7.968   6.562  65.533  1.00  0.00    -0.117 A  
HETATM   12  N   UNL     1      -8.802   5.418  65.378  1.00  0.00    -0.154 N  
HETATM   13  O   UNL     1      -8.892   4.952  64.236  1.00  0.00    -0.148 OA 
HETATM   14  O   UNL     1      -9.383   4.975  66.376  1.00  0.00    -0.132 OA 
ENDBRANCH   5   6
ENDBRANCH   2   5
TORSDOF 2
ENDMDL
MODEL      266
REMARK 921   NORMALIZED FREE ENERGY PREDICTED BY IDOCK:   -1.47 KCAL/MOL
REMARK 922        TOTAL FREE ENERGY PREDICTED BY IDOCK:   -1.59 KCAL/MOL
REMARK 923 INTER-LIGAND FREE ENERGY PREDICTED BY IDOCK:   -1.38 KCAL/MOL
REMARK 924 INTRA-LIGAND FREE ENERGY PREDICTED BY IDOCK:   -0.21 KCAL/MOL
REMARK 927      BINDING AFFINITY PREDICTED BY RF-SCORE:    0.00 PKD
ROOT
HETATM    1  C   UNL     1      -9.310   6.309  68.602  1.00  0.00    -0.122 C  
HETATM    2  C   UNL     1      -8.911   6.748  67.198  1.00  0.00    -0.119 C  
HETATM    3  H   UNL     1      -9.715   7.824  65.791  1.00  0.00     0.000 HD 
HETATM    4  O   UNL     1      -9.964   7.549  66.666  1.00  0.00    -0.225 OA 
ENDROOT
BRANCH   2   5
HETATM    5  C   UNL     1      -7.576   7.507  67.220  1.00  0.00    -0.108 C  
BRANCH   5   6
HETATM    6  N   UNL     1      -7.338   8.288  66.016  1.00  0.00    -0.079 NA 
HETATM    7  C   UNL     1      -6.909   7.771  64.800  1.00  0.00    -0.051 A  
HETATM    8  N   UNL     1      -6.753   8.733  63.909  1.00  0.00    -0.086 NA 
HETATM    9  C   UNL     1      -6.666   6.333  64.505  1.00  0.00    -0.042 C  
HETATM   10  C   UNL     1      -7.074   9.899  64.543  1.00  0.00    -0.137 A  
HETATM   11  C   UNL     1      -7.433   9.649  65.842  1.00  0.00    -0.099 A  
HETATM   12  N   UNL     1      -7.824  10.611  66.818  1.00  0.00    -0.121 N  
HETATM   13  O   UNL     1      -7.744  11.799  66.484  1.00  0.00    -0.082 OA 
HETATM   14  O   UNL     1      -8.203  10.205  67.924  1.00  0.00    -0.109 OA 
ENDBRANCH   5   6
ENDBRANCH   2   5
TORSDOF 2
ENDMDL
MODEL      267
REMARK 921   NORMALIZED FREE ENERGY PREDICTED BY IDOCK:   -1.07 KCAL/MOL
REMARK 922        TOTAL FREE ENERGY PREDICTED BY IDOCK:   -1.16 KCAL/MOL
REMARK 923 INTER-LIGAND FREE ENERGY PREDICTED BY IDOCK:   -1.84 KCAL/MOL
REMARK 924 INTRA-LIGAND FREE ENERGY PREDICTED BY IDOCK:    0.69 KCAL/MOL
REMARK 927      BINDING AFFINITY PREDICTED BY RF-SCORE:    0.00 PKD
ROOT
HETATM    1  C   UNL     1      -9.427  14.020  66.819  1.00  0.00    -0.292 C  
HETATM    2  C   UNL     1     -10.406  12.858  66.936  1.00  0.00    -0.243 C  
HETATM    3  H   UNL     1     -11.321  11.674  65.694  1.00  0.00     0.000 HD 
HETATM    4  O   UNL     1     -10.711  12.399  65.621  1.00  0.00    -0.253 OA 
ENDROOT
BRANCH   2   5
HETATM    5  C   UNL     1      -9.824  11.737  67.809  1.00  0.00    -0.181 C  
BRANCH   5   6
HETATM    6  N   UNL     1      -8.726  11.025  67.174  1.00  0.00    -0.133 NA 
HETATM    7  C   UNL     1      -8.865  10.059  66.185  1.00  0.00    -0.148 A  
HETATM    8  N   UNL     1      -7.689   9.573  65.834  1.00  0.00    -0.099 NA 
HETATM    9  C   UNL     1     -10.149   9.621  65.574  1.00  0.00    -0.165 C  
HETATM   10  C   UNL     1      -6.762  10.218  66.602  1.00  0.00    -0.082 A  
HETATM   11  C   UNL     1      -7.379  11.112  67.438  1.00  0.00    -0.108 A  
HETATM   12  N   UNL     1      -6.748  11.963  68.391  1.00  0.00    -0.062 N  
HETATM   13  O   UNL     1      -5.530  11.811  68.543  1.00  0.00    -0.046 OA 
HETATM   14  O   UNL     1      -7.447  12.778  69.005  1.00  0.00    -0.031 OA 
ENDBRANCH   5   6
ENDBRANCH   2   5
TORSDOF 2
ENDMDL
MODEL      268
REMARK 921   NORMALIZED FREE ENERGY PREDICTED BY IDOCK:    1.89 KCAL/MOL
REMARK 922        TOTAL FREE ENERGY PREDICTED BY IDOCK:    2.15 KCAL/MOL
REMARK 923 INTER-LIGAND FREE ENERGY PREDICTED BY IDOCK:   -1.72 KCAL/MOL
REMARK 924 INTRA-LIGAND FREE ENERGY PREDICTED BY IDOCK:    3.87 KCAL/MOL
REMARK 927      BINDING AFFINITY PREDICTED BY RF-SCORE:    0.00 PKD
ROOT
HETATM    1  C   UNL     1      -5.959  14.062  68.462  1.00  0.00    -0.092 C  
HETATM    2  C   UNL     1      -7.459  14.001  68.198  1.00  0.00    -0.131 C  
HETATM    3  H   UNL     1      -8.707  14.925  67.027  1.00  0.00     0.000 HD 
HETATM    4  O   UNL     1      -7.772  14.963  67.192  1.00  0.00    -0.202 OA 
ENDROOT
BRANCH   2   5
HETATM    5  C   UNL     1      -7.885  12.586  67.782  1.00  0.00    -0.151 C  
BRANCH   5   6
HETATM    6  N   UNL     1      -7.744  11.606  68.848  1.00  0.00    -0.104 NA 
HETATM    7  C   UNL     1      -6.796  11.660  69.863  1.00  0.00     0.143 A  
HETATM    8  N   UNL     1      -6.899  10.611  70.659  1.00  0.00    -0.228 NA 
HETATM    9  C   UNL     1      -5.798  12.745  70.062  1.00  0.00    -0.149 C  
HETATM   10  C   UNL     1      -7.920   9.852  70.162  1.00  0.00    -0.162 A  
HETATM   11  C   UNL     1      -8.451  10.443  69.045  1.00  0.00    -0.155 A  
HETATM   12  N   UNL     1      -9.523   9.948  68.247  1.00  0.00    -0.139 N  
HETATM   13  O   UNL     1      -9.955   8.827  68.539  1.00  0.00    -0.171 OA 
HETATM   14  O   UNL     1      -9.939  10.653  67.319  1.00  0.00    -0.178 OA 
ENDBRANCH   5   6
ENDBRANCH   2   5
TORSDOF 2
ENDMDL
MODEL      269
REMARK 921   NORMALIZED FREE ENERGY PREDICTED BY IDOCK:   13.03 KCAL/MOL
REMARK 922        TOTAL FREE ENERGY PREDICTED BY IDOCK:   14.60 KCAL/MOL
REMARK 923 INTER-LIGAND FREE ENERGY PREDICTED BY IDOCK:    5.31 KCAL/MOL
REMARK 924 INTRA-LIGAND FREE ENERGY PREDICTED BY IDOCK:    9.29 KCAL/MOL
REMARK 927      BINDING AFFINITY PREDICTED BY RF-SCORE:    0.00 PKD
ROOT
HETATM    1  C   UNL     1      -6.858  12.101  68.877  1.00  0.00    -0.100 C  
HETATM    2  C   UNL     1      -6.742  12.366  70.374  1.00  0.00     0.980 C  
HETATM    3  H   UNL     1      -7.833  13.243  71.725  1.00  0.00     0.000 HD 
HETATM    4  O   UNL     1      -7.905  13.078  70.792  1.00  0.00     3.738 OA 
ENDROOT
BRANCH   2   5
HETATM    5  C   UNL     1      -6.570  11.054  71.151  1.00  0.00     1.396 C  
BRANCH   5   6
HETATM    6  N   UNL     1      -6.843   9.870  70.350  1.00  0.00    -0.132 NA 
HETATM    7  C   UNL     1      -7.494   8.730  70.805  1.00  0.00    -0.087 A  
HETATM    8  N   UNL     1      -7.562   7.816  69.854  1.00  0.00    -0.088 NA 
HETATM    9  C   UNL     1      -8.063   8.540  72.167  1.00  0.00    -0.162 C  
HETATM   10  C   UNL     1      -6.944   8.353  68.761  1.00  0.00    -0.063 A  
HETATM   11  C   UNL     1      -6.489   9.615  69.046  1.00  0.00    -0.045 A  
HETATM   12  N   UNL     1      -5.789  10.487  68.163  1.00  0.00    -0.043 N  
HETATM   13  O   UNL     1      -5.480  10.022  67.060  1.00  0.00    -0.041 OA 
HETATM   14  O   UNL     1      -5.528  11.632  68.553  1.00  0.00    -0.043 OA 
ENDBRANCH   5   6
ENDBRANCH   2   5
TORSDOF 2
ENDMDL
MODEL      270
REMARK 921   NORMALIZED FREE ENERGY PREDICTED BY IDOCK:   13.43 KCAL/MOL
REMARK 922        TOTAL FREE ENERGY PREDICTED BY IDOCK:   15.04 KCAL/MOL
REMARK 923 INTER-LIGAND FREE ENERGY PREDICTED BY IDOCK:    9.66 KCAL/MOL
REMARK 924 INTRA-LIGAND FREE ENERGY PREDICTED BY IDOCK:    5.38 KCAL/MOL
REMARK 927      BINDING AFFINITY PREDICTED BY RF-SCORE:    0.00 PKD
ROOT
HETATM    1  C   UNL     1      -6.947  12.133  68.991  1.00  0.00    -0.086 C  
HETATM    2  C   UNL     1      -7.010  12.556  70.455  1.00  0.00     1.575 C  
HETATM    3  H   UNL     1      -8.252  13.558  71.565  1.00  0.00     0.000 HD 
HETATM    4  O   UNL     1      -8.213  13.295  70.653  1.00  0.00     3.943 OA 
ENDROOT
BRANCH   2   5
HETATM    5  C   UNL     1      -6.934  11.335  71.382  1.00  0.00     3.724 C  
BRANCH   5   6
HETATM    6  N   UNL     1      -7.225  10.079  70.706  1.00  0.00    -0.314 NA 
HETATM    7  C   UNL     1      -6.472   8.918  70.818  1.00  0.00    -0.052 A  
HETATM    8  N   UNL     1      -6.970   7.959  70.060  1.00  0.00    -0.049 NA 
HETATM    9  C   UNL     1      -5.271   8.742  71.680  1.00  0.00    -0.038 C  
HETATM   10  C   UNL     1      -8.060   8.493  69.433  1.00  0.00    -0.112 A  
HETATM   11  C   UNL     1      -8.232   9.798  69.813  1.00  0.00    -0.173 A  
HETATM   12  N   UNL     1      -9.253  10.687  69.367  1.00  0.00    -0.114 N  
HETATM   13  O   UNL     1     -10.004  10.263  68.480  1.00  0.00    -0.155 OA 
HETATM   14  O   UNL     1      -9.318  11.811  69.879  1.00  0.00     1.509 OA 
ENDBRANCH   5   6
ENDBRANCH   2   5
TORSDOF 2
ENDMDL
MODEL      271
REMARK 921   NORMALIZED FREE ENERGY PREDICTED BY IDOCK:   23.16 KCAL/MOL
REMARK 922        TOTAL FREE ENERGY PREDICTED BY IDOCK:   25.92 KCAL/MOL
REMARK 923 INTER-LIGAND FREE ENERGY PREDICTED BY IDOCK:   25.59 KCAL/MOL
REMARK 924 INTRA-LIGAND FREE ENERGY PREDICTED BY IDOCK:    0.33 KCAL/MOL
REMARK 927      BINDING AFFINITY PREDICTED BY RF-SCORE:    0.00 PKD
ROOT
HETATM    1  C   UNL     1      -7.225  12.223  69.428  1.00  0.00     0.211 C  
HETATM    2  C   UNL     1      -7.517  12.938  70.742  1.00  0.00     4.314 C  
HETATM    3  H   UNL     1      -8.911  14.121  71.407  1.00  0.00     0.000 HD 
HETATM    4  O   UNL     1      -8.728  13.675  70.588  1.00  0.00     3.946 OA 
ENDROOT
BRANCH   2   5
HETATM    5  C   UNL     1      -7.605  11.938  71.903  1.00  0.00    10.974 C  
BRANCH   5   6
HETATM    6  N   UNL     1      -7.878  10.575  71.470  1.00  0.00     2.954 NA 
HETATM    7  C   UNL     1      -9.101  10.119  70.992  1.00  0.00     1.677 A  
HETATM    8  N   UNL     1      -9.043   8.830  70.711  1.00  0.00    -0.173 NA 
HETATM    9  C   UNL     1     -10.321  10.947  70.798  1.00  0.00     1.783 C  
HETATM   10  C   UNL     1      -7.773   8.428  71.012  1.00  0.00    -0.097 A  
HETATM   11  C   UNL     1      -7.041   9.485  71.485  1.00  0.00     0.360 A  
HETATM   12  N   UNL     1      -5.681   9.457  71.909  1.00  0.00    -0.066 N  
HETATM   13  O   UNL     1      -5.136   8.347  71.939  1.00  0.00    -0.033 OA 
HETATM   14  O   UNL     1      -5.142  10.525  72.227  1.00  0.00    -0.261 OA 
ENDBRANCH   5   6
ENDBRANCH   2   5
TORSDOF 2
ENDMDL
