MODEL        1
REMARK 921   NORMALIZED FREE ENERGY PREDICTED BY IDOCK:   -6.02 KCAL/MOL
REMARK 922        TOTAL FREE ENERGY PREDICTED BY IDOCK:   -6.84 KCAL/MOL
REMARK 923 INTER-LIGAND FREE ENERGY PREDICTED BY IDOCK:   -7.08 KCAL/MOL
REMARK 924 INTRA-LIGAND FREE ENERGY PREDICTED BY IDOCK:    0.24 KCAL/MOL
REMARK 927      BINDING AFFINITY PREDICTED BY RF-SCORE:    0.00 PKD
ROOT
HETATM    1  C   UNL     1      -9.084   7.926  68.999  1.00  0.00    -0.144 C  
HETATM    2  C   UNL     1      -7.743   8.333  68.748  1.00  0.00    -0.114 C  
HETATM    3  C   UNL     1      -8.430   8.371  70.051  1.00  0.00    -0.125 C  
HETATM    4  C   UNL     1      -7.762   9.413  70.735  1.00  0.00    -0.144 C  
HETATM    5  C   UNL     1      -9.953   7.033  70.105  1.00  0.00    -0.182 C  
HETATM    6  C   UNL     1      -8.826   7.238  70.843  1.00  0.00    -0.149 C  
HETATM    7  C   UNL     1     -11.744  11.672  68.918  1.00  0.00    -0.397 C  
HETATM    8  O   UNL     1     -12.084  14.715  70.719  1.00  0.00    -0.281 OA 
HETATM    9  C   UNL     1     -11.795  12.988  69.174  1.00  0.00    -0.360 C  
HETATM   10  C   UNL     1     -12.186  13.508  70.501  1.00  0.00    -0.361 C  
HETATM   11  C   UNL     1      -9.553   8.103  72.139  1.00  0.00    -0.308 C  
HETATM   12  C   UNL     1     -10.366   9.102  68.900  1.00  0.00    -0.232 C  
HETATM   13  C   UNL     1      -7.826   6.099  71.148  1.00  0.00    -0.111 C  
HETATM   14  C   UNL     1     -10.176  10.074  67.712  1.00  0.00    -0.235 C  
HETATM   15  C   UNL     1     -11.289  11.129  67.584  1.00  0.00    -0.356 C  
HETATM   16  C   UNL     1     -10.654   9.177  71.675  1.00  0.00    -0.427 C  
HETATM   17  C   UNL     1     -10.687   9.904  70.260  1.00  0.00    -0.367 C  
HETATM   18  C   UNL     1     -12.048  10.616  69.957  1.00  0.00    -0.393 C  
HETATM   19  C   UNL     1     -12.900  11.131  71.123  1.00  0.00    -0.473 C  
HETATM   20  C   UNL     1     -12.674  12.563  71.568  1.00  0.00    -0.325 C  
ENDROOT
BRANCH   5  21
HETATM   21  C   UNL     1     -10.935   6.224  71.128  1.00  0.00    -0.280 C  
HETATM   22  O   UNL     1     -10.582   5.247  71.793  1.00  0.00    -0.223 OA 
HETATM   23  C   UNL     1     -12.398   6.606  71.214  1.00  0.00    -0.329 C  
ENDBRANCH   5  21
BRANCH   5  24
HETATM   24  O   UNL     1      -9.677   5.719  69.344  1.00  0.00    -0.143 OA 
BRANCH  24  25
HETATM   25  C   UNL     1     -10.232   5.578  68.111  1.00  0.00    -0.177 C  
HETATM   26  C   UNL     1      -9.319   4.763  67.245  1.00  0.00    -0.150 C  
HETATM   27  O   UNL     1     -11.272   6.103  67.745  1.00  0.00    -0.294 OA 
ENDBRANCH  24  25
ENDBRANCH   5  24
TORSDOF 3
ENDMDL
MODEL        2
REMARK 921   NORMALIZED FREE ENERGY PREDICTED BY IDOCK:   -5.84 KCAL/MOL
REMARK 922        TOTAL FREE ENERGY PREDICTED BY IDOCK:   -6.63 KCAL/MOL
REMARK 923 INTER-LIGAND FREE ENERGY PREDICTED BY IDOCK:   -6.75 KCAL/MOL
REMARK 924 INTRA-LIGAND FREE ENERGY PREDICTED BY IDOCK:    0.11 KCAL/MOL
REMARK 927      BINDING AFFINITY PREDICTED BY RF-SCORE:    0.00 PKD
ROOT
HETATM    1  C   UNL     1     -10.550   7.273  71.395  1.00  0.00    -0.229 C  
HETATM    2  C   UNL     1     -11.732   6.483  71.320  1.00  0.00    -0.386 C  
HETATM    3  C   UNL     1     -10.695   6.590  70.278  1.00  0.00    -0.307 C  
HETATM    4  C   UNL     1     -11.408   6.315  69.088  1.00  0.00    -0.358 C  
HETATM    5  C   UNL     1      -8.919   7.148  71.081  1.00  0.00    -0.145 C  
HETATM    6  C   UNL     1      -9.353   6.082  70.351  1.00  0.00    -0.177 C  
HETATM    7  C   UNL     1     -11.353  11.239  69.217  1.00  0.00    -0.354 C  
HETATM    8  O   UNL     1     -12.163  12.340  65.938  1.00  0.00    -0.634 OA 
HETATM    9  C   UNL     1     -12.021  11.823  68.211  1.00  0.00    -0.236 C  
HETATM   10  C   UNL     1     -11.453  11.917  66.850  1.00  0.00    -0.322 C  
HETATM   11  C   UNL     1      -8.816   6.623  68.810  1.00  0.00    -0.126 C  
HETATM   12  C   UNL     1     -10.572   8.902  70.777  1.00  0.00    -0.281 C  
HETATM   13  C   UNL     1      -9.083   4.623  70.788  1.00  0.00    -0.181 C  
HETATM   14  C   UNL     1     -11.888   9.639  71.120  1.00  0.00    -0.448 C  
HETATM   15  C   UNL     1     -11.949  11.084  70.597  1.00  0.00    -0.464 C  
HETATM   16  C   UNL     1      -9.063   8.186  68.540  1.00  0.00    -0.136 C  
HETATM   17  C   UNL     1     -10.205   9.065  69.217  1.00  0.00    -0.210 C  
HETATM   18  C   UNL     1      -9.990  10.606  69.045  1.00  0.00    -0.226 C  
HETATM   19  C   UNL     1      -9.223  11.124  67.823  1.00  0.00    -0.153 C  
HETATM   20  C   UNL     1     -10.036  11.475  66.592  1.00  0.00    -0.236 C  
ENDROOT
BRANCH   5  21
HETATM   21  C   UNL     1      -7.314   7.182  70.783  1.00  0.00    -0.072 C  
HETATM   22  O   UNL     1      -6.609   6.175  70.689  1.00  0.00    -0.045 OA 
HETATM   23  C   UNL     1      -6.598   8.516  70.715  1.00  0.00    -0.041 C  
ENDBRANCH   5  21
BRANCH   5  24
HETATM   24  O   UNL     1      -8.638   6.563  72.481  1.00  0.00    -0.122 OA 
BRANCH  24  25
HETATM   25  C   UNL     1      -8.865   7.365  73.555  1.00  0.00    -0.187 C  
HETATM   26  C   UNL     1      -9.714   6.633  74.551  1.00  0.00    -0.315 C  
HETATM   27  O   UNL     1      -8.503   8.527  73.652  1.00  0.00    -0.353 OA 
ENDBRANCH  24  25
ENDBRANCH   5  24
TORSDOF 3
ENDMDL
MODEL        3
REMARK 921   NORMALIZED FREE ENERGY PREDICTED BY IDOCK:   -5.83 KCAL/MOL
REMARK 922        TOTAL FREE ENERGY PREDICTED BY IDOCK:   -6.62 KCAL/MOL
REMARK 923 INTER-LIGAND FREE ENERGY PREDICTED BY IDOCK:   -6.94 KCAL/MOL
REMARK 924 INTRA-LIGAND FREE ENERGY PREDICTED BY IDOCK:    0.32 KCAL/MOL
REMARK 927      BINDING AFFINITY PREDICTED BY RF-SCORE:    0.00 PKD
ROOT
HETATM    1  C   UNL     1      -8.921  12.009  67.088  1.00  0.00    -0.185 C  
HETATM    2  C   UNL     1      -8.680  11.133  65.991  1.00  0.00    -0.185 C  
HETATM    3  C   UNL     1      -9.985  11.699  66.378  1.00  0.00    -0.235 C  
HETATM    4  C   UNL     1     -10.906  10.740  65.894  1.00  0.00    -0.077 C  
HETATM    5  C   UNL     1      -9.746  13.414  67.432  1.00  0.00    -0.221 C  
HETATM    6  C   UNL     1     -10.385  13.075  66.277  1.00  0.00    -0.291 C  
HETATM    7  C   UNL     1     -10.397   9.477  70.628  1.00  0.00    -0.369 C  
HETATM    8  O   UNL     1     -13.145   7.367  71.408  1.00  0.00    -0.364 OA 
HETATM    9  C   UNL     1     -11.086   8.383  70.983  1.00  0.00    -0.298 C  
HETATM   10  C   UNL     1     -12.545   8.424  71.218  1.00  0.00    -0.217 C  
HETATM   11  C   UNL     1     -11.967  12.907  66.928  1.00  0.00    -0.402 C  
HETATM   12  C   UNL     1      -9.364  11.338  68.634  1.00  0.00    -0.167 C  
HETATM   13  C   UNL     1     -10.178  13.864  64.962  1.00  0.00    -0.383 C  
HETATM   14  C   UNL     1      -8.560  10.059  68.967  1.00  0.00    -0.153 C  
HETATM   15  C   UNL     1      -8.917   9.434  70.327  1.00  0.00    -0.277 C  
HETATM   16  C   UNL     1     -12.014  12.164  68.352  1.00  0.00    -0.257 C  
HETATM   17  C   UNL     1     -10.941  11.113  68.874  1.00  0.00    -0.276 C  
HETATM   18  C   UNL     1     -11.044  10.827  70.410  1.00  0.00    -0.177 C  
HETATM   19  C   UNL     1     -12.400  10.977  71.110  1.00  0.00    -0.465 C  
HETATM   20  C   UNL     1     -13.275   9.742  71.197  1.00  0.00    -0.404 C  
ENDROOT
BRANCH   5  21
HETATM   21  C   UNL     1     -10.535  14.758  67.921  1.00  0.00    -0.246 C  
HETATM   22  O   UNL     1     -10.875  15.671  67.165  1.00  0.00    -0.312 OA 
HETATM   23  C   UNL     1     -10.790  14.974  69.398  1.00  0.00    -0.265 C  
ENDBRANCH   5  21
BRANCH   5  24
HETATM   24  O   UNL     1      -8.562  14.288  66.970  1.00  0.00    -0.214 OA 
BRANCH  24  25
HETATM   25  C   UNL     1      -7.637  14.638  67.903  1.00  0.00    -0.142 C  
HETATM   26  C   UNL     1      -6.826  15.792  67.393  1.00  0.00    -0.235 C  
HETATM   27  O   UNL     1      -7.444  14.049  68.956  1.00  0.00    -0.119 OA 
ENDBRANCH  24  25
ENDBRANCH   5  24
TORSDOF 3
ENDMDL
MODEL        4
REMARK 921   NORMALIZED FREE ENERGY PREDICTED BY IDOCK:   -5.70 KCAL/MOL
REMARK 922        TOTAL FREE ENERGY PREDICTED BY IDOCK:   -6.46 KCAL/MOL
REMARK 923 INTER-LIGAND FREE ENERGY PREDICTED BY IDOCK:   -6.88 KCAL/MOL
REMARK 924 INTRA-LIGAND FREE ENERGY PREDICTED BY IDOCK:    0.42 KCAL/MOL
REMARK 927      BINDING AFFINITY PREDICTED BY RF-SCORE:    0.00 PKD
ROOT
HETATM    1  C   UNL     1      -8.767   9.405  66.529  1.00  0.00    -0.148 C  
HETATM    2  C   UNL     1      -7.567   9.321  65.767  1.00  0.00    -0.098 C  
HETATM    3  C   UNL     1      -7.816  10.241  66.891  1.00  0.00    -0.112 C  
HETATM    4  C   UNL     1      -6.963  11.332  66.606  1.00  0.00    -0.129 C  
HETATM    5  C   UNL     1      -9.255   9.510  68.118  1.00  0.00    -0.129 C  
HETATM    6  C   UNL     1      -7.954   9.882  68.276  1.00  0.00    -0.100 C  
HETATM    7  C   UNL     1     -11.299  12.836  64.817  1.00  0.00    -0.346 C  
HETATM    8  O   UNL     1     -11.047  16.353  64.391  1.00  0.00    -0.825 OA 
HETATM    9  C   UNL     1     -11.260  14.034  64.216  1.00  0.00    -0.236 C  
HETATM   10  C   UNL     1     -11.217  15.292  64.991  1.00  0.00    -0.403 C  
HETATM   11  C   UNL     1      -8.238  11.459  68.897  1.00  0.00    -0.054 C  
HETATM   12  C   UNL     1     -10.009  10.526  66.044  1.00  0.00    -0.295 C  
HETATM   13  C   UNL     1      -6.914   8.964  68.962  1.00  0.00    -0.064 C  
HETATM   14  C   UNL     1     -10.191  10.567  64.509  1.00  0.00    -0.355 C  
HETATM   15  C   UNL     1     -11.283  11.543  64.036  1.00  0.00    -0.414 C  
HETATM   16  C   UNL     1      -9.422  12.253  68.157  1.00  0.00    -0.213 C  
HETATM   17  C   UNL     1      -9.888  12.012  66.655  1.00  0.00    -0.220 C  
HETATM   18  C   UNL     1     -11.272  12.663  66.319  1.00  0.00    -0.354 C  
HETATM   19  C   UNL     1     -11.717  13.913  67.088  1.00  0.00    -0.419 C  
HETATM   20  C   UNL     1     -11.356  15.259  66.492  1.00  0.00    -0.168 C  
ENDROOT
BRANCH   5  21
HETATM   21  C   UNL     1      -9.875   9.655  69.622  1.00  0.00    -0.215 C  
HETATM   22  O   UNL     1      -9.277   9.328  70.648  1.00  0.00    -0.233 OA 
HETATM   23  C   UNL     1     -11.307  10.120  69.794  1.00  0.00    -0.312 C  
ENDBRANCH   5  21
BRANCH   5  24
HETATM   24  O   UNL     1      -9.235   7.976  68.284  1.00  0.00    -0.135 OA 
BRANCH  24  25
HETATM   25  C   UNL     1     -10.387   7.301  68.025  1.00  0.00    -0.197 C  
HETATM   26  C   UNL     1     -10.740   6.448  69.207  1.00  0.00    -0.349 C  
HETATM   27  O   UNL     1     -10.992   7.324  66.964  1.00  0.00    -0.358 OA 
ENDBRANCH  24  25
ENDBRANCH   5  24
TORSDOF 3
ENDMDL
MODEL        5
REMARK 921   NORMALIZED FREE ENERGY PREDICTED BY IDOCK:   -5.69 KCAL/MOL
REMARK 922        TOTAL FREE ENERGY PREDICTED BY IDOCK:   -6.45 KCAL/MOL
REMARK 923 INTER-LIGAND FREE ENERGY PREDICTED BY IDOCK:   -6.79 KCAL/MOL
REMARK 924 INTRA-LIGAND FREE ENERGY PREDICTED BY IDOCK:    0.33 KCAL/MOL
REMARK 927      BINDING AFFINITY PREDICTED BY RF-SCORE:    0.00 PKD
ROOT
HETATM    1  C   UNL     1      -9.032  18.583  66.926  1.00  0.00    -0.280 C  
HETATM    2  C   UNL     1     -10.134  19.344  67.411  1.00  0.00    -0.506 C  
HETATM    3  C   UNL     1      -9.330  18.388  68.194  1.00  0.00    -0.331 C  
HETATM    4  C   UNL     1     -10.232  17.954  69.193  1.00  0.00    -0.187 C  
HETATM    5  C   UNL     1      -7.488  18.156  67.381  1.00  0.00    -0.212 C  
HETATM    6  C   UNL     1      -7.961  18.549  68.596  1.00  0.00    -0.334 C  
HETATM    7  C   UNL     1     -10.579  14.407  65.792  1.00  0.00    -0.326 C  
HETATM    8  O   UNL     1     -12.097  11.623  67.392  1.00  0.00    -0.605 OA 
HETATM    9  C   UNL     1     -11.476  13.453  66.081  1.00  0.00    -0.354 C  
HETATM   10  C   UNL     1     -11.191  12.390  67.067  1.00  0.00    -0.303 C  
HETATM   11  C   UNL     1      -7.779  17.047  69.412  1.00  0.00     0.132 C  
HETATM   12  C   UNL     1      -9.313  16.988  66.283  1.00  0.00    -0.276 C  
HETATM   13  C   UNL     1      -7.487  19.854  69.280  1.00  0.00    -0.137 C  
HETATM   14  C   UNL     1     -10.597  16.924  65.423  1.00  0.00    -0.177 C  
HETATM   15  C   UNL     1     -10.882  15.533  64.830  1.00  0.00    -0.447 C  
HETATM   16  C   UNL     1      -8.208  15.770  68.537  1.00  0.00    -0.166 C  
HETATM   17  C   UNL     1      -9.269  15.784  67.352  1.00  0.00    -0.208 C  
HETATM   18  C   UNL     1      -9.225  14.498  66.460  1.00  0.00    -0.282 C  
HETATM   19  C   UNL     1      -8.755  13.175  67.076  1.00  0.00    -0.193 C  
HETATM   20  C   UNL     1      -9.817  12.274  67.676  1.00  0.00    -0.196 C  
ENDROOT
BRANCH   5  21
HETATM   21  C   UNL     1      -5.979  17.628  67.714  1.00  0.00    -0.148 C  
HETATM   22  O   UNL     1      -5.150  18.273  68.359  1.00  0.00    -0.164 OA 
HETATM   23  C   UNL     1      -5.503  16.316  67.124  1.00  0.00    -0.053 C  
ENDBRANCH   5  21
BRANCH   5  24
HETATM   24  O   UNL     1      -6.893  19.442  66.769  1.00  0.00    -0.196 OA 
BRANCH  24  25
HETATM   25  C   UNL     1      -6.630  19.441  65.435  1.00  0.00    -0.278 C  
HETATM   26  C   UNL     1      -6.334  20.841  64.985  1.00  0.00    -0.286 C  
HETATM   27  O   UNL     1      -6.704  18.464  64.706  1.00  0.00    -0.276 OA 
ENDBRANCH  24  25
ENDBRANCH   5  24
TORSDOF 3
ENDMDL
MODEL        6
REMARK 921   NORMALIZED FREE ENERGY PREDICTED BY IDOCK:   -5.62 KCAL/MOL
REMARK 922        TOTAL FREE ENERGY PREDICTED BY IDOCK:   -6.36 KCAL/MOL
REMARK 923 INTER-LIGAND FREE ENERGY PREDICTED BY IDOCK:   -6.51 KCAL/MOL
REMARK 924 INTRA-LIGAND FREE ENERGY PREDICTED BY IDOCK:    0.14 KCAL/MOL
REMARK 927      BINDING AFFINITY PREDICTED BY RF-SCORE:    0.00 PKD
ROOT
HETATM    1  C   UNL     1      -9.740   8.430  68.995  1.00  0.00    -0.171 C  
HETATM    2  C   UNL     1     -10.839   7.592  69.341  1.00  0.00    -0.161 C  
HETATM    3  C   UNL     1     -10.080   7.549  68.078  1.00  0.00    -0.221 C  
HETATM    4  C   UNL     1     -11.020   7.031  67.157  1.00  0.00    -0.393 C  
HETATM    5  C   UNL     1      -8.220   8.316  68.325  1.00  0.00    -0.128 C  
HETATM    6  C   UNL     1      -8.719   7.118  67.911  1.00  0.00    -0.126 C  
HETATM    7  C   UNL     1     -11.346  11.893  66.438  1.00  0.00    -0.400 C  
HETATM    8  O   UNL     1     -12.972  12.341  63.311  1.00  0.00    -0.707 OA 
HETATM    9  C   UNL     1     -12.273  12.255  65.538  1.00  0.00    -0.242 C  
HETATM   10  C   UNL     1     -12.040  12.121  64.084  1.00  0.00    -0.409 C  
HETATM   11  C   UNL     1      -8.595   7.388  66.218  1.00  0.00    -0.148 C  
HETATM   12  C   UNL     1     -10.038   9.916  68.135  1.00  0.00    -0.193 C  
HETATM   13  C   UNL     1      -8.236   5.775  68.511  1.00  0.00    -0.108 C  
HETATM   14  C   UNL     1     -11.297  10.648  68.655  1.00  0.00    -0.345 C  
HETATM   15  C   UNL     1     -11.596  11.970  67.926  1.00  0.00    -0.405 C  
HETATM   16  C   UNL     1      -9.026   8.865  65.756  1.00  0.00    -0.249 C  
HETATM   17  C   UNL     1     -10.052   9.804  66.529  1.00  0.00    -0.307 C  
HETATM   18  C   UNL     1     -10.011  11.296  66.054  1.00  0.00    -0.273 C  
HETATM   19  C   UNL     1      -9.589  11.612  64.614  1.00  0.00    -0.149 C  
HETATM   20  C   UNL     1     -10.687  11.698  63.572  1.00  0.00    -0.495 C  
ENDROOT
BRANCH   5  21
HETATM   21  C   UNL     1      -6.733   8.361  67.651  1.00  0.00    -0.066 C  
HETATM   22  O   UNL     1      -5.979   7.388  67.580  1.00  0.00    -0.035 OA 
HETATM   23  C   UNL     1      -6.177   9.683  67.164  1.00  0.00    -0.064 C  
ENDBRANCH   5  21
BRANCH   5  24
HETATM   24  O   UNL     1      -7.579   8.009  69.695  1.00  0.00    -0.092 OA 
BRANCH  24  25
HETATM   25  C   UNL     1      -7.658   8.968  70.656  1.00  0.00    -0.119 C  
HETATM   26  C   UNL     1      -8.207   8.368  71.915  1.00  0.00    -0.210 C  
HETATM   27  O   UNL     1      -7.399  10.151  70.490  1.00  0.00    -0.292 OA 
ENDBRANCH  24  25
ENDBRANCH   5  24
TORSDOF 3
ENDMDL
MODEL        7
REMARK 921   NORMALIZED FREE ENERGY PREDICTED BY IDOCK:   -5.56 KCAL/MOL
REMARK 922        TOTAL FREE ENERGY PREDICTED BY IDOCK:   -6.30 KCAL/MOL
REMARK 923 INTER-LIGAND FREE ENERGY PREDICTED BY IDOCK:   -6.40 KCAL/MOL
REMARK 924 INTRA-LIGAND FREE ENERGY PREDICTED BY IDOCK:    0.10 KCAL/MOL
REMARK 927      BINDING AFFINITY PREDICTED BY RF-SCORE:    0.00 PKD
ROOT
HETATM    1  C   UNL     1      -8.414  10.147  67.747  1.00  0.00    -0.114 C  
HETATM    2  C   UNL     1      -8.129   8.927  67.070  1.00  0.00    -0.109 C  
HETATM    3  C   UNL     1      -9.365   9.719  66.943  1.00  0.00    -0.184 C  
HETATM    4  C   UNL     1     -10.331   8.750  66.586  1.00  0.00    -0.298 C  
HETATM    5  C   UNL     1      -9.033  11.660  67.428  1.00  0.00    -0.166 C  
HETATM    6  C   UNL     1      -9.494  11.009  66.323  1.00  0.00    -0.219 C  
HETATM    7  C   UNL     1     -10.937   9.156  71.457  1.00  0.00    -0.434 C  
HETATM    8  O   UNL     1     -14.106   7.733  72.199  1.00  0.00    -0.266 OA 
HETATM    9  C   UNL     1     -11.860   8.327  71.968  1.00  0.00    -0.408 C  
HETATM   10  C   UNL     1     -13.307   8.593  71.831  1.00  0.00    -0.382 C  
HETATM   11  C   UNL     1     -11.175  11.236  66.606  1.00  0.00    -0.247 C  
HETATM   12  C   UNL     1      -9.246  10.100  69.278  1.00  0.00    -0.220 C  
HETATM   13  C   UNL     1      -8.913  11.270  64.913  1.00  0.00     0.022 C  
HETATM   14  C   UNL     1      -8.752   8.941  70.174  1.00  0.00    -0.168 C  
HETATM   15  C   UNL     1      -9.458   8.863  71.539  1.00  0.00    -0.347 C  
HETATM   16  C   UNL     1     -11.614  11.040  68.139  1.00  0.00    -0.345 C  
HETATM   17  C   UNL     1     -10.854  10.131  69.202  1.00  0.00    -0.260 C  
HETATM   18  C   UNL     1     -11.289  10.405  70.680  1.00  0.00    -0.411 C  
HETATM   19  C   UNL     1     -12.705  10.924  70.961  1.00  0.00    -0.505 C  
HETATM   20  C   UNL     1     -13.782   9.890  71.226  1.00  0.00    -0.174 C  
ENDROOT
BRANCH   5  21
HETATM   21  C   UNL     1      -9.654  13.162  67.270  1.00  0.00    -0.233 C  
HETATM   22  O   UNL     1      -9.781  13.745  66.191  1.00  0.00    -0.290 OA 
HETATM   23  C   UNL     1     -10.011  13.953  68.511  1.00  0.00    -0.221 C  
ENDBRANCH   5  21
BRANCH   5  24
HETATM   24  O   UNL     1      -7.649  12.197  67.003  1.00  0.00    -0.148 OA 
BRANCH  24  25
HETATM   25  C   UNL     1      -6.690  12.289  67.962  1.00  0.00    -0.081 C  
HETATM   26  C   UNL     1      -5.387  11.790  67.412  1.00  0.00    -0.088 C  
HETATM   27  O   UNL     1      -6.881  12.646  69.115  1.00  0.00    -0.102 OA 
ENDBRANCH  24  25
ENDBRANCH   5  24
TORSDOF 3
ENDMDL
MODEL        8
REMARK 921   NORMALIZED FREE ENERGY PREDICTED BY IDOCK:   -5.55 KCAL/MOL
REMARK 922        TOTAL FREE ENERGY PREDICTED BY IDOCK:   -6.28 KCAL/MOL
REMARK 923 INTER-LIGAND FREE ENERGY PREDICTED BY IDOCK:   -6.38 KCAL/MOL
REMARK 924 INTRA-LIGAND FREE ENERGY PREDICTED BY IDOCK:    0.09 KCAL/MOL
REMARK 927      BINDING AFFINITY PREDICTED BY RF-SCORE:    0.00 PKD
ROOT
HETATM    1  C   UNL     1      -8.731  12.221  67.324  1.00  0.00    -0.188 C  
HETATM    2  C   UNL     1      -8.161  11.524  66.220  1.00  0.00    -0.044 C  
HETATM    3  C   UNL     1      -9.598  11.626  66.532  1.00  0.00    -0.226 C  
HETATM    4  C   UNL     1     -10.134  10.450  65.957  1.00  0.00    -0.307 C  
HETATM    5  C   UNL     1      -9.980  13.272  67.652  1.00  0.00    -0.229 C  
HETATM    6  C   UNL     1     -10.411  12.808  66.445  1.00  0.00    -0.271 C  
HETATM    7  C   UNL     1      -9.514   9.176  70.675  1.00  0.00    -0.316 C  
HETATM    8  O   UNL     1     -11.482   6.266  71.198  1.00  0.00    -0.310 OA 
HETATM    9  C   UNL     1      -9.836   7.903  70.947  1.00  0.00    -0.192 C  
HETATM   10  C   UNL     1     -11.242   7.467  71.082  1.00  0.00    -0.258 C  
HETATM   11  C   UNL     1     -11.890  12.113  66.980  1.00  0.00    -0.288 C  
HETATM   12  C   UNL     1      -9.021  11.367  68.815  1.00  0.00    -0.086 C  
HETATM   13  C   UNL     1     -10.394  13.687  65.172  1.00  0.00    -0.381 C  
HETATM   14  C   UNL     1      -7.871  10.394  69.163  1.00  0.00    -0.134 C  
HETATM   15  C   UNL     1      -8.084   9.621  70.476  1.00  0.00    -0.145 C  
HETATM   16  C   UNL     1     -11.777  11.322  68.374  1.00  0.00    -0.365 C  
HETATM   17  C   UNL     1     -10.454  10.641  68.938  1.00  0.00    -0.232 C  
HETATM   18  C   UNL     1     -10.546  10.260  70.453  1.00  0.00    -0.212 C  
HETATM   19  C   UNL     1     -11.916   9.936  71.062  1.00  0.00    -0.456 C  
HETATM   20  C   UNL     1     -12.354   8.484  71.050  1.00  0.00    -0.149 C  
ENDROOT
BRANCH   5  21
HETATM   21  C   UNL     1     -11.184  14.270  68.125  1.00  0.00    -0.275 C  
HETATM   22  O   UNL     1     -11.760  15.059  67.374  1.00  0.00    -0.338 OA 
HETATM   23  C   UNL     1     -11.570  14.326  69.589  1.00  0.00    -0.351 C  
ENDBRANCH   5  21
BRANCH   5  24
HETATM   24  O   UNL     1      -9.114  14.500  67.299  1.00  0.00    -0.190 OA 
BRANCH  24  25
HETATM   25  C   UNL     1      -8.091  14.810  68.140  1.00  0.00    -0.134 C  
HETATM   26  C   UNL     1      -6.867  15.134  67.337  1.00  0.00    -0.166 C  
HETATM   27  O   UNL     1      -8.142  14.751  69.360  1.00  0.00    -0.134 OA 
ENDBRANCH  24  25
ENDBRANCH   5  24
TORSDOF 3
ENDMDL
MODEL        9
REMARK 921   NORMALIZED FREE ENERGY PREDICTED BY IDOCK:   -5.49 KCAL/MOL
REMARK 922        TOTAL FREE ENERGY PREDICTED BY IDOCK:   -6.22 KCAL/MOL
REMARK 923 INTER-LIGAND FREE ENERGY PREDICTED BY IDOCK:   -7.78 KCAL/MOL
REMARK 924 INTRA-LIGAND FREE ENERGY PREDICTED BY IDOCK:    1.56 KCAL/MOL
REMARK 927      BINDING AFFINITY PREDICTED BY RF-SCORE:    0.00 PKD
ROOT
HETATM    1  C   UNL     1      -9.719  14.829  66.896  1.00  0.00    -0.247 C  
HETATM    2  C   UNL     1      -8.346  14.547  67.148  1.00  0.00    -0.226 C  
HETATM    3  C   UNL     1      -9.472  13.617  67.349  1.00  0.00    -0.225 C  
HETATM    4  C   UNL     1      -8.999  12.756  68.366  1.00  0.00    -0.120 C  
HETATM    5  C   UNL     1     -11.047  14.126  66.178  1.00  0.00    -0.312 C  
HETATM    6  C   UNL     1     -10.276  13.012  66.323  1.00  0.00    -0.291 C  
HETATM    7  C   UNL     1     -11.670  16.049  70.874  1.00  0.00    -0.438 C  
HETATM    8  O   UNL     1     -12.308  14.612  74.059  1.00  0.00    -0.474 OA 
HETATM    9  C   UNL     1     -11.656  15.871  72.203  1.00  0.00    -0.515 C  
HETATM   10  C   UNL     1     -12.462  14.818  72.855  1.00  0.00    -0.337 C  
HETATM   11  C   UNL     1     -11.336  12.128  67.348  1.00  0.00    -0.393 C  
HETATM   12  C   UNL     1     -10.712  15.454  68.184  1.00  0.00    -0.271 C  
HETATM   13  C   UNL     1      -9.615  12.307  65.114  1.00  0.00    -0.015 C  
HETATM   14  C   UNL     1      -9.963  16.501  69.042  1.00  0.00    -0.275 C  
HETATM   15  C   UNL     1     -10.805  17.083  70.191  1.00  0.00     0.304 C  
HETATM   16  C   UNL     1     -12.035  13.016  68.490  1.00  0.00    -0.296 C  
HETATM   17  C   UNL     1     -11.433  14.351  69.111  1.00  0.00    -0.328 C  
HETATM   18  C   UNL     1     -12.476  15.182  69.932  1.00  0.00    -0.269 C  
HETATM   19  C   UNL     1     -13.642  14.457  70.613  1.00  0.00     0.118 C  
HETATM   20  C   UNL     1     -13.434  14.000  72.044  1.00  0.00    -0.528 C  
ENDROOT
BRANCH   5  21
HETATM   21  C   UNL     1     -12.437  13.544  65.548  1.00  0.00    -0.491 C  
HETATM   22  O   UNL     1     -13.555  13.990  65.816  1.00  0.00    -0.335 OA 
HETATM   23  C   UNL     1     -12.394  12.321  64.656  1.00  0.00    -0.449 C  
ENDBRANCH   5  21
BRANCH   5  24
HETATM   24  O   UNL     1     -10.660  14.680  64.791  1.00  0.00    -0.421 OA 
BRANCH  24  25
HETATM   25  C   UNL     1     -11.240  15.844  64.394  1.00  0.00    -0.229 C  
HETATM   26  C   UNL     1     -10.603  16.990  65.121  1.00  0.00    -0.032 C  
HETATM   27  O   UNL     1     -12.188  15.931  63.629  1.00  0.00    -0.681 OA 
ENDBRANCH  24  25
ENDBRANCH   5  24
TORSDOF 3
ENDMDL
MODEL       10
REMARK 921   NORMALIZED FREE ENERGY PREDICTED BY IDOCK:   -5.38 KCAL/MOL
REMARK 922        TOTAL FREE ENERGY PREDICTED BY IDOCK:   -6.09 KCAL/MOL
REMARK 923 INTER-LIGAND FREE ENERGY PREDICTED BY IDOCK:   -6.48 KCAL/MOL
REMARK 924 INTRA-LIGAND FREE ENERGY PREDICTED BY IDOCK:    0.39 KCAL/MOL
REMARK 927      BINDING AFFINITY PREDICTED BY RF-SCORE:    0.00 PKD
ROOT
HETATM    1  C   UNL     1      -9.417  12.847  67.100  1.00  0.00    -0.229 C  
HETATM    2  C   UNL     1      -8.970  12.268  68.322  1.00  0.00    -0.182 C  
HETATM    3  C   UNL     1     -10.196  13.066  68.139  1.00  0.00    -0.239 C  
HETATM    4  C   UNL     1     -10.410  13.623  69.421  1.00  0.00     0.266 C  
HETATM    5  C   UNL     1     -10.815  13.008  66.210  1.00  0.00    -0.278 C  
HETATM    6  C   UNL     1     -11.370  12.676  67.409  1.00  0.00    -0.367 C  
HETATM    7  C   UNL     1      -8.067  17.239  67.034  1.00  0.00    -0.237 C  
HETATM    8  O   UNL     1      -8.615  20.205  68.911  1.00  0.00     0.060 OA 
HETATM    9  C   UNL     1      -7.816  18.322  67.785  1.00  0.00    -0.245 C  
HETATM   10  C   UNL     1      -8.869  19.306  68.110  1.00  0.00    -0.330 C  
HETATM   11  C   UNL     1     -12.282  14.114  67.648  1.00  0.00    -0.231 C  
HETATM   12  C   UNL     1      -8.946  14.478  66.706  1.00  0.00    -0.270 C  
HETATM   13  C   UNL     1     -12.032  11.299  67.654  1.00  0.00     0.071 C  
HETATM   14  C   UNL     1      -7.473  14.767  67.081  1.00  0.00    -0.069 C  
HETATM   15  C   UNL     1      -7.013  16.196  66.746  1.00  0.00    -0.107 C  
HETATM   16  C   UNL     1     -11.503  15.459  67.246  1.00  0.00    -0.166 C  
HETATM   17  C   UNL     1      -9.922  15.639  67.249  1.00  0.00    -0.236 C  
HETATM   18  C   UNL     1      -9.438  16.917  66.483  1.00  0.00    -0.296 C  
HETATM   19  C   UNL     1     -10.366  18.134  66.397  1.00  0.00    -0.404 C  
HETATM   20  C   UNL     1     -10.234  19.186  67.481  1.00  0.00    -0.493 C  
ENDROOT
BRANCH   5  21
HETATM   21  C   UNL     1     -12.112  13.277  65.254  1.00  0.00    -0.418 C  
HETATM   22  O   UNL     1     -13.051  12.488  65.128  1.00  0.00    -0.659 OA 
HETATM   23  C   UNL     1     -12.146  14.513  64.378  1.00  0.00    -0.492 C  
ENDBRANCH   5  21
BRANCH   5  24
HETATM   24  O   UNL     1     -10.589  11.654  65.506  1.00  0.00    -0.264 OA 
BRANCH  24  25
HETATM   25  C   UNL     1      -9.738  11.631  64.445  1.00  0.00    -0.175 C  
HETATM   26  C   UNL     1      -8.716  10.553  64.650  1.00  0.00    -0.193 C  
HETATM   27  O   UNL     1      -9.757  12.420  63.513  1.00  0.00    -0.298 OA 
ENDBRANCH  24  25
ENDBRANCH   5  24
TORSDOF 3
ENDMDL
MODEL       11
REMARK 921   NORMALIZED FREE ENERGY PREDICTED BY IDOCK:   -5.19 KCAL/MOL
REMARK 922        TOTAL FREE ENERGY PREDICTED BY IDOCK:   -5.87 KCAL/MOL
REMARK 923 INTER-LIGAND FREE ENERGY PREDICTED BY IDOCK:   -5.98 KCAL/MOL
REMARK 924 INTRA-LIGAND FREE ENERGY PREDICTED BY IDOCK:    0.12 KCAL/MOL
REMARK 927      BINDING AFFINITY PREDICTED BY RF-SCORE:    0.00 PKD
ROOT
HETATM    1  C   UNL     1      -9.754   9.368  67.832  1.00  0.00    -0.177 C  
HETATM    2  C   UNL     1     -10.493   8.636  66.859  1.00  0.00    -0.329 C  
HETATM    3  C   UNL     1      -9.235   9.368  66.622  1.00  0.00    -0.193 C  
HETATM    4  C   UNL     1      -9.313   9.702  65.250  1.00  0.00    -0.322 C  
HETATM    5  C   UNL     1      -8.181   9.571  68.342  1.00  0.00    -0.113 C  
HETATM    6  C   UNL     1      -7.934   9.018  67.121  1.00  0.00    -0.102 C  
HETATM    7  C   UNL     1     -10.920  13.798  67.465  1.00  0.00    -0.285 C  
HETATM    8  O   UNL     1     -10.741  16.388  65.041  1.00  0.00    -0.638 OA 
HETATM    9  C   UNL     1     -11.309  14.764  66.619  1.00  0.00    -0.347 C  
HETATM   10  C   UNL     1     -10.333  15.612  65.904  1.00  0.00    -0.350 C  
HETATM   11  C   UNL     1      -7.062  10.335  66.443  1.00  0.00    -0.112 C  
HETATM   12  C   UNL     1     -10.071  11.068  68.043  1.00  0.00    -0.198 C  
HETATM   13  C   UNL     1      -7.390   7.578  66.966  1.00  0.00    -0.094 C  
HETATM   14  C   UNL     1     -11.581  11.394  67.970  1.00  0.00    -0.357 C  
HETATM   15  C   UNL     1     -11.907  12.886  68.155  1.00  0.00    -0.380 C  
HETATM   16  C   UNL     1      -7.685  11.777  66.780  1.00  0.00    -0.086 C  
HETATM   17  C   UNL     1      -9.216  12.062  67.106  1.00  0.00    -0.190 C  
HETATM   18  C   UNL     1      -9.468  13.473  67.735  1.00  0.00    -0.216 C  
HETATM   19  C   UNL     1      -8.510  14.623  67.403  1.00  0.00    -0.219 C  
HETATM   20  C   UNL     1      -8.863  15.498  66.217  1.00  0.00    -0.338 C  
ENDROOT
BRANCH   5  21
HETATM   21  C   UNL     1      -6.689   9.897  68.919  1.00  0.00    -0.053 C  
HETATM   22  O   UNL     1      -5.713   9.160  68.762  1.00  0.00    -0.040 OA 
HETATM   23  C   UNL     1      -6.479  11.119  69.789  1.00  0.00    -0.137 C  
ENDBRANCH   5  21
BRANCH   5  24
HETATM   24  O   UNL     1      -8.276   8.361  69.296  1.00  0.00    -0.113 OA 
BRANCH  24  25
HETATM   25  C   UNL     1      -9.084   8.480  70.383  1.00  0.00    -0.152 C  
HETATM   26  C   UNL     1      -9.998   7.293  70.456  1.00  0.00    -0.191 C  
HETATM   27  O   UNL     1      -9.115   9.444  71.133  1.00  0.00    -0.250 OA 
ENDBRANCH  24  25
ENDBRANCH   5  24
TORSDOF 3
ENDMDL
MODEL       12
REMARK 921   NORMALIZED FREE ENERGY PREDICTED BY IDOCK:   -5.18 KCAL/MOL
REMARK 922        TOTAL FREE ENERGY PREDICTED BY IDOCK:   -5.85 KCAL/MOL
REMARK 923 INTER-LIGAND FREE ENERGY PREDICTED BY IDOCK:   -6.06 KCAL/MOL
REMARK 924 INTRA-LIGAND FREE ENERGY PREDICTED BY IDOCK:    0.21 KCAL/MOL
REMARK 927      BINDING AFFINITY PREDICTED BY RF-SCORE:    0.00 PKD
ROOT
HETATM    1  C   UNL     1      -8.444   7.155  67.913  1.00  0.00    -0.121 C  
HETATM    2  C   UNL     1      -8.855   5.850  67.520  1.00  0.00    -0.106 C  
HETATM    3  C   UNL     1      -9.528   7.113  67.166  1.00  0.00    -0.180 C  
HETATM    4  C   UNL     1     -10.870   6.716  66.968  1.00  0.00    -0.467 C  
HETATM    5  C   UNL     1      -8.233   8.670  67.254  1.00  0.00    -0.105 C  
HETATM    6  C   UNL     1      -9.026   8.132  66.286  1.00  0.00    -0.215 C  
HETATM    7  C   UNL     1     -10.892   8.363  71.610  1.00  0.00    -0.335 C  
HETATM    8  O   UNL     1     -14.294   8.925  72.462  1.00  0.00    -0.579 OA 
HETATM    9  C   UNL     1     -12.073   8.240  72.232  1.00  0.00    -0.439 C  
HETATM   10  C   UNL     1     -13.194   9.166  71.966  1.00  0.00    -0.441 C  
HETATM   11  C   UNL     1     -10.342   9.229  66.427  1.00  0.00    -0.238 C  
HETATM   12  C   UNL     1      -9.091   7.851  69.374  1.00  0.00    -0.145 C  
HETATM   13  C   UNL     1      -8.480   7.766  64.885  1.00  0.00    -0.019 C  
HETATM   14  C   UNL     1      -9.196   6.814  70.516  1.00  0.00    -0.156 C  
HETATM   15  C   UNL     1      -9.760   7.387  71.829  1.00  0.00    -0.172 C  
HETATM   16  C   UNL     1     -10.726   9.602  67.941  1.00  0.00    -0.302 C  
HETATM   17  C   UNL     1     -10.465   8.675  69.208  1.00  0.00    -0.226 C  
HETATM   18  C   UNL     1     -10.612   9.428  70.573  1.00  0.00    -0.331 C  
HETATM   19  C   UNL     1     -11.552  10.636  70.664  1.00  0.00    -0.432 C  
HETATM   20  C   UNL     1     -12.985  10.368  71.081  1.00  0.00    -0.506 C  
ENDROOT
BRANCH   5  21
HETATM   21  C   UNL     1      -8.020  10.211  66.755  1.00  0.00    -0.115 C  
HETATM   22  O   UNL     1      -8.044  10.562  65.573  1.00  0.00    -0.157 OA 
HETATM   23  C   UNL     1      -7.669  11.279  67.769  1.00  0.00    -0.113 C  
ENDBRANCH   5  21
BRANCH   5  24
HETATM   24  O   UNL     1      -6.797   8.334  66.801  1.00  0.00    -0.066 OA 
BRANCH  24  25
HETATM   25  C   UNL     1      -5.893   8.013  67.764  1.00  0.00    -0.042 C  
HETATM   26  C   UNL     1      -5.168   6.761  67.369  1.00  0.00    -0.008 C  
HETATM   27  O   UNL     1      -5.753   8.607  68.823  1.00  0.00    -0.039 OA 
ENDBRANCH  24  25
ENDBRANCH   5  24
TORSDOF 3
ENDMDL
MODEL       13
REMARK 921   NORMALIZED FREE ENERGY PREDICTED BY IDOCK:   -5.13 KCAL/MOL
REMARK 922        TOTAL FREE ENERGY PREDICTED BY IDOCK:   -5.80 KCAL/MOL
REMARK 923 INTER-LIGAND FREE ENERGY PREDICTED BY IDOCK:   -6.12 KCAL/MOL
REMARK 924 INTRA-LIGAND FREE ENERGY PREDICTED BY IDOCK:    0.32 KCAL/MOL
REMARK 927      BINDING AFFINITY PREDICTED BY RF-SCORE:    0.00 PKD
ROOT
HETATM    1  C   UNL     1     -11.186  12.063  67.391  1.00  0.00    -0.368 C  
HETATM    2  C   UNL     1     -12.016  12.265  66.251  1.00  0.00    -0.307 C  
HETATM    3  C   UNL     1     -10.543  12.321  66.271  1.00  0.00    -0.282 C  
HETATM    4  C   UNL     1     -10.240  13.190  65.197  1.00  0.00    -0.299 C  
HETATM    5  C   UNL     1      -9.800  11.247  67.822  1.00  0.00    -0.173 C  
HETATM    6  C   UNL     1      -9.647  11.214  66.469  1.00  0.00    -0.222 C  
HETATM    7  C   UNL     1     -10.101  16.187  69.104  1.00  0.00    -0.252 C  
HETATM    8  O   UNL     1      -8.368  19.109  68.070  1.00  0.00    -0.286 OA 
HETATM    9  C   UNL     1      -9.862  17.472  68.804  1.00  0.00    -0.326 C  
HETATM   10  C   UNL     1      -8.506  17.953  68.468  1.00  0.00    -0.298 C  
HETATM   11  C   UNL     1      -8.171  12.091  66.381  1.00  0.00     0.102 C  
HETATM   12  C   UNL     1     -10.711  13.436  68.354  1.00  0.00    -0.271 C  
HETATM   13  C   UNL     1      -9.812   9.909  65.654  1.00  0.00    -0.368 C  
HETATM   14  C   UNL     1     -11.867  14.445  68.542  1.00  0.00    -0.369 C  
HETATM   15  C   UNL     1     -11.493  15.672  69.391  1.00  0.00    -0.354 C  
HETATM   16  C   UNL     1      -8.102  13.359  67.365  1.00  0.00    -0.178 C  
HETATM   17  C   UNL     1      -9.359  14.180  67.893  1.00  0.00    -0.204 C  
HETATM   18  C   UNL     1      -9.026  15.123  69.098  1.00  0.00    -0.219 C  
HETATM   19  C   UNL     1      -7.607  15.685  69.239  1.00  0.00    -0.222 C  
HETATM   20  C   UNL     1      -7.324  17.026  68.591  1.00  0.00    -0.229 C  
ENDROOT
BRANCH   5  21
HETATM   21  C   UNL     1      -8.437  10.536  68.375  1.00  0.00    -0.128 C  
HETATM   22  O   UNL     1      -7.945   9.517  67.886  1.00  0.00    -0.098 OA 
HETATM   23  C   UNL     1      -7.769  11.077  69.622  1.00  0.00     0.139 C  
ENDBRANCH   5  21
BRANCH   5  24
HETATM   24  O   UNL     1     -10.591   9.963  68.148  1.00  0.00    -0.200 OA 
BRANCH  24  25
HETATM   25  C   UNL     1     -10.936   9.748  69.445  1.00  0.00    -0.212 C  
HETATM   26  C   UNL     1     -10.718   8.305  69.786  1.00  0.00    -0.221 C  
HETATM   27  O   UNL     1     -11.425  10.585  70.189  1.00  0.00    -0.276 OA 
ENDBRANCH  24  25
ENDBRANCH   5  24
TORSDOF 3
ENDMDL
MODEL       14
REMARK 921   NORMALIZED FREE ENERGY PREDICTED BY IDOCK:   -5.11 KCAL/MOL
REMARK 922        TOTAL FREE ENERGY PREDICTED BY IDOCK:   -5.76 KCAL/MOL
REMARK 923 INTER-LIGAND FREE ENERGY PREDICTED BY IDOCK:   -5.95 KCAL/MOL
REMARK 924 INTRA-LIGAND FREE ENERGY PREDICTED BY IDOCK:    0.19 KCAL/MOL
REMARK 927      BINDING AFFINITY PREDICTED BY RF-SCORE:    0.00 PKD
ROOT
HETATM    1  C   UNL     1      -8.270  11.511  66.766  1.00  0.00    -0.164 C  
HETATM    2  C   UNL     1      -7.183  12.396  67.018  1.00  0.00    -0.013 C  
HETATM    3  C   UNL     1      -7.631  11.301  67.897  1.00  0.00    -0.100 C  
HETATM    4  C   UNL     1      -7.225  11.735  69.180  1.00  0.00    -0.043 C  
HETATM    5  C   UNL     1      -8.627   9.886  66.840  1.00  0.00    -0.128 C  
HETATM    6  C   UNL     1      -7.520   9.892  67.634  1.00  0.00    -0.090 C  
HETATM    7  C   UNL     1     -11.951  13.113  69.003  1.00  0.00    -0.329 C  
HETATM    8  O   UNL     1     -12.940  13.747  72.355  1.00  0.00    -0.373 OA 
HETATM    9  C   UNL     1     -12.372  13.776  70.090  1.00  0.00    -0.390 C  
HETATM   10  C   UNL     1     -12.690  13.078  71.354  1.00  0.00    -0.281 C  
HETATM   11  C   UNL     1      -8.266   9.327  69.076  1.00  0.00    -0.111 C  
HETATM   12  C   UNL     1      -9.856  11.915  67.366  1.00  0.00    -0.192 C  
HETATM   13  C   UNL     1      -6.176   9.278  67.175  1.00  0.00    -0.058 C  
HETATM   14  C   UNL     1     -10.172  13.421  67.211  1.00  0.00    -0.241 C  
HETATM   15  C   UNL     1     -11.566  13.822  67.726  1.00  0.00    -0.381 C  
HETATM   16  C   UNL     1      -9.707   9.973  69.365  1.00  0.00    -0.240 C  
HETATM   17  C   UNL     1     -10.192  11.400  68.855  1.00  0.00    -0.184 C  
HETATM   18  C   UNL     1     -11.738  11.615  68.980  1.00  0.00    -0.388 C  
HETATM   19  C   UNL     1     -12.512  10.869  70.073  1.00  0.00    -0.332 C  
HETATM   20  C   UNL     1     -12.680  11.571  71.406  1.00  0.00    -0.469 C  
ENDROOT
BRANCH   5  21
HETATM   21  C   UNL     1      -9.128   8.333  66.901  1.00  0.00    -0.150 C  
HETATM   22  O   UNL     1      -8.375   7.362  66.804  1.00  0.00    -0.117 OA 
HETATM   23  C   UNL     1     -10.611   8.033  66.979  1.00  0.00    -0.364 C  
ENDBRANCH   5  21
BRANCH   5  24
HETATM   24  O   UNL     1      -8.076   9.643  65.419  1.00  0.00    -0.119 OA 
BRANCH  24  25
HETATM   25  C   UNL     1      -8.833  10.064  64.371  1.00  0.00    -0.213 C  
HETATM   26  C   UNL     1      -7.949  10.304  63.184  1.00  0.00    -0.151 C  
HETATM   27  O   UNL     1     -10.033  10.289  64.417  1.00  0.00    -0.335 OA 
ENDBRANCH  24  25
ENDBRANCH   5  24
TORSDOF 3
ENDMDL
MODEL       15
REMARK 921   NORMALIZED FREE ENERGY PREDICTED BY IDOCK:   -5.06 KCAL/MOL
REMARK 922        TOTAL FREE ENERGY PREDICTED BY IDOCK:   -5.71 KCAL/MOL
REMARK 923 INTER-LIGAND FREE ENERGY PREDICTED BY IDOCK:   -5.84 KCAL/MOL
REMARK 924 INTRA-LIGAND FREE ENERGY PREDICTED BY IDOCK:    0.13 KCAL/MOL
REMARK 927      BINDING AFFINITY PREDICTED BY RF-SCORE:    0.00 PKD
ROOT
HETATM    1  C   UNL     1      -9.667   7.628  69.176  1.00  0.00    -0.164 C  
HETATM    2  C   UNL     1     -10.816   6.826  69.429  1.00  0.00    -0.312 C  
HETATM    3  C   UNL     1     -10.129   6.971  68.133  1.00  0.00    -0.193 C  
HETATM    4  C   UNL     1     -11.156   6.716  67.196  1.00  0.00    -0.427 C  
HETATM    5  C   UNL     1      -8.198   7.531  68.397  1.00  0.00    -0.125 C  
HETATM    6  C   UNL     1      -8.821   6.478  67.798  1.00  0.00    -0.113 C  
HETATM    7  C   UNL     1     -11.089  11.635  67.434  1.00  0.00    -0.337 C  
HETATM    8  O   UNL     1     -12.826  12.805  64.564  1.00  0.00    -0.701 OA 
HETATM    9  C   UNL     1     -12.025  12.235  66.682  1.00  0.00    -0.257 C  
HETATM   10  C   UNL     1     -11.879  12.369  65.218  1.00  0.00    -0.399 C  
HETATM   11  C   UNL     1      -8.760   7.061  66.182  1.00  0.00    -0.155 C  
HETATM   12  C   UNL     1      -9.876   9.272  68.635  1.00  0.00    -0.173 C  
HETATM   13  C   UNL     1      -8.429   5.011  68.098  1.00  0.00    -0.099 C  
HETATM   14  C   UNL     1     -11.037   9.983  69.367  1.00  0.00    -0.265 C  
HETATM   15  C   UNL     1     -11.255  11.440  68.922  1.00  0.00    -0.310 C  
HETATM   16  C   UNL     1      -9.083   8.628  66.038  1.00  0.00    -0.255 C  
HETATM   17  C   UNL     1      -9.981   9.476  67.041  1.00  0.00    -0.273 C  
HETATM   18  C   UNL     1      -9.833  11.023  66.855  1.00  0.00    -0.222 C  
HETATM   19  C   UNL     1      -9.458  11.579  65.477  1.00  0.00    -0.234 C  
HETATM   20  C   UNL     1     -10.597  11.950  64.546  1.00  0.00    -0.358 C  
ENDROOT
BRANCH   5  21
HETATM   21  C   UNL     1      -6.750   7.592  67.645  1.00  0.00    -0.067 C  
HETATM   22  O   UNL     1      -6.117   6.596  67.286  1.00  0.00    -0.026 OA 
HETATM   23  C   UNL     1      -6.067   8.930  67.452  1.00  0.00    -0.051 C  
ENDBRANCH   5  21
BRANCH   5  24
HETATM   24  O   UNL     1      -7.518   6.915  69.638  1.00  0.00    -0.093 OA 
BRANCH  24  25
HETATM   25  C   UNL     1      -7.451   7.678  70.762  1.00  0.00    -0.071 C  
HETATM   26  C   UNL     1      -7.782   6.834  71.956  1.00  0.00    -0.095 C  
HETATM   27  O   UNL     1      -7.236   8.880  70.783  1.00  0.00    -0.062 OA 
ENDBRANCH  24  25
ENDBRANCH   5  24
TORSDOF 3
ENDMDL
MODEL       16
REMARK 921   NORMALIZED FREE ENERGY PREDICTED BY IDOCK:   -5.04 KCAL/MOL
REMARK 922        TOTAL FREE ENERGY PREDICTED BY IDOCK:   -5.69 KCAL/MOL
REMARK 923 INTER-LIGAND FREE ENERGY PREDICTED BY IDOCK:   -6.20 KCAL/MOL
REMARK 924 INTRA-LIGAND FREE ENERGY PREDICTED BY IDOCK:    0.50 KCAL/MOL
REMARK 927      BINDING AFFINITY PREDICTED BY RF-SCORE:    0.00 PKD
ROOT
HETATM    1  C   UNL     1     -11.295  13.955  66.136  1.00  0.00    -0.323 C  
HETATM    2  C   UNL     1     -12.657  13.548  66.227  1.00  0.00    -0.298 C  
HETATM    3  C   UNL     1     -11.571  13.148  67.139  1.00  0.00    -0.410 C  
HETATM    4  C   UNL     1     -12.008  11.895  67.626  1.00  0.00    -0.127 C  
HETATM    5  C   UNL     1     -10.068  14.510  67.116  1.00  0.00    -0.252 C  
HETATM    6  C   UNL     1     -10.886  13.994  68.077  1.00  0.00    -0.257 C  
HETATM    7  C   UNL     1      -8.969  10.644  63.956  1.00  0.00    -0.210 C  
HETATM    8  O   UNL     1      -8.158   7.220  64.443  1.00  0.00    -0.132 OA 
HETATM    9  C   UNL     1      -8.886   9.324  63.737  1.00  0.00    -0.150 C  
HETATM   10  C   UNL     1      -8.090   8.437  64.611  1.00  0.00    -0.156 C  
HETATM   11  C   UNL     1      -9.797  12.818  68.700  1.00  0.00    -0.071 C  
HETATM   12  C   UNL     1     -10.169  12.973  65.238  1.00  0.00    -0.294 C  
HETATM   13  C   UNL     1     -11.678  14.897  69.052  1.00  0.00    -0.347 C  
HETATM   14  C   UNL     1     -10.789  12.421  63.932  1.00  0.00    -0.465 C  
HETATM   15  C   UNL     1      -9.827  11.550  63.105  1.00  0.00    -0.413 C  
HETATM   16  C   UNL     1      -8.962  12.036  67.573  1.00  0.00    -0.174 C  
HETATM   17  C   UNL     1      -9.438  11.805  66.073  1.00  0.00    -0.245 C  
HETATM   18  C   UNL     1      -8.290  11.332  65.120  1.00  0.00     0.305 C  
HETATM   19  C   UNL     1      -7.114  10.538  65.700  1.00  0.00    -0.119 C  
HETATM   20  C   UNL     1      -7.232   9.026  65.702  1.00  0.00    -0.085 C  
ENDROOT
BRANCH   5  21
HETATM   21  C   UNL     1      -8.767  15.021  67.960  1.00  0.00    -0.159 C  
HETATM   22  O   UNL     1      -8.835  15.599  69.047  1.00  0.00    -0.205 OA 
HETATM   23  C   UNL     1      -7.386  14.884  67.353  1.00  0.00    -0.222 C  
ENDBRANCH   5  21
BRANCH   5  24
HETATM   24  O   UNL     1     -10.534  15.973  66.965  1.00  0.00    -0.299 OA 
BRANCH  24  25
HETATM   25  C   UNL     1     -10.158  16.639  65.841  1.00  0.00    -0.320 C  
HETATM   26  C   UNL     1      -9.345  17.840  66.222  1.00  0.00    -0.219 C  
HETATM   27  O   UNL     1     -10.501  16.349  64.705  1.00  0.00    -0.548 OA 
ENDBRANCH  24  25
ENDBRANCH   5  24
TORSDOF 3
ENDMDL
MODEL       17
REMARK 921   NORMALIZED FREE ENERGY PREDICTED BY IDOCK:   -5.04 KCAL/MOL
REMARK 922        TOTAL FREE ENERGY PREDICTED BY IDOCK:   -5.69 KCAL/MOL
REMARK 923 INTER-LIGAND FREE ENERGY PREDICTED BY IDOCK:   -6.10 KCAL/MOL
REMARK 924 INTRA-LIGAND FREE ENERGY PREDICTED BY IDOCK:    0.41 KCAL/MOL
REMARK 927      BINDING AFFINITY PREDICTED BY RF-SCORE:    0.00 PKD
ROOT
HETATM    1  C   UNL     1      -9.691  13.241  65.397  1.00  0.00    -0.030 C  
HETATM    2  C   UNL     1     -10.055  12.769  64.104  1.00  0.00    -0.260 C  
HETATM    3  C   UNL     1     -10.968  12.961  65.244  1.00  0.00    -0.310 C  
HETATM    4  C   UNL     1     -12.002  12.031  64.986  1.00  0.00    -0.262 C  
HETATM    5  C   UNL     1     -10.221  14.322  66.548  1.00  0.00    -0.276 C  
HETATM    6  C   UNL     1     -11.367  14.216  65.819  1.00  0.00    -0.317 C  
HETATM    7  C   UNL     1      -9.093   9.591  68.124  1.00  0.00    -0.128 C  
HETATM    8  O   UNL     1     -11.023   6.893  69.395  1.00  0.00    -0.247 OA 
HETATM    9  C   UNL     1      -9.492   8.337  68.382  1.00  0.00    -0.144 C  
HETATM   10  C   UNL     1     -10.614   8.050  69.301  1.00  0.00    -0.184 C  
HETATM   11  C   UNL     1     -12.376  13.592  67.063  1.00  0.00    -0.277 C  
HETATM   12  C   UNL     1      -9.259  12.093  66.635  1.00  0.00    -0.206 C  
HETATM   13  C   UNL     1     -11.880  15.369  64.923  1.00  0.00    -0.095 C  
HETATM   14  C   UNL     1      -8.396  10.935  66.081  1.00  0.00    -0.168 C  
HETATM   15  C   UNL     1      -7.987   9.898  67.141  1.00  0.00    -0.109 C  
HETATM   16  C   UNL     1     -11.671  12.481  67.984  1.00  0.00    -0.410 C  
HETATM   17  C   UNL     1     -10.478  11.532  67.526  1.00  0.00    -0.229 C  
HETATM   18  C   UNL     1      -9.764  10.810  68.717  1.00  0.00    -0.197 C  
HETATM   19  C   UNL     1     -10.556  10.512  69.996  1.00  0.00    -0.223 C  
HETATM   20  C   UNL     1     -11.253   9.169  70.083  1.00  0.00    -0.211 C  
ENDROOT
BRANCH   5  21
HETATM   21  C   UNL     1     -10.644  15.310  67.778  1.00  0.00    -0.266 C  
HETATM   22  O   UNL     1     -11.280  16.356  67.634  1.00  0.00    -0.218 OA 
HETATM   23  C   UNL     1     -10.154  15.005  69.179  1.00  0.00    -0.245 C  
ENDBRANCH   5  21
BRANCH   5  24
HETATM   24  O   UNL     1      -9.455  15.487  65.887  1.00  0.00    -0.331 OA 
BRANCH  24  25
HETATM   25  C   UNL     1      -8.283  15.873  66.458  1.00  0.00    -0.272 C  
HETATM   26  C   UNL     1      -8.098  17.349  66.269  1.00  0.00    -0.298 C  
HETATM   27  O   UNL     1      -7.470  15.119  66.972  1.00  0.00    -0.184 OA 
ENDBRANCH  24  25
ENDBRANCH   5  24
TORSDOF 3
ENDMDL
MODEL       18
REMARK 921   NORMALIZED FREE ENERGY PREDICTED BY IDOCK:   -5.01 KCAL/MOL
REMARK 922        TOTAL FREE ENERGY PREDICTED BY IDOCK:   -5.65 KCAL/MOL
REMARK 923 INTER-LIGAND FREE ENERGY PREDICTED BY IDOCK:   -5.76 KCAL/MOL
REMARK 924 INTRA-LIGAND FREE ENERGY PREDICTED BY IDOCK:    0.11 KCAL/MOL
REMARK 927      BINDING AFFINITY PREDICTED BY RF-SCORE:    0.00 PKD
ROOT
HETATM    1  C   UNL     1      -8.284   9.647  68.848  1.00  0.00    -0.110 C  
HETATM    2  C   UNL     1      -8.767   9.804  70.179  1.00  0.00    -0.215 C  
HETATM    3  C   UNL     1      -9.491   9.167  69.063  1.00  0.00    -0.152 C  
HETATM    4  C   UNL     1     -10.848   9.359  69.411  1.00  0.00    -0.208 C  
HETATM    5  C   UNL     1      -8.198   8.485  67.658  1.00  0.00    -0.118 C  
HETATM    6  C   UNL     1      -9.164   7.917  68.434  1.00  0.00    -0.134 C  
HETATM    7  C   UNL     1      -9.974  13.086  66.311  1.00  0.00    -0.283 C  
HETATM    8  O   UNL     1     -13.148  14.291  65.266  1.00  0.00    -0.707 OA 
HETATM    9  C   UNL     1     -11.015  13.914  66.139  1.00  0.00    -0.293 C  
HETATM   10  C   UNL     1     -12.163  13.554  65.280  1.00  0.00    -0.441 C  
HETATM   11  C   UNL     1     -10.424   7.909  67.265  1.00  0.00    -0.390 C  
HETATM   12  C   UNL     1      -8.637  10.875  67.662  1.00  0.00    -0.124 C  
HETATM   13  C   UNL     1      -8.897   6.651  69.282  1.00  0.00    -0.133 C  
HETATM   14  C   UNL     1      -8.525  12.301  68.248  1.00  0.00    -0.173 C  
HETATM   15  C   UNL     1      -8.825  13.418  67.233  1.00  0.00    -0.220 C  
HETATM   16  C   UNL     1     -10.510   9.248  66.383  1.00  0.00    -0.157 C  
HETATM   17  C   UNL     1     -10.015  10.687  66.849  1.00  0.00    -0.245 C  
HETATM   18  C   UNL     1      -9.895  11.716  65.675  1.00  0.00    -0.270 C  
HETATM   19  C   UNL     1     -10.796  11.557  64.445  1.00  0.00    -0.405 C  
HETATM   20  C   UNL     1     -12.124  12.290  64.460  1.00  0.00    -0.462 C  
ENDROOT
BRANCH   5  21
HETATM   21  C   UNL     1      -8.079   7.462  66.391  1.00  0.00    -0.118 C  
HETATM   22  O   UNL     1      -8.091   6.233  66.494  1.00  0.00    -0.107 OA 
HETATM   23  C   UNL     1      -7.837   8.020  65.004  1.00  0.00    -0.123 C  
ENDBRANCH   5  21
BRANCH   5  24
HETATM   24  O   UNL     1      -6.876   7.925  68.223  1.00  0.00    -0.067 OA 
BRANCH  24  25
HETATM   25  C   UNL     1      -5.778   8.725  68.166  1.00  0.00    -0.039 C  
HETATM   26  C   UNL     1      -5.132   8.781  69.518  1.00  0.00    -0.031 C  
HETATM   27  O   UNL     1      -5.425   9.362  67.186  1.00  0.00    -0.039 OA 
ENDBRANCH  24  25
ENDBRANCH   5  24
TORSDOF 3
ENDMDL
MODEL       19
REMARK 921   NORMALIZED FREE ENERGY PREDICTED BY IDOCK:   -4.95 KCAL/MOL
REMARK 922        TOTAL FREE ENERGY PREDICTED BY IDOCK:   -5.58 KCAL/MOL
REMARK 923 INTER-LIGAND FREE ENERGY PREDICTED BY IDOCK:   -5.71 KCAL/MOL
REMARK 924 INTRA-LIGAND FREE ENERGY PREDICTED BY IDOCK:    0.13 KCAL/MOL
REMARK 927      BINDING AFFINITY PREDICTED BY RF-SCORE:    0.00 PKD
ROOT
HETATM    1  C   UNL     1      -8.530   7.304  69.331  1.00  0.00    -0.133 C  
HETATM    2  C   UNL     1      -7.147   7.572  69.119  1.00  0.00    -0.078 C  
HETATM    3  C   UNL     1      -7.964   8.071  70.240  1.00  0.00    -0.104 C  
HETATM    4  C   UNL     1      -7.310   9.271  70.603  1.00  0.00    -0.129 C  
HETATM    5  C   UNL     1      -9.562   6.866  70.563  1.00  0.00    -0.169 C  
HETATM    6  C   UNL     1      -8.508   7.289  71.316  1.00  0.00    -0.115 C  
HETATM    7  C   UNL     1     -10.936  10.847  67.665  1.00  0.00    -0.350 C  
HETATM    8  O   UNL     1     -11.279  14.331  68.270  1.00  0.00    -0.255 OA 
HETATM    9  C   UNL     1     -10.934  12.171  67.451  1.00  0.00    -0.308 C  
HETATM   10  C   UNL     1     -11.429  13.125  68.465  1.00  0.00    -0.303 C  
HETATM   11  C   UNL     1      -9.313   8.563  72.144  1.00  0.00    -0.353 C  
HETATM   12  C   UNL     1      -9.721   8.401  68.687  1.00  0.00    -0.171 C  
HETATM   13  C   UNL     1      -7.616   6.304  72.108  1.00  0.00    -0.095 C  
HETATM   14  C   UNL     1      -9.349   8.899  67.270  1.00  0.00    -0.173 C  
HETATM   15  C   UNL     1     -10.377   9.868  66.660  1.00  0.00    -0.275 C  
HETATM   16  C   UNL     1     -10.293   9.433  71.216  1.00  0.00    -0.363 C  
HETATM   17  C   UNL     1     -10.134   9.628  69.645  1.00  0.00    -0.242 C  
HETATM   18  C   UNL     1     -11.410  10.221  68.958  1.00  0.00    -0.237 C  
HETATM   19  C   UNL     1     -12.347  11.123  69.769  1.00  0.00    -0.315 C  
HETATM   20  C   UNL     1     -12.082  12.616  69.725  1.00  0.00    -0.301 C  
ENDROOT
BRANCH   5  21
HETATM   21  C   UNL     1     -10.692   6.479  71.676  1.00  0.00    -0.230 C  
HETATM   22  O   UNL     1     -10.434   5.995  72.780  1.00  0.00    -0.199 OA 
HETATM   23  C   UNL     1     -12.159   6.615  71.325  1.00  0.00    -0.395 C  
ENDBRANCH   5  21
BRANCH   5  24
HETATM   24  O   UNL     1      -9.287   5.365  70.333  1.00  0.00    -0.150 OA 
BRANCH  24  25
HETATM   25  C   UNL     1      -9.675   4.829  69.145  1.00  0.00    -0.188 C  
HETATM   26  C   UNL     1      -8.533   4.062  68.549  1.00  0.00    -0.106 C  
HETATM   27  O   UNL     1     -10.758   5.015  68.611  1.00  0.00     0.031 OA 
ENDBRANCH  24  25
ENDBRANCH   5  24
TORSDOF 3
ENDMDL
MODEL       20
REMARK 921   NORMALIZED FREE ENERGY PREDICTED BY IDOCK:   -4.94 KCAL/MOL
REMARK 922        TOTAL FREE ENERGY PREDICTED BY IDOCK:   -5.56 KCAL/MOL
REMARK 923 INTER-LIGAND FREE ENERGY PREDICTED BY IDOCK:   -6.44 KCAL/MOL
REMARK 924 INTRA-LIGAND FREE ENERGY PREDICTED BY IDOCK:    0.87 KCAL/MOL
REMARK 927      BINDING AFFINITY PREDICTED BY RF-SCORE:    0.00 PKD
ROOT
HETATM    1  C   UNL     1     -10.984  14.193  68.153  1.00  0.00    -0.264 C  
HETATM    2  C   UNL     1     -10.486  15.170  69.062  1.00  0.00    -0.248 C  
HETATM    3  C   UNL     1      -9.680  14.174  68.335  1.00  0.00    -0.226 C  
HETATM    4  C   UNL     1      -8.557  13.995  69.176  1.00  0.00     0.277 C  
HETATM    5  C   UNL     1     -10.632  13.561  66.653  1.00  0.00    -0.280 C  
HETATM    6  C   UNL     1      -9.430  14.143  66.920  1.00  0.00    -0.275 C  
HETATM    7  C   UNL     1     -11.486  10.244  70.448  1.00  0.00    -0.415 C  
HETATM    8  O   UNL     1      -9.443   7.919  72.192  1.00  0.00    -0.152 OA 
HETATM    9  C   UNL     1     -11.006   9.485  71.444  1.00  0.00    -0.415 C  
HETATM   10  C   UNL     1      -9.937   8.489  71.219  1.00  0.00    -0.221 C  
HETATM   11  C   UNL     1      -8.470  12.717  66.884  1.00  0.00    -0.106 C  
HETATM   12  C   UNL     1     -11.412  12.613  68.749  1.00  0.00    -0.349 C  
HETATM   13  C   UNL     1      -8.946  15.411  66.175  1.00  0.00    -0.294 C  
HETATM   14  C   UNL     1     -12.134  12.681  70.115  1.00  0.00    -0.368 C  
HETATM   15  C   UNL     1     -12.535  11.306  70.677  1.00  0.00    -0.439 C  
HETATM   16  C   UNL     1      -9.149  11.451  67.601  1.00  0.00    -0.155 C  
HETATM   17  C   UNL     1     -10.223  11.527  68.773  1.00  0.00    -0.204 C  
HETATM   18  C   UNL     1     -10.963  10.172  69.030  1.00  0.00    -0.265 C  
HETATM   19  C   UNL     1     -10.249   8.855  68.706  1.00  0.00    -0.224 C  
HETATM   20  C   UNL     1      -9.453   8.205  69.821  1.00  0.00    -0.159 C  
ENDROOT
BRANCH   5  21
HETATM   21  C   UNL     1     -10.386  12.824  65.217  1.00  0.00    -0.296 C  
HETATM   22  O   UNL     1      -9.876  13.374  64.238  1.00  0.00    -0.190 OA 
HETATM   23  C   UNL     1     -10.893  11.412  65.009  1.00  0.00    -0.311 C  
ENDBRANCH   5  21
BRANCH   5  24
HETATM   24  O   UNL     1     -11.439  14.665  65.937  1.00  0.00    -0.344 OA 
BRANCH  24  25
HETATM   25  C   UNL     1     -12.591  14.299  65.315  1.00  0.00    -0.394 C  
HETATM   26  C   UNL     1     -12.656  14.948  63.965  1.00  0.00     0.198 C  
HETATM   27  O   UNL     1     -13.472  13.615  65.815  1.00  0.00    -0.318 OA 
ENDBRANCH  24  25
ENDBRANCH   5  24
TORSDOF 3
ENDMDL
MODEL       21
REMARK 921   NORMALIZED FREE ENERGY PREDICTED BY IDOCK:   -4.90 KCAL/MOL
REMARK 922        TOTAL FREE ENERGY PREDICTED BY IDOCK:   -5.52 KCAL/MOL
REMARK 923 INTER-LIGAND FREE ENERGY PREDICTED BY IDOCK:   -5.98 KCAL/MOL
REMARK 924 INTRA-LIGAND FREE ENERGY PREDICTED BY IDOCK:    0.46 KCAL/MOL
REMARK 927      BINDING AFFINITY PREDICTED BY RF-SCORE:    0.00 PKD
ROOT
HETATM    1  C   UNL     1      -9.115  13.840  67.521  1.00  0.00    -0.209 C  
HETATM    2  C   UNL     1      -8.746  13.314  68.793  1.00  0.00     0.143 C  
HETATM    3  C   UNL     1      -9.778  14.337  68.544  1.00  0.00    -0.225 C  
HETATM    4  C   UNL     1      -9.804  15.066  69.756  1.00  0.00    -0.044 C  
HETATM    5  C   UNL     1     -10.486  14.205  66.650  1.00  0.00    -0.278 C  
HETATM    6  C   UNL     1     -11.042  14.137  67.892  1.00  0.00    -0.285 C  
HETATM    7  C   UNL     1      -6.853  17.792  66.907  1.00  0.00    -0.212 C  
HETATM    8  O   UNL     1      -6.657  20.993  68.433  1.00  0.00    -0.208 OA 
HETATM    9  C   UNL     1      -6.338  18.868  67.519  1.00  0.00    -0.196 C  
HETATM   10  C   UNL     1      -7.137  20.090  67.749  1.00  0.00    -0.281 C  
HETATM   11  C   UNL     1     -11.609  15.758  67.981  1.00  0.00    -0.213 C  
HETATM   12  C   UNL     1      -8.322  15.273  66.927  1.00  0.00    -0.278 C  
HETATM   13  C   UNL     1     -11.973  12.975  68.313  1.00  0.00    -0.306 C  
HETATM   14  C   UNL     1      -6.806  15.270  67.232  1.00  0.00    -0.108 C  
HETATM   15  C   UNL     1      -6.064  16.517  66.721  1.00  0.00    -0.025 C  
HETATM   16  C   UNL     1     -10.578  16.846  67.405  1.00  0.00    -0.294 C  
HETATM   17  C   UNL     1      -8.997  16.673  67.351  1.00  0.00    -0.204 C  
HETATM   18  C   UNL     1      -8.286  17.720  66.429  1.00  0.00    -0.281 C  
HETATM   19  C   UNL     1      -8.933  19.095  66.221  1.00  0.00    -0.320 C  
HETATM   20  C   UNL     1      -8.524  20.204  67.170  1.00  0.00    -0.403 C  
ENDROOT
BRANCH   5  21
HETATM   21  C   UNL     1     -11.739  14.646  65.698  1.00  0.00    -0.304 C  
HETATM   22  O   UNL     1     -12.866  14.154  65.772  1.00  0.00    -0.502 OA 
HETATM   23  C   UNL     1     -11.509  15.642  64.581  1.00  0.00    -0.306 C  
ENDBRANCH   5  21
BRANCH   5  24
HETATM   24  O   UNL     1     -10.592  12.765  66.106  1.00  0.00    -0.260 OA 
BRANCH  24  25
HETATM   25  C   UNL     1      -9.801  12.432  65.051  1.00  0.00    -0.114 C  
HETATM   26  C   UNL     1      -8.847  11.352  65.465  1.00  0.00    -0.034 C  
HETATM   27  O   UNL     1      -9.813  12.985  63.962  1.00  0.00    -0.232 OA 
ENDBRANCH  24  25
ENDBRANCH   5  24
TORSDOF 3
ENDMDL
MODEL       22
REMARK 921   NORMALIZED FREE ENERGY PREDICTED BY IDOCK:   -4.88 KCAL/MOL
REMARK 922        TOTAL FREE ENERGY PREDICTED BY IDOCK:   -5.50 KCAL/MOL
REMARK 923 INTER-LIGAND FREE ENERGY PREDICTED BY IDOCK:   -5.60 KCAL/MOL
REMARK 924 INTRA-LIGAND FREE ENERGY PREDICTED BY IDOCK:    0.10 KCAL/MOL
REMARK 927      BINDING AFFINITY PREDICTED BY RF-SCORE:    0.00 PKD
ROOT
HETATM    1  C   UNL     1      -8.349   8.008  67.014  1.00  0.00    -0.116 C  
HETATM    2  C   UNL     1      -7.060   8.322  66.496  1.00  0.00    -0.072 C  
HETATM    3  C   UNL     1      -7.568   8.683  67.832  1.00  0.00    -0.098 C  
HETATM    4  C   UNL     1      -6.833   9.849  68.149  1.00  0.00    -0.064 C  
HETATM    5  C   UNL     1      -9.048   7.422  68.408  1.00  0.00    -0.132 C  
HETATM    6  C   UNL     1      -7.837   7.781  68.918  1.00  0.00    -0.122 C  
HETATM    7  C   UNL     1     -11.059  11.666  66.387  1.00  0.00    -0.347 C  
HETATM    8  O   UNL     1     -11.208  15.058  67.431  1.00  0.00    -0.319 OA 
HETATM    9  C   UNL     1     -11.097  13.005  66.323  1.00  0.00    -0.314 C  
HETATM   10  C   UNL     1     -11.317  13.836  67.526  1.00  0.00    -0.309 C  
HETATM   11  C   UNL     1      -8.399   8.944  70.053  1.00  0.00    -0.133 C  
HETATM   12  C   UNL     1      -9.652   9.146  66.807  1.00  0.00    -0.253 C  
HETATM   13  C   UNL     1      -6.785   6.733  69.353  1.00  0.00    -0.050 C  
HETATM   14  C   UNL     1      -9.638   9.799  65.405  1.00  0.00    -0.359 C  
HETATM   15  C   UNL     1     -10.776  10.810  65.176  1.00  0.00    -0.159 C  
HETATM   16  C   UNL     1      -9.570   9.892  69.495  1.00  0.00    -0.242 C  
HETATM   17  C   UNL     1      -9.803  10.257  67.963  1.00  0.00    -0.171 C  
HETATM   18  C   UNL     1     -11.204  10.896  67.681  1.00  0.00    -0.379 C  
HETATM   19  C   UNL     1     -11.902  11.690  68.792  1.00  0.00    -0.387 C  
HETATM   20  C   UNL     1     -11.643  13.184  68.845  1.00  0.00    -0.354 C  
ENDROOT
BRANCH   5  21
HETATM   21  C   UNL     1      -9.871   6.899  69.718  1.00  0.00    -0.171 C  
HETATM   22  O   UNL     1      -9.358   6.276  70.650  1.00  0.00    -0.160 OA 
HETATM   23  C   UNL     1     -11.373   7.084  69.775  1.00  0.00    -0.226 C  
ENDBRANCH   5  21
BRANCH   5  24
HETATM   24  O   UNL     1      -8.853   5.959  67.957  1.00  0.00    -0.111 OA 
BRANCH  24  25
HETATM   25  C   UNL     1      -9.563   5.534  66.878  1.00  0.00    -0.141 C  
HETATM   26  C   UNL     1      -8.651   4.806  65.937  1.00  0.00    -0.119 C  
HETATM   27  O   UNL     1     -10.742   5.781  66.672  1.00  0.00    -0.291 OA 
ENDBRANCH  24  25
ENDBRANCH   5  24
TORSDOF 3
ENDMDL
MODEL       23
REMARK 921   NORMALIZED FREE ENERGY PREDICTED BY IDOCK:   -4.83 KCAL/MOL
REMARK 922        TOTAL FREE ENERGY PREDICTED BY IDOCK:   -5.44 KCAL/MOL
REMARK 923 INTER-LIGAND FREE ENERGY PREDICTED BY IDOCK:   -5.66 KCAL/MOL
REMARK 924 INTRA-LIGAND FREE ENERGY PREDICTED BY IDOCK:    0.22 KCAL/MOL
REMARK 927      BINDING AFFINITY PREDICTED BY RF-SCORE:    0.00 PKD
ROOT
HETATM    1  C   UNL     1     -10.415   7.172  70.964  1.00  0.00    -0.230 C  
HETATM    2  C   UNL     1     -11.669   6.524  70.778  1.00  0.00    -0.427 C  
HETATM    3  C   UNL     1     -10.518   6.462  69.860  1.00  0.00    -0.265 C  
HETATM    4  C   UNL     1     -11.122   6.220  68.605  1.00  0.00    -0.409 C  
HETATM    5  C   UNL     1      -8.786   6.842  70.844  1.00  0.00    -0.149 C  
HETATM    6  C   UNL     1      -9.264   5.803  70.103  1.00  0.00    -0.173 C  
HETATM    7  C   UNL     1     -10.482  11.104  68.587  1.00  0.00    -0.220 C  
HETATM    8  O   UNL     1     -10.782  12.146  65.204  1.00  0.00    -0.273 OA 
HETATM    9  C   UNL     1     -10.958  11.717  67.493  1.00  0.00    -0.310 C  
HETATM   10  C   UNL     1     -10.235  11.683  66.204  1.00  0.00    -0.226 C  
HETATM   11  C   UNL     1      -8.497   6.207  68.618  1.00  0.00    -0.114 C  
HETATM   12  C   UNL     1     -10.169   8.763  70.298  1.00  0.00    -0.220 C  
HETATM   13  C   UNL     1      -9.224   4.343  70.613  1.00  0.00    -0.198 C  
HETATM   14  C   UNL     1     -11.415   9.664  70.464  1.00  0.00    -0.352 C  
HETATM   15  C   UNL     1     -11.241  11.082  69.893  1.00  0.00    -0.327 C  
HETATM   16  C   UNL     1      -8.521   7.776  68.274  1.00  0.00    -0.124 C  
HETATM   17  C   UNL     1      -9.615   8.812  68.786  1.00  0.00    -0.160 C  
HETATM   18  C   UNL     1      -9.196  10.308  68.593  1.00  0.00    -0.159 C  
HETATM   19  C   UNL     1      -8.240  10.677  67.452  1.00  0.00    -0.115 C  
HETATM   20  C   UNL     1      -8.862  11.066  66.125  1.00  0.00    -0.197 C  
ENDROOT
BRANCH   5  21
HETATM   21  C   UNL     1      -7.166   6.673  70.733  1.00  0.00    -0.070 C  
HETATM   22  O   UNL     1      -6.585   5.586  70.723  1.00  0.00    -0.040 OA 
HETATM   23  C   UNL     1      -6.288   7.908  70.743  1.00  0.00    -0.037 C  
ENDBRANCH   5  21
BRANCH   5  24
HETATM   24  O   UNL     1      -8.736   6.290  72.285  1.00  0.00    -0.132 OA 
BRANCH  24  25
HETATM   25  C   UNL     1      -8.954   7.166  73.302  1.00  0.00    -0.143 C  
HETATM   26  C   UNL     1     -10.148   6.724  74.093  1.00  0.00    -0.381 C  
HETATM   27  O   UNL     1      -8.324   8.196  73.488  1.00  0.00    -0.206 OA 
ENDBRANCH  24  25
ENDBRANCH   5  24
TORSDOF 3
ENDMDL
MODEL       24
REMARK 921   NORMALIZED FREE ENERGY PREDICTED BY IDOCK:   -4.73 KCAL/MOL
REMARK 922        TOTAL FREE ENERGY PREDICTED BY IDOCK:   -5.32 KCAL/MOL
REMARK 923 INTER-LIGAND FREE ENERGY PREDICTED BY IDOCK:   -5.62 KCAL/MOL
REMARK 924 INTRA-LIGAND FREE ENERGY PREDICTED BY IDOCK:    0.30 KCAL/MOL
REMARK 927      BINDING AFFINITY PREDICTED BY RF-SCORE:    0.00 PKD
ROOT
HETATM    1  C   UNL     1      -8.189  10.862  66.989  1.00  0.00    -0.134 C  
HETATM    2  C   UNL     1      -7.323  10.155  66.106  1.00  0.00    -0.115 C  
HETATM    3  C   UNL     1      -8.698   9.764  66.470  1.00  0.00    -0.139 C  
HETATM    4  C   UNL     1      -8.685   8.360  66.307  1.00  0.00    -0.164 C  
HETATM    5  C   UNL     1      -9.771  11.375  67.074  1.00  0.00    -0.190 C  
HETATM    6  C   UNL     1      -9.908  10.441  66.092  1.00  0.00    -0.278 C  
HETATM    7  C   UNL     1      -7.891   8.906  71.137  1.00  0.00    -0.172 C  
HETATM    8  O   UNL     1      -8.562   5.754  72.630  1.00  0.00    -0.120 OA 
HETATM    9  C   UNL     1      -7.694   7.755  71.796  1.00  0.00    -0.095 C  
HETATM   10  C   UNL     1      -8.814   6.857  72.148  1.00  0.00    -0.131 C  
HETATM   11  C   UNL     1     -11.016   9.409  66.906  1.00  0.00     0.102 C  
HETATM   12  C   UNL     1      -8.203  10.450  68.683  1.00  0.00    -0.121 C  
HETATM   13  C   UNL     1     -10.167  10.831  64.617  1.00  0.00    -0.419 C  
HETATM   14  C   UNL     1      -6.783  10.167  69.226  1.00  0.00    -0.059 C  
HETATM   15  C   UNL     1      -6.748   9.802  70.720  1.00  0.00    -0.081 C  
HETATM   16  C   UNL     1     -10.680   9.183  68.461  1.00  0.00    -0.160 C  
HETATM   17  C   UNL     1      -9.231   9.286  69.111  1.00  0.00    -0.149 C  
HETATM   18  C   UNL     1      -9.254   9.370  70.674  1.00  0.00    -0.303 C  
HETATM   19  C   UNL     1     -10.414   8.726  71.442  1.00  0.00    -0.354 C  
HETATM   20  C   UNL     1     -10.235   7.289  71.891  1.00  0.00    -0.206 C  
ENDROOT
BRANCH   5  21
HETATM   21  C   UNL     1     -11.298  11.903  67.311  1.00  0.00    -0.329 C  
HETATM   22  O   UNL     1     -12.089  12.154  66.399  1.00  0.00    -0.630 OA 
HETATM   23  C   UNL     1     -11.770  12.209  68.717  1.00  0.00    -0.374 C  
ENDBRANCH   5  21
BRANCH   5  24
HETATM   24  O   UNL     1      -9.447  12.680  66.317  1.00  0.00    -0.243 OA 
BRANCH  24  25
HETATM   25  C   UNL     1      -9.192  13.791  67.058  1.00  0.00    -0.251 C  
HETATM   26  C   UNL     1      -9.562  15.011  66.270  1.00  0.00    -0.335 C  
HETATM   27  O   UNL     1      -8.667  13.793  68.162  1.00  0.00    -0.170 OA 
ENDBRANCH  24  25
ENDBRANCH   5  24
TORSDOF 3
ENDMDL
MODEL       25
REMARK 921   NORMALIZED FREE ENERGY PREDICTED BY IDOCK:   -4.71 KCAL/MOL
REMARK 922        TOTAL FREE ENERGY PREDICTED BY IDOCK:   -5.30 KCAL/MOL
REMARK 923 INTER-LIGAND FREE ENERGY PREDICTED BY IDOCK:   -5.77 KCAL/MOL
REMARK 924 INTRA-LIGAND FREE ENERGY PREDICTED BY IDOCK:    0.47 KCAL/MOL
REMARK 927      BINDING AFFINITY PREDICTED BY RF-SCORE:    0.00 PKD
ROOT
HETATM    1  C   UNL     1     -10.640  11.806  68.214  1.00  0.00    -0.236 C  
HETATM    2  C   UNL     1     -12.031  11.503  68.164  1.00  0.00    -0.206 C  
HETATM    3  C   UNL     1     -11.205  11.971  67.036  1.00  0.00    -0.377 C  
HETATM    4  C   UNL     1     -12.142  12.622  66.201  1.00  0.00    -0.399 C  
HETATM    5  C   UNL     1      -9.250  11.529  67.340  1.00  0.00    -0.166 C  
HETATM    6  C   UNL     1     -10.165  11.233  66.374  1.00  0.00    -0.273 C  
HETATM    7  C   UNL     1     -10.193  16.345  68.770  1.00  0.00    -0.258 C  
HETATM    8  O   UNL     1     -11.014  19.320  67.012  1.00  0.00    -0.454 OA 
HETATM    9  C   UNL     1     -10.733  17.542  68.500  1.00  0.00    -0.237 C  
HETATM   10  C   UNL     1     -10.389  18.293  67.274  1.00  0.00    -0.390 C  
HETATM   11  C   UNL     1      -9.705  12.442  65.242  1.00  0.00    -0.104 C  
HETATM   12  C   UNL     1     -10.133  13.437  68.555  1.00  0.00    -0.208 C  
HETATM   13  C   UNL     1     -10.409   9.784  65.890  1.00  0.00    -0.148 C  
HETATM   14  C   UNL     1     -10.998  14.100  69.653  1.00  0.00    -0.125 C  
HETATM   15  C   UNL     1     -10.582  15.542  69.989  1.00  0.00    -0.337 C  
HETATM   16  C   UNL     1      -9.375  13.868  65.904  1.00  0.00     0.017 C  
HETATM   17  C   UNL     1      -9.977  14.404  67.276  1.00  0.00    -0.247 C  
HETATM   18  C   UNL     1      -9.219  15.650  67.845  1.00  0.00    -0.190 C  
HETATM   19  C   UNL     1      -8.509  16.602  66.875  1.00  0.00    -0.246 C  
HETATM   20  C   UNL     1      -9.305  17.785  66.358  1.00  0.00    -0.264 C  
ENDROOT
BRANCH   5  21
HETATM   21  C   UNL     1      -7.819  11.370  66.568  1.00  0.00    -0.105 C  
HETATM   22  O   UNL     1      -7.596  10.527  65.696  1.00  0.00    -0.148 OA 
HETATM   23  C   UNL     1      -6.646  12.228  66.994  1.00  0.00    -0.046 C  
ENDBRANCH   5  21
BRANCH   5  24
HETATM   24  O   UNL     1      -9.002  10.183  68.055  1.00  0.00    -0.124 OA 
BRANCH  24  25
HETATM   25  C   UNL     1      -8.421  10.222  69.283  1.00  0.00    -0.166 C  
HETATM   26  C   UNL     1      -9.135   9.276  70.202  1.00  0.00    -0.248 C  
HETATM   27  O   UNL     1      -7.513  10.972  69.607  1.00  0.00    -0.089 OA 
ENDBRANCH  24  25
ENDBRANCH   5  24
TORSDOF 3
ENDMDL
MODEL       26
REMARK 921   NORMALIZED FREE ENERGY PREDICTED BY IDOCK:   -4.68 KCAL/MOL
REMARK 922        TOTAL FREE ENERGY PREDICTED BY IDOCK:   -5.26 KCAL/MOL
REMARK 923 INTER-LIGAND FREE ENERGY PREDICTED BY IDOCK:   -6.08 KCAL/MOL
REMARK 924 INTRA-LIGAND FREE ENERGY PREDICTED BY IDOCK:    0.82 KCAL/MOL
REMARK 927      BINDING AFFINITY PREDICTED BY RF-SCORE:    0.00 PKD
ROOT
HETATM    1  C   UNL     1      -9.321  14.657  68.923  1.00  0.00    -0.160 C  
HETATM    2  C   UNL     1      -8.114  14.256  69.565  1.00  0.00     0.366 C  
HETATM    3  C   UNL     1      -8.220  14.888  68.238  1.00  0.00    -0.145 C  
HETATM    4  C   UNL     1      -7.067  14.419  67.567  1.00  0.00    -0.197 C  
HETATM    5  C   UNL     1      -9.938  15.954  68.079  1.00  0.00    -0.220 C  
HETATM    6  C   UNL     1      -8.611  16.244  67.964  1.00  0.00    -0.176 C  
HETATM    7  C   UNL     1     -10.567  11.314  66.026  1.00  0.00    -0.314 C  
HETATM    8  O   UNL     1      -9.284   9.710  63.129  1.00  0.00    -0.252 OA 
HETATM    9  C   UNL     1     -10.123  10.344  65.214  1.00  0.00    -0.370 C  
HETATM   10  C   UNL     1      -9.815  10.600  63.791  1.00  0.00    -0.335 C  
HETATM   11  C   UNL     1      -8.507  16.175  66.250  1.00  0.00    -0.357 C  
HETATM   12  C   UNL     1     -10.132  13.543  67.856  1.00  0.00    -0.248 C  
HETATM   13  C   UNL     1      -7.959  17.423  68.725  1.00  0.00    -0.244 C  
HETATM   14  C   UNL     1     -10.118  12.096  68.405  1.00  0.00    -0.210 C  
HETATM   15  C   UNL     1     -10.828  11.078  67.495  1.00  0.00    -0.314 C  
HETATM   16  C   UNL     1      -9.326  14.960  65.591  1.00  0.00    -0.018 C  
HETATM   17  C   UNL     1      -9.666  13.584  66.315  1.00  0.00    -0.287 C  
HETATM   18  C   UNL     1     -10.762  12.745  65.575  1.00  0.00    -0.303 C  
HETATM   19  C   UNL     1     -10.921  12.893  64.057  1.00  0.00    -0.447 C  
HETATM   20  C   UNL     1     -10.128  11.943  63.181  1.00  0.00    -0.341 C  
ENDROOT
BRANCH   5  21
HETATM   21  C   UNL     1     -10.659  17.131  67.207  1.00  0.00    -0.270 C  
HETATM   22  O   UNL     1     -11.275  16.931  66.158  1.00  0.00     0.240 OA 
HETATM   23  C   UNL     1     -10.496  18.576  67.629  1.00  0.00    -0.452 C  
ENDBRANCH   5  21
BRANCH   5  24
HETATM   24  O   UNL     1     -10.372  16.664  69.379  1.00  0.00    -0.300 OA 
BRANCH  24  25
HETATM   25  C   UNL     1     -11.481  16.196  70.010  1.00  0.00    -0.288 C  
HETATM   26  C   UNL     1     -11.298  16.318  71.494  1.00  0.00    -0.215 C  
HETATM   27  O   UNL     1     -12.441  15.682  69.456  1.00  0.00    -0.226 OA 
ENDBRANCH  24  25
ENDBRANCH   5  24
TORSDOF 3
ENDMDL
MODEL       27
REMARK 921   NORMALIZED FREE ENERGY PREDICTED BY IDOCK:   -4.66 KCAL/MOL
REMARK 922        TOTAL FREE ENERGY PREDICTED BY IDOCK:   -5.24 KCAL/MOL
REMARK 923 INTER-LIGAND FREE ENERGY PREDICTED BY IDOCK:   -5.53 KCAL/MOL
REMARK 924 INTRA-LIGAND FREE ENERGY PREDICTED BY IDOCK:    0.29 KCAL/MOL
REMARK 927      BINDING AFFINITY PREDICTED BY RF-SCORE:    0.00 PKD
ROOT
HETATM    1  C   UNL     1     -11.488  15.477  67.729  1.00  0.00    -0.247 C  
HETATM    2  C   UNL     1     -12.592  15.266  68.603  1.00  0.00     0.531 C  
HETATM    3  C   UNL     1     -11.170  15.090  68.947  1.00  0.00    -0.288 C  
HETATM    4  C   UNL     1     -11.207  14.126  69.980  1.00  0.00    -0.118 C  
HETATM    5  C   UNL     1      -9.989  16.204  67.731  1.00  0.00    -0.237 C  
HETATM    6  C   UNL     1     -10.186  16.130  69.078  1.00  0.00    -0.250 C  
HETATM    7  C   UNL     1     -10.259  11.408  65.983  1.00  0.00    -0.289 C  
HETATM    8  O   UNL     1      -9.033   8.287  67.156  1.00  0.00    -0.134 OA 
HETATM    9  C   UNL     1     -10.185  10.090  66.219  1.00  0.00    -0.285 C  
HETATM   10  C   UNL     1      -8.992   9.476  66.840  1.00  0.00    -0.131 C  
HETATM   11  C   UNL     1      -8.839  15.130  69.454  1.00  0.00    -0.172 C  
HETATM   12  C   UNL     1     -10.868  14.141  66.798  1.00  0.00    -0.296 C  
HETATM   13  C   UNL     1     -10.473  17.385  69.937  1.00  0.00     0.394 C  
HETATM   14  C   UNL     1     -11.999  13.246  66.238  1.00  0.00    -0.471 C  
HETATM   15  C   UNL     1     -11.496  12.054  65.405  1.00  0.00    -0.361 C  
HETATM   16  C   UNL     1      -8.600  13.933  68.410  1.00  0.00    -0.169 C  
HETATM   17  C   UNL     1      -9.728  13.257  67.514  1.00  0.00    -0.224 C  
HETATM   18  C   UNL     1      -9.158  12.377  66.352  1.00  0.00    -0.149 C  
HETATM   19  C   UNL     1      -7.787  11.711  66.521  1.00  0.00    -0.025 C  
HETATM   20  C   UNL     1      -7.763  10.309  67.098  1.00  0.00    -0.092 C  
ENDROOT
BRANCH   5  21
HETATM   21  C   UNL     1      -8.489  16.837  67.602  1.00  0.00    -0.190 C  
HETATM   22  O   UNL     1      -8.068  17.759  68.304  1.00  0.00    -0.264 OA 
HETATM   23  C   UNL     1      -7.572  16.355  66.498  1.00  0.00    -0.258 C  
ENDBRANCH   5  21
BRANCH   5  24
HETATM   24  O   UNL     1     -10.590  17.569  67.334  1.00  0.00    -0.351 OA 
BRANCH  24  25
HETATM   25  C   UNL     1     -10.606  17.888  66.012  1.00  0.00    -0.234 C  
HETATM   26  C   UNL     1     -10.565  19.379  65.858  1.00  0.00    -0.551 C  
HETATM   27  O   UNL     1     -10.720  17.086  65.098  1.00  0.00    -0.672 OA 
ENDBRANCH  24  25
ENDBRANCH   5  24
TORSDOF 3
ENDMDL
MODEL       28
REMARK 921   NORMALIZED FREE ENERGY PREDICTED BY IDOCK:   -4.58 KCAL/MOL
REMARK 922        TOTAL FREE ENERGY PREDICTED BY IDOCK:   -5.14 KCAL/MOL
REMARK 923 INTER-LIGAND FREE ENERGY PREDICTED BY IDOCK:   -5.51 KCAL/MOL
REMARK 924 INTRA-LIGAND FREE ENERGY PREDICTED BY IDOCK:    0.37 KCAL/MOL
REMARK 927      BINDING AFFINITY PREDICTED BY RF-SCORE:    0.00 PKD
ROOT
HETATM    1  C   UNL     1      -8.917  11.476  67.658  1.00  0.00    -0.160 C  
HETATM    2  C   UNL     1      -8.246  12.546  68.316  1.00  0.00    -0.168 C  
HETATM    3  C   UNL     1      -7.798  11.142  68.266  1.00  0.00    -0.123 C  
HETATM    4  C   UNL     1      -7.033  11.008  69.447  1.00  0.00    -0.126 C  
HETATM    5  C   UNL     1      -8.577  10.192  66.653  1.00  0.00    -0.126 C  
HETATM    6  C   UNL     1      -7.317  10.439  67.110  1.00  0.00    -0.092 C  
HETATM    7  C   UNL     1     -11.430   9.237  70.786  1.00  0.00    -0.351 C  
HETATM    8  O   UNL     1     -10.901   7.379  73.767  1.00  0.00    -0.321 OA 
HETATM    9  C   UNL     1     -11.506   8.869  72.074  1.00  0.00    -0.431 C  
HETATM   10  C   UNL     1     -10.920   7.601  72.557  1.00  0.00    -0.324 C  
HETATM   11  C   UNL     1      -7.042   8.917  67.861  1.00  0.00    -0.079 C  
HETATM   12  C   UNL     1     -10.064  10.512  68.547  1.00  0.00    -0.187 C  
HETATM   13  C   UNL     1      -6.222  11.057  66.207  1.00  0.00    -0.126 C  
HETATM   14  C   UNL     1     -10.941  11.370  69.489  1.00  0.00    -0.226 C  
HETATM   15  C   UNL     1     -11.972  10.558  70.293  1.00  0.00    -0.411 C  
HETATM   16  C   UNL     1      -8.306   8.348  68.672  1.00  0.00    -0.120 C  
HETATM   17  C   UNL     1      -9.455   9.237  69.321  1.00  0.00    -0.160 C  
HETATM   18  C   UNL     1     -10.722   8.414  69.732  1.00  0.00    -0.211 C  
HETATM   19  C   UNL     1     -10.565   6.937  70.111  1.00  0.00    -0.249 C  
HETATM   20  C   UNL     1     -10.337   6.617  71.575  1.00  0.00    -0.233 C  
ENDROOT
BRANCH   5  21
HETATM   21  C   UNL     1      -8.386   8.878  65.703  1.00  0.00    -0.139 C  
HETATM   22  O   UNL     1      -7.503   8.767  64.850  1.00  0.00    -0.091 OA 
HETATM   23  C   UNL     1      -9.397   7.752  65.779  1.00  0.00     0.068 C  
ENDBRANCH   5  21
BRANCH   5  24
HETATM   24  O   UNL     1      -8.704  11.073  65.392  1.00  0.00    -0.184 OA 
BRANCH  24  25
HETATM   25  C   UNL     1      -9.923  11.141  64.793  1.00  0.00    -0.287 C  
HETATM   26  C   UNL     1      -9.754  11.031  63.307  1.00  0.00    -0.396 C  
HETATM   27  O   UNL     1     -10.980  11.343  65.372  1.00  0.00    -0.262 OA 
ENDBRANCH  24  25
ENDBRANCH   5  24
TORSDOF 3
ENDMDL
MODEL       29
REMARK 921   NORMALIZED FREE ENERGY PREDICTED BY IDOCK:   -4.54 KCAL/MOL
REMARK 922        TOTAL FREE ENERGY PREDICTED BY IDOCK:   -5.10 KCAL/MOL
REMARK 923 INTER-LIGAND FREE ENERGY PREDICTED BY IDOCK:   -6.20 KCAL/MOL
REMARK 924 INTRA-LIGAND FREE ENERGY PREDICTED BY IDOCK:    1.10 KCAL/MOL
REMARK 927      BINDING AFFINITY PREDICTED BY RF-SCORE:    0.00 PKD
ROOT
HETATM    1  C   UNL     1      -9.222  14.029  66.818  1.00  0.00    -0.280 C  
HETATM    2  C   UNL     1      -7.928  14.602  66.984  1.00  0.00    -0.106 C  
HETATM    3  C   UNL     1      -8.445  13.413  67.685  1.00  0.00    -0.187 C  
HETATM    4  C   UNL     1      -7.710  13.409  68.893  1.00  0.00     0.049 C  
HETATM    5  C   UNL     1      -9.931  12.536  66.621  1.00  0.00    -0.236 C  
HETATM    6  C   UNL     1      -8.723  12.130  67.102  1.00  0.00    -0.190 C  
HETATM    7  C   UNL     1     -11.920  15.618  70.182  1.00  0.00    -0.387 C  
HETATM    8  O   UNL     1     -12.069  15.508  73.729  1.00  0.00    -0.480 OA 
HETATM    9  C   UNL     1     -11.955  16.034  71.456  1.00  0.00    -0.539 C  
HETATM   10  C   UNL     1     -12.181  15.095  72.575  1.00  0.00    -0.380 C  
HETATM   11  C   UNL     1      -9.291  11.346  68.523  1.00  0.00    -0.180 C  
HETATM   12  C   UNL     1     -10.521  14.539  67.861  1.00  0.00    -0.242 C  
HETATM   13  C   UNL     1      -7.676  11.426  66.205  1.00  0.00     0.005 C  
HETATM   14  C   UNL     1     -10.496  16.064  68.121  1.00  0.00    -0.269 C  
HETATM   15  C   UNL     1     -11.630  16.559  69.036  1.00  0.00    -0.027 C  
HETATM   16  C   UNL     1     -10.456  12.143  69.290  1.00  0.00     0.120 C  
HETATM   17  C   UNL     1     -10.678  13.718  69.238  1.00  0.00    -0.090 C  
HETATM   18  C   UNL     1     -12.076  14.168  69.780  1.00  0.00    -0.409 C  
HETATM   19  C   UNL     1     -12.779  13.311  70.839  1.00  0.00    -0.332 C  
HETATM   20  C   UNL     1     -12.518  13.653  72.293  1.00  0.00     0.003 C  
ENDROOT
BRANCH   5  21
HETATM   21  C   UNL     1     -10.764  11.140  66.461  1.00  0.00    -0.260 C  
HETATM   22  O   UNL     1     -11.897  10.958  66.913  1.00  0.00    -0.128 OA 
HETATM   23  C   UNL     1     -10.095   9.945  65.814  1.00  0.00    -0.317 C  
ENDBRANCH   5  21
BRANCH   5  24
HETATM   24  O   UNL     1      -9.736  12.583  65.091  1.00  0.00    -0.161 OA 
BRANCH  24  25
HETATM   25  C   UNL     1     -10.683  13.226  64.356  1.00  0.00    -0.415 C  
HETATM   26  C   UNL     1     -11.178  12.314  63.274  1.00  0.00    -0.399 C  
HETATM   27  O   UNL     1     -11.015  14.392  64.505  1.00  0.00    -0.363 OA 
ENDBRANCH  24  25
ENDBRANCH   5  24
TORSDOF 3
ENDMDL
MODEL       30
REMARK 921   NORMALIZED FREE ENERGY PREDICTED BY IDOCK:   -4.53 KCAL/MOL
REMARK 922        TOTAL FREE ENERGY PREDICTED BY IDOCK:   -5.09 KCAL/MOL
REMARK 923 INTER-LIGAND FREE ENERGY PREDICTED BY IDOCK:   -5.18 KCAL/MOL
REMARK 924 INTRA-LIGAND FREE ENERGY PREDICTED BY IDOCK:    0.10 KCAL/MOL
REMARK 927      BINDING AFFINITY PREDICTED BY RF-SCORE:    0.00 PKD
ROOT
HETATM    1  C   UNL     1      -8.894   7.851  70.981  1.00  0.00    -0.149 C  
HETATM    2  C   UNL     1      -8.983   9.239  70.677  1.00  0.00    -0.296 C  
HETATM    3  C   UNL     1     -10.028   8.230  70.430  1.00  0.00    -0.196 C  
HETATM    4  C   UNL     1     -10.744   8.771  69.338  1.00  0.00    -0.180 C  
HETATM    5  C   UNL     1      -9.809   6.643  71.672  1.00  0.00    -0.166 C  
HETATM    6  C   UNL     1     -10.803   7.540  71.423  1.00  0.00    -0.251 C  
HETATM    7  C   UNL     1      -7.633   5.637  67.157  1.00  0.00    -0.096 C  
HETATM    8  O   UNL     1      -8.897   5.077  63.885  1.00  0.00    -0.125 OA 
HETATM    9  C   UNL     1      -7.708   5.629  65.818  1.00  0.00    -0.088 C  
HETATM   10  C   UNL     1      -8.802   4.937  65.104  1.00  0.00    -0.153 C  
HETATM   11  C   UNL     1     -11.733   6.564  70.357  1.00  0.00    -0.439 C  
HETATM   12  C   UNL     1      -8.303   6.747  69.769  1.00  0.00    -0.132 C  
HETATM   13  C   UNL     1     -11.508   8.321  72.558  1.00  0.00    -0.454 C  
HETATM   14  C   UNL     1      -7.110   7.334  68.978  1.00  0.00    -0.080 C  
HETATM   15  C   UNL     1      -6.553   6.390  67.898  1.00  0.00    -0.062 C  
HETATM   16  C   UNL     1     -10.858   5.724  69.304  1.00  0.00    -0.374 C  
HETATM   17  C   UNL     1      -9.415   6.137  68.776  1.00  0.00    -0.128 C  
HETATM   18  C   UNL     1      -8.661   4.975  68.047  1.00  0.00    -0.105 C  
HETATM   19  C   UNL     1      -9.474   3.884  67.338  1.00  0.00    -0.236 C  
HETATM   20  C   UNL     1      -9.793   4.101  65.871  1.00  0.00    -0.206 C  
ENDROOT
BRANCH   5  21
HETATM   21  C   UNL     1     -10.604   5.356  72.288  1.00  0.00    -0.225 C  
HETATM   22  O   UNL     1     -11.561   5.442  73.060  1.00  0.00    -0.296 OA 
HETATM   23  C   UNL     1     -10.099   3.959  71.992  1.00  0.00    -0.220 C  
ENDBRANCH   5  21
BRANCH   5  24
HETATM   24  O   UNL     1      -9.315   7.004  73.089  1.00  0.00    -0.137 OA 
BRANCH  24  25
HETATM   25  C   UNL     1      -8.011   6.756  73.384  1.00  0.00    -0.098 C  
HETATM   26  C   UNL     1      -7.453   7.900  74.176  1.00  0.00    -0.202 C  
HETATM   27  O   UNL     1      -7.374   5.790  72.991  1.00  0.00    -0.092 OA 
ENDBRANCH  24  25
ENDBRANCH   5  24
TORSDOF 3
ENDMDL
MODEL       31
REMARK 921   NORMALIZED FREE ENERGY PREDICTED BY IDOCK:   -4.51 KCAL/MOL
REMARK 922        TOTAL FREE ENERGY PREDICTED BY IDOCK:   -5.06 KCAL/MOL
REMARK 923 INTER-LIGAND FREE ENERGY PREDICTED BY IDOCK:   -5.46 KCAL/MOL
REMARK 924 INTRA-LIGAND FREE ENERGY PREDICTED BY IDOCK:    0.40 KCAL/MOL
REMARK 927      BINDING AFFINITY PREDICTED BY RF-SCORE:    0.00 PKD
ROOT
HETATM    1  C   UNL     1      -8.390  11.175  67.683  1.00  0.00    -0.122 C  
HETATM    2  C   UNL     1      -8.552  10.706  69.019  1.00  0.00    -0.150 C  
HETATM    3  C   UNL     1      -9.624  11.208  68.141  1.00  0.00    -0.181 C  
HETATM    4  C   UNL     1     -10.585  11.697  69.056  1.00  0.00    -0.188 C  
HETATM    5  C   UNL     1      -9.109  11.020  66.189  1.00  0.00    -0.192 C  
HETATM    6  C   UNL     1     -10.136  10.566  66.961  1.00  0.00    -0.259 C  
HETATM    7  C   UNL     1      -8.090  15.758  67.815  1.00  0.00    -0.156 C  
HETATM    8  O   UNL     1     -10.108  18.515  68.787  1.00  0.00    -0.379 OA 
HETATM    9  C   UNL     1      -8.487  16.866  68.458  1.00  0.00    -0.258 C  
HETATM   10  C   UNL     1      -9.721  17.587  68.079  1.00  0.00    -0.287 C  
HETATM   11  C   UNL     1     -11.295  11.760  66.530  1.00  0.00    -0.370 C  
HETATM   12  C   UNL     1      -8.109  12.872  67.403  1.00  0.00    -0.181 C  
HETATM   13  C   UNL     1     -10.546   9.074  66.988  1.00  0.00    -0.270 C  
HETATM   14  C   UNL     1      -7.144  13.483  68.445  1.00  0.00    -0.107 C  
HETATM   15  C   UNL     1      -6.864  14.981  68.233  1.00  0.00    -0.120 C  
HETATM   16  C   UNL     1     -10.699  13.248  66.434  1.00  0.00    -0.291 C  
HETATM   17  C   UNL     1      -9.428  13.781  67.229  1.00  0.00    -0.236 C  
HETATM   18  C   UNL     1      -8.872  15.137  66.679  1.00  0.00    -0.321 C  
HETATM   19  C   UNL     1      -9.830  16.114  65.988  1.00  0.00    -0.375 C  
HETATM   20  C   UNL     1     -10.496  17.164  66.857  1.00  0.00    -0.274 C  
ENDROOT
BRANCH   5  21
HETATM   21  C   UNL     1      -9.730  10.994  64.679  1.00  0.00    -0.266 C  
HETATM   22  O   UNL     1     -10.157   9.977  64.127  1.00  0.00    -0.100 OA 
HETATM   23  C   UNL     1      -9.703  12.256  63.841  1.00  0.00    -0.090 C  
ENDBRANCH   5  21
BRANCH   5  24
HETATM   24  O   UNL     1      -8.288   9.755  65.864  1.00  0.00    -0.121 OA 
BRANCH  24  25
HETATM   25  C   UNL     1      -6.951   9.905  65.670  1.00  0.00    -0.108 C  
HETATM   26  C   UNL     1      -6.208   8.968  66.574  1.00  0.00    -0.065 C  
HETATM   27  O   UNL     1      -6.437  10.734  64.934  1.00  0.00     0.012 OA 
ENDBRANCH  24  25
ENDBRANCH   5  24
TORSDOF 3
ENDMDL
MODEL       32
REMARK 921   NORMALIZED FREE ENERGY PREDICTED BY IDOCK:   -4.46 KCAL/MOL
REMARK 922        TOTAL FREE ENERGY PREDICTED BY IDOCK:   -5.00 KCAL/MOL
REMARK 923 INTER-LIGAND FREE ENERGY PREDICTED BY IDOCK:   -5.66 KCAL/MOL
REMARK 924 INTRA-LIGAND FREE ENERGY PREDICTED BY IDOCK:    0.66 KCAL/MOL
REMARK 927      BINDING AFFINITY PREDICTED BY RF-SCORE:    0.00 PKD
ROOT
HETATM    1  C   UNL     1      -8.302  17.188  68.932  1.00  0.00    -0.183 C  
HETATM    2  C   UNL     1      -7.166  16.700  69.639  1.00  0.00     0.141 C  
HETATM    3  C   UNL     1      -7.466  16.466  68.215  1.00  0.00    -0.161 C  
HETATM    4  C   UNL     1      -6.817  15.239  67.948  1.00  0.00    -0.167 C  
HETATM    5  C   UNL     1      -8.676  17.919  67.483  1.00  0.00    -0.243 C  
HETATM    6  C   UNL     1      -7.440  17.445  67.163  1.00  0.00    -0.219 C  
HETATM    7  C   UNL     1     -11.458  13.849  68.837  1.00  0.00    -0.340 C  
HETATM    8  O   UNL     1     -11.785  10.553  67.553  1.00  0.00    -0.356 OA 
HETATM    9  C   UNL     1     -11.651  12.523  68.801  1.00  0.00    -0.366 C  
HETATM   10  C   UNL     1     -11.743  11.783  67.525  1.00  0.00    -0.240 C  
HETATM   11  C   UNL     1      -7.915  16.413  65.873  1.00  0.00     0.377 C  
HETATM   12  C   UNL     1      -9.737  16.203  68.837  1.00  0.00    -0.242 C  
HETATM   13  C   UNL     1      -6.221  18.382  66.987  1.00  0.00    -0.186 C  
HETATM   14  C   UNL     1     -10.041  15.485  70.173  1.00  0.00    -0.161 C  
HETATM   15  C   UNL     1     -11.303  14.606  70.135  1.00  0.00    -0.273 C  
HETATM   16  C   UNL     1      -9.261  15.585  66.157  1.00  0.00    -0.379 C  
HETATM   17  C   UNL     1      -9.799  15.176  67.598  1.00  0.00    -0.219 C  
HETATM   18  C   UNL     1     -11.289  14.693  67.593  1.00  0.00    -0.350 C  
HETATM   19  C   UNL     1     -11.860  14.042  66.328  1.00  0.00    -0.428 C  
HETATM   20  C   UNL     1     -11.758  12.533  66.218  1.00  0.00    -0.462 C  
ENDROOT
BRANCH   5  21
HETATM   21  C   UNL     1      -9.193  18.600  66.092  1.00  0.00    -0.136 C  
HETATM   22  O   UNL     1      -8.477  19.270  65.345  1.00  0.00    -0.082 OA 
HETATM   23  C   UNL     1     -10.658  18.506  65.717  1.00  0.00    -0.265 C  
ENDBRANCH   5  21
BRANCH   5  24
HETATM   24  O   UNL     1      -8.408  19.325  68.060  1.00  0.00    -0.295 OA 
BRANCH  24  25
HETATM   25  C   UNL     1      -9.480  20.049  68.478  1.00  0.00    -0.155 C  
HETATM   26  C   UNL     1      -9.553  21.327  67.697  1.00  0.00     0.081 C  
HETATM   27  O   UNL     1     -10.219  19.742  69.401  1.00  0.00    -0.347 OA 
ENDBRANCH  24  25
ENDBRANCH   5  24
TORSDOF 3
ENDMDL
MODEL       33
REMARK 921   NORMALIZED FREE ENERGY PREDICTED BY IDOCK:   -4.44 KCAL/MOL
REMARK 922        TOTAL FREE ENERGY PREDICTED BY IDOCK:   -4.98 KCAL/MOL
REMARK 923 INTER-LIGAND FREE ENERGY PREDICTED BY IDOCK:   -5.08 KCAL/MOL
REMARK 924 INTRA-LIGAND FREE ENERGY PREDICTED BY IDOCK:    0.10 KCAL/MOL
REMARK 927      BINDING AFFINITY PREDICTED BY RF-SCORE:    0.00 PKD
ROOT
HETATM    1  C   UNL     1      -9.950   9.967  66.816  1.00  0.00    -0.267 C  
HETATM    2  C   UNL     1     -11.159  10.595  67.234  1.00  0.00    -0.313 C  
HETATM    3  C   UNL     1      -9.889  10.576  67.982  1.00  0.00    -0.166 C  
HETATM    4  C   UNL     1     -10.307  10.704  69.327  1.00  0.00    -0.240 C  
HETATM    5  C   UNL     1      -8.318  10.287  66.734  1.00  0.00    -0.124 C  
HETATM    6  C   UNL     1      -8.674  11.255  67.624  1.00  0.00    -0.131 C  
HETATM    7  C   UNL     1      -9.727   5.839  68.822  1.00  0.00    -0.168 C  
HETATM    8  O   UNL     1      -9.560   4.499  72.108  1.00  0.00    -0.141 OA 
HETATM    9  C   UNL     1     -10.051   5.130  69.914  1.00  0.00    -0.342 C  
HETATM   10  C   UNL     1      -9.154   5.050  71.085  1.00  0.00    -0.142 C  
HETATM   11  C   UNL     1      -7.711  10.721  68.944  1.00  0.00    -0.129 C  
HETATM   12  C   UNL     1      -9.631   8.323  67.298  1.00  0.00    -0.215 C  
HETATM   13  C   UNL     1      -8.690  12.755  67.244  1.00  0.00    -0.200 C  
HETATM   14  C   UNL     1     -10.899   7.439  67.230  1.00  0.00    -0.326 C  
HETATM   15  C   UNL     1     -10.662   5.976  67.644  1.00  0.00    -0.377 C  
HETATM   16  C   UNL     1      -7.703   9.128  69.148  1.00  0.00    -0.081 C  
HETATM   17  C   UNL     1      -8.870   8.141  68.706  1.00  0.00    -0.138 C  
HETATM   18  C   UNL     1      -8.445   6.634  68.704  1.00  0.00    -0.122 C  
HETATM   19  C   UNL     1      -7.343   6.166  69.662  1.00  0.00    -0.079 C  
HETATM   20  C   UNL     1      -7.777   5.660  71.024  1.00  0.00    -0.104 C  
ENDROOT
BRANCH   5  21
HETATM   21  C   UNL     1      -6.696  10.447  66.629  1.00  0.00    -0.090 C  
HETATM   22  O   UNL     1      -6.110  11.531  66.610  1.00  0.00    -0.144 OA 
HETATM   23  C   UNL     1      -5.838   9.213  66.441  1.00  0.00    -0.058 C  
ENDBRANCH   5  21
BRANCH   5  24
HETATM   24  O   UNL     1      -8.464  10.965  65.355  1.00  0.00    -0.163 OA 
BRANCH  24  25
HETATM   25  C   UNL     1      -8.846  10.186  64.308  1.00  0.00    -0.222 C  
HETATM   26  C   UNL     1      -9.925  10.883  63.536  1.00  0.00    -0.419 C  
HETATM   27  O   UNL     1      -8.431   9.059  64.084  1.00  0.00    -0.181 OA 
ENDBRANCH  24  25
ENDBRANCH   5  24
TORSDOF 3
ENDMDL
MODEL       34
REMARK 921   NORMALIZED FREE ENERGY PREDICTED BY IDOCK:   -4.41 KCAL/MOL
REMARK 922        TOTAL FREE ENERGY PREDICTED BY IDOCK:   -4.94 KCAL/MOL
REMARK 923 INTER-LIGAND FREE ENERGY PREDICTED BY IDOCK:   -7.02 KCAL/MOL
REMARK 924 INTRA-LIGAND FREE ENERGY PREDICTED BY IDOCK:    2.07 KCAL/MOL
REMARK 927      BINDING AFFINITY PREDICTED BY RF-SCORE:    0.00 PKD
ROOT
HETATM    1  C   UNL     1     -11.228  15.138  67.786  1.00  0.00    -0.327 C  
HETATM    2  C   UNL     1     -12.245  15.405  68.747  1.00  0.00    -0.061 C  
HETATM    3  C   UNL     1     -10.793  15.546  68.960  1.00  0.00    -0.249 C  
HETATM    4  C   UNL     1     -10.655  15.357  70.355  1.00  0.00    -0.274 C  
HETATM    5  C   UNL     1      -9.827  15.821  67.199  1.00  0.00    -0.226 C  
HETATM    6  C   UNL     1      -9.931  16.527  68.360  1.00  0.00    -0.250 C  
HETATM    7  C   UNL     1      -9.643  10.891  68.540  1.00  0.00    -0.187 C  
HETATM    8  O   UNL     1      -7.993   9.103  71.128  1.00  0.00    -0.232 OA 
HETATM    9  C   UNL     1      -9.402   9.959  69.474  1.00  0.00    -0.236 C  
HETATM   10  C   UNL     1      -8.111   9.890  70.189  1.00  0.00    -0.146 C  
HETATM   11  C   UNL     1      -8.457  16.011  69.078  1.00  0.00    -0.244 C  
HETATM   12  C   UNL     1     -10.515  13.549  67.717  1.00  0.00    -0.242 C  
HETATM   13  C   UNL     1     -10.309  18.027  68.377  1.00  0.00    -0.377 C  
HETATM   14  C   UNL     1     -11.566  12.430  67.903  1.00  0.00    -0.415 C  
HETATM   15  C   UNL     1     -10.980  11.008  67.846  1.00  0.00    -0.317 C  
HETATM   16  C   UNL     1      -8.144  14.448  68.883  1.00  0.00    -0.095 C  
HETATM   17  C   UNL     1      -9.238  13.313  68.670  1.00  0.00     0.017 C  
HETATM   18  C   UNL     1      -8.641  11.959  68.160  1.00  0.00    -0.165 C  
HETATM   19  C   UNL     1      -7.195  11.596  68.516  1.00  0.00    -0.094 C  
HETATM   20  C   UNL     1      -6.973  10.791  69.782  1.00  0.00    -0.141 C  
ENDROOT
BRANCH   5  21
HETATM   21  C   UNL     1      -8.421  16.351  66.558  1.00  0.00    -0.301 C  
HETATM   22  O   UNL     1      -7.447  15.628  66.342  1.00  0.00     0.017 OA 
HETATM   23  C   UNL     1      -8.235  17.831  66.297  1.00  0.00    -0.252 C  
ENDBRANCH   5  21
BRANCH   5  24
HETATM   24  O   UNL     1     -10.605  16.665  66.168  1.00  0.00    -0.293 OA 
BRANCH  24  25
HETATM   25  C   UNL     1     -10.875  16.095  64.964  1.00  0.00    -0.363 C  
HETATM   26  C   UNL     1     -10.493  14.645  65.002  1.00  0.00    -0.447 C  
HETATM   27  O   UNL     1     -11.288  16.691  63.981  1.00  0.00    -1.120 OA 
ENDBRANCH  24  25
ENDBRANCH   5  24
TORSDOF 3
ENDMDL
MODEL       35
REMARK 921   NORMALIZED FREE ENERGY PREDICTED BY IDOCK:   -4.40 KCAL/MOL
REMARK 922        TOTAL FREE ENERGY PREDICTED BY IDOCK:   -4.94 KCAL/MOL
REMARK 923 INTER-LIGAND FREE ENERGY PREDICTED BY IDOCK:   -5.07 KCAL/MOL
REMARK 924 INTRA-LIGAND FREE ENERGY PREDICTED BY IDOCK:    0.13 KCAL/MOL
REMARK 927      BINDING AFFINITY PREDICTED BY RF-SCORE:    0.00 PKD
ROOT
HETATM    1  C   UNL     1      -7.416   8.650  68.014  1.00  0.00    -0.097 C  
HETATM    2  C   UNL     1      -6.396   7.675  67.822  1.00  0.00    -0.050 C  
HETATM    3  C   UNL     1      -7.822   7.514  67.488  1.00  0.00    -0.116 C  
HETATM    4  C   UNL     1      -8.016   6.116  67.579  1.00  0.00    -0.106 C  
HETATM    5  C   UNL     1      -8.706   9.315  67.195  1.00  0.00    -0.127 C  
HETATM    6  C   UNL     1      -8.539   8.191  66.443  1.00  0.00    -0.150 C  
HETATM    7  C   UNL     1      -9.544   7.718  71.979  1.00  0.00    -0.217 C  
HETATM    8  O   UNL     1     -11.466   5.088  73.395  1.00  0.00    -0.323 OA 
HETATM    9  C   UNL     1      -9.923   6.743  72.818  1.00  0.00    -0.190 C  
HETATM   10  C   UNL     1     -11.229   6.064  72.684  1.00  0.00    -0.285 C  
HETATM   11  C   UNL     1     -10.083   7.491  66.728  1.00  0.00    -0.313 C  
HETATM   12  C   UNL     1      -8.323   8.656  69.502  1.00  0.00    -0.117 C  
HETATM   13  C   UNL     1      -7.975   8.242  65.003  1.00  0.00    -0.141 C  
HETATM   14  C   UNL     1      -7.428   8.378  70.732  1.00  0.00    -0.065 C  
HETATM   15  C   UNL     1      -8.188   8.377  72.070  1.00  0.00    -0.212 C  
HETATM   16  C   UNL     1     -10.587   7.611  68.248  1.00  0.00    -0.175 C  
HETATM   17  C   UNL     1      -9.641   7.729  69.522  1.00  0.00    -0.160 C  
HETATM   18  C   UNL     1     -10.393   8.184  70.817  1.00  0.00    -0.217 C  
HETATM   19  C   UNL     1     -11.882   7.853  70.974  1.00  0.00    -0.285 C  
HETATM   20  C   UNL     1     -12.233   6.553  71.672  1.00  0.00    -0.353 C  
ENDROOT
BRANCH   5  21
HETATM   21  C   UNL     1     -10.018  10.025  66.530  1.00  0.00    -0.225 C  
HETATM   22  O   UNL     1     -10.177  10.180  65.318  1.00  0.00    -0.304 OA 
HETATM   23  C   UNL     1     -11.073  10.630  67.433  1.00  0.00    -0.341 C  
ENDBRANCH   5  21
BRANCH   5  24
HETATM   24  O   UNL     1      -7.803  10.366  66.515  1.00  0.00    -0.115 OA 
BRANCH  24  25
HETATM   25  C   UNL     1      -7.301  11.361  67.293  1.00  0.00    -0.130 C  
HETATM   26  C   UNL     1      -5.831  11.502  67.033  1.00  0.00    -0.120 C  
HETATM   27  O   UNL     1      -7.933  11.984  68.132  1.00  0.00    -0.135 OA 
ENDBRANCH  24  25
ENDBRANCH   5  24
TORSDOF 3
ENDMDL
MODEL       36
REMARK 921   NORMALIZED FREE ENERGY PREDICTED BY IDOCK:   -4.37 KCAL/MOL
REMARK 922        TOTAL FREE ENERGY PREDICTED BY IDOCK:   -4.90 KCAL/MOL
REMARK 923 INTER-LIGAND FREE ENERGY PREDICTED BY IDOCK:   -5.10 KCAL/MOL
REMARK 924 INTRA-LIGAND FREE ENERGY PREDICTED BY IDOCK:    0.20 KCAL/MOL
REMARK 927      BINDING AFFINITY PREDICTED BY RF-SCORE:    0.00 PKD
ROOT
HETATM    1  C   UNL     1     -10.695   7.025  69.341  1.00  0.00    -0.259 C  
HETATM    2  C   UNL     1     -11.076   6.181  68.259  1.00  0.00    -0.336 C  
HETATM    3  C   UNL     1      -9.750   6.219  68.902  1.00  0.00    -0.144 C  
HETATM    4  C   UNL     1      -8.883   5.786  67.872  1.00  0.00    -0.108 C  
HETATM    5  C   UNL     1      -9.884   6.936  70.794  1.00  0.00    -0.182 C  
HETATM    6  C   UNL     1      -9.431   5.780  70.232  1.00  0.00    -0.196 C  
HETATM    7  C   UNL     1      -8.548  10.693  67.594  1.00  0.00    -0.118 C  
HETATM    8  O   UNL     1      -5.621  11.397  65.708  1.00  0.00    -0.203 OA 
HETATM    9  C   UNL     1      -7.764  11.135  66.601  1.00  0.00    -0.155 C  
HETATM   10  C   UNL     1      -6.289  11.105  66.700  1.00  0.00    -0.134 C  
HETATM   11  C   UNL     1      -7.758   6.172  70.212  1.00  0.00    -0.097 C  
HETATM   12  C   UNL     1      -9.974   8.575  69.003  1.00  0.00    -0.197 C  
HETATM   13  C   UNL     1      -9.886   4.389  70.735  1.00  0.00    -0.273 C  
HETATM   14  C   UNL     1     -10.657   9.287  67.812  1.00  0.00    -0.307 C  
HETATM   15  C   UNL     1     -10.054  10.664  67.480  1.00  0.00    -0.217 C  
HETATM   16  C   UNL     1      -7.444   7.685  69.775  1.00  0.00    -0.090 C  
HETATM   17  C   UNL     1      -8.371   8.582  68.843  1.00  0.00    -0.118 C  
HETATM   18  C   UNL     1      -8.003  10.104  68.877  1.00  0.00    -0.110 C  
HETATM   19  C   UNL     1      -6.558  10.518  69.177  1.00  0.00    -0.057 C  
HETATM   20  C   UNL     1      -5.628  10.698  67.992  1.00  0.00    -0.036 C  
ENDROOT
BRANCH   5  21
HETATM   21  C   UNL     1      -9.083   7.006  72.215  1.00  0.00    -0.133 C  
HETATM   22  O   UNL     1      -8.977   6.056  72.994  1.00  0.00    -0.129 OA 
HETATM   23  C   UNL     1      -8.510   8.328  72.681  1.00  0.00    -0.248 C  
ENDBRANCH   5  21
BRANCH   5  24
HETATM   24  O   UNL     1     -11.165   6.518  71.546  1.00  0.00    -0.252 OA 
BRANCH  24  25
HETATM   25  C   UNL     1     -12.093   7.481  71.791  1.00  0.00    -0.308 C  
HETATM   26  C   UNL     1     -13.439   7.002  71.336  1.00  0.00    -0.323 C  
HETATM   27  O   UNL     1     -11.850   8.593  72.235  1.00  0.00    -0.367 OA 
ENDBRANCH  24  25
ENDBRANCH   5  24
TORSDOF 3
ENDMDL
MODEL       37
REMARK 921   NORMALIZED FREE ENERGY PREDICTED BY IDOCK:   -4.33 KCAL/MOL
REMARK 922        TOTAL FREE ENERGY PREDICTED BY IDOCK:   -4.86 KCAL/MOL
REMARK 923 INTER-LIGAND FREE ENERGY PREDICTED BY IDOCK:   -4.98 KCAL/MOL
REMARK 924 INTRA-LIGAND FREE ENERGY PREDICTED BY IDOCK:    0.12 KCAL/MOL
REMARK 927      BINDING AFFINITY PREDICTED BY RF-SCORE:    0.00 PKD
ROOT
HETATM    1  C   UNL     1      -8.251   8.214  66.798  1.00  0.00    -0.107 C  
HETATM    2  C   UNL     1      -8.632   7.143  65.939  1.00  0.00    -0.157 C  
HETATM    3  C   UNL     1      -9.548   8.085  66.608  1.00  0.00    -0.297 C  
HETATM    4  C   UNL     1     -10.741   7.336  66.733  1.00  0.00    -0.231 C  
HETATM    5  C   UNL     1      -8.602   9.823  67.051  1.00  0.00    -0.124 C  
HETATM    6  C   UNL     1      -9.699   9.484  66.317  1.00  0.00    -0.310 C  
HETATM    7  C   UNL     1      -8.617   6.753  71.139  1.00  0.00    -0.132 C  
HETATM    8  O   UNL     1     -11.155   5.588  73.334  1.00  0.00    -0.282 OA 
HETATM    9  C   UNL     1      -9.292   5.949  71.973  1.00  0.00    -0.160 C  
HETATM   10  C   UNL     1     -10.501   6.407  72.689  1.00  0.00    -0.210 C  
HETATM   11  C   UNL     1     -10.890   9.841  67.504  1.00  0.00    -0.286 C  
HETATM   12  C   UNL     1      -8.151   7.937  68.515  1.00  0.00    -0.123 C  
HETATM   13  C   UNL     1      -9.897   9.972  64.862  1.00  0.00    -0.352 C  
HETATM   14  C   UNL     1      -7.527   6.562  68.849  1.00  0.00    -0.095 C  
HETATM   15  C   UNL     1      -7.415   6.277  70.357  1.00  0.00    -0.091 C  
HETATM   16  C   UNL     1     -10.497   9.373  68.989  1.00  0.00    -0.233 C  
HETATM   17  C   UNL     1      -9.513   8.174  69.343  1.00  0.00    -0.162 C  
HETATM   18  C   UNL     1      -9.042   8.173  70.836  1.00  0.00    -0.169 C  
HETATM   19  C   UNL     1      -9.953   8.782  71.909  1.00  0.00    -0.401 C  
HETATM   20  C   UNL     1     -10.928   7.850  72.602  1.00  0.00    -0.440 C  
ENDROOT
BRANCH   5  21
HETATM   21  C   UNL     1      -8.872  11.386  67.437  1.00  0.00    -0.150 C  
HETATM   22  O   UNL     1      -9.427  12.195  66.690  1.00  0.00    -0.211 OA 
HETATM   23  C   UNL     1      -8.332  11.934  68.742  1.00  0.00     0.019 C  
ENDBRANCH   5  21
BRANCH   5  24
HETATM   24  O   UNL     1      -7.565  10.271  66.000  1.00  0.00    -0.115 OA 
BRANCH  24  25
HETATM   25  C   UNL     1      -6.250  10.081  66.293  1.00  0.00    -0.070 C  
HETATM   26  C   UNL     1      -5.518   9.673  65.049  1.00  0.00    -0.049 C  
HETATM   27  O   UNL     1      -5.763  10.151  67.410  1.00  0.00    -0.042 OA 
ENDBRANCH  24  25
ENDBRANCH   5  24
TORSDOF 3
ENDMDL
MODEL       38
REMARK 921   NORMALIZED FREE ENERGY PREDICTED BY IDOCK:   -4.32 KCAL/MOL
REMARK 922        TOTAL FREE ENERGY PREDICTED BY IDOCK:   -4.85 KCAL/MOL
REMARK 923 INTER-LIGAND FREE ENERGY PREDICTED BY IDOCK:   -5.41 KCAL/MOL
REMARK 924 INTRA-LIGAND FREE ENERGY PREDICTED BY IDOCK:    0.57 KCAL/MOL
REMARK 927      BINDING AFFINITY PREDICTED BY RF-SCORE:    0.00 PKD
ROOT
HETATM    1  C   UNL     1     -11.736  13.312  67.107  1.00  0.00    -0.425 C  
HETATM    2  C   UNL     1     -12.823  13.732  66.288  1.00  0.00    -0.081 C  
HETATM    3  C   UNL     1     -11.398  13.755  65.914  1.00  0.00    -0.311 C  
HETATM    4  C   UNL     1     -11.334  14.799  64.962  1.00  0.00    -0.391 C  
HETATM    5  C   UNL     1     -10.343  12.405  66.999  1.00  0.00    -0.220 C  
HETATM    6  C   UNL     1     -10.558  12.615  65.670  1.00  0.00    -0.299 C  
HETATM    7  C   UNL     1      -9.961  17.037  69.130  1.00  0.00    -0.229 C  
HETATM    8  O   UNL     1      -8.373  20.065  68.170  1.00  0.00    -0.274 OA 
HETATM    9  C   UNL     1      -9.725  18.350  68.997  1.00  0.00    -0.249 C  
HETATM   10  C   UNL     1      -8.477  18.859  68.389  1.00  0.00    -0.350 C  
HETATM   11  C   UNL     1      -9.103  13.466  65.332  1.00  0.00     0.899 C  
HETATM   12  C   UNL     1     -10.931  14.478  68.121  1.00  0.00    -0.261 C  
HETATM   13  C   UNL     1     -11.020  11.482  64.723  1.00  0.00    -0.338 C  
HETATM   14  C   UNL     1     -11.926  15.459  68.785  1.00  0.00    -0.278 C  
HETATM   15  C   UNL     1     -11.258  16.505  69.694  1.00  0.00    -0.156 C  
HETATM   16  C   UNL     1      -8.690  14.533  66.459  1.00  0.00    -0.079 C  
HETATM   17  C   UNL     1      -9.704  15.269  67.441  1.00  0.00    -0.208 C  
HETATM   18  C   UNL     1      -9.001  15.971  68.650  1.00  0.00    -0.210 C  
HETATM   19  C   UNL     1      -7.560  16.472  68.491  1.00  0.00    -0.200 C  
HETATM   20  C   UNL     1      -7.370  17.903  68.026  1.00  0.00    -0.230 C  
ENDROOT
BRANCH   5  21
HETATM   21  C   UNL     1      -8.934  11.581  67.029  1.00  0.00    -0.174 C  
HETATM   22  O   UNL     1      -8.674  10.633  66.285  1.00  0.00    -0.146 OA 
HETATM   23  C   UNL     1      -7.904  11.909  68.091  1.00  0.00    -0.134 C  
ENDBRANCH   5  21
BRANCH   5  24
HETATM   24  O   UNL     1     -11.104  11.098  67.306  1.00  0.00    -0.279 OA 
BRANCH  24  25
HETATM   25  C   UNL     1     -11.452  10.863  68.599  1.00  0.00    -0.311 C  
HETATM   26  C   UNL     1     -10.718   9.655  69.100  1.00  0.00    -0.237 C  
HETATM   27  O   UNL     1     -12.294  11.489  69.225  1.00  0.00    -0.242 OA 
ENDBRANCH  24  25
ENDBRANCH   5  24
TORSDOF 3
ENDMDL
MODEL       39
REMARK 921   NORMALIZED FREE ENERGY PREDICTED BY IDOCK:   -4.29 KCAL/MOL
REMARK 922        TOTAL FREE ENERGY PREDICTED BY IDOCK:   -4.80 KCAL/MOL
REMARK 923 INTER-LIGAND FREE ENERGY PREDICTED BY IDOCK:   -4.96 KCAL/MOL
REMARK 924 INTRA-LIGAND FREE ENERGY PREDICTED BY IDOCK:    0.16 KCAL/MOL
REMARK 927      BINDING AFFINITY PREDICTED BY RF-SCORE:    0.00 PKD
ROOT
HETATM    1  C   UNL     1      -8.327   7.894  69.377  1.00  0.00    -0.132 C  
HETATM    2  C   UNL     1      -8.804   7.928  70.718  1.00  0.00    -0.139 C  
HETATM    3  C   UNL     1      -9.613   7.650  69.518  1.00  0.00    -0.163 C  
HETATM    4  C   UNL     1     -10.909   8.063  69.902  1.00  0.00    -0.217 C  
HETATM    5  C   UNL     1      -8.451   6.951  68.010  1.00  0.00    -0.124 C  
HETATM    6  C   UNL     1      -9.536   6.480  68.687  1.00  0.00    -0.123 C  
HETATM    7  C   UNL     1      -9.190  11.980  67.459  1.00  0.00    -0.180 C  
HETATM    8  O   UNL     1     -12.012  13.980  66.650  1.00  0.00    -0.402 OA 
HETATM    9  C   UNL     1     -10.030  13.025  67.434  1.00  0.00    -0.228 C  
HETATM   10  C   UNL     1     -11.203  13.060  66.534  1.00  0.00    -0.302 C  
HETATM   11  C   UNL     1     -10.737   6.928  67.541  1.00  0.00    -0.368 C  
HETATM   12  C   UNL     1      -8.382   9.346  68.414  1.00  0.00    -0.119 C  
HETATM   13  C   UNL     1      -9.563   5.064  69.311  1.00  0.00    -0.230 C  
HETATM   14  C   UNL     1      -7.991  10.601  69.228  1.00  0.00    -0.139 C  
HETATM   15  C   UNL     1      -8.023  11.907  68.415  1.00  0.00    -0.154 C  
HETATM   16  C   UNL     1     -10.516   8.382  66.895  1.00  0.00    -0.359 C  
HETATM   17  C   UNL     1      -9.745   9.588  67.590  1.00  0.00    -0.188 C  
HETATM   18  C   UNL     1      -9.380  10.747  66.603  1.00  0.00    -0.188 C  
HETATM   19  C   UNL     1     -10.259  10.985  65.370  1.00  0.00    -0.333 C  
HETATM   20  C   UNL     1     -11.405  11.968  65.515  1.00  0.00    -0.381 C  
ENDROOT
BRANCH   5  21
HETATM   21  C   UNL     1      -8.512   6.147  66.590  1.00  0.00    -0.116 C  
HETATM   22  O   UNL     1      -8.702   4.933  66.493  1.00  0.00    -0.113 OA 
HETATM   23  C   UNL     1      -8.222   6.890  65.302  1.00  0.00    -0.129 C  
ENDBRANCH   5  21
BRANCH   5  24
HETATM   24  O   UNL     1      -7.292   6.040  68.465  1.00  0.00    -0.081 OA 
BRANCH  24  25
HETATM   25  C   UNL     1      -6.050   6.590  68.536  1.00  0.00    -0.025 C  
HETATM   26  C   UNL     1      -5.465   6.325  69.891  1.00  0.00    -0.014 C  
HETATM   27  O   UNL     1      -5.530   7.265  67.660  1.00  0.00    -0.019 OA 
ENDBRANCH  24  25
ENDBRANCH   5  24
TORSDOF 3
ENDMDL
MODEL       40
REMARK 921   NORMALIZED FREE ENERGY PREDICTED BY IDOCK:   -4.25 KCAL/MOL
REMARK 922        TOTAL FREE ENERGY PREDICTED BY IDOCK:   -4.76 KCAL/MOL
REMARK 923 INTER-LIGAND FREE ENERGY PREDICTED BY IDOCK:   -4.87 KCAL/MOL
REMARK 924 INTRA-LIGAND FREE ENERGY PREDICTED BY IDOCK:    0.11 KCAL/MOL
REMARK 927      BINDING AFFINITY PREDICTED BY RF-SCORE:    0.00 PKD
ROOT
HETATM    1  C   UNL     1      -9.320  10.299  66.387  1.00  0.00    -0.201 C  
HETATM    2  C   UNL     1     -10.357  10.442  65.422  1.00  0.00    -0.270 C  
HETATM    3  C   UNL     1     -10.287  11.125  66.726  1.00  0.00    -0.284 C  
HETATM    4  C   UNL     1     -11.645  11.369  67.033  1.00  0.00    -0.135 C  
HETATM    5  C   UNL     1      -8.371  11.242  67.379  1.00  0.00    -0.137 C  
HETATM    6  C   UNL     1      -9.352  12.147  67.108  1.00  0.00    -0.193 C  
HETATM    7  C   UNL     1     -10.697   7.215  69.503  1.00  0.00    -0.255 C  
HETATM    8  O   UNL     1     -13.295   6.852  71.898  1.00  0.00    -0.294 OA 
HETATM    9  C   UNL     1     -11.756   6.704  70.148  1.00  0.00    -0.412 C  
HETATM   10  C   UNL     1     -12.241   7.274  71.422  1.00  0.00    -0.349 C  
HETATM   11  C   UNL     1      -9.905  12.379  68.719  1.00  0.00    -0.005 C  
HETATM   12  C   UNL     1      -9.477   9.094  67.636  1.00  0.00    -0.164 C  
HETATM   13  C   UNL     1      -9.108  13.375  66.197  1.00  0.00     0.103 C  
HETATM   14  C   UNL     1     -10.076   7.772  67.100  1.00  0.00    -0.328 C  
HETATM   15  C   UNL     1     -10.229   6.678  68.170  1.00  0.00    -0.193 C  
HETATM   16  C   UNL     1     -10.004  11.027  69.579  1.00  0.00     0.074 C  
HETATM   17  C   UNL     1     -10.230   9.571  68.978  1.00  0.00    -0.211 C  
HETATM   18  C   UNL     1      -9.931   8.422  69.998  1.00  0.00    -0.188 C  
HETATM   19  C   UNL     1     -10.108   8.687  71.498  1.00  0.00    -0.345 C  
HETATM   20  C   UNL     1     -11.462   8.370  72.103  1.00  0.00    -0.442 C  
ENDROOT
BRANCH   5  21
HETATM   21  C   UNL     1      -7.403  12.034  68.429  1.00  0.00    -0.096 C  
HETATM   22  O   UNL     1      -7.130  13.233  68.344  1.00  0.00    -0.090 OA 
HETATM   23  C   UNL     1      -6.702  11.259  69.525  1.00  0.00    -0.128 C  
ENDBRANCH   5  21
BRANCH   5  24
HETATM   24  O   UNL     1      -7.328  11.464  66.264  1.00  0.00    -0.066 OA 
BRANCH  24  25
HETATM   25  C   UNL     1      -6.598  10.389  65.863  1.00  0.00    -0.123 C  
HETATM   26  C   UNL     1      -6.635  10.292  64.367  1.00  0.00    -0.076 C  
HETATM   27  O   UNL     1      -6.065   9.583  66.611  1.00  0.00    -0.061 OA 
ENDBRANCH  24  25
ENDBRANCH   5  24
TORSDOF 3
ENDMDL
MODEL       41
REMARK 921   NORMALIZED FREE ENERGY PREDICTED BY IDOCK:   -4.25 KCAL/MOL
REMARK 922        TOTAL FREE ENERGY PREDICTED BY IDOCK:   -4.75 KCAL/MOL
REMARK 923 INTER-LIGAND FREE ENERGY PREDICTED BY IDOCK:   -6.54 KCAL/MOL
REMARK 924 INTRA-LIGAND FREE ENERGY PREDICTED BY IDOCK:    1.79 KCAL/MOL
REMARK 927      BINDING AFFINITY PREDICTED BY RF-SCORE:    0.00 PKD
ROOT
HETATM    1  C   UNL     1     -10.473  12.345  66.177  1.00  0.00    -0.274 C  
HETATM    2  C   UNL     1     -11.356  11.370  66.723  1.00  0.00    -0.252 C  
HETATM    3  C   UNL     1     -11.142  12.732  67.243  1.00  0.00    -0.314 C  
HETATM    4  C   UNL     1     -11.450  12.602  68.617  1.00  0.00    -0.347 C  
HETATM    5  C   UNL     1     -10.457  13.964  65.785  1.00  0.00    -0.307 C  
HETATM    6  C   UNL     1     -11.540  13.961  66.612  1.00  0.00    -0.392 C  
HETATM    7  C   UNL     1      -6.542  12.190  68.552  1.00  0.00    -0.063 C  
HETATM    8  O   UNL     1      -5.443  12.723  71.887  1.00  0.00    -0.392 OA 
HETATM    9  C   UNL     1      -5.994  11.952  69.753  1.00  0.00    -0.132 C  
HETATM   10  C   UNL     1      -5.825  13.023  70.757  1.00  0.00    -0.091 C  
HETATM   11  C   UNL     1     -10.926  15.041  67.800  1.00  0.00    -0.298 C  
HETATM   12  C   UNL     1      -8.838  12.446  66.773  1.00  0.00    -0.189 C  
HETATM   13  C   UNL     1     -12.981  14.146  66.081  1.00  0.00     0.114 C  
HETATM   14  C   UNL     1      -8.219  11.050  67.017  1.00  0.00    -0.138 C  
HETATM   15  C   UNL     1      -6.773  11.091  67.541  1.00  0.00    -0.072 C  
HETATM   16  C   UNL     1      -9.382  14.799  68.172  1.00  0.00    -0.197 C  
HETATM   17  C   UNL     1      -8.614  13.411  68.043  1.00  0.00    -0.174 C  
HETATM   18  C   UNL     1      -7.058  13.549  68.133  1.00  0.00    -0.117 C  
HETATM   19  C   UNL     1      -6.453  14.707  68.935  1.00  0.00    -0.090 C  
HETATM   20  C   UNL     1      -6.145  14.452  70.397  1.00  0.00    -0.179 C  
ENDROOT
BRANCH   5  21
HETATM   21  C   UNL     1     -10.286  15.539  65.391  1.00  0.00    -0.377 C  
HETATM   22  O   UNL     1     -11.073  16.159  64.672  1.00  0.00    -0.598 OA 
HETATM   23  C   UNL     1      -9.044  16.286  65.833  1.00  0.00    -0.246 C  
ENDBRANCH   5  21
BRANCH   5  24
HETATM   24  O   UNL     1     -11.047  13.687  64.385  1.00  0.00    -0.375 OA 
BRANCH  24  25
HETATM   25  C   UNL     1     -10.621  12.573  63.733  1.00  0.00    -0.436 C  
HETATM   26  C   UNL     1     -11.804  11.730  63.362  1.00  0.00    -0.435 C  
HETATM   27  O   UNL     1      -9.451  12.270  63.552  1.00  0.00    -0.167 OA 
ENDBRANCH  24  25
ENDBRANCH   5  24
TORSDOF 3
ENDMDL
MODEL       42
REMARK 921   NORMALIZED FREE ENERGY PREDICTED BY IDOCK:   -4.25 KCAL/MOL
REMARK 922        TOTAL FREE ENERGY PREDICTED BY IDOCK:   -4.75 KCAL/MOL
REMARK 923 INTER-LIGAND FREE ENERGY PREDICTED BY IDOCK:   -5.55 KCAL/MOL
REMARK 924 INTRA-LIGAND FREE ENERGY PREDICTED BY IDOCK:    0.80 KCAL/MOL
REMARK 927      BINDING AFFINITY PREDICTED BY RF-SCORE:    0.00 PKD
ROOT
HETATM    1  C   UNL     1     -10.889   7.320  70.006  1.00  0.00    -0.271 C  
HETATM    2  C   UNL     1     -11.775   6.239  69.730  1.00  0.00    -0.157 C  
HETATM    3  C   UNL     1     -10.384   6.120  70.202  1.00  0.00    -0.269 C  
HETATM    4  C   UNL     1      -9.986   4.857  69.707  1.00  0.00    -0.314 C  
HETATM    5  C   UNL     1      -9.802   7.802  71.172  1.00  0.00    -0.169 C  
HETATM    6  C   UNL     1      -9.887   6.483  71.500  1.00  0.00    -0.182 C  
HETATM    7  C   UNL     1      -8.240   7.964  66.307  1.00  0.00    -0.117 C  
HETATM    8  O   UNL     1      -5.823   6.155  64.436  1.00  0.00    -0.021 OA 
HETATM    9  C   UNL     1      -7.639   7.364  65.269  1.00  0.00    -0.098 C  
HETATM   10  C   UNL     1      -6.272   6.813  65.374  1.00  0.00    -0.039 C  
HETATM   11  C   UNL     1      -8.237   6.074  71.241  1.00  0.00    -0.123 C  
HETATM   12  C   UNL     1      -9.839   7.906  68.745  1.00  0.00    -0.171 C  
HETATM   13  C   UNL     1     -10.603   6.000  72.784  1.00  0.00    -0.254 C  
HETATM   14  C   UNL     1     -10.550   7.962  67.373  1.00  0.00    -0.342 C  
HETATM   15  C   UNL     1      -9.659   8.478  66.229  1.00  0.00    -0.306 C  
HETATM   16  C   UNL     1      -7.596   6.738  69.927  1.00  0.00    -0.100 C  
HETATM   17  C   UNL     1      -8.408   7.175  68.630  1.00  0.00    -0.125 C  
HETATM   18  C   UNL     1      -7.594   8.104  67.668  1.00  0.00    -0.098 C  
HETATM   19  C   UNL     1      -6.065   7.993  67.635  1.00  0.00    -0.051 C  
HETATM   20  C   UNL     1      -5.461   7.038  66.624  1.00  0.00    -0.022 C  
ENDROOT
BRANCH   5  21
HETATM   21  C   UNL     1      -8.683   8.381  72.211  1.00  0.00    -0.209 C  
HETATM   22  O   UNL     1      -7.675   9.000  71.864  1.00  0.00    -0.340 OA 
HETATM   23  C   UNL     1      -8.808   8.067  73.688  1.00  0.00    -0.326 C  
ENDBRANCH   5  21
BRANCH   5  24
HETATM   24  O   UNL     1     -10.912   8.475  72.008  1.00  0.00    -0.292 OA 
BRANCH  24  25
HETATM   25  C   UNL     1     -11.549   9.545  71.462  1.00  0.00    -0.395 C  
HETATM   26  C   UNL     1     -13.005   9.491  71.815  1.00  0.00    -0.502 C  
HETATM   27  O   UNL     1     -11.028  10.374  70.730  1.00  0.00    -0.262 OA 
ENDBRANCH  24  25
ENDBRANCH   5  24
TORSDOF 3
ENDMDL
MODEL       43
REMARK 921   NORMALIZED FREE ENERGY PREDICTED BY IDOCK:   -4.18 KCAL/MOL
REMARK 922        TOTAL FREE ENERGY PREDICTED BY IDOCK:   -4.68 KCAL/MOL
REMARK 923 INTER-LIGAND FREE ENERGY PREDICTED BY IDOCK:   -4.97 KCAL/MOL
REMARK 924 INTRA-LIGAND FREE ENERGY PREDICTED BY IDOCK:    0.29 KCAL/MOL
REMARK 927      BINDING AFFINITY PREDICTED BY RF-SCORE:    0.00 PKD
ROOT
HETATM    1  C   UNL     1      -7.548   9.837  68.700  1.00  0.00    -0.079 C  
HETATM    2  C   UNL     1      -7.447   9.619  70.104  1.00  0.00    -0.157 C  
HETATM    3  C   UNL     1      -8.663   9.456  69.287  1.00  0.00    -0.145 C  
HETATM    4  C   UNL     1      -9.705   9.683  70.215  1.00  0.00    -0.314 C  
HETATM    5  C   UNL     1      -8.189   9.110  67.346  1.00  0.00    -0.107 C  
HETATM    6  C   UNL     1      -8.899   8.441  68.297  1.00  0.00    -0.139 C  
HETATM    7  C   UNL     1      -9.203  14.073  68.039  1.00  0.00    -0.201 C  
HETATM    8  O   UNL     1     -12.158  15.903  68.772  1.00  0.00    -0.297 OA 
HETATM    9  C   UNL     1     -10.007  15.027  68.532  1.00  0.00    -0.219 C  
HETATM   10  C   UNL     1     -11.442  15.092  68.186  1.00  0.00    -0.339 C  
HETATM   11  C   UNL     1     -10.469   8.948  67.814  1.00  0.00    -0.300 C  
HETATM   12  C   UNL     1      -8.019  11.409  68.113  1.00  0.00    -0.133 C  
HETATM   13  C   UNL     1      -8.641   6.949  68.617  1.00  0.00    -0.123 C  
HETATM   14  C   UNL     1      -7.363  12.554  68.920  1.00  0.00    -0.022 C  
HETATM   15  C   UNL     1      -7.749  13.961  68.433  1.00  0.00    -0.139 C  
HETATM   16  C   UNL     1     -10.560  10.499  67.404  1.00  0.00    -0.313 C  
HETATM   17  C   UNL     1      -9.603  11.648  67.946  1.00  0.00    -0.180 C  
HETATM   18  C   UNL     1      -9.692  12.975  67.120  1.00  0.00    -0.230 C  
HETATM   19  C   UNL     1     -10.998  13.319  66.394  1.00  0.00    -0.301 C  
HETATM   20  C   UNL     1     -12.011  14.157  67.150  1.00  0.00    -0.460 C  
ENDROOT
BRANCH   5  21
HETATM   21  C   UNL     1      -8.797   8.534  65.944  1.00  0.00    -0.182 C  
HETATM   22  O   UNL     1      -9.036   7.343  65.734  1.00  0.00    -0.127 OA 
HETATM   23  C   UNL     1      -8.996   9.478  64.776  1.00  0.00    -0.263 C  
ENDBRANCH   5  21
BRANCH   5  24
HETATM   24  O   UNL     1      -6.924   8.251  67.140  1.00  0.00    -0.072 OA 
BRANCH  24  25
HETATM   25  C   UNL     1      -5.971   8.728  66.296  1.00  0.00    -0.051 C  
HETATM   26  C   UNL     1      -5.353   7.585  65.547  1.00  0.00    -0.029 C  
HETATM   27  O   UNL     1      -5.619   9.895  66.221  1.00  0.00    -0.049 OA 
ENDBRANCH  24  25
ENDBRANCH   5  24
TORSDOF 3
ENDMDL
MODEL       44
REMARK 921   NORMALIZED FREE ENERGY PREDICTED BY IDOCK:   -4.18 KCAL/MOL
REMARK 922        TOTAL FREE ENERGY PREDICTED BY IDOCK:   -4.68 KCAL/MOL
REMARK 923 INTER-LIGAND FREE ENERGY PREDICTED BY IDOCK:   -5.98 KCAL/MOL
REMARK 924 INTRA-LIGAND FREE ENERGY PREDICTED BY IDOCK:    1.30 KCAL/MOL
REMARK 927      BINDING AFFINITY PREDICTED BY RF-SCORE:    0.00 PKD
ROOT
HETATM    1  C   UNL     1     -11.866  13.941  68.384  1.00  0.00    -0.409 C  
HETATM    2  C   UNL     1     -12.241  14.731  69.508  1.00  0.00    -0.280 C  
HETATM    3  C   UNL     1     -10.886  14.622  68.940  1.00  0.00    -0.257 C  
HETATM    4  C   UNL     1     -10.051  14.895  70.049  1.00  0.00     0.091 C  
HETATM    5  C   UNL     1     -10.960  14.066  66.992  1.00  0.00    -0.297 C  
HETATM    6  C   UNL     1     -10.447  15.130  67.670  1.00  0.00    -0.253 C  
HETATM    7  C   UNL     1     -10.156   9.972  69.946  1.00  0.00    -0.289 C  
HETATM    8  O   UNL     1      -7.426   8.865  71.930  1.00  0.00    -0.294 OA 
HETATM    9  C   UNL     1      -9.477   9.386  70.943  1.00  0.00    -0.279 C  
HETATM   10  C   UNL     1      -8.002   9.290  70.929  1.00  0.00    -0.122 C  
HETATM   11  C   UNL     1      -8.817  14.588  67.752  1.00  0.00    -0.183 C  
HETATM   12  C   UNL     1     -11.304  12.311  68.636  1.00  0.00    -0.339 C  
HETATM   13  C   UNL     1     -10.748  16.591  67.256  1.00  0.00    -0.243 C  
HETATM   14  C   UNL     1     -12.119  11.575  69.725  1.00  0.00    -0.374 C  
HETATM   15  C   UNL     1     -11.659  10.128  69.978  1.00  0.00    -0.323 C  
HETATM   16  C   UNL     1      -8.663  13.024  68.082  1.00  0.00    -0.190 C  
HETATM   17  C   UNL     1      -9.721  12.146  68.884  1.00  0.00     0.102 C  
HETATM   18  C   UNL     1      -9.483  10.605  68.748  1.00  0.00    -0.186 C  
HETATM   19  C   UNL     1      -8.063  10.085  68.497  1.00  0.00    -0.103 C  
HETATM   20  C   UNL     1      -7.229   9.732  69.714  1.00  0.00    -0.105 C  
ENDROOT
BRANCH   5  21
HETATM   21  C   UNL     1     -10.080  14.032  65.617  1.00  0.00    -0.322 C  
HETATM   22  O   UNL     1      -9.678  15.039  65.031  1.00  0.00    -0.165 OA 
HETATM   23  C   UNL     1      -9.811  12.704  64.939  1.00  0.00    -0.078 C  
ENDBRANCH   5  21
BRANCH   5  24
HETATM   24  O   UNL     1     -12.151  14.654  66.205  1.00  0.00    -0.318 OA 
BRANCH  24  25
HETATM   25  C   UNL     1     -12.716  13.875  65.244  1.00  0.00    -0.449 C  
HETATM   26  C   UNL     1     -12.508  14.510  63.902  1.00  0.00     0.048 C  
HETATM   27  O   UNL     1     -13.362  12.860  65.454  1.00  0.00    -0.359 OA 
ENDBRANCH  24  25
ENDBRANCH   5  24
TORSDOF 3
ENDMDL
MODEL       45
REMARK 921   NORMALIZED FREE ENERGY PREDICTED BY IDOCK:   -4.15 KCAL/MOL
REMARK 922        TOTAL FREE ENERGY PREDICTED BY IDOCK:   -4.64 KCAL/MOL
REMARK 923 INTER-LIGAND FREE ENERGY PREDICTED BY IDOCK:   -5.21 KCAL/MOL
REMARK 924 INTRA-LIGAND FREE ENERGY PREDICTED BY IDOCK:    0.56 KCAL/MOL
REMARK 927      BINDING AFFINITY PREDICTED BY RF-SCORE:    0.00 PKD
ROOT
HETATM    1  C   UNL     1      -8.505  10.245  68.135  1.00  0.00    -0.123 C  
HETATM    2  C   UNL     1      -7.679  11.221  68.762  1.00  0.00    -0.138 C  
HETATM    3  C   UNL     1      -7.405   9.775  68.684  1.00  0.00    -0.074 C  
HETATM    4  C   UNL     1      -6.602   9.540  69.824  1.00  0.00    -0.051 C  
HETATM    5  C   UNL     1      -8.371   8.939  67.109  1.00  0.00    -0.103 C  
HETATM    6  C   UNL     1      -7.069   9.030  67.502  1.00  0.00    -0.076 C  
HETATM    7  C   UNL     1     -11.105   8.288  71.380  1.00  0.00    -0.302 C  
HETATM    8  O   UNL     1     -10.650   6.352  74.323  1.00  0.00    -0.257 OA 
HETATM    9  C   UNL     1     -11.159   7.920  72.668  1.00  0.00    -0.447 C  
HETATM   10  C   UNL     1     -10.704   6.586  73.116  1.00  0.00    -0.269 C  
HETATM   11  C   UNL     1      -6.939   7.480  68.232  1.00  0.00    -0.068 C  
HETATM   12  C   UNL     1      -9.712   9.414  69.078  1.00  0.00    -0.166 C  
HETATM   13  C   UNL     1      -5.956   9.523  66.546  1.00  0.00    -0.059 C  
HETATM   14  C   UNL     1     -10.432  10.361  70.067  1.00  0.00    -0.235 C  
HETATM   15  C   UNL     1     -11.510   9.669  70.920  1.00  0.00    -0.427 C  
HETATM   16  C   UNL     1      -8.219   7.056  69.105  1.00  0.00    -0.122 C  
HETATM   17  C   UNL     1      -9.221   8.069  69.815  1.00  0.00    -0.149 C  
HETATM   18  C   UNL     1     -10.554   7.398  70.288  1.00  0.00    -0.241 C  
HETATM   19  C   UNL     1     -10.555   5.909  70.653  1.00  0.00    -0.334 C  
HETATM   20  C   UNL     1     -10.293   5.550  72.103  1.00  0.00    -0.263 C  
ENDROOT
BRANCH   5  21
HETATM   21  C   UNL     1      -8.385   7.620  66.146  1.00  0.00    -0.134 C  
HETATM   22  O   UNL     1      -7.570   7.417  65.245  1.00  0.00    -0.086 OA 
HETATM   23  C   UNL     1      -9.514   6.618  66.275  1.00  0.00    -0.120 C  
ENDBRANCH   5  21
BRANCH   5  24
HETATM   24  O   UNL     1      -8.456   9.841  65.860  1.00  0.00    -0.124 OA 
BRANCH  24  25
HETATM   25  C   UNL     1      -9.689  10.263  65.473  1.00  0.00    -0.265 C  
HETATM   26  C   UNL     1      -9.766  10.269  63.975  1.00  0.00    -0.343 C  
HETATM   27  O   UNL     1     -10.567  10.655  66.227  1.00  0.00    -0.229 OA 
ENDBRANCH  24  25
ENDBRANCH   5  24
TORSDOF 3
ENDMDL
MODEL       46
REMARK 921   NORMALIZED FREE ENERGY PREDICTED BY IDOCK:   -4.15 KCAL/MOL
REMARK 922        TOTAL FREE ENERGY PREDICTED BY IDOCK:   -4.64 KCAL/MOL
REMARK 923 INTER-LIGAND FREE ENERGY PREDICTED BY IDOCK:   -5.06 KCAL/MOL
REMARK 924 INTRA-LIGAND FREE ENERGY PREDICTED BY IDOCK:    0.43 KCAL/MOL
REMARK 927      BINDING AFFINITY PREDICTED BY RF-SCORE:    0.00 PKD
ROOT
HETATM    1  C   UNL     1      -9.078  12.842  68.894  1.00  0.00     0.319 C  
HETATM    2  C   UNL     1      -7.739  12.840  69.380  1.00  0.00     0.631 C  
HETATM    3  C   UNL     1      -8.222  13.534  68.172  1.00  0.00    -0.162 C  
HETATM    4  C   UNL     1      -7.068  13.596  67.356  1.00  0.00    -0.097 C  
HETATM    5  C   UNL     1     -10.210  13.909  68.299  1.00  0.00    -0.247 C  
HETATM    6  C   UNL     1      -9.095  14.674  68.131  1.00  0.00    -0.187 C  
HETATM    7  C   UNL     1      -9.412   9.620  65.636  1.00  0.00    -0.318 C  
HETATM    8  O   UNL     1      -8.009   8.927  62.446  1.00  0.00    -0.126 OA 
HETATM    9  C   UNL     1      -8.757   8.975  64.658  1.00  0.00    -0.169 C  
HETATM   10  C   UNL     1      -8.735   9.483  63.270  1.00  0.00    -0.227 C  
HETATM   11  C   UNL     1      -9.183  14.839  66.422  1.00  0.00    -0.301 C  
HETATM   12  C   UNL     1      -9.569  11.635  67.738  1.00  0.00    -0.178 C  
HETATM   13  C   UNL     1      -8.812  15.918  69.007  1.00  0.00    -0.243 C  
HETATM   14  C   UNL     1      -8.980  10.242  68.064  1.00  0.00    -0.132 C  
HETATM   15  C   UNL     1      -9.391   9.143  67.069  1.00  0.00    -0.188 C  
HETATM   16  C   UNL     1      -9.596  13.491  65.654  1.00  0.00    -0.016 C  
HETATM   17  C   UNL     1      -9.340  12.014  66.189  1.00  0.00    -0.217 C  
HETATM   18  C   UNL     1     -10.151  10.921  65.416  1.00  0.00    -0.336 C  
HETATM   19  C   UNL     1     -10.536  11.169  63.953  1.00  0.00    -0.445 C  
HETATM   20  C   UNL     1      -9.572  10.677  62.890  1.00  0.00    -0.358 C  
ENDROOT
BRANCH   5  21
HETATM   21  C   UNL     1     -11.400  14.831  67.666  1.00  0.00    -0.339 C  
HETATM   22  O   UNL     1     -11.609  16.003  67.986  1.00  0.00    -0.265 OA 
HETATM   23  C   UNL     1     -12.388  14.209  66.700  1.00  0.00    -0.375 C  
ENDBRANCH   5  21
BRANCH   5  24
HETATM   24  O   UNL     1     -10.704  14.263  69.718  1.00  0.00    -0.093 OA 
BRANCH  24  25
HETATM   25  C   UNL     1     -11.821  13.632  70.170  1.00  0.00    -0.281 C  
HETATM   26  C   UNL     1     -12.579  14.553  71.079  1.00  0.00    -0.410 C  
HETATM   27  O   UNL     1     -12.114  12.469  69.937  1.00  0.00    -0.304 OA 
ENDBRANCH  24  25
ENDBRANCH   5  24
TORSDOF 3
ENDMDL
MODEL       47
REMARK 921   NORMALIZED FREE ENERGY PREDICTED BY IDOCK:   -4.13 KCAL/MOL
REMARK 922        TOTAL FREE ENERGY PREDICTED BY IDOCK:   -4.62 KCAL/MOL
REMARK 923 INTER-LIGAND FREE ENERGY PREDICTED BY IDOCK:   -4.96 KCAL/MOL
REMARK 924 INTRA-LIGAND FREE ENERGY PREDICTED BY IDOCK:    0.34 KCAL/MOL
REMARK 927      BINDING AFFINITY PREDICTED BY RF-SCORE:    0.00 PKD
ROOT
HETATM    1  C   UNL     1      -9.370   9.580  69.477  1.00  0.00    -0.199 C  
HETATM    2  C   UNL     1      -8.628   9.553  70.693  1.00  0.00    -0.178 C  
HETATM    3  C   UNL     1      -8.070   9.429  69.334  1.00  0.00    -0.105 C  
HETATM    4  C   UNL     1      -6.888   8.680  69.540  1.00  0.00    -0.044 C  
HETATM    5  C   UNL     1      -9.303  10.276  67.965  1.00  0.00    -0.138 C  
HETATM    6  C   UNL     1      -8.006  10.462  68.337  1.00  0.00    -0.110 C  
HETATM    7  C   UNL     1     -10.142   5.238  68.188  1.00  0.00    -0.211 C  
HETATM    8  O   UNL     1      -8.252   2.383  67.242  1.00  0.00    -0.070 OA 
HETATM    9  C   UNL     1      -9.656   3.988  68.195  1.00  0.00    -0.189 C  
HETATM   10  C   UNL     1      -8.777   3.488  67.116  1.00  0.00    -0.119 C  
HETATM   11  C   UNL     1      -7.272   9.535  67.088  1.00  0.00    -0.087 C  
HETATM   12  C   UNL     1      -9.943   8.083  68.794  1.00  0.00    -0.196 C  
HETATM   13  C   UNL     1      -7.443  11.861  68.684  1.00  0.00    -0.118 C  
HETATM   14  C   UNL     1     -10.471   7.112  69.876  1.00  0.00    -0.237 C  
HETATM   15  C   UNL     1     -10.992   5.777  69.315  1.00  0.00    -0.330 C  
HETATM   16  C   UNL     1      -8.031   8.158  66.762  1.00  0.00    -0.103 C  
HETATM   17  C   UNL     1      -8.928   7.338  67.790  1.00  0.00    -0.126 C  
HETATM   18  C   UNL     1      -9.817   6.245  67.108  1.00  0.00    -0.173 C  
HETATM   19  C   UNL     1      -9.345   5.606  65.796  1.00  0.00    -0.078 C  
HETATM   20  C   UNL     1      -8.517   4.340  65.900  1.00  0.00    -0.113 C  
ENDROOT
BRANCH   5  21
HETATM   21  C   UNL     1      -9.347  10.853  66.439  1.00  0.00    -0.176 C  
HETATM   22  O   UNL     1      -8.845  11.925  66.093  1.00  0.00    -0.166 OA 
HETATM   23  C   UNL     1     -10.130  10.102  65.381  1.00  0.00    -0.342 C  
ENDBRANCH   5  21
BRANCH   5  24
HETATM   24  O   UNL     1     -10.027  11.547  68.457  1.00  0.00    -0.196 OA 
BRANCH  24  25
HETATM   25  C   UNL     1     -11.367  11.631  68.243  1.00  0.00    -0.285 C  
HETATM   26  C   UNL     1     -11.723  13.035  67.858  1.00  0.00    -0.402 C  
HETATM   27  O   UNL     1     -12.164  10.722  68.419  1.00  0.00    -0.470 OA 
ENDBRANCH  24  25
ENDBRANCH   5  24
TORSDOF 3
ENDMDL
MODEL       48
REMARK 921   NORMALIZED FREE ENERGY PREDICTED BY IDOCK:   -4.13 KCAL/MOL
REMARK 922        TOTAL FREE ENERGY PREDICTED BY IDOCK:   -4.62 KCAL/MOL
REMARK 923 INTER-LIGAND FREE ENERGY PREDICTED BY IDOCK:   -4.96 KCAL/MOL
REMARK 924 INTRA-LIGAND FREE ENERGY PREDICTED BY IDOCK:    0.34 KCAL/MOL
REMARK 927      BINDING AFFINITY PREDICTED BY RF-SCORE:    0.00 PKD
ROOT
HETATM    1  C   UNL     1      -7.662   8.137  69.953  1.00  0.00    -0.098 C  
HETATM    2  C   UNL     1      -6.582   8.908  70.469  1.00  0.00    -0.049 C  
HETATM    3  C   UNL     1      -7.574   8.165  71.266  1.00  0.00    -0.084 C  
HETATM    4  C   UNL     1      -7.604   8.878  72.487  1.00  0.00     0.236 C  
HETATM    5  C   UNL     1      -8.388   6.656  70.184  1.00  0.00    -0.135 C  
HETATM    6  C   UNL     1      -7.702   6.736  71.358  1.00  0.00    -0.093 C  
HETATM    7  C   UNL     1     -11.438  10.756  70.030  1.00  0.00    -0.412 C  
HETATM    8  O   UNL     1     -13.461  12.411  72.435  1.00  0.00    -0.503 OA 
HETATM    9  C   UNL     1     -12.077  11.741  70.678  1.00  0.00    -0.407 C  
HETATM   10  C   UNL     1     -13.009  11.465  71.791  1.00  0.00    -0.414 C  
HETATM   11  C   UNL     1      -9.054   6.691  72.420  1.00  0.00    -0.139 C  
HETATM   12  C   UNL     1      -9.216   8.892  69.722  1.00  0.00    -0.167 C  
HETATM   13  C   UNL     1      -6.468   5.850  71.652  1.00  0.00    -0.050 C  
HETATM   14  C   UNL     1      -9.089  10.325  69.155  1.00  0.00    -0.199 C  
HETATM   15  C   UNL     1     -10.438  11.030  68.931  1.00  0.00    -0.229 C  
HETATM   16  C   UNL     1     -10.303   7.573  71.928  1.00  0.00    -0.226 C  
HETATM   17  C   UNL     1     -10.208   8.855  70.991  1.00  0.00    -0.322 C  
HETATM   18  C   UNL     1     -11.587   9.295  70.394  1.00  0.00    -0.215 C  
HETATM   19  C   UNL     1     -12.872   8.985  71.172  1.00  0.00    -0.215 C  
HETATM   20  C   UNL     1     -13.370  10.043  72.137  1.00  0.00    -0.469 C  
ENDROOT
BRANCH   5  21
HETATM   21  C   UNL     1      -9.220   5.258  70.326  1.00  0.00    -0.143 C  
HETATM   22  O   UNL     1      -8.726   4.199  70.719  1.00  0.00    -0.077 OA 
HETATM   23  C   UNL     1     -10.661   5.199  69.861  1.00  0.00    -0.196 C  
ENDBRANCH   5  21
BRANCH   5  24
HETATM   24  O   UNL     1      -7.406   5.962  69.216  1.00  0.00    -0.078 OA 
BRANCH  24  25
HETATM   25  C   UNL     1      -7.740   5.929  67.898  1.00  0.00    -0.100 C  
HETATM   26  C   UNL     1      -6.831   4.979  67.178  1.00  0.00    -0.056 C  
HETATM   27  O   UNL     1      -8.594   6.627  67.373  1.00  0.00    -0.119 OA 
ENDBRANCH  24  25
ENDBRANCH   5  24
TORSDOF 3
ENDMDL
MODEL       49
REMARK 921   NORMALIZED FREE ENERGY PREDICTED BY IDOCK:   -4.09 KCAL/MOL
REMARK 922        TOTAL FREE ENERGY PREDICTED BY IDOCK:   -4.57 KCAL/MOL
REMARK 923 INTER-LIGAND FREE ENERGY PREDICTED BY IDOCK:   -4.92 KCAL/MOL
REMARK 924 INTRA-LIGAND FREE ENERGY PREDICTED BY IDOCK:    0.35 KCAL/MOL
REMARK 927      BINDING AFFINITY PREDICTED BY RF-SCORE:    0.00 PKD
ROOT
HETATM    1  C   UNL     1      -8.593   9.530  69.562  1.00  0.00    -0.171 C  
HETATM    2  C   UNL     1      -7.402  10.132  70.061  1.00  0.00    -0.172 C  
HETATM    3  C   UNL     1      -7.483   8.872  69.300  1.00  0.00    -0.075 C  
HETATM    4  C   UNL     1      -6.342   8.161  69.737  1.00  0.00    -0.036 C  
HETATM    5  C   UNL     1      -9.167   8.815  68.172  1.00  0.00    -0.140 C  
HETATM    6  C   UNL     1      -7.832   8.730  67.913  1.00  0.00    -0.102 C  
HETATM    7  C   UNL     1      -9.928   6.322  72.570  1.00  0.00    -0.184 C  
HETATM    8  O   UNL     1      -8.682   3.285  73.926  1.00  0.00    -0.077 OA 
HETATM    9  C   UNL     1      -9.510   5.420  73.470  1.00  0.00    -0.138 C  
HETATM   10  C   UNL     1      -9.188   4.030  73.088  1.00  0.00    -0.109 C  
HETATM   11  C   UNL     1      -7.722   7.017  67.819  1.00  0.00    -0.112 C  
HETATM   12  C   UNL     1      -9.433   8.360  70.543  1.00  0.00    -0.186 C  
HETATM   13  C   UNL     1      -7.147   9.602  66.833  1.00  0.00    -0.086 C  
HETATM   14  C   UNL     1      -9.466   8.766  72.035  1.00  0.00    -0.336 C  
HETATM   15  C   UNL     1     -10.202   7.761  72.939  1.00  0.00    -0.377 C  
HETATM   16  C   UNL     1      -8.575   6.243  68.939  1.00  0.00    -0.125 C  
HETATM   17  C   UNL     1      -8.960   6.830  70.367  1.00  0.00    -0.152 C  
HETATM   18  C   UNL     1     -10.077   6.011  71.097  1.00  0.00    -0.241 C  
HETATM   19  C   UNL     1     -10.225   4.515  70.798  1.00  0.00    -0.164 C  
HETATM   20  C   UNL     1      -9.457   3.552  71.683  1.00  0.00    -0.217 C  
ENDROOT
BRANCH   5  21
HETATM   21  C   UNL     1      -9.848   8.059  66.895  1.00  0.00    -0.248 C  
HETATM   22  O   UNL     1      -9.557   8.293  65.720  1.00  0.00    -0.080 OA 
HETATM   23  C   UNL     1     -10.981   7.080  67.128  1.00  0.00    -0.393 C  
ENDBRANCH   5  21
BRANCH   5  24
HETATM   24  O   UNL     1      -9.584  10.177  67.578  1.00  0.00    -0.153 OA 
BRANCH  24  25
HETATM   25  C   UNL     1     -10.864  10.587  67.785  1.00  0.00    -0.294 C  
HETATM   26  C   UNL     1     -11.234  11.606  66.749  1.00  0.00    -0.371 C  
HETATM   27  O   UNL     1     -11.570  10.241  68.720  1.00  0.00    -0.177 OA 
ENDBRANCH  24  25
ENDBRANCH   5  24
TORSDOF 3
ENDMDL
MODEL       50
REMARK 921   NORMALIZED FREE ENERGY PREDICTED BY IDOCK:   -4.03 KCAL/MOL
REMARK 922        TOTAL FREE ENERGY PREDICTED BY IDOCK:   -4.50 KCAL/MOL
REMARK 923 INTER-LIGAND FREE ENERGY PREDICTED BY IDOCK:   -4.69 KCAL/MOL
REMARK 924 INTRA-LIGAND FREE ENERGY PREDICTED BY IDOCK:    0.19 KCAL/MOL
REMARK 927      BINDING AFFINITY PREDICTED BY RF-SCORE:    0.00 PKD
ROOT
HETATM    1  C   UNL     1      -9.603   6.750  69.020  1.00  0.00    -0.135 C  
HETATM    2  C   UNL     1     -10.828   6.807  68.296  1.00  0.00    -0.290 C  
HETATM    3  C   UNL     1     -10.624   7.241  69.690  1.00  0.00    -0.246 C  
HETATM    4  C   UNL     1     -11.908   7.088  70.264  1.00  0.00    -0.243 C  
HETATM    5  C   UNL     1      -8.679   7.702  70.026  1.00  0.00    -0.142 C  
HETATM    6  C   UNL     1      -9.859   8.375  70.130  1.00  0.00    -0.183 C  
HETATM    7  C   UNL     1      -9.627   2.916  71.553  1.00  0.00    -0.225 C  
HETATM    8  O   UNL     1     -11.527   1.508  74.203  1.00  0.00    -0.137 OA 
HETATM    9  C   UNL     1     -10.398   2.055  72.233  1.00  0.00    -0.199 C  
HETATM   10  C   UNL     1     -10.708   2.252  73.665  1.00  0.00    -0.164 C  
HETATM   11  C   UNL     1     -10.094   8.172  71.821  1.00  0.00    -0.267 C  
HETATM   12  C   UNL     1      -9.242   5.339  69.977  1.00  0.00    -0.180 C  
HETATM   13  C   UNL     1     -10.070   9.767  69.489  1.00  0.00    -0.233 C  
HETATM   14  C   UNL     1      -9.657   4.030  69.266  1.00  0.00    -0.247 C  
HETATM   15  C   UNL     1      -9.353   2.757  70.076  1.00  0.00    -0.202 C  
HETATM   16  C   UNL     1      -9.728   6.705  72.362  1.00  0.00    -0.162 C  
HETATM   17  C   UNL     1      -9.774   5.370  71.497  1.00  0.00    -0.209 C  
HETATM   18  C   UNL     1      -9.037   4.164  72.171  1.00  0.00    -0.156 C  
HETATM   19  C   UNL     1      -8.943   4.105  73.700  1.00  0.00    -0.092 C  
HETATM   20  C   UNL     1     -10.044   3.364  74.435  1.00  0.00    -0.203 C  
ENDROOT
BRANCH   5  21
HETATM   21  C   UNL     1      -7.694   8.505  71.052  1.00  0.00    -0.097 C  
HETATM   22  O   UNL     1      -7.547   9.729  71.049  1.00  0.00    -0.311 OA 
HETATM   23  C   UNL     1      -6.818   7.722  72.008  1.00  0.00    -0.062 C  
ENDBRANCH   5  21
BRANCH   5  24
HETATM   24  O   UNL     1      -7.964   8.368  68.832  1.00  0.00    -0.111 OA 
BRANCH  24  25
HETATM   25  C   UNL     1      -7.075   7.615  68.132  1.00  0.00    -0.081 C  
HETATM   26  C   UNL     1      -7.400   7.691  66.670  1.00  0.00    -0.088 C  
HETATM   27  O   UNL     1      -6.200   6.920  68.626  1.00  0.00    -0.025 OA 
ENDBRANCH  24  25
ENDBRANCH   5  24
TORSDOF 3
ENDMDL
MODEL       51
REMARK 921   NORMALIZED FREE ENERGY PREDICTED BY IDOCK:   -4.01 KCAL/MOL
REMARK 922        TOTAL FREE ENERGY PREDICTED BY IDOCK:   -4.47 KCAL/MOL
REMARK 923 INTER-LIGAND FREE ENERGY PREDICTED BY IDOCK:   -5.52 KCAL/MOL
REMARK 924 INTRA-LIGAND FREE ENERGY PREDICTED BY IDOCK:    1.04 KCAL/MOL
REMARK 927      BINDING AFFINITY PREDICTED BY RF-SCORE:    0.00 PKD
ROOT
HETATM    1  C   UNL     1      -9.322  12.619  68.366  1.00  0.00    -0.148 C  
HETATM    2  C   UNL     1      -7.975  13.051  68.533  1.00  0.00    -0.090 C  
HETATM    3  C   UNL     1      -8.559  12.493  67.300  1.00  0.00    -0.191 C  
HETATM    4  C   UNL     1      -7.442  11.922  66.647  1.00  0.00     0.059 C  
HETATM    5  C   UNL     1     -10.570  12.752  67.270  1.00  0.00    -0.233 C  
HETATM    6  C   UNL     1      -9.540  13.120  66.458  1.00  0.00    -0.268 C  
HETATM    7  C   UNL     1      -9.439   8.065  68.971  1.00  0.00    -0.151 C  
HETATM    8  O   UNL     1      -8.073   5.159  67.453  1.00  0.00    -0.100 OA 
HETATM    9  C   UNL     1      -8.755   6.921  68.825  1.00  0.00    -0.129 C  
HETATM   10  C   UNL     1      -8.824   6.125  67.582  1.00  0.00    -0.103 C  
HETATM   11  C   UNL     1      -9.695  11.858  65.301  1.00  0.00    -0.214 C  
HETATM   12  C   UNL     1      -9.727  10.951  68.666  1.00  0.00    -0.188 C  
HETATM   13  C   UNL     1      -9.353  14.579  65.978  1.00  0.00    -0.196 C  
HETATM   14  C   UNL     1      -8.997  10.388  69.908  1.00  0.00     0.132 C  
HETATM   15  C   UNL     1      -9.329   8.917  70.214  1.00  0.00    -0.208 C  
HETATM   16  C   UNL     1      -9.998  10.416  65.941  1.00  0.00    -0.317 C  
HETATM   17  C   UNL     1      -9.583   9.957  67.407  1.00  0.00    -0.185 C  
HETATM   18  C   UNL     1     -10.307   8.653  67.881  1.00  0.00    -0.286 C  
HETATM   19  C   UNL     1     -10.758   7.625  66.836  1.00  0.00    -0.271 C  
HETATM   20  C   UNL     1      -9.784   6.516  66.488  1.00  0.00    -0.177 C  
ENDROOT
BRANCH   5  21
HETATM   21  C   UNL     1     -11.863  12.764  66.273  1.00  0.00    -0.423 C  
HETATM   22  O   UNL     1     -12.359  11.751  65.776  1.00  0.00    -0.187 OA 
HETATM   23  C   UNL     1     -12.448  14.089  65.831  1.00  0.00    -0.513 C  
ENDBRANCH   5  21
BRANCH   5  24
HETATM   24  O   UNL     1     -11.053  14.077  67.898  1.00  0.00    -0.244 OA 
BRANCH  24  25
HETATM   25  C   UNL     1     -11.544  14.030  69.165  1.00  0.00    -0.313 C  
HETATM   26  C   UNL     1     -11.074  15.235  69.925  1.00  0.00    -0.303 C  
HETATM   27  O   UNL     1     -12.196  13.109  69.632  1.00  0.00    -0.270 OA 
ENDBRANCH  24  25
ENDBRANCH   5  24
TORSDOF 3
ENDMDL
MODEL       52
REMARK 921   NORMALIZED FREE ENERGY PREDICTED BY IDOCK:   -3.98 KCAL/MOL
REMARK 922        TOTAL FREE ENERGY PREDICTED BY IDOCK:   -4.44 KCAL/MOL
REMARK 923 INTER-LIGAND FREE ENERGY PREDICTED BY IDOCK:   -5.02 KCAL/MOL
REMARK 924 INTRA-LIGAND FREE ENERGY PREDICTED BY IDOCK:    0.58 KCAL/MOL
REMARK 927      BINDING AFFINITY PREDICTED BY RF-SCORE:    0.00 PKD
ROOT
HETATM    1  C   UNL     1      -9.127   7.714  71.241  1.00  0.00    -0.146 C  
HETATM    2  C   UNL     1      -9.824   8.447  72.244  1.00  0.00    -0.383 C  
HETATM    3  C   UNL     1     -10.436   7.749  71.099  1.00  0.00    -0.227 C  
HETATM    4  C   UNL     1     -11.632   8.473  70.886  1.00  0.00    -0.295 C  
HETATM    5  C   UNL     1      -9.230   6.264  70.429  1.00  0.00    -0.154 C  
HETATM    6  C   UNL     1     -10.506   6.327  70.902  1.00  0.00    -0.274 C  
HETATM    7  C   UNL     1      -8.540  10.477  67.616  1.00  0.00    -0.118 C  
HETATM    8  O   UNL     1     -10.552  12.228  65.271  1.00  0.00    -0.270 OA 
HETATM    9  C   UNL     1      -9.065  11.492  66.913  1.00  0.00    -0.181 C  
HETATM   10  C   UNL     1      -9.998  11.261  65.791  1.00  0.00    -0.237 C  
HETATM   11  C   UNL     1     -11.314   6.343  69.385  1.00  0.00    -0.443 C  
HETATM   12  C   UNL     1      -8.627   8.527  69.783  1.00  0.00    -0.131 C  
HETATM   13  C   UNL     1     -11.011   5.397  72.030  1.00  0.00    -0.244 C  
HETATM   14  C   UNL     1      -8.089   9.950  70.063  1.00  0.00    -0.193 C  
HETATM   15  C   UNL     1      -7.632  10.704  68.802  1.00  0.00    -0.109 C  
HETATM   16  C   UNL     1     -10.612   7.269  68.276  1.00  0.00    -0.217 C  
HETATM   17  C   UNL     1      -9.703   8.539  68.584  1.00  0.00    -0.171 C  
HETATM   18  C   UNL     1      -8.874   9.026  67.348  1.00  0.00    -0.125 C  
HETATM   19  C   UNL     1      -9.416   8.773  65.936  1.00  0.00    -0.278 C  
HETATM   20  C   UNL     1     -10.278   9.857  65.319  1.00  0.00    -0.095 C  
ENDROOT
BRANCH   5  21
HETATM   21  C   UNL     1      -9.226   4.900  69.530  1.00  0.00    -0.119 C  
HETATM   22  O   UNL     1      -9.632   3.809  69.933  1.00  0.00    -0.187 OA 
HETATM   23  C   UNL     1      -8.600   4.921  68.150  1.00  0.00    -0.104 C  
ENDBRANCH   5  21
BRANCH   5  24
HETATM   24  O   UNL     1      -8.449   5.525  71.536  1.00  0.00    -0.124 OA 
BRANCH  24  25
HETATM   25  C   UNL     1      -7.217   6.000  71.861  1.00  0.00    -0.092 C  
HETATM   26  C   UNL     1      -6.231   5.587  70.810  1.00  0.00    -0.030 C  
HETATM   27  O   UNL     1      -6.945   6.599  72.891  1.00  0.00    -0.075 OA 
ENDBRANCH  24  25
ENDBRANCH   5  24
TORSDOF 3
ENDMDL
MODEL       53
REMARK 921   NORMALIZED FREE ENERGY PREDICTED BY IDOCK:   -3.98 KCAL/MOL
REMARK 922        TOTAL FREE ENERGY PREDICTED BY IDOCK:   -4.44 KCAL/MOL
REMARK 923 INTER-LIGAND FREE ENERGY PREDICTED BY IDOCK:   -4.76 KCAL/MOL
REMARK 924 INTRA-LIGAND FREE ENERGY PREDICTED BY IDOCK:    0.32 KCAL/MOL
REMARK 927      BINDING AFFINITY PREDICTED BY RF-SCORE:    0.00 PKD
ROOT
HETATM    1  C   UNL     1      -8.195   6.217  69.878  1.00  0.00    -0.121 C  
HETATM    2  C   UNL     1      -7.076   5.779  69.114  1.00  0.00    -0.065 C  
HETATM    3  C   UNL     1      -7.130   6.988  69.955  1.00  0.00    -0.070 C  
HETATM    4  C   UNL     1      -6.184   7.845  69.345  1.00  0.00    -0.034 C  
HETATM    5  C   UNL     1      -8.542   6.803  71.398  1.00  0.00    -0.124 C  
HETATM    6  C   UNL     1      -7.199   7.031  71.389  1.00  0.00    -0.078 C  
HETATM    7  C   UNL     1     -10.449   9.371  67.410  1.00  0.00    -0.343 C  
HETATM    8  O   UNL     1      -9.834  12.586  66.030  1.00  0.00    -0.254 OA 
HETATM    9  C   UNL     1     -10.322  10.352  66.504  1.00  0.00    -0.287 C  
HETATM   10  C   UNL     1     -10.077  11.754  66.903  1.00  0.00    -0.207 C  
HETATM   11  C   UNL     1      -7.253   8.739  71.569  1.00  0.00    -0.107 C  
HETATM   12  C   UNL     1      -9.337   7.322  69.161  1.00  0.00    -0.146 C  
HETATM   13  C   UNL     1      -6.220   6.200  72.252  1.00  0.00    -0.045 C  
HETATM   14  C   UNL     1      -9.633   6.978  67.683  1.00  0.00    -0.151 C  
HETATM   15  C   UNL     1     -10.640   7.927  67.011  1.00  0.00    -0.381 C  
HETATM   16  C   UNL     1      -8.394   9.455  70.695  1.00  0.00    -0.217 C  
HETATM   17  C   UNL     1      -9.001   8.888  69.337  1.00  0.00    -0.145 C  
HETATM   18  C   UNL     1     -10.324   9.601  68.900  1.00  0.00    -0.220 C  
HETATM   19  C   UNL     1     -10.564  11.057  69.317  1.00  0.00    -0.236 C  
HETATM   20  C   UNL     1     -10.100  12.138  68.361  1.00  0.00    -0.210 C  
ENDROOT
BRANCH   5  21
HETATM   21  C   UNL     1      -9.023   7.420  72.831  1.00  0.00    -0.141 C  
HETATM   22  O   UNL     1      -8.372   7.328  73.874  1.00  0.00    -0.129 OA 
HETATM   23  C   UNL     1     -10.391   8.062  72.943  1.00  0.00    -0.397 C  
ENDBRANCH   5  21
BRANCH   5  24
HETATM   24  O   UNL     1      -8.684   5.378  71.974  1.00  0.00    -0.129 OA 
BRANCH  24  25
HETATM   25  C   UNL     1      -9.786   4.664  71.623  1.00  0.00    -0.187 C  
HETATM   26  C   UNL     1      -9.367   3.453  70.844  1.00  0.00    -0.219 C  
HETATM   27  O   UNL     1     -10.940   5.003  71.837  1.00  0.00    -0.115 OA 
ENDBRANCH  24  25
ENDBRANCH   5  24
TORSDOF 3
ENDMDL
MODEL       54
REMARK 921   NORMALIZED FREE ENERGY PREDICTED BY IDOCK:   -3.96 KCAL/MOL
REMARK 922        TOTAL FREE ENERGY PREDICTED BY IDOCK:   -4.42 KCAL/MOL
REMARK 923 INTER-LIGAND FREE ENERGY PREDICTED BY IDOCK:   -5.35 KCAL/MOL
REMARK 924 INTRA-LIGAND FREE ENERGY PREDICTED BY IDOCK:    0.93 KCAL/MOL
REMARK 927      BINDING AFFINITY PREDICTED BY RF-SCORE:    0.00 PKD
ROOT
HETATM    1  C   UNL     1     -11.142  13.436  66.909  1.00  0.00    -0.309 C  
HETATM    2  C   UNL     1     -12.156  12.676  67.560  1.00  0.00    -0.170 C  
HETATM    3  C   UNL     1     -11.031  13.364  68.219  1.00  0.00    -0.282 C  
HETATM    4  C   UNL     1     -10.840  12.607  69.398  1.00  0.00     0.044 C  
HETATM    5  C   UNL     1     -10.343  14.888  67.073  1.00  0.00    -0.264 C  
HETATM    6  C   UNL     1     -10.846  14.784  68.335  1.00  0.00    -0.248 C  
HETATM    7  C   UNL     1      -7.483  10.716  66.329  1.00  0.00    -0.137 C  
HETATM    8  O   UNL     1      -5.174   8.923  68.344  1.00  0.00    -0.033 OA 
HETATM    9  C   UNL     1      -6.786   9.692  66.840  1.00  0.00    -0.075 C  
HETATM   10  C   UNL     1      -5.688   9.903  67.807  1.00  0.00    -0.039 C  
HETATM   11  C   UNL     1      -9.348  14.755  69.179  1.00  0.00    -0.102 C  
HETATM   12  C   UNL     1      -9.666  12.648  66.421  1.00  0.00    -0.259 C  
HETATM   13  C   UNL     1     -11.992  15.692  68.841  1.00  0.00    -0.298 C  
HETATM   14  C   UNL     1      -9.923  11.240  65.835  1.00  0.00    -0.277 C  
HETATM   15  C   UNL     1      -8.646  10.509  65.386  1.00  0.00    -0.188 C  
HETATM   16  C   UNL     1      -8.217  13.858  68.477  1.00  0.00    -0.131 C  
HETATM   17  C   UNL     1      -8.493  12.613  67.524  1.00  0.00    -0.176 C  
HETATM   18  C   UNL     1      -7.234  12.158  66.712  1.00  0.00     0.090 C  
HETATM   19  C   UNL     1      -5.838  12.406  67.294  1.00  0.00    -0.125 C  
HETATM   20  C   UNL     1      -5.233  11.301  68.138  1.00  0.00    -0.042 C  
ENDROOT
BRANCH   5  21
HETATM   21  C   UNL     1      -9.454  16.257  67.131  1.00  0.00    -0.224 C  
HETATM   22  O   UNL     1      -9.854  17.318  67.617  1.00  0.00    -0.266 OA 
HETATM   23  C   UNL     1      -8.093  16.289  66.467  1.00  0.00    -0.337 C  
ENDBRANCH   5  21
BRANCH   5  24
HETATM   24  O   UNL     1     -11.437  15.642  66.288  1.00  0.00    -0.034 OA 
BRANCH  24  25
HETATM   25  C   UNL     1     -11.371  15.612  64.931  1.00  0.00    -0.315 C  
HETATM   26  C   UNL     1     -11.993  14.342  64.430  1.00  0.00    -0.471 C  
HETATM   27  O   UNL     1     -10.816  16.450  64.236  1.00  0.00    -0.681 OA 
ENDBRANCH  24  25
ENDBRANCH   5  24
TORSDOF 3
ENDMDL
MODEL       55
REMARK 921   NORMALIZED FREE ENERGY PREDICTED BY IDOCK:   -3.84 KCAL/MOL
REMARK 922        TOTAL FREE ENERGY PREDICTED BY IDOCK:   -4.28 KCAL/MOL
REMARK 923 INTER-LIGAND FREE ENERGY PREDICTED BY IDOCK:   -4.63 KCAL/MOL
REMARK 924 INTRA-LIGAND FREE ENERGY PREDICTED BY IDOCK:    0.35 KCAL/MOL
REMARK 927      BINDING AFFINITY PREDICTED BY RF-SCORE:    0.00 PKD
ROOT
HETATM    1  C   UNL     1      -7.706   6.471  70.287  1.00  0.00    -0.098 C  
HETATM    2  C   UNL     1      -6.300   6.620  70.460  1.00  0.00    -0.043 C  
HETATM    3  C   UNL     1      -7.303   7.696  70.553  1.00  0.00    -0.074 C  
HETATM    4  C   UNL     1      -6.566   8.851  70.205  1.00  0.00    -0.042 C  
HETATM    5  C   UNL     1      -9.130   6.945  71.010  1.00  0.00    -0.155 C  
HETATM    6  C   UNL     1      -8.294   7.856  71.581  1.00  0.00    -0.137 C  
HETATM    7  C   UNL     1      -8.734   7.618  65.957  1.00  0.00    -0.178 C  
HETATM    8  O   UNL     1      -8.544  10.480  63.862  1.00  0.00    -0.171 OA 
HETATM    9  C   UNL     1      -8.403   8.404  64.922  1.00  0.00    -0.159 C  
HETATM   10  C   UNL     1      -8.983   9.752  64.752  1.00  0.00    -0.225 C  
HETATM   11  C   UNL     1      -9.043   9.275  70.965  1.00  0.00    -0.253 C  
HETATM   12  C   UNL     1      -8.401   6.700  68.706  1.00  0.00    -0.120 C  
HETATM   13  C   UNL     1      -7.900   7.785  73.076  1.00  0.00    -0.156 C  
HETATM   14  C   UNL     1      -7.524   6.086  67.589  1.00  0.00    -0.078 C  
HETATM   15  C   UNL     1      -8.102   6.262  66.174  1.00  0.00    -0.116 C  
HETATM   16  C   UNL     1      -9.498   9.162  69.429  1.00  0.00    -0.161 C  
HETATM   17  C   UNL     1      -8.833   8.209  68.342  1.00  0.00    -0.133 C  
HETATM   18  C   UNL     1      -9.694   8.045  67.045  1.00  0.00    -0.275 C  
HETATM   19  C   UNL     1     -10.634   9.180  66.622  1.00  0.00    -0.157 C  
HETATM   20  C   UNL     1     -10.077  10.225  65.675  1.00  0.00    -0.341 C  
ENDROOT
BRANCH   5  21
HETATM   21  C   UNL     1     -10.599   7.364  71.587  1.00  0.00    -0.205 C  
HETATM   22  O   UNL     1     -10.805   7.736  72.744  1.00  0.00    -0.317 OA 
HETATM   23  C   UNL     1     -11.819   7.201  70.703  1.00  0.00    -0.334 C  
ENDBRANCH   5  21
BRANCH   5  24
HETATM   24  O   UNL     1      -9.103   5.743  71.978  1.00  0.00    -0.138 OA 
BRANCH  24  25
HETATM   25  C   UNL     1      -9.607   4.563  71.529  1.00  0.00    -0.163 C  
HETATM   26  C   UNL     1      -9.607   3.564  72.648  1.00  0.00    -0.190 C  
HETATM   27  O   UNL     1      -9.930   4.331  70.374  1.00  0.00    -0.211 OA 
ENDBRANCH  24  25
ENDBRANCH   5  24
TORSDOF 3
ENDMDL
MODEL       56
REMARK 921   NORMALIZED FREE ENERGY PREDICTED BY IDOCK:   -3.82 KCAL/MOL
REMARK 922        TOTAL FREE ENERGY PREDICTED BY IDOCK:   -4.26 KCAL/MOL
REMARK 923 INTER-LIGAND FREE ENERGY PREDICTED BY IDOCK:   -4.43 KCAL/MOL
REMARK 924 INTRA-LIGAND FREE ENERGY PREDICTED BY IDOCK:    0.17 KCAL/MOL
REMARK 927      BINDING AFFINITY PREDICTED BY RF-SCORE:    0.00 PKD
ROOT
HETATM    1  C   UNL     1      -8.645   5.003  67.937  1.00  0.00    -0.103 C  
HETATM    2  C   UNL     1      -9.666   4.142  67.444  1.00  0.00    -0.202 C  
HETATM    3  C   UNL     1      -9.425   5.532  67.017  1.00  0.00    -0.133 C  
HETATM    4  C   UNL     1     -10.701   5.960  66.584  1.00  0.00    -0.323 C  
HETATM    5  C   UNL     1      -7.502   6.072  67.367  1.00  0.00    -0.081 C  
HETATM    6  C   UNL     1      -8.300   6.013  66.264  1.00  0.00    -0.122 C  
HETATM    7  C   UNL     1     -10.486   7.664  71.201  1.00  0.00    -0.220 C  
HETATM    8  O   UNL     1     -13.027  10.130  71.482  1.00  0.00    -0.374 OA 
HETATM    9  C   UNL     1     -11.602   8.284  71.610  1.00  0.00    -0.337 C  
HETATM   10  C   UNL     1     -11.928   9.662  71.186  1.00  0.00    -0.367 C  
HETATM   11  C   UNL     1      -8.746   7.672  66.212  1.00  0.00    -0.170 C  
HETATM   12  C   UNL     1      -8.990   6.050  69.287  1.00  0.00    -0.122 C  
HETATM   13  C   UNL     1      -7.855   5.298  64.965  1.00  0.00    -0.098 C  
HETATM   14  C   UNL     1      -9.848   5.348  70.366  1.00  0.00    -0.270 C  
HETATM   15  C   UNL     1     -10.173   6.235  71.580  1.00  0.00    -0.233 C  
HETATM   16  C   UNL     1      -9.074   8.308  67.650  1.00  0.00    -0.139 C  
HETATM   17  C   UNL     1      -9.594   7.496  68.915  1.00  0.00    -0.149 C  
HETATM   18  C   UNL     1      -9.488   8.297  70.257  1.00  0.00    -0.164 C  
HETATM   19  C   UNL     1      -9.563   9.828  70.222  1.00  0.00    -0.264 C  
HETATM   20  C   UNL     1     -10.932  10.459  70.384  1.00  0.00    -0.320 C  
ENDROOT
BRANCH   5  21
HETATM   21  C   UNL     1      -6.367   7.172  66.955  1.00  0.00    -0.053 C  
HETATM   22  O   UNL     1      -5.877   7.267  65.828  1.00  0.00    -0.035 OA 
HETATM   23  C   UNL     1      -5.788   8.077  68.022  1.00  0.00    -0.041 C  
ENDBRANCH   5  21
BRANCH   5  24
HETATM   24  O   UNL     1      -6.472   4.943  67.153  1.00  0.00    -0.045 OA 
BRANCH  24  25
HETATM   25  C   UNL     1      -5.960   4.342  68.260  1.00  0.00    -0.027 C  
HETATM   26  C   UNL     1      -6.212   2.866  68.187  1.00  0.00    -0.028 C  
HETATM   27  O   UNL     1      -5.448   4.926  69.203  1.00  0.00    -0.007 OA 
ENDBRANCH  24  25
ENDBRANCH   5  24
TORSDOF 3
ENDMDL
MODEL       57
REMARK 921   NORMALIZED FREE ENERGY PREDICTED BY IDOCK:   -3.78 KCAL/MOL
REMARK 922        TOTAL FREE ENERGY PREDICTED BY IDOCK:   -4.21 KCAL/MOL
REMARK 923 INTER-LIGAND FREE ENERGY PREDICTED BY IDOCK:   -4.34 KCAL/MOL
REMARK 924 INTRA-LIGAND FREE ENERGY PREDICTED BY IDOCK:    0.13 KCAL/MOL
REMARK 927      BINDING AFFINITY PREDICTED BY RF-SCORE:    0.00 PKD
ROOT
HETATM    1  C   UNL     1      -9.773   9.094  66.771  1.00  0.00    -0.271 C  
HETATM    2  C   UNL     1     -10.774   9.519  67.689  1.00  0.00    -0.314 C  
HETATM    3  C   UNL     1      -9.354   9.280  68.005  1.00  0.00    -0.145 C  
HETATM    4  C   UNL     1      -9.384   8.943  69.378  1.00  0.00    -0.153 C  
HETATM    5  C   UNL     1      -8.204   9.458  66.345  1.00  0.00    -0.111 C  
HETATM    6  C   UNL     1      -8.235  10.066  67.564  1.00  0.00    -0.114 C  
HETATM    7  C   UNL     1      -9.320   4.538  67.174  1.00  0.00    -0.163 C  
HETATM    8  O   UNL     1      -8.372   2.184  69.659  1.00  0.00    -0.044 OA 
HETATM    9  C   UNL     1      -9.389   3.499  68.020  1.00  0.00    -0.237 C  
HETATM   10  C   UNL     1      -8.217   3.053  68.802  1.00  0.00    -0.060 C  
HETATM   11  C   UNL     1      -6.993   9.143  68.314  1.00  0.00    -0.076 C  
HETATM   12  C   UNL     1      -9.457   7.390  66.581  1.00  0.00    -0.240 C  
HETATM   13  C   UNL     1      -8.243  11.606  67.715  1.00  0.00    -0.141 C  
HETATM   14  C   UNL     1     -10.757   6.552  66.585  1.00  0.00    -0.243 C  
HETATM   15  C   UNL     1     -10.526   5.041  66.415  1.00  0.00    -0.349 C  
HETATM   16  C   UNL     1      -7.048   7.574  67.977  1.00  0.00    -0.084 C  
HETATM   17  C   UNL     1      -8.360   6.765  67.581  1.00  0.00    -0.123 C  
HETATM   18  C   UNL     1      -8.063   5.355  66.970  1.00  0.00    -0.101 C  
HETATM   19  C   UNL     1      -6.781   4.618  67.375  1.00  0.00    -0.051 C  
HETATM   20  C   UNL     1      -6.867   3.677  68.561  1.00  0.00    -0.046 C  
ENDROOT
BRANCH   5  21
HETATM   21  C   UNL     1      -6.663   9.679  65.851  1.00  0.00    -0.084 C  
HETATM   22  O   UNL     1      -6.065  10.754  65.919  1.00  0.00    -0.124 OA 
HETATM   23  C   UNL     1      -5.931   8.541  65.170  1.00  0.00    -0.048 C  
ENDBRANCH   5  21
BRANCH   5  24
HETATM   24  O   UNL     1      -8.667  10.554  65.362  1.00  0.00    -0.172 OA 
BRANCH  24  25
HETATM   25  C   UNL     1      -9.266  10.152  64.209  1.00  0.00    -0.266 C  
HETATM   26  C   UNL     1     -10.516  10.952  63.992  1.00  0.00    -0.379 C  
HETATM   27  O   UNL     1      -8.888   9.227  63.506  1.00  0.00    -0.205 OA 
ENDBRANCH  24  25
ENDBRANCH   5  24
TORSDOF 3
ENDMDL
MODEL       58
REMARK 921   NORMALIZED FREE ENERGY PREDICTED BY IDOCK:   -3.74 KCAL/MOL
REMARK 922        TOTAL FREE ENERGY PREDICTED BY IDOCK:   -4.16 KCAL/MOL
REMARK 923 INTER-LIGAND FREE ENERGY PREDICTED BY IDOCK:   -4.55 KCAL/MOL
REMARK 924 INTRA-LIGAND FREE ENERGY PREDICTED BY IDOCK:    0.39 KCAL/MOL
REMARK 927      BINDING AFFINITY PREDICTED BY RF-SCORE:    0.00 PKD
ROOT
HETATM    1  C   UNL     1      -8.881   6.283  67.073  1.00  0.00    -0.108 C  
HETATM    2  C   UNL     1      -8.396   7.613  66.917  1.00  0.00    -0.124 C  
HETATM    3  C   UNL     1      -7.731   6.531  67.665  1.00  0.00    -0.106 C  
HETATM    4  C   UNL     1      -6.969   7.231  68.630  1.00  0.00    -0.082 C  
HETATM    5  C   UNL     1      -8.328   4.714  66.994  1.00  0.00    -0.105 C  
HETATM    6  C   UNL     1      -7.129   5.350  67.110  1.00  0.00    -0.070 C  
HETATM    7  C   UNL     1     -11.047   6.029  71.118  1.00  0.00    -0.336 C  
HETATM    8  O   UNL     1     -10.269   6.401  74.564  1.00  0.00    -0.342 OA 
HETATM    9  C   UNL     1     -11.080   6.493  72.376  1.00  0.00    -0.293 C  
HETATM   10  C   UNL     1     -10.307   5.855  73.462  1.00  0.00    -0.243 C  
HETATM   11  C   UNL     1      -6.626   4.628  68.587  1.00  0.00    -0.045 C  
HETATM   12  C   UNL     1      -9.871   5.893  68.453  1.00  0.00    -0.163 C  
HETATM   13  C   UNL     1      -6.134   5.451  65.929  1.00  0.00    -0.033 C  
HETATM   14  C   UNL     1     -10.885   7.014  68.779  1.00  0.00    -0.198 C  
HETATM   15  C   UNL     1     -11.785   6.710  69.989  1.00  0.00    -0.378 C  
HETATM   16  C   UNL     1      -7.794   4.489  69.680  1.00  0.00    -0.058 C  
HETATM   17  C   UNL     1      -9.078   5.424  69.775  1.00  0.00    -0.157 C  
HETATM   18  C   UNL     1     -10.204   4.846  70.696  1.00  0.00    -0.282 C  
HETATM   19  C   UNL     1      -9.820   3.921  71.857  1.00  0.00    -0.248 C  
HETATM   20  C   UNL     1      -9.563   4.570  73.204  1.00  0.00    -0.151 C  
ENDROOT
BRANCH   5  21
HETATM   21  C   UNL     1      -7.919   3.133  66.988  1.00  0.00    -0.079 C  
HETATM   22  O   UNL     1      -6.922   2.681  66.421  1.00  0.00    -0.047 OA 
HETATM   23  C   UNL     1      -8.851   2.121  67.623  1.00  0.00    -0.161 C  
ENDBRANCH   5  21
BRANCH   5  24
HETATM   24  O   UNL     1      -8.577   4.645  65.472  1.00  0.00    -0.120 OA 
BRANCH  24  25
HETATM   25  C   UNL     1      -9.829   4.320  65.054  1.00  0.00    -0.190 C  
HETATM   26  C   UNL     1      -9.739   3.507  63.797  1.00  0.00    -0.153 C  
HETATM   27  O   UNL     1     -10.865   4.701  65.577  1.00  0.00    -0.278 OA 
ENDBRANCH  24  25
ENDBRANCH   5  24
TORSDOF 3
ENDMDL
MODEL       59
REMARK 921   NORMALIZED FREE ENERGY PREDICTED BY IDOCK:   -3.62 KCAL/MOL
REMARK 922        TOTAL FREE ENERGY PREDICTED BY IDOCK:   -4.02 KCAL/MOL
REMARK 923 INTER-LIGAND FREE ENERGY PREDICTED BY IDOCK:   -5.08 KCAL/MOL
REMARK 924 INTRA-LIGAND FREE ENERGY PREDICTED BY IDOCK:    1.06 KCAL/MOL
REMARK 927      BINDING AFFINITY PREDICTED BY RF-SCORE:    0.00 PKD
ROOT
HETATM    1  C   UNL     1      -9.578  14.288  68.633  1.00  0.00    -0.192 C  
HETATM    2  C   UNL     1     -10.264  14.127  69.871  1.00  0.00     0.619 C  
HETATM    3  C   UNL     1     -10.519  15.178  68.869  1.00  0.00    -0.241 C  
HETATM    4  C   UNL     1     -11.045  16.238  69.644  1.00  0.00    -0.333 C  
HETATM    5  C   UNL     1      -9.909  14.586  67.028  1.00  0.00    -0.249 C  
HETATM    6  C   UNL     1     -11.093  14.995  67.564  1.00  0.00    -0.317 C  
HETATM    7  C   UNL     1      -6.284  17.435  69.237  1.00  0.00    -0.238 C  
HETATM    8  O   UNL     1      -6.035  20.874  70.090  1.00  0.00    -0.452 OA 
HETATM    9  C   UNL     1      -5.938  18.549  69.899  1.00  0.00    -0.231 C  
HETATM   10  C   UNL     1      -6.255  19.895  69.378  1.00  0.00    -0.322 C  
HETATM   11  C   UNL     1     -11.026  16.634  67.049  1.00  0.00     0.015 C  
HETATM   12  C   UNL     1      -8.175  15.320  68.563  1.00  0.00    -0.146 C  
HETATM   13  C   UNL     1     -12.400  14.187  67.382  1.00  0.00    -0.136 C  
HETATM   14  C   UNL     1      -7.273  15.163  69.810  1.00  0.00    -0.155 C  
HETATM   15  C   UNL     1      -6.019  16.054  69.789  1.00  0.00    -0.168 C  
HETATM   16  C   UNL     1      -9.576  17.308  67.195  1.00  0.00    -0.257 C  
HETATM   17  C   UNL     1      -8.463  16.872  68.246  1.00  0.00    -0.229 C  
HETATM   18  C   UNL     1      -7.045  17.455  67.929  1.00  0.00    -0.178 C  
HETATM   19  C   UNL     1      -6.932  18.784  67.174  1.00  0.00    -0.206 C  
HETATM   20  C   UNL     1      -6.859  20.050  68.006  1.00  0.00    -0.314 C  
ENDROOT
BRANCH   5  21
HETATM   21  C   UNL     1     -10.081  14.910  65.437  1.00  0.00    -0.367 C  
HETATM   22  O   UNL     1      -9.553  15.867  64.868  1.00  0.00    -0.026 OA 
HETATM   23  C   UNL     1     -11.019  14.062  64.603  1.00  0.00    -0.401 C  
ENDBRANCH   5  21
BRANCH   5  24
HETATM   24  O   UNL     1     -10.121  13.085  66.737  1.00  0.00    -0.238 OA 
BRANCH  24  25
HETATM   25  C   UNL     1      -9.074  12.247  66.960  1.00  0.00    -0.201 C  
HETATM   26  C   UNL     1      -9.517  11.124  67.849  1.00  0.00    -0.178 C  
HETATM   27  O   UNL     1      -7.932  12.429  66.565  1.00  0.00     0.066 OA 
ENDBRANCH  24  25
ENDBRANCH   5  24
TORSDOF 3
ENDMDL
MODEL       60
REMARK 921   NORMALIZED FREE ENERGY PREDICTED BY IDOCK:   -3.62 KCAL/MOL
REMARK 922        TOTAL FREE ENERGY PREDICTED BY IDOCK:   -4.02 KCAL/MOL
REMARK 923 INTER-LIGAND FREE ENERGY PREDICTED BY IDOCK:   -4.85 KCAL/MOL
REMARK 924 INTRA-LIGAND FREE ENERGY PREDICTED BY IDOCK:    0.84 KCAL/MOL
REMARK 927      BINDING AFFINITY PREDICTED BY RF-SCORE:    0.00 PKD
ROOT
HETATM    1  C   UNL     1      -8.793  15.353  67.331  1.00  0.00    -0.196 C  
HETATM    2  C   UNL     1      -8.482  15.731  65.993  1.00  0.00     0.082 C  
HETATM    3  C   UNL     1      -9.773  15.200  66.465  1.00  0.00    -0.290 C  
HETATM    4  C   UNL     1     -10.310  14.589  65.309  1.00  0.00    -0.435 C  
HETATM    5  C   UNL     1     -10.012  15.537  68.450  1.00  0.00    -0.214 C  
HETATM    6  C   UNL     1     -10.709  15.868  67.328  1.00  0.00    -0.306 C  
HETATM    7  C   UNL     1      -8.236  10.805  67.684  1.00  0.00    -0.115 C  
HETATM    8  O   UNL     1      -9.623   7.852  66.278  1.00  0.00    -0.195 OA 
HETATM    9  C   UNL     1      -8.318   9.635  67.033  1.00  0.00    -0.117 C  
HETATM   10  C   UNL     1      -9.567   8.847  67.001  1.00  0.00    -0.176 C  
HETATM   11  C   UNL     1     -11.885  14.616  67.409  1.00  0.00    -0.374 C  
HETATM   12  C   UNL     1      -8.548  13.701  67.829  1.00  0.00    -0.182 C  
HETATM   13  C   UNL     1     -11.156  17.321  67.036  1.00  0.00     0.250 C  
HETATM   14  C   UNL     1      -7.241  13.106  67.255  1.00  0.00    -0.045 C  
HETATM   15  C   UNL     1      -6.983  11.648  67.673  1.00  0.00    -0.095 C  
HETATM   16  C   UNL     1     -11.291  13.185  67.832  1.00  0.00    -0.321 C  
HETATM   17  C   UNL     1      -9.793  12.706  67.591  1.00  0.00    -0.210 C  
HETATM   18  C   UNL     1      -9.407  11.429  68.410  1.00  0.00    -0.194 C  
HETATM   19  C   UNL     1     -10.501  10.423  68.788  1.00  0.00    -0.219 C  
HETATM   20  C   UNL     1     -10.753   9.278  67.826  1.00  0.00    -0.270 C  
ENDROOT
BRANCH   5  21
HETATM   21  C   UNL     1     -11.139  15.603  69.630  1.00  0.00    -0.299 C  
HETATM   22  O   UNL     1     -12.219  16.187  69.520  1.00  0.00    -0.151 OA 
HETATM   23  C   UNL     1     -10.831  15.006  70.988  1.00  0.00    -0.040 C  
ENDBRANCH   5  21
BRANCH   5  24
HETATM   24  O   UNL     1      -9.429  16.878  68.946  1.00  0.00    -0.259 OA 
BRANCH  24  25
HETATM   25  C   UNL     1      -8.093  16.929  69.194  1.00  0.00    -0.082 C  
HETATM   26  C   UNL     1      -7.525  18.184  68.600  1.00  0.00    -0.300 C  
HETATM   27  O   UNL     1      -7.446  16.050  69.742  1.00  0.00    -0.101 OA 
ENDBRANCH  24  25
ENDBRANCH   5  24
TORSDOF 3
ENDMDL
MODEL       61
REMARK 921   NORMALIZED FREE ENERGY PREDICTED BY IDOCK:   -3.59 KCAL/MOL
REMARK 922        TOTAL FREE ENERGY PREDICTED BY IDOCK:   -3.98 KCAL/MOL
REMARK 923 INTER-LIGAND FREE ENERGY PREDICTED BY IDOCK:   -4.07 KCAL/MOL
REMARK 924 INTRA-LIGAND FREE ENERGY PREDICTED BY IDOCK:    0.10 KCAL/MOL
REMARK 927      BINDING AFFINITY PREDICTED BY RF-SCORE:    0.00 PKD
ROOT
HETATM    1  C   UNL     1      -8.924   7.691  70.966  1.00  0.00    -0.148 C  
HETATM    2  C   UNL     1      -9.667   8.443  71.922  1.00  0.00    -0.331 C  
HETATM    3  C   UNL     1      -9.900   8.420  70.466  1.00  0.00    -0.204 C  
HETATM    4  C   UNL     1     -10.492   9.679  70.217  1.00  0.00    -0.338 C  
HETATM    5  C   UNL     1      -9.184   6.710  69.646  1.00  0.00    -0.145 C  
HETATM    6  C   UNL     1     -10.403   7.314  69.698  1.00  0.00    -0.227 C  
HETATM    7  C   UNL     1      -5.752  10.464  69.132  1.00  0.00    -0.037 C  
HETATM    8  O   UNL     1      -5.639  13.451  67.214  1.00  0.00    -0.354 OA 
HETATM    9  C   UNL     1      -5.470  11.726  68.780  1.00  0.00    -0.049 C  
HETATM   10  C   UNL     1      -5.796  12.251  67.437  1.00  0.00    -0.143 C  
HETATM   11  C   UNL     1     -10.356   8.065  68.152  1.00  0.00    -0.250 C  
HETATM   12  C   UNL     1      -7.549   8.423  70.187  1.00  0.00    -0.070 C  
HETATM   13  C   UNL     1     -11.678   6.557  70.143  1.00  0.00    -0.419 C  
HETATM   14  C   UNL     1      -6.706   9.272  71.167  1.00  0.00    -0.074 C  
HETATM   15  C   UNL     1      -5.477   9.935  70.521  1.00  0.00    -0.051 C  
HETATM   16  C   UNL     1      -8.934   8.712  67.781  1.00  0.00    -0.140 C  
HETATM   17  C   UNL     1      -7.863   9.239  68.834  1.00  0.00    -0.087 C  
HETATM   18  C   UNL     1      -6.447   9.484  68.213  1.00  0.00    -0.053 C  
HETATM   19  C   UNL     1      -6.333   9.851  66.728  1.00  0.00    -0.065 C  
HETATM   20  C   UNL     1      -6.336  11.326  66.376  1.00  0.00    -0.091 C  
ENDROOT
BRANCH   5  21
HETATM   21  C   UNL     1      -9.285   5.765  68.318  1.00  0.00    -0.117 C  
HETATM   22  O   UNL     1     -10.303   5.154  67.983  1.00  0.00    -0.148 OA 
HETATM   23  C   UNL     1      -8.046   5.522  67.482  1.00  0.00    -0.101 C  
ENDBRANCH   5  21
BRANCH   5  24
HETATM   24  O   UNL     1      -9.340   5.459  70.537  1.00  0.00    -0.149 OA 
BRANCH  24  25
HETATM   25  C   UNL     1      -8.241   5.026  71.211  1.00  0.00    -0.116 C  
HETATM   26  C   UNL     1      -8.629   4.663  72.613  1.00  0.00    -0.115 C  
HETATM   27  O   UNL     1      -7.104   5.014  70.765  1.00  0.00    -0.052 OA 
ENDBRANCH  24  25
ENDBRANCH   5  24
TORSDOF 3
ENDMDL
MODEL       62
REMARK 921   NORMALIZED FREE ENERGY PREDICTED BY IDOCK:   -3.56 KCAL/MOL
REMARK 922        TOTAL FREE ENERGY PREDICTED BY IDOCK:   -3.95 KCAL/MOL
REMARK 923 INTER-LIGAND FREE ENERGY PREDICTED BY IDOCK:   -4.07 KCAL/MOL
REMARK 924 INTRA-LIGAND FREE ENERGY PREDICTED BY IDOCK:    0.13 KCAL/MOL
REMARK 927      BINDING AFFINITY PREDICTED BY RF-SCORE:    0.00 PKD
ROOT
HETATM    1  C   UNL     1      -9.830   6.981  67.366  1.00  0.00    -0.197 C  
HETATM    2  C   UNL     1     -10.532   8.165  67.001  1.00  0.00    -0.396 C  
HETATM    3  C   UNL     1      -9.094   8.071  67.308  1.00  0.00    -0.153 C  
HETATM    4  C   UNL     1      -8.780   9.371  67.770  1.00  0.00    -0.116 C  
HETATM    5  C   UNL     1      -8.411   6.186  67.007  1.00  0.00    -0.105 C  
HETATM    6  C   UNL     1      -8.090   7.416  66.516  1.00  0.00    -0.117 C  
HETATM    7  C   UNL     1      -9.522   6.872  71.950  1.00  0.00    -0.146 C  
HETATM    8  O   UNL     1      -8.078   8.812  74.552  1.00  0.00    -0.283 OA 
HETATM    9  C   UNL     1      -9.420   7.617  73.061  1.00  0.00    -0.282 C  
HETATM   10  C   UNL     1      -8.109   8.020  73.611  1.00  0.00    -0.208 C  
HETATM   11  C   UNL     1      -6.744   7.729  67.538  1.00  0.00    -0.068 C  
HETATM   12  C   UNL     1      -9.663   6.574  69.053  1.00  0.00    -0.140 C  
HETATM   13  C   UNL     1      -7.979   7.690  64.997  1.00  0.00    -0.131 C  
HETATM   14  C   UNL     1     -10.958   6.854  69.851  1.00  0.00    -0.318 C  
HETATM   15  C   UNL     1     -10.857   6.505  71.346  1.00  0.00    -0.289 C  
HETATM   16  C   UNL     1      -6.966   7.291  69.067  1.00  0.00    -0.077 C  
HETATM   17  C   UNL     1      -8.376   7.192  69.798  1.00  0.00    -0.132 C  
HETATM   18  C   UNL     1      -8.322   6.410  71.153  1.00  0.00    -0.123 C  
HETATM   19  C   UNL     1      -7.018   6.397  71.959  1.00  0.00    -0.073 C  
HETATM   20  C   UNL     1      -6.839   7.481  73.004  1.00  0.00    -0.070 C  
ENDROOT
BRANCH   5  21
HETATM   21  C   UNL     1      -7.045   5.320  66.784  1.00  0.00    -0.069 C  
HETATM   22  O   UNL     1      -6.312   5.431  65.799  1.00  0.00    -0.033 OA 
HETATM   23  C   UNL     1      -6.680   4.236  67.778  1.00  0.00    -0.051 C  
ENDBRANCH   5  21
BRANCH   5  24
HETATM   24  O   UNL     1      -9.059   5.455  65.812  1.00  0.00    -0.156 OA 
BRANCH  24  25
HETATM   25  C   UNL     1      -9.955   4.470  66.088  1.00  0.00    -0.248 C  
HETATM   26  C   UNL     1     -11.068   4.515  65.085  1.00  0.00     0.087 C  
HETATM   27  O   UNL     1      -9.901   3.722  67.052  1.00  0.00    -0.179 OA 
ENDBRANCH  24  25
ENDBRANCH   5  24
TORSDOF 3
ENDMDL
MODEL       63
REMARK 921   NORMALIZED FREE ENERGY PREDICTED BY IDOCK:   -3.55 KCAL/MOL
REMARK 922        TOTAL FREE ENERGY PREDICTED BY IDOCK:   -3.93 KCAL/MOL
REMARK 923 INTER-LIGAND FREE ENERGY PREDICTED BY IDOCK:   -5.05 KCAL/MOL
REMARK 924 INTRA-LIGAND FREE ENERGY PREDICTED BY IDOCK:    1.11 KCAL/MOL
REMARK 927      BINDING AFFINITY PREDICTED BY RF-SCORE:    0.00 PKD
ROOT
HETATM    1  C   UNL     1      -9.400  13.117  67.048  1.00  0.00    -0.238 C  
HETATM    2  C   UNL     1      -9.323  12.942  65.637  1.00  0.00     0.174 C  
HETATM    3  C   UNL     1     -10.246  12.240  66.548  1.00  0.00    -0.235 C  
HETATM    4  C   UNL     1     -10.501  11.026  65.870  1.00  0.00    -0.300 C  
HETATM    5  C   UNL     1     -10.546  13.313  68.242  1.00  0.00    -0.251 C  
HETATM    6  C   UNL     1     -11.351  12.820  67.260  1.00  0.00    -0.364 C  
HETATM    7  C   UNL     1      -6.930   9.786  69.028  1.00  0.00    -0.058 C  
HETATM    8  O   UNL     1      -6.952   6.240  69.230  1.00  0.00    -0.060 OA 
HETATM    9  C   UNL     1      -6.519   8.514  68.922  1.00  0.00    -0.049 C  
HETATM   10  C   UNL     1      -7.308   7.392  69.474  1.00  0.00    -0.085 C  
HETATM   11  C   UNL     1     -11.870  11.400  68.078  1.00  0.00    -0.273 C  
HETATM   12  C   UNL     1      -8.454  12.088  68.089  1.00  0.00    -0.171 C  
HETATM   13  C   UNL     1     -12.388  13.703  66.526  1.00  0.00    -0.412 C  
HETATM   14  C   UNL     1      -7.036  11.835  67.525  1.00  0.00    -0.113 C  
HETATM   15  C   UNL     1      -6.162  10.934  68.415  1.00  0.00    -0.046 C  
HETATM   16  C   UNL     1     -10.706  10.648  68.889  1.00  0.00    -0.254 C  
HETATM   17  C   UNL     1      -9.155  10.709  68.537  1.00  0.00    -0.159 C  
HETATM   18  C   UNL     1      -8.233  10.181  69.686  1.00  0.00    -0.176 C  
HETATM   19  C   UNL     1      -8.775   9.125  70.656  1.00  0.00    -0.272 C  
HETATM   20  C   UNL     1      -8.538   7.670  70.299  1.00  0.00    -0.143 C  
ENDROOT
BRANCH   5  21
HETATM   21  C   UNL     1     -11.555  13.474  69.515  1.00  0.00    -0.294 C  
HETATM   22  O   UNL     1     -11.664  12.641  70.417  1.00  0.00    -0.216 OA 
HETATM   23  C   UNL     1     -12.502  14.655  69.569  1.00  0.00    -0.151 C  
ENDBRANCH   5  21
BRANCH   5  24
HETATM   24  O   UNL     1     -10.582  14.842  68.032  1.00  0.00    -0.240 OA 
BRANCH  24  25
HETATM   25  C   UNL     1      -9.505  15.560  68.448  1.00  0.00    -0.196 C  
HETATM   26  C   UNL     1      -9.138  16.562  67.395  1.00  0.00    -0.210 C  
HETATM   27  O   UNL     1      -8.885  15.361  69.482  1.00  0.00    -0.258 OA 
ENDBRANCH  24  25
ENDBRANCH   5  24
TORSDOF 3
ENDMDL
MODEL       64
REMARK 921   NORMALIZED FREE ENERGY PREDICTED BY IDOCK:   -3.54 KCAL/MOL
REMARK 922        TOTAL FREE ENERGY PREDICTED BY IDOCK:   -3.92 KCAL/MOL
REMARK 923 INTER-LIGAND FREE ENERGY PREDICTED BY IDOCK:   -4.11 KCAL/MOL
REMARK 924 INTRA-LIGAND FREE ENERGY PREDICTED BY IDOCK:    0.18 KCAL/MOL
REMARK 927      BINDING AFFINITY PREDICTED BY RF-SCORE:    0.00 PKD
ROOT
HETATM    1  C   UNL     1      -9.443   8.641  67.353  1.00  0.00    -0.187 C  
HETATM    2  C   UNL     1     -10.763   9.107  67.089  1.00  0.00    -0.213 C  
HETATM    3  C   UNL     1      -9.833   9.660  68.090  1.00  0.00    -0.172 C  
HETATM    4  C   UNL     1     -10.699  10.218  69.058  1.00  0.00    -0.257 C  
HETATM    5  C   UNL     1      -7.910   9.245  67.598  1.00  0.00    -0.096 C  
HETATM    6  C   UNL     1      -8.621  10.385  67.824  1.00  0.00    -0.122 C  
HETATM    7  C   UNL     1      -9.633   5.801  70.960  1.00  0.00    -0.203 C  
HETATM    8  O   UNL     1     -10.520   5.944  74.397  1.00  0.00    -0.265 OA 
HETATM    9  C   UNL     1     -10.264   5.531  72.113  1.00  0.00    -0.247 C  
HETATM   10  C   UNL     1      -9.825   6.118  73.396  1.00  0.00    -0.167 C  
HETATM   11  C   UNL     1      -8.139  10.640  69.454  1.00  0.00    -0.102 C  
HETATM   12  C   UNL     1      -9.193   7.433  68.584  1.00  0.00    -0.143 C  
HETATM   13  C   UNL     1      -8.612  11.570  66.829  1.00  0.00    -0.170 C  
HETATM   14  C   UNL     1     -10.292   6.345  68.565  1.00  0.00    -0.227 C  
HETATM   15  C   UNL     1     -10.109   5.254  69.635  1.00  0.00    -0.327 C  
HETATM   16  C   UNL     1      -8.089   9.301  70.340  1.00  0.00    -0.178 C  
HETATM   17  C   UNL     1      -8.956   7.993  70.076  1.00  0.00    -0.144 C  
HETATM   18  C   UNL     1      -8.451   6.739  70.865  1.00  0.00    -0.136 C  
HETATM   19  C   UNL     1      -7.718   6.939  72.197  1.00  0.00    -0.093 C  
HETATM   20  C   UNL     1      -8.559   6.933  73.459  1.00  0.00    -0.152 C  
ENDROOT
BRANCH   5  21
HETATM   21  C   UNL     1      -6.368   9.695  67.894  1.00  0.00    -0.057 C  
HETATM   22  O   UNL     1      -5.884  10.771  67.535  1.00  0.00    -0.044 OA 
HETATM   23  C   UNL     1      -5.422   8.716  68.556  1.00  0.00    -0.037 C  
ENDBRANCH   5  21
BRANCH   5  24
HETATM   24  O   UNL     1      -7.618   9.272  66.083  1.00  0.00    -0.094 OA 
BRANCH  24  25
HETATM   25  C   UNL     1      -7.358   8.085  65.472  1.00  0.00    -0.075 C  
HETATM   26  C   UNL     1      -7.705   8.188  64.017  1.00  0.00    -0.137 C  
HETATM   27  O   UNL     1      -6.979   7.072  66.039  1.00  0.00    -0.062 OA 
ENDBRANCH  24  25
ENDBRANCH   5  24
TORSDOF 3
ENDMDL
MODEL       65
REMARK 921   NORMALIZED FREE ENERGY PREDICTED BY IDOCK:   -3.51 KCAL/MOL
REMARK 922        TOTAL FREE ENERGY PREDICTED BY IDOCK:   -3.89 KCAL/MOL
REMARK 923 INTER-LIGAND FREE ENERGY PREDICTED BY IDOCK:   -3.99 KCAL/MOL
REMARK 924 INTRA-LIGAND FREE ENERGY PREDICTED BY IDOCK:    0.10 KCAL/MOL
REMARK 927      BINDING AFFINITY PREDICTED BY RF-SCORE:    0.00 PKD
ROOT
HETATM    1  C   UNL     1      -8.422   6.380  67.598  1.00  0.00    -0.117 C  
HETATM    2  C   UNL     1      -8.985   5.668  66.500  1.00  0.00    -0.126 C  
HETATM    3  C   UNL     1      -9.723   6.518  67.451  1.00  0.00    -0.150 C  
HETATM    4  C   UNL     1     -11.025   5.966  67.430  1.00  0.00    -0.258 C  
HETATM    5  C   UNL     1      -8.494   7.887  68.303  1.00  0.00    -0.124 C  
HETATM    6  C   UNL     1      -9.638   7.948  67.565  1.00  0.00    -0.190 C  
HETATM    7  C   UNL     1      -8.999   3.839  71.384  1.00  0.00    -0.161 C  
HETATM    8  O   UNL     1     -11.682   2.528  73.307  1.00  0.00    -0.077 OA 
HETATM    9  C   UNL     1      -9.794   2.952  71.999  1.00  0.00    -0.242 C  
HETATM   10  C   UNL     1     -10.903   3.379  72.878  1.00  0.00    -0.037 C  
HETATM   11  C   UNL     1     -10.743   8.145  68.867  1.00  0.00    -0.090 C  
HETATM   12  C   UNL     1      -8.358   5.620  69.165  1.00  0.00    -0.100 C  
HETATM   13  C   UNL     1      -9.761   8.849  66.313  1.00  0.00    -0.345 C  
HETATM   14  C   UNL     1      -7.973   4.125  69.074  1.00  0.00    -0.067 C  
HETATM   15  C   UNL     1      -7.901   3.415  70.437  1.00  0.00    -0.044 C  
HETATM   16  C   UNL     1     -10.424   7.223  70.142  1.00  0.00    -0.229 C  
HETATM   17  C   UNL     1      -9.654   5.831  70.099  1.00  0.00    -0.208 C  
HETATM   18  C   UNL     1      -9.180   5.336  71.506  1.00  0.00    -0.173 C  
HETATM   19  C   UNL     1      -9.967   5.758  72.753  1.00  0.00    -0.196 C  
HETATM   20  C   UNL     1     -11.081   4.838  73.214  1.00  0.00    -0.411 C  
ENDROOT
BRANCH   5  21
HETATM   21  C   UNL     1      -8.493   9.302  69.118  1.00  0.00    -0.133 C  
HETATM   22  O   UNL     1      -8.818  10.383  68.623  1.00  0.00    -0.127 OA 
HETATM   23  C   UNL     1      -7.972   9.340  70.540  1.00  0.00    -0.188 C  
ENDBRANCH   5  21
BRANCH   5  24
HETATM   24  O   UNL     1      -7.403   8.440  67.361  1.00  0.00    -0.086 OA 
BRANCH  24  25
HETATM   25  C   UNL     1      -6.138   7.967  67.518  1.00  0.00    -0.050 C  
HETATM   26  C   UNL     1      -5.574   7.598  66.178  1.00  0.00    -0.032 C  
HETATM   27  O   UNL     1      -5.582   7.792  68.592  1.00  0.00    -0.026 OA 
ENDBRANCH  24  25
ENDBRANCH   5  24
TORSDOF 3
ENDMDL
MODEL       66
REMARK 921   NORMALIZED FREE ENERGY PREDICTED BY IDOCK:   -3.50 KCAL/MOL
REMARK 922        TOTAL FREE ENERGY PREDICTED BY IDOCK:   -3.87 KCAL/MOL
REMARK 923 INTER-LIGAND FREE ENERGY PREDICTED BY IDOCK:   -4.50 KCAL/MOL
REMARK 924 INTRA-LIGAND FREE ENERGY PREDICTED BY IDOCK:    0.63 KCAL/MOL
REMARK 927      BINDING AFFINITY PREDICTED BY RF-SCORE:    0.00 PKD
ROOT
HETATM    1  C   UNL     1      -9.368  16.278  68.712  1.00  0.00    -0.235 C  
HETATM    2  C   UNL     1      -8.251  16.452  69.578  1.00  0.00     0.191 C  
HETATM    3  C   UNL     1      -8.440  15.348  68.620  1.00  0.00    -0.170 C  
HETATM    4  C   UNL     1      -7.693  14.294  69.195  1.00  0.00    -0.011 C  
HETATM    5  C   UNL     1      -9.694  15.896  67.124  1.00  0.00    -0.224 C  
HETATM    6  C   UNL     1      -8.410  15.445  67.187  1.00  0.00    -0.247 C  
HETATM    7  C   UNL     1     -12.279  13.345  70.723  1.00  0.00    -0.409 C  
HETATM    8  O   UNL     1     -12.298   9.964  71.810  1.00  0.00    -0.383 OA 
HETATM    9  C   UNL     1     -12.379  12.281  71.533  1.00  0.00     0.058 C  
HETATM   10  C   UNL     1     -12.337  10.899  71.011  1.00  0.00    -0.393 C  
HETATM   11  C   UNL     1      -8.728  13.792  66.836  1.00  0.00    -0.172 C  
HETATM   12  C   UNL     1     -10.723  15.323  69.249  1.00  0.00    -0.252 C  
HETATM   13  C   UNL     1      -7.248  16.171  66.468  1.00  0.00     0.044 C  
HETATM   14  C   UNL     1     -11.066  15.581  70.735  1.00  0.00    -0.383 C  
HETATM   15  C   UNL     1     -12.261  14.761  71.251  1.00  0.00    -0.394 C  
HETATM   16  C   UNL     1     -10.031  13.205  67.569  1.00  0.00    -0.223 C  
HETATM   17  C   UNL     1     -10.635  13.745  68.938  1.00  0.00    -0.224 C  
HETATM   18  C   UNL     1     -12.084  13.230  69.227  1.00  0.00    -0.291 C  
HETATM   19  C   UNL     1     -12.526  11.878  68.654  1.00  0.00     0.610 C  
HETATM   20  C   UNL     1     -12.316  10.654  69.524  1.00  0.00    -0.154 C  
ENDROOT
BRANCH   5  21
HETATM   21  C   UNL     1     -10.162  15.497  65.611  1.00  0.00    -0.376 C  
HETATM   22  O   UNL     1      -9.487  15.710  64.602  1.00  0.00     0.476 OA 
HETATM   23  C   UNL     1     -11.546  14.921  65.389  1.00  0.00    -0.280 C  
ENDBRANCH   5  21
BRANCH   5  24
HETATM   24  O   UNL     1      -9.559  17.369  66.684  1.00  0.00    -0.254 OA 
BRANCH  24  25
HETATM   25  C   UNL     1     -10.593  18.206  66.964  1.00  0.00    -0.328 C  
HETATM   26  C   UNL     1     -10.518  19.407  66.069  1.00  0.00    -0.596 C  
HETATM   27  O   UNL     1     -11.406  18.042  67.862  1.00  0.00     0.116 OA 
ENDBRANCH  24  25
ENDBRANCH   5  24
TORSDOF 3
ENDMDL
MODEL       67
REMARK 921   NORMALIZED FREE ENERGY PREDICTED BY IDOCK:   -3.49 KCAL/MOL
REMARK 922        TOTAL FREE ENERGY PREDICTED BY IDOCK:   -3.87 KCAL/MOL
REMARK 923 INTER-LIGAND FREE ENERGY PREDICTED BY IDOCK:   -5.13 KCAL/MOL
REMARK 924 INTRA-LIGAND FREE ENERGY PREDICTED BY IDOCK:    1.27 KCAL/MOL
REMARK 927      BINDING AFFINITY PREDICTED BY RF-SCORE:    0.00 PKD
ROOT
HETATM    1  C   UNL     1     -10.899  12.974  66.167  1.00  0.00    -0.296 C  
HETATM    2  C   UNL     1     -12.250  12.541  66.037  1.00  0.00    -0.263 C  
HETATM    3  C   UNL     1     -11.360  12.273  67.182  1.00  0.00    -0.398 C  
HETATM    4  C   UNL     1     -11.875  11.068  67.712  1.00  0.00    -0.006 C  
HETATM    5  C   UNL     1      -9.892  13.666  67.298  1.00  0.00    -0.241 C  
HETATM    6  C   UNL     1     -10.878  13.235  68.134  1.00  0.00    -0.270 C  
HETATM    7  C   UNL     1      -8.169   9.515  64.863  1.00  0.00    -0.140 C  
HETATM    8  O   UNL     1      -7.445   6.188  65.878  1.00  0.00    -0.078 OA 
HETATM    9  C   UNL     1      -8.035   8.181  64.813  1.00  0.00    -0.147 C  
HETATM   10  C   UNL     1      -7.419   7.418  65.918  1.00  0.00    -0.080 C  
HETATM   11  C   UNL     1      -9.924  12.165  69.083  1.00  0.00     0.279 C  
HETATM   12  C   UNL     1      -9.613  11.933  65.620  1.00  0.00    -0.221 C  
HETATM   13  C   UNL     1     -11.852  14.215  68.830  1.00  0.00    -0.382 C  
HETATM   14  C   UNL     1      -9.961  11.226  64.289  1.00  0.00    -0.347 C  
HETATM   15  C   UNL     1      -8.851  10.298  63.766  1.00  0.00    -0.234 C  
HETATM   16  C   UNL     1      -8.879  11.290  68.234  1.00  0.00    -0.158 C  
HETATM   17  C   UNL     1      -9.051  10.884  66.705  1.00  0.00    -0.164 C  
HETATM   18  C   UNL     1      -7.735  10.344  66.052  1.00  0.00    -0.136 C  
HETATM   19  C   UNL     1      -6.690   9.651  66.934  1.00  0.00    -0.075 C  
HETATM   20  C   UNL     1      -6.796   8.146  67.082  1.00  0.00    -0.070 C  
ENDROOT
BRANCH   5  21
HETATM   21  C   UNL     1      -8.785  14.304  68.315  1.00  0.00    -0.179 C  
HETATM   22  O   UNL     1      -7.589  14.006  68.306  1.00  0.00    -0.114 OA 
HETATM   23  C   UNL     1      -9.238  15.243  69.414  1.00  0.00    -0.233 C  
ENDBRANCH   5  21
BRANCH   5  24
HETATM   24  O   UNL     1     -10.330  15.091  66.896  1.00  0.00    -0.259 OA 
BRANCH  24  25
HETATM   25  C   UNL     1      -9.805  15.611  65.755  1.00  0.00    -0.351 C  
HETATM   26  C   UNL     1      -8.690  16.552  66.103  1.00  0.00    -0.335 C  
HETATM   27  O   UNL     1     -10.231  15.406  64.629  1.00  0.00    -0.234 OA 
ENDBRANCH  24  25
ENDBRANCH   5  24
TORSDOF 3
ENDMDL
MODEL       68
REMARK 921   NORMALIZED FREE ENERGY PREDICTED BY IDOCK:   -3.39 KCAL/MOL
REMARK 922        TOTAL FREE ENERGY PREDICTED BY IDOCK:   -3.75 KCAL/MOL
REMARK 923 INTER-LIGAND FREE ENERGY PREDICTED BY IDOCK:   -5.05 KCAL/MOL
REMARK 924 INTRA-LIGAND FREE ENERGY PREDICTED BY IDOCK:    1.30 KCAL/MOL
REMARK 927      BINDING AFFINITY PREDICTED BY RF-SCORE:    0.00 PKD
ROOT
HETATM    1  C   UNL     1      -9.292  16.168  67.730  1.00  0.00    -0.211 C  
HETATM    2  C   UNL     1     -10.287  16.590  68.657  1.00  0.00    -0.287 C  
HETATM    3  C   UNL     1      -9.743  15.226  68.531  1.00  0.00    -0.211 C  
HETATM    4  C   UNL     1     -10.801  14.415  69.004  1.00  0.00    -0.267 C  
HETATM    5  C   UNL     1      -7.898  15.257  67.692  1.00  0.00    -0.159 C  
HETATM    6  C   UNL     1      -8.413  14.800  68.868  1.00  0.00    -0.159 C  
HETATM    7  C   UNL     1     -11.424  14.287  64.119  1.00  0.00    -0.149 C  
HETATM    8  O   UNL     1     -13.555  11.525  63.449  1.00  0.00    -0.146 OA 
HETATM    9  C   UNL     1     -12.498  13.590  63.720  1.00  0.00    -0.296 C  
HETATM   10  C   UNL     1     -12.502  12.112  63.694  1.00  0.00    -0.549 C  
HETATM   11  C   UNL     1      -8.578  13.148  68.422  1.00  0.00    -0.124 C  
HETATM   12  C   UNL     1      -9.782  15.532  66.183  1.00  0.00    -0.348 C  
HETATM   13  C   UNL     1      -7.788  15.166  70.236  1.00  0.00     0.608 C  
HETATM   14  C   UNL     1     -10.966  16.321  65.577  1.00  0.00    -0.154 C  
HETATM   15  C   UNL     1     -11.430  15.795  64.207  1.00  0.00    -0.203 C  
HETATM   16  C   UNL     1      -9.134  12.923  66.933  1.00  0.00    -0.224 C  
HETATM   17  C   UNL     1     -10.055  13.945  66.133  1.00  0.00    -0.317 C  
HETATM   18  C   UNL     1     -10.148  13.634  64.601  1.00  0.00    -0.228 C  
HETATM   19  C   UNL     1      -9.979  12.188  64.120  1.00  0.00    -0.279 C  
HETATM   20  C   UNL     1     -11.236  11.350  63.989  1.00  0.00    -0.350 C  
ENDROOT
BRANCH   5  21
HETATM   21  C   UNL     1      -6.545  14.363  67.499  1.00  0.00    -0.076 C  
HETATM   22  O   UNL     1      -6.511  13.285  66.902  1.00  0.00     0.044 OA 
HETATM   23  C   UNL     1      -5.259  14.807  68.166  1.00  0.00    -0.119 C  
ENDBRANCH   5  21
BRANCH   5  24
HETATM   24  O   UNL     1      -7.031  16.466  68.100  1.00  0.00    -0.127 OA 
BRANCH  24  25
HETATM   25  C   UNL     1      -7.029  17.546  67.274  1.00  0.00    -0.166 C  
HETATM   26  C   UNL     1      -7.293  18.786  68.075  1.00  0.00    -0.269 C  
HETATM   27  O   UNL     1      -6.913  17.500  66.059  1.00  0.00    -0.285 OA 
ENDBRANCH  24  25
ENDBRANCH   5  24
TORSDOF 3
ENDMDL
MODEL       69
REMARK 921   NORMALIZED FREE ENERGY PREDICTED BY IDOCK:   -3.38 KCAL/MOL
REMARK 922        TOTAL FREE ENERGY PREDICTED BY IDOCK:   -3.74 KCAL/MOL
REMARK 923 INTER-LIGAND FREE ENERGY PREDICTED BY IDOCK:   -4.16 KCAL/MOL
REMARK 924 INTRA-LIGAND FREE ENERGY PREDICTED BY IDOCK:    0.42 KCAL/MOL
REMARK 927      BINDING AFFINITY PREDICTED BY RF-SCORE:    0.00 PKD
ROOT
HETATM    1  C   UNL     1      -8.805   7.928  70.438  1.00  0.00    -0.142 C  
HETATM    2  C   UNL     1      -9.171   8.006  71.812  1.00  0.00    -0.212 C  
HETATM    3  C   UNL     1      -9.934   8.561  70.679  1.00  0.00    -0.222 C  
HETATM    4  C   UNL     1     -10.641   9.637  71.266  1.00  0.00    -0.269 C  
HETATM    5  C   UNL     1      -9.492   7.582  68.960  1.00  0.00    -0.145 C  
HETATM    6  C   UNL     1     -10.632   7.814  69.669  1.00  0.00    -0.242 C  
HETATM    7  C   UNL     1      -6.705  11.854  69.302  1.00  0.00    -0.099 C  
HETATM    8  O   UNL     1      -7.477  15.317  69.140  1.00  0.00    -0.147 OA 
HETATM    9  C   UNL     1      -6.642  13.173  69.537  1.00  0.00    -0.034 C  
HETATM   10  C   UNL     1      -7.477  14.137  68.790  1.00  0.00    -0.129 C  
HETATM   11  C   UNL     1     -11.208   9.147  68.750  1.00  0.00     0.228 C  
HETATM   12  C   UNL     1      -7.864   9.213  69.730  1.00  0.00    -0.088 C  
HETATM   13  C   UNL     1     -11.603   6.674  70.059  1.00  0.00    -0.423 C  
HETATM   14  C   UNL     1      -6.759   9.721  70.686  1.00  0.00    -0.111 C  
HETATM   15  C   UNL     1      -5.900  10.854  70.100  1.00  0.00    -0.100 C  
HETATM   16  C   UNL     1     -10.066  10.192  68.323  1.00  0.00    -0.179 C  
HETATM   17  C   UNL     1      -8.706  10.439  69.112  1.00  0.00    -0.173 C  
HETATM   18  C   UNL     1      -7.643  11.239  68.288  1.00  0.00    -0.114 C  
HETATM   19  C   UNL     1      -8.116  12.226  67.213  1.00  0.00    -0.182 C  
HETATM   20  C   UNL     1      -8.327  13.666  67.639  1.00  0.00    -0.182 C  
ENDROOT
BRANCH   5  21
HETATM   21  C   UNL     1     -10.037   7.306  67.446  1.00  0.00    -0.204 C  
HETATM   22  O   UNL     1     -11.081   6.704  67.188  1.00  0.00    -0.392 OA 
HETATM   23  C   UNL     1      -9.183   7.713  66.263  1.00  0.00    -0.204 C  
ENDBRANCH   5  21
BRANCH   5  24
HETATM   24  O   UNL     1      -9.236   6.070  69.134  1.00  0.00    -0.125 OA 
BRANCH  24  25
HETATM   25  C   UNL     1      -8.146   5.541  68.517  1.00  0.00    -0.099 C  
HETATM   26  C   UNL     1      -8.550   4.315  67.754  1.00  0.00    -0.107 C  
HETATM   27  O   UNL     1      -7.003   5.955  68.635  1.00  0.00    -0.067 OA 
ENDBRANCH  24  25
ENDBRANCH   5  24
TORSDOF 3
ENDMDL
MODEL       70
REMARK 921   NORMALIZED FREE ENERGY PREDICTED BY IDOCK:   -3.36 KCAL/MOL
REMARK 922        TOTAL FREE ENERGY PREDICTED BY IDOCK:   -3.71 KCAL/MOL
REMARK 923 INTER-LIGAND FREE ENERGY PREDICTED BY IDOCK:   -4.60 KCAL/MOL
REMARK 924 INTRA-LIGAND FREE ENERGY PREDICTED BY IDOCK:    0.90 KCAL/MOL
REMARK 927      BINDING AFFINITY PREDICTED BY RF-SCORE:    0.00 PKD
ROOT
HETATM    1  C   UNL     1      -7.466   8.349  68.748  1.00  0.00    -0.092 C  
HETATM    2  C   UNL     1      -6.410   8.526  69.687  1.00  0.00    -0.039 C  
HETATM    3  C   UNL     1      -7.851   8.512  69.997  1.00  0.00    -0.102 C  
HETATM    4  C   UNL     1      -7.936   9.304  71.165  1.00  0.00    -0.041 C  
HETATM    5  C   UNL     1      -8.885   7.492  68.581  1.00  0.00    -0.127 C  
HETATM    6  C   UNL     1      -8.729   7.376  69.930  1.00  0.00    -0.141 C  
HETATM    7  C   UNL     1      -9.050  12.505  67.591  1.00  0.00    -0.187 C  
HETATM    8  O   UNL     1     -10.609  15.277  69.173  1.00  0.00    -0.229 OA 
HETATM    9  C   UNL     1      -9.261  13.757  68.021  1.00  0.00    -0.195 C  
HETATM   10  C   UNL     1     -10.524  14.153  68.679  1.00  0.00    -0.250 C  
HETATM   11  C   UNL     1     -10.178   8.174  70.399  1.00  0.00    -0.203 C  
HETATM   12  C   UNL     1      -8.193   9.748  68.006  1.00  0.00    -0.109 C  
HETATM   13  C   UNL     1      -8.341   6.036  70.600  1.00  0.00    -0.125 C  
HETATM   14  C   UNL     1      -7.143  10.822  67.633  1.00  0.00    -0.091 C  
HETATM   15  C   UNL     1      -7.741  12.075  66.971  1.00  0.00    -0.129 C  
HETATM   16  C   UNL     1     -10.509   9.490  69.541  1.00  0.00    -0.234 C  
HETATM   17  C   UNL     1      -9.432  10.399  68.803  1.00  0.00    -0.175 C  
HETATM   18  C   UNL     1     -10.059  11.391  67.766  1.00  0.00    -0.198 C  
HETATM   19  C   UNL     1     -11.493  11.890  67.979  1.00  0.00    -0.389 C  
HETATM   20  C   UNL     1     -11.670  13.177  68.760  1.00  0.00    -0.363 C  
ENDROOT
BRANCH   5  21
HETATM   21  C   UNL     1     -10.311   6.748  68.299  1.00  0.00    -0.187 C  
HETATM   22  O   UNL     1     -11.108   7.095  67.426  1.00  0.00    -0.247 OA 
HETATM   23  C   UNL     1     -10.757   5.624  69.212  1.00  0.00    -0.350 C  
ENDBRANCH   5  21
BRANCH   5  24
HETATM   24  O   UNL     1      -8.142   6.268  68.006  1.00  0.00    -0.113 OA 
BRANCH  24  25
HETATM   25  C   UNL     1      -7.791   6.306  66.693  1.00  0.00    -0.104 C  
HETATM   26  C   UNL     1      -6.540   5.505  66.488  1.00  0.00    -0.056 C  
HETATM   27  O   UNL     1      -8.361   6.958  65.832  1.00  0.00    -0.125 OA 
ENDBRANCH  24  25
ENDBRANCH   5  24
TORSDOF 3
ENDMDL
MODEL       71
REMARK 921   NORMALIZED FREE ENERGY PREDICTED BY IDOCK:   -3.33 KCAL/MOL
REMARK 922        TOTAL FREE ENERGY PREDICTED BY IDOCK:   -3.68 KCAL/MOL
REMARK 923 INTER-LIGAND FREE ENERGY PREDICTED BY IDOCK:   -4.58 KCAL/MOL
REMARK 924 INTRA-LIGAND FREE ENERGY PREDICTED BY IDOCK:    0.90 KCAL/MOL
REMARK 927      BINDING AFFINITY PREDICTED BY RF-SCORE:    0.00 PKD
ROOT
HETATM    1  C   UNL     1      -8.041  14.556  66.989  1.00  0.00    -0.125 C  
HETATM    2  C   UNL     1      -6.948  13.692  67.287  1.00  0.00     0.083 C  
HETATM    3  C   UNL     1      -7.868  14.296  68.268  1.00  0.00    -0.141 C  
HETATM    4  C   UNL     1      -7.083  14.364  69.442  1.00  0.00    -0.113 C  
HETATM    5  C   UNL     1      -9.640  14.769  67.403  1.00  0.00    -0.210 C  
HETATM    6  C   UNL     1      -9.258  13.979  68.446  1.00  0.00    -0.196 C  
HETATM    7  C   UNL     1      -6.618  18.889  67.554  1.00  0.00    -0.205 C  
HETATM    8  O   UNL     1      -5.397  20.952  70.175  1.00  0.00    -0.430 OA 
HETATM    9  C   UNL     1      -5.801  19.694  68.250  1.00  0.00    -0.243 C  
HETATM   10  C   UNL     1      -6.229  20.335  69.511  1.00  0.00    -0.320 C  
HETATM   11  C   UNL     1      -9.590  15.092  69.713  1.00  0.00    -0.066 C  
HETATM   12  C   UNL     1      -7.786  16.280  66.977  1.00  0.00    -0.253 C  
HETATM   13  C   UNL     1      -9.723  12.509  68.576  1.00  0.00    -0.133 C  
HETATM   14  C   UNL     1      -6.436  16.667  66.331  1.00  0.00     0.189 C  
HETATM   15  C   UNL     1      -6.171  18.182  66.296  1.00  0.00    -0.240 C  
HETATM   16  C   UNL     1      -9.152  16.603  69.390  1.00  0.00     0.070 C  
HETATM   17  C   UNL     1      -7.989  17.027  68.390  1.00  0.00    -0.239 C  
HETATM   18  C   UNL     1      -8.019  18.545  68.006  1.00  0.00    -0.293 C  
HETATM   19  C   UNL     1      -8.611  19.556  68.994  1.00  0.00    -0.215 C  
HETATM   20  C   UNL     1      -7.656  20.205  69.977  1.00  0.00     0.612 C  
ENDROOT
BRANCH   5  21
HETATM   21  C   UNL     1     -11.198  15.119  67.744  1.00  0.00    -0.323 C  
HETATM   22  O   UNL     1     -11.644  16.265  67.827  1.00  0.00    -0.079 OA 
HETATM   23  C   UNL     1     -12.156  13.995  68.083  1.00  0.00    -0.307 C  
ENDBRANCH   5  21
BRANCH   5  24
HETATM   24  O   UNL     1     -10.109  13.772  66.322  1.00  0.00    -0.284 OA 
BRANCH  24  25
HETATM   25  C   UNL     1     -10.374  14.266  65.084  1.00  0.00    -0.415 C  
HETATM   26  C   UNL     1     -10.566  13.130  64.124  1.00  0.00    -0.384 C  
HETATM   27  O   UNL     1     -10.373  15.451  64.785  1.00  0.00    -0.315 OA 
ENDBRANCH  24  25
ENDBRANCH   5  24
TORSDOF 3
ENDMDL
MODEL       72
REMARK 921   NORMALIZED FREE ENERGY PREDICTED BY IDOCK:   -3.22 KCAL/MOL
REMARK 922        TOTAL FREE ENERGY PREDICTED BY IDOCK:   -3.54 KCAL/MOL
REMARK 923 INTER-LIGAND FREE ENERGY PREDICTED BY IDOCK:   -3.82 KCAL/MOL
REMARK 924 INTRA-LIGAND FREE ENERGY PREDICTED BY IDOCK:    0.27 KCAL/MOL
REMARK 927      BINDING AFFINITY PREDICTED BY RF-SCORE:    0.00 PKD
ROOT
HETATM    1  C   UNL     1      -9.075   8.412  70.413  1.00  0.00    -0.155 C  
HETATM    2  C   UNL     1      -9.821   9.573  70.769  1.00  0.00    -0.309 C  
HETATM    3  C   UNL     1     -10.179   8.601  69.720  1.00  0.00    -0.206 C  
HETATM    4  C   UNL     1     -10.949   9.373  68.819  1.00  0.00    -0.080 C  
HETATM    5  C   UNL     1      -9.322   6.799  70.079  1.00  0.00    -0.158 C  
HETATM    6  C   UNL     1     -10.600   7.242  69.919  1.00  0.00    -0.244 C  
HETATM    7  C   UNL     1      -6.467   9.462  66.778  1.00  0.00    -0.067 C  
HETATM    8  O   UNL     1      -6.916  10.493  63.409  1.00  0.00    -0.073 OA 
HETATM    9  C   UNL     1      -6.384  10.204  65.665  1.00  0.00    -0.102 C  
HETATM   10  C   UNL     1      -6.895   9.719  64.365  1.00  0.00    -0.119 C  
HETATM   11  C   UNL     1     -10.789   6.812  68.266  1.00  0.00    -0.290 C  
HETATM   12  C   UNL     1      -7.882   8.520  69.148  1.00  0.00    -0.100 C  
HETATM   13  C   UNL     1     -11.720   6.903  70.932  1.00  0.00    -0.408 C  
HETATM   14  C   UNL     1      -7.072   9.836  69.220  1.00  0.00    -0.066 C  
HETATM   15  C   UNL     1      -6.003   9.971  68.123  1.00  0.00    -0.042 C  
HETATM   16  C   UNL     1      -9.502   7.122  67.356  1.00  0.00    -0.156 C  
HETATM   17  C   UNL     1      -8.419   8.249  67.654  1.00  0.00    -0.130 C  
HETATM   18  C   UNL     1      -7.108   8.092  66.812  1.00  0.00    -0.077 C  
HETATM   19  C   UNL     1      -7.177   7.413  65.439  1.00  0.00    -0.069 C  
HETATM   20  C   UNL     1      -7.403   8.306  64.235  1.00  0.00    -0.093 C  
ENDROOT
BRANCH   5  21
HETATM   21  C   UNL     1      -9.418   5.216  69.693  1.00  0.00    -0.143 C  
HETATM   22  O   UNL     1     -10.282   4.451  70.128  1.00  0.00    -0.180 OA 
HETATM   23  C   UNL     1      -8.340   4.594  68.830  1.00  0.00    -0.085 C  
ENDBRANCH   5  21
BRANCH   5  24
HETATM   24  O   UNL     1      -9.234   6.420  71.573  1.00  0.00    -0.145 OA 
BRANCH  24  25
HETATM   25  C   UNL     1      -8.043   6.610  72.201  1.00  0.00    -0.105 C  
HETATM   26  C   UNL     1      -8.289   6.967  73.636  1.00  0.00    -0.146 C  
HETATM   27  O   UNL     1      -6.949   6.575  71.657  1.00  0.00    -0.069 OA 
ENDBRANCH  24  25
ENDBRANCH   5  24
TORSDOF 3
ENDMDL
MODEL       73
REMARK 921   NORMALIZED FREE ENERGY PREDICTED BY IDOCK:   -3.16 KCAL/MOL
REMARK 922        TOTAL FREE ENERGY PREDICTED BY IDOCK:   -3.48 KCAL/MOL
REMARK 923 INTER-LIGAND FREE ENERGY PREDICTED BY IDOCK:   -3.71 KCAL/MOL
REMARK 924 INTRA-LIGAND FREE ENERGY PREDICTED BY IDOCK:    0.23 KCAL/MOL
REMARK 927      BINDING AFFINITY PREDICTED BY RF-SCORE:    0.00 PKD
ROOT
HETATM    1  C   UNL     1      -8.169   8.450  68.659  1.00  0.00    -0.123 C  
HETATM    2  C   UNL     1      -8.587   9.320  67.611  1.00  0.00    -0.116 C  
HETATM    3  C   UNL     1      -9.426   8.315  68.289  1.00  0.00    -0.146 C  
HETATM    4  C   UNL     1     -10.392   7.991  67.308  1.00  0.00    -0.371 C  
HETATM    5  C   UNL     1      -8.703   7.896  70.136  1.00  0.00    -0.136 C  
HETATM    6  C   UNL     1      -9.887   8.362  69.649  1.00  0.00    -0.184 C  
HETATM    7  C   UNL     1      -7.057   4.405  66.784  1.00  0.00    -0.067 C  
HETATM    8  O   UNL     1      -8.647   1.813  64.947  1.00  0.00    -0.090 OA 
HETATM    9  C   UNL     1      -7.326   3.544  65.791  1.00  0.00    -0.076 C  
HETATM   10  C   UNL     1      -8.347   2.485  65.933  1.00  0.00    -0.093 C  
HETATM   11  C   UNL     1     -10.743   6.871  69.655  1.00  0.00    -0.276 C  
HETATM   12  C   UNL     1      -7.549   6.871  68.260  1.00  0.00    -0.107 C  
HETATM   13  C   UNL     1     -10.563   9.635  70.211  1.00  0.00    -0.333 C  
HETATM   14  C   UNL     1      -6.633   6.902  67.014  1.00  0.00    -0.047 C  
HETATM   15  C   UNL     1      -6.058   5.528  66.628  1.00  0.00    -0.030 C  
HETATM   16  C   UNL     1      -9.878   5.616  69.149  1.00  0.00    -0.216 C  
HETATM   17  C   UNL     1      -8.645   5.696  68.146  1.00  0.00    -0.104 C  
HETATM   18  C   UNL     1      -7.784   4.389  68.110  1.00  0.00    -0.079 C  
HETATM   19  C   UNL     1      -8.450   3.045  68.429  1.00  0.00    -0.103 C  
HETATM   20  C   UNL     1      -9.020   2.260  67.263  1.00  0.00    -0.173 C  
ENDROOT
BRANCH   5  21
HETATM   21  C   UNL     1      -9.116   7.241  71.574  1.00  0.00    -0.140 C  
HETATM   22  O   UNL     1      -9.941   7.736  72.345  1.00  0.00    -0.184 OA 
HETATM   23  C   UNL     1      -8.388   6.007  72.065  1.00  0.00    -0.118 C  
ENDBRANCH   5  21
BRANCH   5  24
HETATM   24  O   UNL     1      -8.092   9.106  70.873  1.00  0.00    -0.158 OA 
BRANCH  24  25
HETATM   25  C   UNL     1      -6.736   9.183  70.938  1.00  0.00    -0.087 C  
HETATM   26  C   UNL     1      -6.275  10.438  70.259  1.00  0.00    -0.122 C  
HETATM   27  O   UNL     1      -6.005   8.322  71.404  1.00  0.00    -0.034 OA 
ENDBRANCH  24  25
ENDBRANCH   5  24
TORSDOF 3
ENDMDL
MODEL       74
REMARK 921   NORMALIZED FREE ENERGY PREDICTED BY IDOCK:   -3.00 KCAL/MOL
REMARK 922        TOTAL FREE ENERGY PREDICTED BY IDOCK:   -3.29 KCAL/MOL
REMARK 923 INTER-LIGAND FREE ENERGY PREDICTED BY IDOCK:   -4.00 KCAL/MOL
REMARK 924 INTRA-LIGAND FREE ENERGY PREDICTED BY IDOCK:    0.71 KCAL/MOL
REMARK 927      BINDING AFFINITY PREDICTED BY RF-SCORE:    0.00 PKD
ROOT
HETATM    1  C   UNL     1     -11.169  12.449  66.412  1.00  0.00    -0.365 C  
HETATM    2  C   UNL     1     -12.367  11.718  66.657  1.00  0.00     1.264 C  
HETATM    3  C   UNL     1     -11.094  11.564  67.384  1.00  0.00    -0.339 C  
HETATM    4  C   UNL     1     -11.143  10.224  67.835  1.00  0.00    -0.341 C  
HETATM    5  C   UNL     1      -9.979  13.252  67.256  1.00  0.00    -0.231 C  
HETATM    6  C   UNL     1     -10.498  12.518  68.279  1.00  0.00    -0.243 C  
HETATM    7  C   UNL     1      -8.473   9.891  63.710  1.00  0.00    -0.182 C  
HETATM    8  O   UNL     1      -6.809   6.756  63.838  1.00  0.00    -0.050 OA 
HETATM    9  C   UNL     1      -8.112   8.640  63.387  1.00  0.00    -0.168 C  
HETATM   10  C   UNL     1      -7.007   7.946  64.081  1.00  0.00    -0.069 C  
HETATM   11  C   UNL     1      -9.082  11.623  68.664  1.00  0.00    -0.103 C  
HETATM   12  C   UNL     1      -9.989  11.806  65.304  1.00  0.00    -0.284 C  
HETATM   13  C   UNL     1     -11.329  13.162  69.414  1.00  0.00    -0.276 C  
HETATM   14  C   UNL     1     -10.646  11.167  64.058  1.00  0.00    -0.436 C  
HETATM   15  C   UNL     1      -9.638  10.589  63.048  1.00  0.00    -0.369 C  
HETATM   16  C   UNL     1      -8.261  11.111  67.382  1.00  0.00    -0.132 C  
HETATM   17  C   UNL     1      -8.886  10.824  65.947  1.00  0.00    -0.191 C  
HETATM   18  C   UNL     1      -7.812  10.683  64.816  1.00  0.00     0.067 C  
HETATM   19  C   UNL     1      -6.408  10.180  65.175  1.00  0.00    -0.121 C  
HETATM   20  C   UNL     1      -6.162   8.687  65.085  1.00  0.00    -0.060 C  
ENDROOT
BRANCH   5  21
HETATM   21  C   UNL     1      -8.726  14.037  67.950  1.00  0.00    -0.184 C  
HETATM   22  O   UNL     1      -8.787  14.597  69.047  1.00  0.00    -0.166 OA 
HETATM   23  C   UNL     1      -7.428  14.190  67.185  1.00  0.00     0.080 C  
ENDBRANCH   5  21
BRANCH   5  24
HETATM   24  O   UNL     1     -10.796  14.561  67.272  1.00  0.00    -0.286 OA 
BRANCH  24  25
HETATM   25  C   UNL     1     -11.276  15.017  66.085  1.00  0.00    -0.307 C  
HETATM   26  C   UNL     1     -10.231  15.858  65.416  1.00  0.00    -0.354 C  
HETATM   27  O   UNL     1     -12.411  14.837  65.671  1.00  0.00    -0.153 OA 
ENDBRANCH  24  25
ENDBRANCH   5  24
TORSDOF 3
ENDMDL
MODEL       75
REMARK 921   NORMALIZED FREE ENERGY PREDICTED BY IDOCK:   -2.88 KCAL/MOL
REMARK 922        TOTAL FREE ENERGY PREDICTED BY IDOCK:   -3.14 KCAL/MOL
REMARK 923 INTER-LIGAND FREE ENERGY PREDICTED BY IDOCK:   -3.93 KCAL/MOL
REMARK 924 INTRA-LIGAND FREE ENERGY PREDICTED BY IDOCK:    0.79 KCAL/MOL
REMARK 927      BINDING AFFINITY PREDICTED BY RF-SCORE:    0.00 PKD
ROOT
HETATM    1  C   UNL     1     -11.044  10.103  67.701  1.00  0.00    -0.275 C  
HETATM    2  C   UNL     1     -12.025  10.125  68.733  1.00  0.00     0.417 C  
HETATM    3  C   UNL     1     -10.572  10.291  68.916  1.00  0.00    -0.242 C  
HETATM    4  C   UNL     1     -10.361   9.836  70.238  1.00  0.00    -0.348 C  
HETATM    5  C   UNL     1      -9.700  10.956  67.210  1.00  0.00    -0.165 C  
HETATM    6  C   UNL     1      -9.779  11.412  68.492  1.00  0.00    -0.199 C  
HETATM    7  C   UNL     1      -9.257   5.873  67.528  1.00  0.00    -0.108 C  
HETATM    8  O   UNL     1      -7.417   3.690  69.642  1.00  0.00    -0.051 OA 
HETATM    9  C   UNL     1      -8.935   4.788  68.247  1.00  0.00    -0.132 C  
HETATM   10  C   UNL     1      -7.610   4.640  68.885  1.00  0.00    -0.064 C  
HETATM   11  C   UNL     1      -8.253  10.837  69.036  1.00  0.00    -0.139 C  
HETATM   12  C   UNL     1     -10.272   8.597  67.288  1.00  0.00    -0.337 C  
HETATM   13  C   UNL     1     -10.215  12.859  68.824  1.00  0.00    -0.105 C  
HETATM   14  C   UNL     1     -11.267   7.413  67.286  1.00  0.00     0.160 C  
HETATM   15  C   UNL     1     -10.628   6.061  66.923  1.00  0.00    -0.384 C  
HETATM   16  C   UNL     1      -7.887   9.360  68.520  1.00  0.00    -0.089 C  
HETATM   17  C   UNL     1      -8.944   8.238  68.126  1.00  0.00    -0.139 C  
HETATM   18  C   UNL     1      -8.317   7.043  67.333  1.00  0.00    -0.122 C  
HETATM   19  C   UNL     1      -6.842   6.688  67.554  1.00  0.00    -0.076 C  
HETATM   20  C   UNL     1      -6.530   5.659  68.624  1.00  0.00    -0.043 C  
ENDROOT
BRANCH   5  21
HETATM   21  C   UNL     1      -8.348  11.671  66.636  1.00  0.00    -0.154 C  
HETATM   22  O   UNL     1      -7.414  11.059  66.115  1.00  0.00    -0.141 OA 
HETATM   23  C   UNL     1      -8.154  13.160  66.832  1.00  0.00     0.065 C  
ENDBRANCH   5  21
BRANCH   5  24
HETATM   24  O   UNL     1     -10.559  11.950  66.399  1.00  0.00    -0.233 OA 
BRANCH  24  25
HETATM   25  C   UNL     1     -10.941  11.576  65.150  1.00  0.00    -0.234 C  
HETATM   26  C   UNL     1     -12.186  12.319  64.767  1.00  0.00    -0.438 C  
HETATM   27  O   UNL     1     -10.402  10.708  64.480  1.00  0.00    -0.355 OA 
ENDBRANCH  24  25
ENDBRANCH   5  24
TORSDOF 3
ENDMDL
MODEL       76
REMARK 921   NORMALIZED FREE ENERGY PREDICTED BY IDOCK:   -2.78 KCAL/MOL
REMARK 922        TOTAL FREE ENERGY PREDICTED BY IDOCK:   -3.04 KCAL/MOL
REMARK 923 INTER-LIGAND FREE ENERGY PREDICTED BY IDOCK:   -3.74 KCAL/MOL
REMARK 924 INTRA-LIGAND FREE ENERGY PREDICTED BY IDOCK:    0.70 KCAL/MOL
REMARK 927      BINDING AFFINITY PREDICTED BY RF-SCORE:    0.00 PKD
ROOT
HETATM    1  C   UNL     1      -8.851   5.132  66.789  1.00  0.00    -0.110 C  
HETATM    2  C   UNL     1     -10.143   4.956  66.216  1.00  0.00    -0.285 C  
HETATM    3  C   UNL     1      -9.527   6.243  66.587  1.00  0.00    -0.178 C  
HETATM    4  C   UNL     1     -10.645   7.069  66.849  1.00  0.00    -0.372 C  
HETATM    5  C   UNL     1      -7.505   6.097  66.613  1.00  0.00    -0.090 C  
HETATM    6  C   UNL     1      -8.405   6.872  65.945  1.00  0.00    -0.137 C  
HETATM    7  C   UNL     1      -9.360   5.509  71.341  1.00  0.00    -0.174 C  
HETATM    8  O   UNL     1     -10.940   7.692  73.654  1.00  0.00    -0.301 OA 
HETATM    9  C   UNL     1     -10.166   5.937  72.323  1.00  0.00    -0.222 C  
HETATM   10  C   UNL     1     -10.089   7.315  72.851  1.00  0.00    -0.227 C  
HETATM   11  C   UNL     1      -8.309   8.260  66.954  1.00  0.00    -0.114 C  
HETATM   12  C   UNL     1      -8.686   5.171  68.524  1.00  0.00    -0.101 C  
HETATM   13  C   UNL     1      -8.365   7.038  64.407  1.00  0.00     0.119 C  
HETATM   14  C   UNL     1      -9.588   4.125  69.220  1.00  0.00    -0.256 C  
HETATM   15  C   UNL     1      -9.471   4.122  70.754  1.00  0.00    -0.242 C  
HETATM   16  C   UNL     1      -8.246   7.927  68.524  1.00  0.00    -0.127 C  
HETATM   17  C   UNL     1      -8.842   6.620  69.209  1.00  0.00    -0.133 C  
HETATM   18  C   UNL     1      -8.332   6.395  70.672  1.00  0.00    -0.133 C  
HETATM   19  C   UNL     1      -7.923   7.607  71.518  1.00  0.00    -0.096 C  
HETATM   20  C   UNL     1      -8.994   8.241  72.384  1.00  0.00    -0.297 C  
ENDROOT
BRANCH   5  21
HETATM   21  C   UNL     1      -6.139   6.990  66.580  1.00  0.00    -0.038 C  
HETATM   22  O   UNL     1      -5.468   7.261  67.579  1.00  0.00    -0.022 OA 
HETATM   23  C   UNL     1      -5.695   7.623  65.277  1.00  0.00    -0.037 C  
ENDBRANCH   5  21
BRANCH   5  24
HETATM   24  O   UNL     1      -6.917   5.173  65.526  1.00  0.00    -0.062 OA 
BRANCH  24  25
HETATM   25  C   UNL     1      -6.423   3.970  65.923  1.00  0.00    -0.033 C  
HETATM   26  C   UNL     1      -6.896   2.903  64.982  1.00  0.00    -0.044 C  
HETATM   27  O   UNL     1      -5.765   3.780  66.935  1.00  0.00    -0.021 OA 
ENDBRANCH  24  25
ENDBRANCH   5  24
TORSDOF 3
ENDMDL
MODEL       77
REMARK 921   NORMALIZED FREE ENERGY PREDICTED BY IDOCK:   -2.71 KCAL/MOL
REMARK 922        TOTAL FREE ENERGY PREDICTED BY IDOCK:   -2.95 KCAL/MOL
REMARK 923 INTER-LIGAND FREE ENERGY PREDICTED BY IDOCK:   -4.11 KCAL/MOL
REMARK 924 INTRA-LIGAND FREE ENERGY PREDICTED BY IDOCK:    1.16 KCAL/MOL
REMARK 927      BINDING AFFINITY PREDICTED BY RF-SCORE:    0.00 PKD
ROOT
HETATM    1  C   UNL     1      -7.661   9.698  67.714  1.00  0.00    -0.094 C  
HETATM    2  C   UNL     1      -7.870   9.167  69.019  1.00  0.00    -0.090 C  
HETATM    3  C   UNL     1      -8.916   9.443  68.018  1.00  0.00    -0.128 C  
HETATM    4  C   UNL     1     -10.063   9.681  68.811  1.00  0.00    -0.193 C  
HETATM    5  C   UNL     1      -8.146   9.431  66.143  1.00  0.00    -0.111 C  
HETATM    6  C   UNL     1      -9.128   8.738  66.784  1.00  0.00    -0.180 C  
HETATM    7  C   UNL     1      -8.411  14.229  67.888  1.00  0.00    -0.168 C  
HETATM    8  O   UNL     1     -11.095  16.440  68.613  1.00  0.00    -0.338 OA 
HETATM    9  C   UNL     1      -9.120  15.202  68.480  1.00  0.00    -0.191 C  
HETATM   10  C   UNL     1     -10.429  15.641  67.955  1.00  0.00    -0.263 C  
HETATM   11  C   UNL     1     -10.466   9.657  66.218  1.00  0.00    -0.149 C  
HETATM   12  C   UNL     1      -7.736  11.422  67.472  1.00  0.00    -0.125 C  
HETATM   13  C   UNL     1      -9.194   7.192  66.759  1.00  0.00    -0.188 C  
HETATM   14  C   UNL     1      -7.061  12.203  68.625  1.00  0.00    -0.103 C  
HETATM   15  C   UNL     1      -7.100  13.731  68.450  1.00  0.00    -0.105 C  
HETATM   16  C   UNL     1     -10.211  11.242  66.197  1.00  0.00    -0.291 C  
HETATM   17  C   UNL     1      -9.194  12.021  67.141  1.00  0.00    -0.190 C  
HETATM   18  C   UNL     1      -8.895  13.482  66.665  1.00  0.00    -0.080 C  
HETATM   19  C   UNL     1      -9.959  14.241  65.864  1.00  0.00    -0.340 C  
HETATM   20  C   UNL     1     -10.940  15.092  66.648  1.00  0.00    -0.325 C  
ENDROOT
BRANCH   5  21
HETATM   21  C   UNL     1      -8.563   9.311  64.569  1.00  0.00    -0.195 C  
HETATM   22  O   UNL     1      -8.752   8.241  63.986  1.00  0.00     0.077 OA 
HETATM   23  C   UNL     1      -8.631  10.563  63.720  1.00  0.00    -0.151 C  
ENDBRANCH   5  21
BRANCH   5  24
HETATM   24  O   UNL     1      -7.030   8.389  65.917  1.00  0.00    -0.066 OA 
BRANCH  24  25
HETATM   25  C   UNL     1      -5.816   8.637  66.477  1.00  0.00    -0.051 C  
HETATM   26  C   UNL     1      -5.162   9.781  65.760  1.00  0.00    -0.039 C  
HETATM   27  O   UNL     1      -5.305   7.976  67.369  1.00  0.00    -0.031 OA 
ENDBRANCH  24  25
ENDBRANCH   5  24
TORSDOF 3
ENDMDL
MODEL       78
REMARK 921   NORMALIZED FREE ENERGY PREDICTED BY IDOCK:   -2.40 KCAL/MOL
REMARK 922        TOTAL FREE ENERGY PREDICTED BY IDOCK:   -2.59 KCAL/MOL
REMARK 923 INTER-LIGAND FREE ENERGY PREDICTED BY IDOCK:   -3.77 KCAL/MOL
REMARK 924 INTRA-LIGAND FREE ENERGY PREDICTED BY IDOCK:    1.18 KCAL/MOL
REMARK 927      BINDING AFFINITY PREDICTED BY RF-SCORE:    0.00 PKD
ROOT
HETATM    1  C   UNL     1      -9.438   8.320  70.826  1.00  0.00    -0.185 C  
HETATM    2  C   UNL     1      -9.150   9.168  71.933  1.00  0.00     0.138 C  
HETATM    3  C   UNL     1      -8.248   8.150  71.364  1.00  0.00    -0.141 C  
HETATM    4  C   UNL     1      -7.436   7.791  72.465  1.00  0.00    -0.101 C  
HETATM    5  C   UNL     1      -8.717   7.769  69.429  1.00  0.00    -0.135 C  
HETATM    6  C   UNL     1      -7.601   8.200  70.082  1.00  0.00    -0.077 C  
HETATM    7  C   UNL     1     -10.894   4.283  72.470  1.00  0.00    -0.067 C  
HETATM    8  O   UNL     1      -9.636   1.633  74.471  1.00  0.00    -0.067 OA 
HETATM    9  C   UNL     1     -10.786   3.406  73.478  1.00  0.00    -0.306 C  
HETATM   10  C   UNL     1      -9.780   2.323  73.463  1.00  0.00    -0.090 C  
HETATM   11  C   UNL     1      -6.788   6.688  70.173  1.00  0.00    -0.061 C  
HETATM   12  C   UNL     1     -10.144   6.753  71.112  1.00  0.00    -0.198 C  
HETATM   13  C   UNL     1      -6.825   9.462  69.638  1.00  0.00    -0.056 C  
HETATM   14  C   UNL     1     -11.224   6.793  72.218  1.00  0.00    -0.295 C  
HETATM   15  C   UNL     1     -11.878   5.429  72.501  1.00  0.00    -0.110 C  
HETATM   16  C   UNL     1      -7.744   5.450  70.536  1.00  0.00    -0.084 C  
HETATM   17  C   UNL     1      -9.102   5.550  71.360  1.00  0.00    -0.157 C  
HETATM   18  C   UNL     1      -9.990   4.264  71.257  1.00  0.00    -0.230 C  
HETATM   19  C   UNL     1      -9.318   2.908  71.014  1.00  0.00    -0.218 C  
HETATM   20  C   UNL     1      -8.934   2.096  72.236  1.00  0.00    -0.106 C  
ENDROOT
BRANCH   5  21
HETATM   21  C   UNL     1      -8.123   7.120  68.053  1.00  0.00    -0.120 C  
HETATM   22  O   UNL     1      -8.313   5.953  67.704  1.00  0.00    -0.105 OA 
HETATM   23  C   UNL     1      -7.197   7.944  67.182  1.00  0.00    -0.090 C  
ENDBRANCH   5  21
BRANCH   5  24
HETATM   24  O   UNL     1      -9.192   9.002  68.632  1.00  0.00    -0.136 OA 
BRANCH  24  25
HETATM   25  C   UNL     1     -10.329   8.877  67.897  1.00  0.00    -0.230 C  
HETATM   26  C   UNL     1     -10.816  10.237  67.497  1.00  0.00    -0.355 C  
HETATM   27  O   UNL     1     -10.906   7.824  67.672  1.00  0.00    -0.187 OA 
ENDBRANCH  24  25
ENDBRANCH   5  24
TORSDOF 3
ENDMDL
MODEL       79
REMARK 921   NORMALIZED FREE ENERGY PREDICTED BY IDOCK:   -2.40 KCAL/MOL
REMARK 922        TOTAL FREE ENERGY PREDICTED BY IDOCK:   -2.58 KCAL/MOL
REMARK 923 INTER-LIGAND FREE ENERGY PREDICTED BY IDOCK:   -3.39 KCAL/MOL
REMARK 924 INTRA-LIGAND FREE ENERGY PREDICTED BY IDOCK:    0.81 KCAL/MOL
REMARK 927      BINDING AFFINITY PREDICTED BY RF-SCORE:    0.00 PKD
ROOT
HETATM    1  C   UNL     1      -8.859   5.324  67.909  1.00  0.00    -0.105 C  
HETATM    2  C   UNL     1     -10.052   4.545  67.910  1.00  0.00    -0.047 C  
HETATM    3  C   UNL     1      -9.230   4.869  66.730  1.00  0.00    -0.122 C  
HETATM    4  C   UNL     1     -10.162   4.819  65.668  1.00  0.00    -0.213 C  
HETATM    5  C   UNL     1      -7.321   5.287  67.271  1.00  0.00    -0.083 C  
HETATM    6  C   UNL     1      -7.910   4.377  66.445  1.00  0.00    -0.098 C  
HETATM    7  C   UNL     1      -9.975   9.624  66.735  1.00  0.00    -0.289 C  
HETATM    8  O   UNL     1     -11.369  11.329  63.949  1.00  0.00    -0.317 OA 
HETATM    9  C   UNL     1     -10.809  10.382  66.008  1.00  0.00     0.046 C  
HETATM   10  C   UNL     1     -10.508  10.748  64.608  1.00  0.00    -0.276 C  
HETATM   11  C   UNL     1      -7.664   5.215  64.965  1.00  0.00    -0.085 C  
HETATM   12  C   UNL     1      -8.962   7.041  67.634  1.00  0.00    -0.117 C  
HETATM   13  C   UNL     1      -7.594   2.865  66.531  1.00  0.00    -0.076 C  
HETATM   14  C   UNL     1     -10.172   7.676  68.359  1.00  0.00    -0.226 C  
HETATM   15  C   UNL     1     -10.300   9.195  68.147  1.00  0.00    -0.263 C  
HETATM   16  C   UNL     1      -7.923   6.798  65.056  1.00  0.00    -0.125 C  
HETATM   17  C   UNL     1      -8.896   7.510  66.095  1.00  0.00    -0.185 C  
HETATM   18  C   UNL     1      -8.683   9.058  66.187  1.00  0.00    -0.169 C  
HETATM   19  C   UNL     1      -8.151   9.815  64.965  1.00  0.00    -0.134 C  
HETATM   20  C   UNL     1      -9.175  10.386  64.004  1.00  0.00    -0.300 C  
ENDROOT
BRANCH   5  21
HETATM   21  C   UNL     1      -5.801   5.404  66.685  1.00  0.00    -0.018 C  
HETATM   22  O   UNL     1      -5.144   6.447  66.676  1.00  0.00    -0.008 OA 
HETATM   23  C   UNL     1      -5.169   4.202  66.014  1.00  0.00    -0.009 C  
ENDBRANCH   5  21
BRANCH   5  24
HETATM   24  O   UNL     1      -6.792   4.445  68.451  1.00  0.00    -0.049 OA 
BRANCH  24  25
HETATM   25  C   UNL     1      -6.737   5.039  69.673  1.00  0.00    -0.051 C  
HETATM   26  C   UNL     1      -7.301   4.108  70.705  1.00  0.00    -0.041 C  
HETATM   27  O   UNL     1      -6.364   6.184  69.881  1.00  0.00    -0.032 OA 
ENDBRANCH  24  25
ENDBRANCH   5  24
TORSDOF 3
ENDMDL
MODEL       80
REMARK 921   NORMALIZED FREE ENERGY PREDICTED BY IDOCK:   -2.28 KCAL/MOL
REMARK 922        TOTAL FREE ENERGY PREDICTED BY IDOCK:   -2.45 KCAL/MOL
REMARK 923 INTER-LIGAND FREE ENERGY PREDICTED BY IDOCK:   -3.26 KCAL/MOL
REMARK 924 INTRA-LIGAND FREE ENERGY PREDICTED BY IDOCK:    0.81 KCAL/MOL
REMARK 927      BINDING AFFINITY PREDICTED BY RF-SCORE:    0.00 PKD
ROOT
HETATM    1  C   UNL     1      -7.100   5.737  66.889  1.00  0.00    -0.070 C  
HETATM    2  C   UNL     1      -5.812   6.314  66.703  1.00  0.00    -0.020 C  
HETATM    3  C   UNL     1      -6.172   5.309  67.719  1.00  0.00    -0.038 C  
HETATM    4  C   UNL     1      -5.239   5.552  68.754  1.00  0.00     0.000 C  
HETATM    5  C   UNL     1      -7.797   4.245  67.140  1.00  0.00    -0.096 C  
HETATM    6  C   UNL     1      -6.515   3.934  67.478  1.00  0.00    -0.038 C  
HETATM    7  C   UNL     1      -9.215   8.042  70.256  1.00  0.00    -0.155 C  
HETATM    8  O   UNL     1      -8.748   8.691  73.716  1.00  0.00    -0.238 OA 
HETATM    9  C   UNL     1      -9.040   8.720  71.400  1.00  0.00    -0.313 C  
HETATM   10  C   UNL     1      -9.047   8.044  72.714  1.00  0.00    -0.238 C  
HETATM   11  C   UNL     1      -6.810   3.479  69.110  1.00  0.00    -0.045 C  
HETATM   12  C   UNL     1      -8.212   6.475  68.010  1.00  0.00    -0.116 C  
HETATM   13  C   UNL     1      -5.622   3.041  66.584  1.00  0.00    -0.021 C  
HETATM   14  C   UNL     1      -8.179   8.019  67.933  1.00  0.00    -0.129 C  
HETATM   15  C   UNL     1      -9.150   8.713  68.904  1.00  0.00    -0.145 C  
HETATM   16  C   UNL     1      -7.844   4.437  69.881  1.00  0.00    -0.053 C  
HETATM   17  C   UNL     1      -8.110   5.967  69.535  1.00  0.00    -0.106 C  
HETATM   18  C   UNL     1      -9.403   6.542  70.204  1.00  0.00    -0.162 C  
HETATM   19  C   UNL     1      -9.893   5.940  71.527  1.00  0.00    -0.201 C  
HETATM   20  C   UNL     1      -9.392   6.579  72.807  1.00  0.00    -0.146 C  
ENDROOT
BRANCH   5  21
HETATM   21  C   UNL     1      -8.612   2.859  67.427  1.00  0.00    -0.102 C  
HETATM   22  O   UNL     1      -9.610   2.782  68.146  1.00  0.00    -0.196 OA 
HETATM   23  C   UNL     1      -8.077   1.554  66.873  1.00  0.00    -0.073 C  
ENDBRANCH   5  21
BRANCH   5  24
HETATM   24  O   UNL     1      -7.870   3.963  65.624  1.00  0.00    -0.088 OA 
BRANCH  24  25
HETATM   25  C   UNL     1      -8.884   4.540  64.925  1.00  0.00    -0.148 C  
HETATM   26  C   UNL     1      -8.319   5.290  63.756  1.00  0.00    -0.123 C  
HETATM   27  O   UNL     1     -10.062   4.519  65.249  1.00  0.00    -0.195 OA 
ENDBRANCH  24  25
ENDBRANCH   5  24
TORSDOF 3
ENDMDL
MODEL       81
REMARK 921   NORMALIZED FREE ENERGY PREDICTED BY IDOCK:   -2.27 KCAL/MOL
REMARK 922        TOTAL FREE ENERGY PREDICTED BY IDOCK:   -2.43 KCAL/MOL
REMARK 923 INTER-LIGAND FREE ENERGY PREDICTED BY IDOCK:   -3.59 KCAL/MOL
REMARK 924 INTRA-LIGAND FREE ENERGY PREDICTED BY IDOCK:    1.16 KCAL/MOL
REMARK 927      BINDING AFFINITY PREDICTED BY RF-SCORE:    0.00 PKD
ROOT
HETATM    1  C   UNL     1     -10.154   6.231  69.105  1.00  0.00    -0.204 C  
HETATM    2  C   UNL     1     -11.485   5.973  68.668  1.00  0.00     0.277 C  
HETATM    3  C   UNL     1     -10.310   6.167  67.800  1.00  0.00    -0.247 C  
HETATM    4  C   UNL     1     -10.876   6.663  66.602  1.00  0.00    -0.185 C  
HETATM    5  C   UNL     1      -8.597   5.731  68.792  1.00  0.00    -0.109 C  
HETATM    6  C   UNL     1      -9.195   5.273  67.656  1.00  0.00    -0.121 C  
HETATM    7  C   UNL     1      -9.454  10.769  68.923  1.00  0.00    -0.190 C  
HETATM    8  O   UNL     1      -9.397  13.341  66.474  1.00  0.00    -0.253 OA 
HETATM    9  C   UNL     1      -9.764  11.902  68.276  1.00  0.00    -0.200 C  
HETATM   10  C   UNL     1      -8.987  12.370  67.109  1.00  0.00    -0.195 C  
HETATM   11  C   UNL     1      -8.293   6.205  66.528  1.00  0.00    -0.113 C  
HETATM   12  C   UNL     1      -9.618   7.880  69.282  1.00  0.00    -0.157 C  
HETATM   13  C   UNL     1      -9.420   3.764  67.397  1.00  0.00    -0.239 C  
HETATM   14  C   UNL     1     -10.709   8.785  69.901  1.00  0.00    -0.228 C  
HETATM   15  C   UNL     1     -10.277  10.251  70.079  1.00  0.00    -0.214 C  
HETATM   16  C   UNL     1      -8.043   7.725  66.984  1.00  0.00    -0.117 C  
HETATM   17  C   UNL     1      -8.982   8.554  67.965  1.00  0.00    -0.141 C  
HETATM   18  C   UNL     1      -8.316   9.864  68.505  1.00  0.00    -0.108 C  
HETATM   19  C   UNL     1      -7.252  10.569  67.655  1.00  0.00    -0.086 C  
HETATM   20  C   UNL     1      -7.730  11.646  66.700  1.00  0.00    -0.065 C  
ENDROOT
BRANCH   5  21
HETATM   21  C   UNL     1      -7.021   5.367  68.564  1.00  0.00    -0.061 C  
HETATM   22  O   UNL     1      -6.122   6.207  68.503  1.00  0.00    -0.022 OA 
HETATM   23  C   UNL     1      -6.620   3.929  68.306  1.00  0.00    -0.045 C  
ENDBRANCH   5  21
BRANCH   5  24
HETATM   24  O   UNL     1      -8.715   4.556  69.785  1.00  0.00    -0.075 OA 
BRANCH  24  25
HETATM   25  C   UNL     1      -8.736   4.853  71.112  1.00  0.00    -0.126 C  
HETATM   26  C   UNL     1     -10.125   4.661  71.643  1.00  0.00    -0.258 C  
HETATM   27  O   UNL     1      -7.789   5.289  71.749  1.00  0.00    -0.105 OA 
ENDBRANCH  24  25
ENDBRANCH   5  24
TORSDOF 3
ENDMDL
MODEL       82
REMARK 921   NORMALIZED FREE ENERGY PREDICTED BY IDOCK:   -2.10 KCAL/MOL
REMARK 922        TOTAL FREE ENERGY PREDICTED BY IDOCK:   -2.23 KCAL/MOL
REMARK 923 INTER-LIGAND FREE ENERGY PREDICTED BY IDOCK:   -3.17 KCAL/MOL
REMARK 924 INTRA-LIGAND FREE ENERGY PREDICTED BY IDOCK:    0.94 KCAL/MOL
REMARK 927      BINDING AFFINITY PREDICTED BY RF-SCORE:    0.00 PKD
ROOT
HETATM    1  C   UNL     1      -8.413   7.386  66.687  1.00  0.00    -0.124 C  
HETATM    2  C   UNL     1      -9.141   6.757  65.637  1.00  0.00     0.093 C  
HETATM    3  C   UNL     1      -9.678   7.139  66.956  1.00  0.00    -0.222 C  
HETATM    4  C   UNL     1     -10.739   6.224  67.146  1.00  0.00    -0.432 C  
HETATM    5  C   UNL     1      -8.583   8.633  67.778  1.00  0.00    -0.136 C  
HETATM    6  C   UNL     1      -9.893   8.475  67.439  1.00  0.00    -0.244 C  
HETATM    7  C   UNL     1      -7.028   4.120  69.608  1.00  0.00    -0.045 C  
HETATM    8  O   UNL     1      -8.490   1.698  71.756  1.00  0.00    -0.050 OA 
HETATM    9  C   UNL     1      -7.330   2.929  70.146  1.00  0.00    -0.040 C  
HETATM   10  C   UNL     1      -8.130   2.814  71.383  1.00  0.00    -0.058 C  
HETATM   11  C   UNL     1     -10.488   8.066  68.999  1.00  0.00    -0.212 C  
HETATM   12  C   UNL     1      -7.633   6.401  67.894  1.00  0.00    -0.102 C  
HETATM   13  C   UNL     1     -10.650   9.514  66.578  1.00  0.00    -0.133 C  
HETATM   14  C   UNL     1      -6.968   5.146  67.281  1.00  0.00    -0.065 C  
HETATM   15  C   UNL     1      -6.262   4.247  68.312  1.00  0.00    -0.032 C  
HETATM   16  C   UNL     1      -9.540   7.063  69.820  1.00  0.00    -0.151 C  
HETATM   17  C   UNL     1      -8.533   6.015  69.173  1.00  0.00    -0.114 C  
HETATM   18  C   UNL     1      -7.497   5.434  70.193  1.00  0.00    -0.069 C  
HETATM   19  C   UNL     1      -7.876   5.344  71.676  1.00  0.00    -0.111 C  
HETATM   20  C   UNL     1      -8.513   4.053  72.152  1.00  0.00    -0.109 C  
ENDROOT
BRANCH   5  21
HETATM   21  C   UNL     1      -8.627   9.795  68.925  1.00  0.00    -0.134 C  
HETATM   22  O   UNL     1      -9.350  10.792  68.869  1.00  0.00    -0.176 OA 
HETATM   23  C   UNL     1      -7.661   9.727  70.090  1.00  0.00    -0.188 C  
ENDBRANCH   5  21
BRANCH   5  24
HETATM   24  O   UNL     1      -8.049   9.667  66.764  1.00  0.00    -0.112 OA 
BRANCH  24  25
HETATM   25  C   UNL     1      -6.779  10.120  66.938  1.00  0.00    -0.079 C  
HETATM   26  C   UNL     1      -5.821   8.972  66.824  1.00  0.00    -0.052 C  
HETATM   27  O   UNL     1      -6.475  11.268  67.225  1.00  0.00    -0.068 OA 
ENDBRANCH  24  25
ENDBRANCH   5  24
TORSDOF 3
ENDMDL
MODEL       83
REMARK 921   NORMALIZED FREE ENERGY PREDICTED BY IDOCK:   -1.88 KCAL/MOL
REMARK 922        TOTAL FREE ENERGY PREDICTED BY IDOCK:   -1.97 KCAL/MOL
REMARK 923 INTER-LIGAND FREE ENERGY PREDICTED BY IDOCK:   -2.69 KCAL/MOL
REMARK 924 INTRA-LIGAND FREE ENERGY PREDICTED BY IDOCK:    0.72 KCAL/MOL
REMARK 927      BINDING AFFINITY PREDICTED BY RF-SCORE:    0.00 PKD
ROOT
HETATM    1  C   UNL     1      -8.291   5.773  66.511  1.00  0.00    -0.111 C  
HETATM    2  C   UNL     1      -7.226   5.338  65.671  1.00  0.00    -0.068 C  
HETATM    3  C   UNL     1      -7.194   5.411  67.143  1.00  0.00    -0.075 C  
HETATM    4  C   UNL     1      -5.820   5.590  67.424  1.00  0.00    -0.017 C  
HETATM    5  C   UNL     1      -9.067   5.319  67.913  1.00  0.00    -0.110 C  
HETATM    6  C   UNL     1      -7.930   4.582  68.057  1.00  0.00    -0.084 C  
HETATM    7  C   UNL     1      -7.570  10.193  67.542  1.00  0.00    -0.091 C  
HETATM    8  O   UNL     1      -5.132  12.154  69.222  1.00  0.00    -0.059 OA 
HETATM    9  C   UNL     1      -6.637  11.131  67.759  1.00  0.00    -0.064 C  
HETATM   10  C   UNL     1      -6.079  11.378  69.105  1.00  0.00    -0.055 C  
HETATM   11  C   UNL     1      -7.375   5.297  69.519  1.00  0.00    -0.061 C  
HETATM   12  C   UNL     1      -8.384   7.451  66.971  1.00  0.00    -0.121 C  
HETATM   13  C   UNL     1      -7.925   3.042  67.908  1.00  0.00    -0.071 C  
HETATM   14  C   UNL     1      -8.031   8.397  65.800  1.00  0.00    -0.108 C  
HETATM   15  C   UNL     1      -8.104   9.891  66.161  1.00  0.00    -0.119 C  
HETATM   16  C   UNL     1      -7.546   6.893  69.574  1.00  0.00    -0.099 C  
HETATM   17  C   UNL     1      -7.582   7.856  68.308  1.00  0.00    -0.116 C  
HETATM   18  C   UNL     1      -8.108   9.295  68.633  1.00  0.00    -0.105 C  
HETATM   19  C   UNL     1      -7.914   9.861  70.045  1.00  0.00    -0.194 C  
HETATM   20  C   UNL     1      -6.654  10.665  70.302  1.00  0.00    -0.127 C  
ENDROOT
BRANCH   5  21
HETATM   21  C   UNL     1      -9.891   5.017  69.291  1.00  0.00    -0.196 C  
HETATM   22  O   UNL     1      -9.993   3.900  69.802  1.00  0.00    -0.145 OA 
HETATM   23  C   UNL     1     -10.673   6.135  69.949  1.00  0.00    -0.366 C  
ENDBRANCH   5  21
BRANCH   5  24
HETATM   24  O   UNL     1     -10.029   4.388  67.145  1.00  0.00    -0.196 OA 
BRANCH  24  25
HETATM   25  C   UNL     1     -10.771   4.937  66.146  1.00  0.00    -0.184 C  
HETATM   26  C   UNL     1     -11.483   6.151  66.665  1.00  0.00     0.494 C  
HETATM   27  O   UNL     1     -10.900   4.466  65.027  1.00  0.00    -0.242 OA 
ENDBRANCH  24  25
ENDBRANCH   5  24
TORSDOF 3
ENDMDL
MODEL       84
REMARK 921   NORMALIZED FREE ENERGY PREDICTED BY IDOCK:   -1.75 KCAL/MOL
REMARK 922        TOTAL FREE ENERGY PREDICTED BY IDOCK:   -1.82 KCAL/MOL
REMARK 923 INTER-LIGAND FREE ENERGY PREDICTED BY IDOCK:   -3.91 KCAL/MOL
REMARK 924 INTRA-LIGAND FREE ENERGY PREDICTED BY IDOCK:    2.09 KCAL/MOL
REMARK 927      BINDING AFFINITY PREDICTED BY RF-SCORE:    0.00 PKD
ROOT
HETATM    1  C   UNL     1     -10.305  10.369  67.790  1.00  0.00    -0.245 C  
HETATM    2  C   UNL     1     -11.296   9.913  66.873  1.00  0.00     0.682 C  
HETATM    3  C   UNL     1     -10.628  11.227  66.845  1.00  0.00    -0.300 C  
HETATM    4  C   UNL     1     -11.580  12.056  66.208  1.00  0.00    -0.378 C  
HETATM    5  C   UNL     1      -8.833  11.146  67.784  1.00  0.00    -0.135 C  
HETATM    6  C   UNL     1      -9.249  11.479  66.530  1.00  0.00    -0.203 C  
HETATM    7  C   UNL     1     -12.399  12.921  70.987  1.00  0.00    -0.318 C  
HETATM    8  O   UNL     1     -14.278  15.931  71.157  1.00  0.00    -0.268 OA 
HETATM    9  C   UNL     1     -13.417  13.761  71.228  1.00  0.00    -0.234 C  
HETATM   10  C   UNL     1     -13.277  15.222  71.054  1.00  0.00    -0.484 C  
HETATM   11  C   UNL     1      -9.270  13.185  66.738  1.00  0.00    -0.232 C  
HETATM   12  C   UNL     1     -10.798  11.256  69.207  1.00  0.00    -0.259 C  
HETATM   13  C   UNL     1      -8.604  10.870  65.261  1.00  0.00    -0.103 C  
HETATM   14  C   UNL     1     -12.079  10.670  69.846  1.00  0.00    -0.372 C  
HETATM   15  C   UNL     1     -12.548  11.422  71.104  1.00  0.00    -0.490 C  
HETATM   16  C   UNL     1      -9.867  13.665  68.150  1.00  0.00    -0.236 C  
HETATM   17  C   UNL     1     -10.917  12.853  69.027  1.00  0.00    -0.244 C  
HETATM   18  C   UNL     1     -11.046  13.382  70.495  1.00  0.00     1.021 C  
HETATM   19  C   UNL     1     -10.758  14.859  70.786  1.00  0.00     0.079 C  
HETATM   20  C   UNL     1     -11.931  15.818  70.730  1.00  0.00    -0.444 C  
ENDROOT
BRANCH   5  21
HETATM   21  C   UNL     1      -7.408  11.931  67.931  1.00  0.00    -0.104 C  
HETATM   22  O   UNL     1      -7.298  13.159  67.961  1.00  0.00    -0.097 OA 
HETATM   23  C   UNL     1      -6.118  11.137  67.932  1.00  0.00    -0.049 C  
ENDBRANCH   5  21
BRANCH   5  24
HETATM   24  O   UNL     1      -8.070   9.818  67.592  1.00  0.00    -0.112 OA 
BRANCH  24  25
HETATM   25  C   UNL     1      -8.340   8.808  68.461  1.00  0.00    -0.129 C  
HETATM   26  C   UNL     1      -8.269   7.496  67.737  1.00  0.00    -0.119 C  
HETATM   27  O   UNL     1      -8.669   8.954  69.629  1.00  0.00    -0.132 OA 
ENDBRANCH  24  25
ENDBRANCH   5  24
TORSDOF 3
ENDMDL
MODEL       85
REMARK 921   NORMALIZED FREE ENERGY PREDICTED BY IDOCK:   -1.48 KCAL/MOL
REMARK 922        TOTAL FREE ENERGY PREDICTED BY IDOCK:   -1.50 KCAL/MOL
REMARK 923 INTER-LIGAND FREE ENERGY PREDICTED BY IDOCK:   -3.26 KCAL/MOL
REMARK 924 INTRA-LIGAND FREE ENERGY PREDICTED BY IDOCK:    1.76 KCAL/MOL
REMARK 927      BINDING AFFINITY PREDICTED BY RF-SCORE:    0.00 PKD
ROOT
HETATM    1  C   UNL     1      -8.406  11.141  68.836  1.00  0.00    -0.101 C  
HETATM    2  C   UNL     1      -9.312  10.938  69.917  1.00  0.00     0.745 C  
HETATM    3  C   UNL     1      -9.246  10.139  68.681  1.00  0.00    -0.157 C  
HETATM    4  C   UNL     1     -10.565   9.648  68.546  1.00  0.00    -0.253 C  
HETATM    5  C   UNL     1      -7.406  10.261  67.838  1.00  0.00    -0.087 C  
HETATM    6  C   UNL     1      -8.189   9.244  68.295  1.00  0.00    -0.115 C  
HETATM    7  C   UNL     1     -10.568  13.609  65.618  1.00  0.00    -0.294 C  
HETATM    8  O   UNL     1     -13.397  13.289  63.495  1.00  0.00     0.572 OA 
HETATM    9  C   UNL     1     -11.753  13.871  65.048  1.00  0.00    -0.365 C  
HETATM   10  C   UNL     1     -12.248  13.096  63.891  1.00  0.00    -0.433 C  
HETATM   11  C   UNL     1      -8.840   8.754  66.782  1.00  0.00    -0.147 C  
HETATM   12  C   UNL     1      -8.880  12.163  67.506  1.00  0.00    -0.175 C  
HETATM   13  C   UNL     1      -7.657   8.178  69.282  1.00  0.00    -0.095 C  
HETATM   14  C   UNL     1      -9.644  13.421  67.981  1.00  0.00    -0.219 C  
HETATM   15  C   UNL     1     -10.079  14.355  66.838  1.00  0.00    -0.259 C  
HETATM   16  C   UNL     1      -9.245   9.972  65.817  1.00  0.00    -0.222 C  
HETATM   17  C   UNL     1      -9.660  11.429  66.303  1.00  0.00    -0.237 C  
HETATM   18  C   UNL     1      -9.657  12.494  65.156  1.00  0.00     0.062 C  
HETATM   19  C   UNL     1      -9.922  12.043  63.715  1.00  0.00    -0.368 C  
HETATM   20  C   UNL     1     -11.360  12.071  63.233  1.00  0.00    -0.396 C  
ENDROOT
BRANCH   5  21
HETATM   21  C   UNL     1      -6.417   9.524  66.766  1.00  0.00    -0.067 C  
HETATM   22  O   UNL     1      -6.440   8.316  66.526  1.00  0.00    -0.053 OA 
HETATM   23  C   UNL     1      -5.328  10.328  66.086  1.00  0.00    -0.057 C  
ENDBRANCH   5  21
BRANCH   5  24
HETATM   24  O   UNL     1      -6.243  10.331  68.849  1.00  0.00    -0.046 OA 
BRANCH  24  25
HETATM   25  C   UNL     1      -6.053  11.504  69.509  1.00  0.00    -0.100 C  
HETATM   26  C   UNL     1      -5.885  12.613  68.514  1.00  0.00    -0.060 C  
HETATM   27  O   UNL     1      -5.954  11.620  70.721  1.00  0.00    -0.335 OA 
ENDBRANCH  24  25
ENDBRANCH   5  24
TORSDOF 3
ENDMDL
MODEL       86
REMARK 921   NORMALIZED FREE ENERGY PREDICTED BY IDOCK:   -1.17 KCAL/MOL
REMARK 922        TOTAL FREE ENERGY PREDICTED BY IDOCK:   -1.14 KCAL/MOL
REMARK 923 INTER-LIGAND FREE ENERGY PREDICTED BY IDOCK:   -1.75 KCAL/MOL
REMARK 924 INTRA-LIGAND FREE ENERGY PREDICTED BY IDOCK:    0.61 KCAL/MOL
REMARK 927      BINDING AFFINITY PREDICTED BY RF-SCORE:    0.00 PKD
ROOT
HETATM    1  C   UNL     1     -10.564   7.971  68.082  1.00  0.00    -0.174 C  
HETATM    2  C   UNL     1     -10.970   7.612  66.765  1.00  0.00     0.250 C  
HETATM    3  C   UNL     1      -9.580   7.729  67.241  1.00  0.00    -0.207 C  
HETATM    4  C   UNL     1      -8.863   8.042  66.063  1.00  0.00    -0.196 C  
HETATM    5  C   UNL     1      -9.481   7.488  69.252  1.00  0.00    -0.154 C  
HETATM    6  C   UNL     1      -8.920   6.863  68.179  1.00  0.00    -0.123 C  
HETATM    7  C   UNL     1      -9.610  12.466  68.097  1.00  0.00    -0.218 C  
HETATM    8  O   UNL     1      -7.325  14.691  66.534  1.00  0.00     0.562 OA 
HETATM    9  C   UNL     1      -9.147  13.492  67.368  1.00  0.00    -0.219 C  
HETATM   10  C   UNL     1      -7.708  13.828  67.323  1.00  0.00    -0.076 C  
HETATM   11  C   UNL     1      -7.401   7.668  68.211  1.00  0.00    -0.099 C  
HETATM   12  C   UNL     1     -10.261   9.646  68.455  1.00  0.00    -0.214 C  
HETATM   13  C   UNL     1      -8.969   5.326  68.004  1.00  0.00    -0.113 C  
HETATM   14  C   UNL     1     -11.298  10.586  67.797  1.00  0.00    -0.267 C  
HETATM   15  C   UNL     1     -11.070  12.077  68.103  1.00  0.00    -0.294 C  
HETATM   16  C   UNL     1      -7.500   9.242  68.512  1.00  0.00    -0.081 C  
HETATM   17  C   UNL     1      -8.758  10.161  68.189  1.00  0.00    -0.122 C  
HETATM   18  C   UNL     1      -8.713  11.554  68.904  1.00  0.00     0.031 C  
HETATM   19  C   UNL     1      -7.354  12.176  69.246  1.00  0.00     0.156 C  
HETATM   20  C   UNL     1      -6.735  13.100  68.214  1.00  0.00    -0.101 C  
ENDROOT
BRANCH   5  21
HETATM   21  C   UNL     1      -8.446   7.151  70.470  1.00  0.00    -0.139 C  
HETATM   22  O   UNL     1      -8.138   6.009  70.816  1.00  0.00    -0.115 OA 
HETATM   23  C   UNL     1      -7.893   8.284  71.310  1.00  0.00    -0.112 C  
ENDBRANCH   5  21
BRANCH   5  24
HETATM   24  O   UNL     1     -10.473   6.451  69.820  1.00  0.00    -0.186 OA 
BRANCH  24  25
HETATM   25  C   UNL     1     -11.393   6.889  70.721  1.00  0.00    -0.310 C  
HETATM   26  C   UNL     1     -12.771   6.604  70.203  1.00  0.00     1.002 C  
HETATM   27  O   UNL     1     -11.135   7.494  71.750  1.00  0.00    -0.235 OA 
ENDBRANCH  24  25
ENDBRANCH   5  24
TORSDOF 3
ENDMDL
MODEL       87
REMARK 921   NORMALIZED FREE ENERGY PREDICTED BY IDOCK:   -0.89 KCAL/MOL
REMARK 922        TOTAL FREE ENERGY PREDICTED BY IDOCK:   -0.81 KCAL/MOL
REMARK 923 INTER-LIGAND FREE ENERGY PREDICTED BY IDOCK:   -2.24 KCAL/MOL
REMARK 924 INTRA-LIGAND FREE ENERGY PREDICTED BY IDOCK:    1.43 KCAL/MOL
REMARK 927      BINDING AFFINITY PREDICTED BY RF-SCORE:    0.00 PKD
ROOT
HETATM    1  C   UNL     1     -11.630  13.750  66.354  1.00  0.00    -0.380 C  
HETATM    2  C   UNL     1     -12.126  13.684  65.020  1.00  0.00    -0.418 C  
HETATM    3  C   UNL     1     -10.815  13.193  65.483  1.00  0.00    -0.299 C  
HETATM    4  C   UNL     1     -10.015  13.274  64.319  1.00  0.00     0.085 C  
HETATM    5  C   UNL     1     -10.854  12.785  67.468  1.00  0.00    -0.239 C  
HETATM    6  C   UNL     1     -10.578  12.067  66.344  1.00  0.00    -0.278 C  
HETATM    7  C   UNL     1      -8.937  17.459  66.683  1.00  0.00    -0.274 C  
HETATM    8  O   UNL     1      -5.921  18.675  65.253  1.00  0.00    -0.218 OA 
HETATM    9  C   UNL     1      -8.086  18.259  66.025  1.00  0.00    -0.115 C  
HETATM   10  C   UNL     1      -6.634  17.986  65.982  1.00  0.00    -0.275 C  
HETATM   11  C   UNL     1      -8.864  12.183  66.411  1.00  0.00    -0.100 C  
HETATM   12  C   UNL     1     -10.680  15.126  66.844  1.00  0.00    -0.308 C  
HETATM   13  C   UNL     1     -11.243  10.700  66.058  1.00  0.00     0.332 C  
HETATM   14  C   UNL     1     -11.236  16.452  66.273  1.00  0.00     0.349 C  
HETATM   15  C   UNL     1     -10.429  17.696  66.684  1.00  0.00    -0.286 C  
HETATM   16  C   UNL     1      -8.321  13.635  66.829  1.00  0.00     0.089 C  
HETATM   17  C   UNL     1      -9.093  15.007  66.593  1.00  0.00    -0.309 C  
HETATM   18  C   UNL     1      -8.499  16.205  67.407  1.00  0.00    -0.188 C  
HETATM   19  C   UNL     1      -7.010  16.196  67.773  1.00  0.00    -0.161 C  
HETATM   20  C   UNL     1      -6.054  16.863  66.803  1.00  0.00    -0.216 C  
ENDROOT
BRANCH   5  21
HETATM   21  C   UNL     1     -10.064  11.970  68.642  1.00  0.00    -0.160 C  
HETATM   22  O   UNL     1      -9.343  12.506  69.487  1.00  0.00     1.022 OA 
HETATM   23  C   UNL     1     -10.117  10.457  68.661  1.00  0.00    -0.188 C  
ENDBRANCH   5  21
BRANCH   5  24
HETATM   24  O   UNL     1     -12.190  12.201  67.974  1.00  0.00    -0.419 OA 
BRANCH  24  25
HETATM   25  C   UNL     1     -12.601  12.559  69.220  1.00  0.00     0.592 C  
HETATM   26  C   UNL     1     -13.013  11.333  69.980  1.00  0.00     0.202 C  
HETATM   27  O   UNL     1     -12.697  13.707  69.625  1.00  0.00    -0.078 OA 
ENDBRANCH  24  25
ENDBRANCH   5  24
TORSDOF 3
ENDMDL
MODEL       88
REMARK 921   NORMALIZED FREE ENERGY PREDICTED BY IDOCK:   -0.72 KCAL/MOL
REMARK 922        TOTAL FREE ENERGY PREDICTED BY IDOCK:   -0.60 KCAL/MOL
REMARK 923 INTER-LIGAND FREE ENERGY PREDICTED BY IDOCK:   -3.62 KCAL/MOL
REMARK 924 INTRA-LIGAND FREE ENERGY PREDICTED BY IDOCK:    3.01 KCAL/MOL
REMARK 927      BINDING AFFINITY PREDICTED BY RF-SCORE:    0.00 PKD
ROOT
HETATM    1  C   UNL     1      -7.869   9.621  67.045  1.00  0.00    -0.098 C  
HETATM    2  C   UNL     1      -7.887  10.692  66.107  1.00  0.00    -0.152 C  
HETATM    3  C   UNL     1      -9.068   9.997  66.651  1.00  0.00    -0.169 C  
HETATM    4  C   UNL     1     -10.034  10.159  65.631  1.00  0.00    -0.348 C  
HETATM    5  C   UNL     1      -8.643   9.143  68.441  1.00  0.00    -0.129 C  
HETATM    6  C   UNL     1      -9.550  10.061  68.004  1.00  0.00    -0.154 C  
HETATM    7  C   UNL     1      -8.207   5.679  64.706  1.00  0.00    -0.134 C  
HETATM    8  O   UNL     1     -10.532   4.068  62.559  1.00  0.00    -0.193 OA 
HETATM    9  C   UNL     1      -8.718   5.091  63.615  1.00  0.00    -0.079 C  
HETATM   10  C   UNL     1     -10.060   4.472  63.621  1.00  0.00     0.250 C  
HETATM   11  C   UNL     1     -10.888   8.997  67.824  1.00  0.00    -0.125 C  
HETATM   12  C   UNL     1      -7.845   7.978  66.465  1.00  0.00    -0.097 C  
HETATM   13  C   UNL     1      -9.745  11.424  68.709  1.00  0.00    -0.155 C  
HETATM   14  C   UNL     1      -6.917   7.806  65.239  1.00  0.00    -0.059 C  
HETATM   15  C   UNL     1      -6.862   6.368  64.695  1.00  0.00    -0.043 C  
HETATM   16  C   UNL     1     -10.513   7.575  67.177  1.00  0.00    -0.407 C  
HETATM   17  C   UNL     1      -9.286   7.307  66.201  1.00  0.00    -0.136 C  
HETATM   18  C   UNL     1      -8.957   5.787  66.015  1.00  0.00    -0.157 C  
HETATM   19  C   UNL     1     -10.081   4.755  66.164  1.00  0.00    -0.288 C  
HETATM   20  C   UNL     1     -10.836   4.366  64.908  1.00  0.00    -0.085 C  
ENDROOT
BRANCH   5  21
HETATM   21  C   UNL     1      -9.340   8.533  69.786  1.00  0.00    -0.161 C  
HETATM   22  O   UNL     1     -10.276   7.731  69.774  1.00  0.00    -0.201 OA 
HETATM   23  C   UNL     1      -8.901   9.039  71.145  1.00  0.00    -0.282 C  
ENDBRANCH   5  21
BRANCH   5  24
HETATM   24  O   UNL     1      -7.673   9.957  69.323  1.00  0.00    -0.089 OA 
BRANCH  24  25
HETATM   25  C   UNL     1      -6.371   9.566  69.351  1.00  0.00    -0.043 C  
HETATM   26  C   UNL     1      -5.996   9.183  70.751  1.00  0.00    -0.045 C  
HETATM   27  O   UNL     1      -5.606   9.602  68.399  1.00  0.00    -0.040 OA 
ENDBRANCH  24  25
ENDBRANCH   5  24
TORSDOF 3
ENDMDL
MODEL       89
REMARK 921   NORMALIZED FREE ENERGY PREDICTED BY IDOCK:   -0.47 KCAL/MOL
REMARK 922        TOTAL FREE ENERGY PREDICTED BY IDOCK:   -0.32 KCAL/MOL
REMARK 923 INTER-LIGAND FREE ENERGY PREDICTED BY IDOCK:   -4.42 KCAL/MOL
REMARK 924 INTRA-LIGAND FREE ENERGY PREDICTED BY IDOCK:    4.10 KCAL/MOL
REMARK 927      BINDING AFFINITY PREDICTED BY RF-SCORE:    0.00 PKD
ROOT
HETATM    1  C   UNL     1      -9.784  10.486  69.126  1.00  0.00    -0.226 C  
HETATM    2  C   UNL     1     -10.702   9.398  69.154  1.00  0.00    -0.216 C  
HETATM    3  C   UNL     1      -9.813   9.752  68.034  1.00  0.00    -0.173 C  
HETATM    4  C   UNL     1     -10.503   9.249  66.906  1.00  0.00    -0.284 C  
HETATM    5  C   UNL     1      -8.210  10.806  68.688  1.00  0.00    -0.139 C  
HETATM    6  C   UNL     1      -8.380   9.638  68.009  1.00  0.00    -0.117 C  
HETATM    7  C   UNL     1     -11.812  13.998  66.963  1.00  0.00    -0.458 C  
HETATM    8  O   UNL     1     -13.126  14.718  63.743  1.00  0.00    -0.168 OA 
HETATM    9  C   UNL     1     -12.685  14.339  66.005  1.00  0.00    -0.240 C  
HETATM   10  C   UNL     1     -12.263  14.539  64.602  1.00  0.00    -0.460 C  
HETATM   11  C   UNL     1      -8.125  10.252  66.424  1.00  0.00    -0.123 C  
HETATM   12  C   UNL     1     -10.302  12.023  68.490  1.00  0.00    -0.228 C  
HETATM   13  C   UNL     1      -7.685   8.325  68.444  1.00  0.00    -0.105 C  
HETATM   14  C   UNL     1     -11.744  12.379  68.924  1.00  0.00    -0.372 C  
HETATM   15  C   UNL     1     -12.242  13.732  68.387  1.00  0.00    -0.181 C  
HETATM   16  C   UNL     1      -8.816  11.676  66.153  1.00  0.00    -0.139 C  
HETATM   17  C   UNL     1     -10.107  12.227  66.904  1.00  0.00    -0.224 C  
HETATM   18  C   UNL     1     -10.342  13.760  66.696  1.00  0.00    -0.279 C  
HETATM   19  C   UNL     1      -9.838  14.428  65.411  1.00  0.00    -0.265 C  
HETATM   20  C   UNL     1     -10.801  14.498  64.241  1.00  0.00     0.137 C  
ENDROOT
BRANCH   5  21
HETATM   21  C   UNL     1      -6.702  11.273  68.267  1.00  0.00    -0.059 C  
HETATM   22  O   UNL     1      -5.718  10.530  68.294  1.00  0.00    -0.041 OA 
HETATM   23  C   UNL     1      -6.444  12.723  67.913  1.00  0.00    -0.120 C  
ENDBRANCH   5  21
BRANCH   5  24
HETATM   24  O   UNL     1      -7.678  10.370  70.070  1.00  0.00    -0.136 OA 
BRANCH  24  25
HETATM   25  C   UNL     1      -6.604  11.037  70.570  1.00  0.00     0.267 C  
HETATM   26  C   UNL     1      -5.723  10.077  71.312  1.00  0.00    -0.037 C  
HETATM   27  O   UNL     1      -6.429  12.244  70.495  1.00  0.00    -0.037 OA 
ENDBRANCH  24  25
ENDBRANCH   5  24
TORSDOF 3
ENDMDL
MODEL       90
REMARK 921   NORMALIZED FREE ENERGY PREDICTED BY IDOCK:   -0.09 KCAL/MOL
REMARK 922        TOTAL FREE ENERGY PREDICTED BY IDOCK:    0.13 KCAL/MOL
REMARK 923 INTER-LIGAND FREE ENERGY PREDICTED BY IDOCK:   -1.45 KCAL/MOL
REMARK 924 INTRA-LIGAND FREE ENERGY PREDICTED BY IDOCK:    1.58 KCAL/MOL
REMARK 927      BINDING AFFINITY PREDICTED BY RF-SCORE:    0.00 PKD
ROOT
HETATM    1  C   UNL     1      -8.885  12.078  69.165  1.00  0.00     0.527 C  
HETATM    2  C   UNL     1      -9.260  10.855  69.792  1.00  0.00     0.561 C  
HETATM    3  C   UNL     1      -8.514  10.988  68.527  1.00  0.00    -0.153 C  
HETATM    4  C   UNL     1      -8.836   9.794  67.840  1.00  0.00    -0.122 C  
HETATM    5  C   UNL     1      -7.561  12.774  68.433  1.00  0.00    -0.133 C  
HETATM    6  C   UNL     1      -7.170  11.471  68.373  1.00  0.00    -0.089 C  
HETATM    7  C   UNL     1     -12.019  13.042  65.945  1.00  0.00    -0.491 C  
HETATM    8  O   UNL     1     -13.250  11.607  62.938  1.00  0.00    -0.299 OA 
HETATM    9  C   UNL     1     -12.875  12.518  65.055  1.00  0.00    -0.127 C  
HETATM   10  C   UNL     1     -12.465  12.210  63.669  1.00  0.00    -0.549 C  
HETATM   11  C   UNL     1      -7.069  11.338  66.662  1.00  0.00    -0.127 C  
HETATM   12  C   UNL     1      -9.948  12.792  67.983  1.00  0.00    -0.225 C  
HETATM   13  C   UNL     1      -6.025  10.915  69.253  1.00  0.00    -0.044 C  
HETATM   14  C   UNL     1     -11.435  12.683  68.395  1.00  0.00    -0.350 C  
HETATM   15  C   UNL     1     -12.410  13.306  67.380  1.00  0.00    -0.082 C  
HETATM   16  C   UNL     1      -8.271  12.058  65.877  1.00  0.00     0.563 C  
HETATM   17  C   UNL     1      -9.729  12.310  66.462  1.00  0.00    -0.242 C  
HETATM   18  C   UNL     1     -10.569  13.332  65.625  1.00  0.00    -0.291 C  
HETATM   19  C   UNL     1     -10.290  13.480  64.125  1.00  0.00     0.023 C  
HETATM   20  C   UNL     1     -11.096  12.609  63.181  1.00  0.00     0.041 C  
ENDROOT
BRANCH   5  21
HETATM   21  C   UNL     1      -6.360  13.566  67.659  1.00  0.00    -0.147 C  
HETATM   22  O   UNL     1      -5.191  13.178  67.623  1.00  0.00    -0.196 OA 
HETATM   23  C   UNL     1      -6.646  14.911  67.024  1.00  0.00     0.641 C  
ENDBRANCH   5  21
BRANCH   5  24
HETATM   24  O   UNL     1      -7.009  13.276  69.784  1.00  0.00     0.127 OA 
BRANCH  24  25
HETATM   25  C   UNL     1      -7.024  14.616  70.011  1.00  0.00    -0.058 C  
HETATM   26  C   UNL     1      -8.381  15.162  69.682  1.00  0.00    -0.065 C  
HETATM   27  O   UNL     1      -6.057  15.282  70.349  1.00  0.00    -0.138 OA 
ENDBRANCH  24  25
ENDBRANCH   5  24
TORSDOF 3
ENDMDL
MODEL       91
REMARK 921   NORMALIZED FREE ENERGY PREDICTED BY IDOCK:    0.98 KCAL/MOL
REMARK 922        TOTAL FREE ENERGY PREDICTED BY IDOCK:    1.38 KCAL/MOL
REMARK 923 INTER-LIGAND FREE ENERGY PREDICTED BY IDOCK:   -6.36 KCAL/MOL
REMARK 924 INTRA-LIGAND FREE ENERGY PREDICTED BY IDOCK:    7.74 KCAL/MOL
REMARK 927      BINDING AFFINITY PREDICTED BY RF-SCORE:    0.00 PKD
ROOT
HETATM    1  C   UNL     1     -10.190   9.947  66.357  1.00  0.00    -0.292 C  
HETATM    2  C   UNL     1      -9.578   9.568  65.128  1.00  0.00    -0.270 C  
HETATM    3  C   UNL     1      -8.910  10.239  66.258  1.00  0.00    -0.161 C  
HETATM    4  C   UNL     1      -7.852  10.940  65.633  1.00  0.00    -0.011 C  
HETATM    5  C   UNL     1      -9.893   9.883  67.994  1.00  0.00    -0.147 C  
HETATM    6  C   UNL     1      -8.625   9.668  67.545  1.00  0.00    -0.126 C  
HETATM    7  C   UNL     1     -11.349  14.384  66.056  1.00  0.00    -0.335 C  
HETATM    8  O   UNL     1      -9.732  17.517  65.624  1.00  0.00    -0.532 OA 
HETATM    9  C   UNL     1     -11.018  15.571  65.525  1.00  0.00    -0.331 C  
HETATM   10  C   UNL     1     -10.106  16.505  66.216  1.00  0.00    -0.333 C  
HETATM   11  C   UNL     1      -7.890  11.050  68.256  1.00  0.00    -0.121 C  
HETATM   12  C   UNL     1     -10.869  11.544  66.515  1.00  0.00    -0.335 C  
HETATM   13  C   UNL     1      -7.935   8.288  67.662  1.00  0.00    -0.118 C  
HETATM   14  C   UNL     1     -11.613  11.991  65.234  1.00  0.00    -0.337 C  
HETATM   15  C   UNL     1     -12.233  13.396  65.331  1.00  0.00    -0.492 C  
HETATM   16  C   UNL     1      -8.774  12.387  68.154  1.00  0.00    -0.190 C  
HETATM   17  C   UNL     1      -9.857  12.688  67.028  1.00  0.00    -0.225 C  
HETATM   18  C   UNL     1     -10.801  13.888  67.375  1.00  0.00    -0.291 C  
HETATM   19  C   UNL     1     -10.284  15.009  68.285  1.00  0.00    -0.222 C  
HETATM   20  C   UNL     1      -9.628  16.199  67.613  1.00  0.00    -0.222 C  
ENDROOT
BRANCH   5  21
HETATM   21  C   UNL     1      -9.718   9.925  69.617  1.00  0.00    -0.229 C  
HETATM   22  O   UNL     1     -10.620  10.233  70.400  1.00  0.00    -0.278 OA 
HETATM   23  C   UNL     1      -8.353   9.674  70.225  1.00  0.00    -0.216 C  
ENDBRANCH   5  21
BRANCH   5  24
HETATM   24  O   UNL     1     -10.503   8.470  68.105  1.00  0.00    -0.217 OA 
BRANCH  24  25
HETATM   25  C   UNL     1     -10.267   7.771  69.248  1.00  0.00    -0.211 C  
HETATM   26  C   UNL     1     -11.559   7.562  69.979  1.00  0.00     0.029 C  
HETATM   27  O   UNL     1      -9.163   7.440  69.653  1.00  0.00    -0.147 OA 
ENDBRANCH  24  25
ENDBRANCH   5  24
TORSDOF 3
ENDMDL
MODEL       92
REMARK 921   NORMALIZED FREE ENERGY PREDICTED BY IDOCK:    1.56 KCAL/MOL
REMARK 922        TOTAL FREE ENERGY PREDICTED BY IDOCK:    2.07 KCAL/MOL
REMARK 923 INTER-LIGAND FREE ENERGY PREDICTED BY IDOCK:   -1.79 KCAL/MOL
REMARK 924 INTRA-LIGAND FREE ENERGY PREDICTED BY IDOCK:    3.86 KCAL/MOL
REMARK 927      BINDING AFFINITY PREDICTED BY RF-SCORE:    0.00 PKD
ROOT
HETATM    1  C   UNL     1     -11.708  10.936  69.600  1.00  0.00    -0.403 C  
HETATM    2  C   UNL     1     -12.877  10.804  68.797  1.00  0.00     1.851 C  
HETATM    3  C   UNL     1     -11.509  11.038  68.302  1.00  0.00    -0.374 C  
HETATM    4  C   UNL     1     -11.723  11.703  67.073  1.00  0.00    -0.176 C  
HETATM    5  C   UNL     1     -10.133  10.395  69.646  1.00  0.00    -0.190 C  
HETATM    6  C   UNL     1     -10.413  10.109  68.343  1.00  0.00    -0.237 C  
HETATM    7  C   UNL     1     -10.897  15.420  70.198  1.00  0.00    -0.328 C  
HETATM    8  O   UNL     1     -10.134  18.260  68.206  1.00  0.00    -0.347 OA 
HETATM    9  C   UNL     1     -11.000  16.637  69.645  1.00  0.00    -0.222 C  
HETATM   10  C   UNL     1      -9.929  17.199  68.796  1.00  0.00    -0.315 C  
HETATM   11  C   UNL     1      -9.224  11.120  67.623  1.00  0.00    -0.151 C  
HETATM   12  C   UNL     1     -11.207  12.521  70.124  1.00  0.00     0.372 C  
HETATM   13  C   UNL     1     -10.590   8.656  67.840  1.00  0.00    -0.223 C  
HETATM   14  C   UNL     1     -12.406  13.402  70.544  1.00  0.00    -0.401 C  
HETATM   15  C   UNL     1     -12.009  14.811  71.019  1.00  0.00    -0.389 C  
HETATM   16  C   UNL     1      -9.076  12.559  68.322  1.00  0.00    -0.183 C  
HETATM   17  C   UNL     1     -10.227  13.313  69.120  1.00  0.00     0.189 C  
HETATM   18  C   UNL     1      -9.706  14.512  69.982  1.00  0.00     0.704 C  
HETATM   19  C   UNL     1      -8.440  15.256  69.542  1.00  0.00    -0.188 C  
HETATM   20  C   UNL     1      -8.623  16.463  68.642  1.00  0.00    -0.237 C  
ENDROOT
BRANCH   5  21
HETATM   21  C   UNL     1      -8.562   9.978  69.796  1.00  0.00    -0.173 C  
HETATM   22  O   UNL     1      -7.629  10.782  69.760  1.00  0.00    -0.105 OA 
HETATM   23  C   UNL     1      -8.187   8.513  69.884  1.00  0.00    -0.121 C  
ENDBRANCH   5  21
BRANCH   5  24
HETATM   24  O   UNL     1     -10.537   9.117  70.411  1.00  0.00    -0.203 OA 
BRANCH  24  25
HETATM   25  C   UNL     1     -11.785   9.074  70.950  1.00  0.00    -0.276 C  
HETATM   26  C   UNL     1     -11.912  10.140  71.997  1.00  0.00     0.245 C  
HETATM   27  O   UNL     1     -12.638   8.243  70.679  1.00  0.00     0.090 OA 
ENDBRANCH  24  25
ENDBRANCH   5  24
TORSDOF 3
ENDMDL
MODEL       93
REMARK 921   NORMALIZED FREE ENERGY PREDICTED BY IDOCK:    2.09 KCAL/MOL
REMARK 922        TOTAL FREE ENERGY PREDICTED BY IDOCK:    2.69 KCAL/MOL
REMARK 923 INTER-LIGAND FREE ENERGY PREDICTED BY IDOCK:    1.44 KCAL/MOL
REMARK 924 INTRA-LIGAND FREE ENERGY PREDICTED BY IDOCK:    1.25 KCAL/MOL
REMARK 927      BINDING AFFINITY PREDICTED BY RF-SCORE:    0.00 PKD
ROOT
HETATM    1  C   UNL     1     -10.699  15.896  67.307  1.00  0.00    -0.306 C  
HETATM    2  C   UNL     1     -11.022  17.202  66.839  1.00  0.00     0.128 C  
HETATM    3  C   UNL     1      -9.979  16.869  67.825  1.00  0.00    -0.278 C  
HETATM    4  C   UNL     1      -9.880  18.050  68.597  1.00  0.00    -0.383 C  
HETATM    5  C   UNL     1      -9.361  14.951  67.605  1.00  0.00    -0.191 C  
HETATM    6  C   UNL     1      -8.751  16.169  67.569  1.00  0.00    -0.195 C  
HETATM    7  C   UNL     1     -12.893  15.233  71.290  1.00  0.00    -0.494 C  
HETATM    8  O   UNL     1     -12.943  16.643  74.549  1.00  0.00    -0.476 OA 
HETATM    9  C   UNL     1     -13.354  15.826  72.401  1.00  0.00    -0.545 C  
HETATM   10  C   UNL     1     -12.517  15.973  73.610  1.00  0.00    -0.589 C  
HETATM   11  C   UNL     1      -8.142  16.170  69.177  1.00  0.00    -0.230 C  
HETATM   12  C   UNL     1     -11.484  15.284  68.737  1.00  0.00    -0.345 C  
HETATM   13  C   UNL     1      -7.829  16.592  66.400  1.00  0.00    -0.324 C  
HETATM   14  C   UNL     1     -12.985  15.655  68.783  1.00  0.00     1.615 C  
HETATM   15  C   UNL     1     -13.720  15.131  70.029  1.00  0.00     1.026 C  
HETATM   16  C   UNL     1      -9.173  15.599  70.268  1.00  0.00     0.731 C  
HETATM   17  C   UNL     1     -10.758  15.623  70.134  1.00  0.00    -0.355 C  
HETATM   18  C   UNL     1     -11.485  14.695  71.164  1.00  0.00    -0.195 C  
HETATM   19  C   UNL     1     -10.817  14.405  72.513  1.00  0.00     2.651 C  
HETATM   20  C   UNL     1     -11.155  15.329  73.667  1.00  0.00     1.426 C  
ENDROOT
BRANCH   5  21
HETATM   21  C   UNL     1      -8.143  13.928  67.978  1.00  0.00    -0.154 C  
HETATM   22  O   UNL     1      -6.973  14.094  67.629  1.00  0.00    -0.166 OA 
HETATM   23  C   UNL     1      -8.454  12.638  68.708  1.00  0.00     0.160 C  
ENDBRANCH   5  21
BRANCH   5  24
HETATM   24  O   UNL     1      -9.315  14.458  66.143  1.00  0.00    -0.269 OA 
BRANCH  24  25
HETATM   25  C   UNL     1     -10.393  13.774  65.675  1.00  0.00    -0.311 C  
HETATM   26  C   UNL     1      -9.928  12.660  64.785  1.00  0.00    -0.164 C  
HETATM   27  O   UNL     1     -11.559  14.073  65.883  1.00  0.00    -0.329 OA 
ENDBRANCH  24  25
ENDBRANCH   5  24
TORSDOF 3
ENDMDL
MODEL       94
REMARK 921   NORMALIZED FREE ENERGY PREDICTED BY IDOCK:    2.10 KCAL/MOL
REMARK 922        TOTAL FREE ENERGY PREDICTED BY IDOCK:    2.70 KCAL/MOL
REMARK 923 INTER-LIGAND FREE ENERGY PREDICTED BY IDOCK:   -2.14 KCAL/MOL
REMARK 924 INTRA-LIGAND FREE ENERGY PREDICTED BY IDOCK:    4.84 KCAL/MOL
REMARK 927      BINDING AFFINITY PREDICTED BY RF-SCORE:    0.00 PKD
ROOT
HETATM    1  C   UNL     1      -9.829  11.343  66.033  1.00  0.00    -0.256 C  
HETATM    2  C   UNL     1      -8.758  11.077  65.133  1.00  0.00    -0.068 C  
HETATM    3  C   UNL     1      -8.637  11.693  66.467  1.00  0.00    -0.164 C  
HETATM    4  C   UNL     1      -7.466  12.478  66.351  1.00  0.00     0.872 C  
HETATM    5  C   UNL     1     -10.202  11.176  67.647  1.00  0.00    -0.181 C  
HETATM    6  C   UNL     1      -8.848  11.045  67.732  1.00  0.00    -0.133 C  
HETATM    7  C   UNL     1     -11.061  15.740  65.509  1.00  0.00    -0.193 C  
HETATM    8  O   UNL     1      -9.613  18.958  65.911  1.00  0.00    -0.469 OA 
HETATM    9  C   UNL     1     -10.626  16.973  65.213  1.00  0.00    -0.096 C  
HETATM   10  C   UNL     1     -10.124  17.893  66.255  1.00  0.00    -0.351 C  
HETATM   11  C   UNL     1      -8.546  12.402  68.743  1.00  0.00     0.147 C  
HETATM   12  C   UNL     1     -10.618  12.896  65.984  1.00  0.00    -0.287 C  
HETATM   13  C   UNL     1      -8.172   9.689  68.048  1.00  0.00    -0.110 C  
HETATM   14  C   UNL     1     -10.822  13.402  64.536  1.00  0.00    -0.419 C  
HETATM   15  C   UNL     1     -11.519  14.770  64.445  1.00  0.00    -0.261 C  
HETATM   16  C   UNL     1      -9.402  13.706  68.362  1.00  0.00    -0.181 C  
HETATM   17  C   UNL     1      -9.969  14.041  66.913  1.00  0.00    -0.263 C  
HETATM   18  C   UNL     1     -11.049  15.174  66.912  1.00  0.00    -0.314 C  
HETATM   19  C   UNL     1     -11.008  16.248  68.006  1.00  0.00    -0.328 C  
HETATM   20  C   UNL     1     -10.219  17.509  67.710  1.00  0.00    -0.349 C  
ENDROOT
BRANCH   5  21
HETATM   21  C   UNL     1     -10.687  11.110  69.205  1.00  0.00    -0.199 C  
HETATM   22  O   UNL     1     -10.543  10.124  69.931  1.00  0.00    -0.251 OA 
HETATM   23  C   UNL     1     -11.453  12.276  69.796  1.00  0.00    -0.237 C  
ENDBRANCH   5  21
BRANCH   5  24
HETATM   24  O   UNL     1     -10.712   9.735  67.437  1.00  0.00    -0.268 OA 
BRANCH  24  25
HETATM   25  C   UNL     1     -10.655   9.225  66.178  1.00  0.00     0.303 C  
HETATM   26  C   UNL     1      -9.664   8.099  66.142  1.00  0.00    -0.154 C  
HETATM   27  O   UNL     1     -11.255   9.670  65.212  1.00  0.00     2.066 OA 
ENDBRANCH  24  25
ENDBRANCH   5  24
TORSDOF 3
ENDMDL
MODEL       95
REMARK 921   NORMALIZED FREE ENERGY PREDICTED BY IDOCK:    2.10 KCAL/MOL
REMARK 922        TOTAL FREE ENERGY PREDICTED BY IDOCK:    2.70 KCAL/MOL
REMARK 923 INTER-LIGAND FREE ENERGY PREDICTED BY IDOCK:    1.83 KCAL/MOL
REMARK 924 INTRA-LIGAND FREE ENERGY PREDICTED BY IDOCK:    0.87 KCAL/MOL
REMARK 927      BINDING AFFINITY PREDICTED BY RF-SCORE:    0.00 PKD
ROOT
HETATM    1  C   UNL     1      -7.654   5.929  69.970  1.00  0.00    -0.087 C  
HETATM    2  C   UNL     1      -6.857   6.380  68.879  1.00  0.00    -0.066 C  
HETATM    3  C   UNL     1      -7.112   7.118  70.129  1.00  0.00    -0.066 C  
HETATM    4  C   UNL     1      -6.974   8.470  69.738  1.00  0.00    -0.047 C  
HETATM    5  C   UNL     1      -7.599   5.847  71.632  1.00  0.00    -0.100 C  
HETATM    6  C   UNL     1      -6.625   6.779  71.438  1.00  0.00    -0.053 C  
HETATM    7  C   UNL     1     -11.844   7.763  69.522  1.00  0.00     0.866 C  
HETATM    8  O   UNL     1     -13.328  10.989  69.471  1.00  0.00     0.407 OA 
HETATM    9  C   UNL     1     -12.535   8.826  69.088  1.00  0.00     3.225 C  
HETATM   10  C   UNL     1     -12.808   9.987  69.961  1.00  0.00     0.314 C  
HETATM   11  C   UNL     1      -7.362   8.069  72.303  1.00  0.00    -0.110 C  
HETATM   12  C   UNL     1      -9.347   6.340  70.018  1.00  0.00    -0.164 C  
HETATM   13  C   UNL     1      -5.127   6.461  71.665  1.00  0.00    -0.022 C  
HETATM   14  C   UNL     1     -10.010   6.246  68.624  1.00  0.00    -0.166 C  
HETATM   15  C   UNL     1     -11.508   6.597  68.621  1.00  0.00    -0.011 C  
HETATM   16  C   UNL     1      -8.942   8.208  72.052  1.00  0.00    -0.236 C  
HETATM   17  C   UNL     1      -9.708   7.734  70.740  1.00  0.00    -0.175 C  
HETATM   18  C   UNL     1     -11.262   7.668  70.915  1.00  0.00    -0.282 C  
HETATM   19  C   UNL     1     -11.942   8.598  71.928  1.00  0.00    -0.424 C  
HETATM   20  C   UNL     1     -12.428   9.941  71.419  1.00  0.00    -0.495 C  
ENDROOT
BRANCH   5  21
HETATM   21  C   UNL     1      -7.700   5.738  73.259  1.00  0.00    -0.099 C  
HETATM   22  O   UNL     1      -8.752   5.548  73.873  1.00  0.00    -0.121 OA 
HETATM   23  C   UNL     1      -6.463   5.980  74.098  1.00  0.00    -0.071 C  
ENDBRANCH   5  21
BRANCH   5  24
HETATM   24  O   UNL     1      -6.850   4.499  71.597  1.00  0.00    -0.032 OA 
BRANCH  24  25
HETATM   25  C   UNL     1      -7.571   3.386  71.295  1.00  0.00    -0.047 C  
HETATM   26  C   UNL     1      -6.656   2.335  70.742  1.00  0.00    -0.028 C  
HETATM   27  O   UNL     1      -8.786   3.292  71.383  1.00  0.00    -0.078 OA 
ENDBRANCH  24  25
ENDBRANCH   5  24
TORSDOF 3
ENDMDL
MODEL       96
REMARK 921   NORMALIZED FREE ENERGY PREDICTED BY IDOCK:    3.16 KCAL/MOL
REMARK 922        TOTAL FREE ENERGY PREDICTED BY IDOCK:    3.95 KCAL/MOL
REMARK 923 INTER-LIGAND FREE ENERGY PREDICTED BY IDOCK:    0.54 KCAL/MOL
REMARK 924 INTRA-LIGAND FREE ENERGY PREDICTED BY IDOCK:    3.41 KCAL/MOL
REMARK 927      BINDING AFFINITY PREDICTED BY RF-SCORE:    0.00 PKD
ROOT
HETATM    1  C   UNL     1      -7.673   7.139  67.396  1.00  0.00    -0.110 C  
HETATM    2  C   UNL     1      -6.531   6.590  68.049  1.00  0.00    -0.053 C  
HETATM    3  C   UNL     1      -7.705   7.187  68.712  1.00  0.00    -0.116 C  
HETATM    4  C   UNL     1      -7.177   7.650  69.939  1.00  0.00    -0.072 C  
HETATM    5  C   UNL     1      -9.334   7.107  67.508  1.00  0.00    -0.124 C  
HETATM    6  C   UNL     1      -9.034   6.642  68.753  1.00  0.00    -0.125 C  
HETATM    7  C   UNL     1      -7.101  11.690  67.122  1.00  0.00    -0.143 C  
HETATM    8  O   UNL     1      -6.747  14.450  69.330  1.00  0.00    -0.125 OA 
HETATM    9  C   UNL     1      -6.572  12.768  67.720  1.00  0.00    -0.134 C  
HETATM   10  C   UNL     1      -7.328  13.555  68.716  1.00  0.00    -0.086 C  
HETATM   11  C   UNL     1      -9.775   7.902  69.656  1.00  0.00    -0.173 C  
HETATM   12  C   UNL     1      -7.703   8.839  67.015  1.00  0.00    -0.095 C  
HETATM   13  C   UNL     1      -9.271   5.167  69.158  1.00  0.00    -0.150 C  
HETATM   14  C   UNL     1      -6.335   9.345  66.501  1.00  0.00    -0.066 C  
HETATM   15  C   UNL     1      -6.317  10.843  66.148  1.00  0.00    -0.123 C  
HETATM   16  C   UNL     1      -9.533   9.371  69.053  1.00  0.00    -0.160 C  
HETATM   17  C   UNL     1      -8.286   9.804  68.164  1.00  0.00    -0.110 C  
HETATM   18  C   UNL     1      -8.489  11.172  67.431  1.00  0.00    -0.134 C  
HETATM   19  C   UNL     1      -9.412  12.226  68.053  1.00  0.00    -0.206 C  
HETATM   20  C   UNL     1      -8.777  13.241  68.984  1.00  0.00     0.433 C  
ENDROOT
BRANCH   5  21
HETATM   21  C   UNL     1     -10.965   7.201  67.522  1.00  0.00    -0.190 C  
HETATM   22  O   UNL     1     -11.707   6.259  67.807  1.00  0.00     0.396 OA 
HETATM   23  C   UNL     1     -11.640   8.478  67.064  1.00  0.00     2.670 C  
ENDBRANCH   5  21
BRANCH   5  24
HETATM   24  O   UNL     1      -9.424   5.836  66.637  1.00  0.00    -0.139 OA 
BRANCH  24  25
HETATM   25  C   UNL     1      -8.574   5.737  65.581  1.00  0.00    -0.151 C  
HETATM   26  C   UNL     1      -9.143   4.784  64.572  1.00  0.00    -0.100 C  
HETATM   27  O   UNL     1      -7.481   6.276  65.506  1.00  0.00    -0.077 OA 
ENDBRANCH  24  25
ENDBRANCH   5  24
TORSDOF 3
ENDMDL
MODEL       97
REMARK 921   NORMALIZED FREE ENERGY PREDICTED BY IDOCK:    4.91 KCAL/MOL
REMARK 922        TOTAL FREE ENERGY PREDICTED BY IDOCK:    6.01 KCAL/MOL
REMARK 923 INTER-LIGAND FREE ENERGY PREDICTED BY IDOCK:    4.86 KCAL/MOL
REMARK 924 INTRA-LIGAND FREE ENERGY PREDICTED BY IDOCK:    1.15 KCAL/MOL
REMARK 927      BINDING AFFINITY PREDICTED BY RF-SCORE:    0.00 PKD
ROOT
HETATM    1  C   UNL     1     -10.599  11.446  70.529  1.00  0.00     1.677 C  
HETATM    2  C   UNL     1     -11.456  12.101  71.460  1.00  0.00     2.823 C  
HETATM    3  C   UNL     1     -11.868  11.491  70.183  1.00  0.00    -0.440 C  
HETATM    4  C   UNL     1     -13.023  12.229  69.835  1.00  0.00     0.843 C  
HETATM    5  C   UNL     1     -10.552  10.061  69.605  1.00  0.00    -0.252 C  
HETATM    6  C   UNL     1     -11.888  10.088  69.871  1.00  0.00    -0.141 C  
HETATM    7  C   UNL     1      -9.474  14.474  67.261  1.00  0.00    -0.218 C  
HETATM    8  O   UNL     1     -11.107  16.397  64.760  1.00  0.00    -0.592 OA 
HETATM    9  C   UNL     1      -9.892  15.539  66.561  1.00  0.00    -0.281 C  
HETATM   10  C   UNL     1     -10.631  15.393  65.289  1.00  0.00    -0.428 C  
HETATM   11  C   UNL     1     -12.444  10.218  68.250  1.00  0.00     2.516 C  
HETATM   12  C   UNL     1      -9.882  12.366  69.235  1.00  0.00     0.594 C  
HETATM   13  C   UNL     1     -12.556   9.075  70.831  1.00  0.00    -0.074 C  
HETATM   14  C   UNL     1      -9.413  13.764  69.703  1.00  0.00     1.165 C  
HETATM   15  C   UNL     1      -8.770  14.611  68.591  1.00  0.00    -0.174 C  
HETATM   16  C   UNL     1     -11.585  11.225  67.340  1.00  0.00    -0.214 C  
HETATM   17  C   UNL     1     -10.753  12.468  67.883  1.00  0.00    -0.239 C  
HETATM   18  C   UNL     1      -9.743  13.048  66.836  1.00  0.00    -0.238 C  
HETATM   19  C   UNL     1     -10.049  12.901  65.341  1.00  0.00    -0.265 C  
HETATM   20  C   UNL     1     -10.814  14.028  64.676  1.00  0.00    -0.416 C  
ENDROOT
BRANCH   5  21
HETATM   21  C   UNL     1     -10.389   8.769  68.620  1.00  0.00    -0.205 C  
HETATM   22  O   UNL     1      -9.854   8.812  67.510  1.00  0.00    -0.159 OA 
HETATM   23  C   UNL     1     -11.010   7.446  69.019  1.00  0.00    -0.035 C  
ENDBRANCH   5  21
BRANCH   5  24
HETATM   24  O   UNL     1      -9.950   9.241  70.766  1.00  0.00    -0.246 OA 
BRANCH  24  25
HETATM   25  C   UNL     1      -8.597   9.117  70.812  1.00  0.00    -0.219 C  
HETATM   26  C   UNL     1      -8.168   8.857  72.225  1.00  0.00     0.164 C  
HETATM   27  O   UNL     1      -7.844   9.277  69.863  1.00  0.00    -0.084 OA 
ENDBRANCH  24  25
ENDBRANCH   5  24
TORSDOF 3
ENDMDL
MODEL       98
REMARK 921   NORMALIZED FREE ENERGY PREDICTED BY IDOCK:    5.28 KCAL/MOL
REMARK 922        TOTAL FREE ENERGY PREDICTED BY IDOCK:    6.44 KCAL/MOL
REMARK 923 INTER-LIGAND FREE ENERGY PREDICTED BY IDOCK:   -2.83 KCAL/MOL
REMARK 924 INTRA-LIGAND FREE ENERGY PREDICTED BY IDOCK:    9.27 KCAL/MOL
REMARK 927      BINDING AFFINITY PREDICTED BY RF-SCORE:    0.00 PKD
ROOT
HETATM    1  C   UNL     1      -6.167   8.401  67.058  1.00  0.00    -0.056 C  
HETATM    2  C   UNL     1      -5.164   7.490  66.619  1.00  0.00    -0.024 C  
HETATM    3  C   UNL     1      -6.620   7.301  66.495  1.00  0.00    -0.056 C  
HETATM    4  C   UNL     1      -6.760   5.893  66.479  1.00  0.00    -0.057 C  
HETATM    5  C   UNL     1      -7.586   9.083  66.516  1.00  0.00    -0.089 C  
HETATM    6  C   UNL     1      -7.510   8.040  65.642  1.00  0.00    -0.081 C  
HETATM    7  C   UNL     1      -7.619   7.025  71.195  1.00  0.00    -0.086 C  
HETATM    8  O   UNL     1      -9.224   4.200  72.632  1.00  0.00    -0.111 OA 
HETATM    9  C   UNL     1      -7.835   5.963  71.985  1.00  0.00    -0.106 C  
HETATM   10  C   UNL     1      -9.127   5.246  71.990  1.00  0.00    -0.137 C  
HETATM   11  C   UNL     1      -8.971   7.254  66.093  1.00  0.00    -0.179 C  
HETATM   12  C   UNL     1      -6.829   8.233  68.662  1.00  0.00    -0.063 C  
HETATM   13  C   UNL     1      -7.181   8.245  64.144  1.00  0.00    -0.089 C  
HETATM   14  C   UNL     1      -5.744   7.883  69.706  1.00  0.00    -0.023 C  
HETATM   15  C   UNL     1      -6.284   7.729  71.139  1.00  0.00    -0.034 C  
HETATM   16  C   UNL     1      -9.233   7.214  67.677  1.00  0.00    -0.127 C  
HETATM   17  C   UNL     1      -8.102   7.256  68.795  1.00  0.00    -0.124 C  
HETATM   18  C   UNL     1      -8.653   7.560  70.229  1.00  0.00    -0.144 C  
HETATM   19  C   UNL     1     -10.089   7.154  70.580  1.00  0.00    -0.198 C  
HETATM   20  C   UNL     1     -10.291   5.783  71.196  1.00  0.00    -0.286 C  
ENDROOT
BRANCH   5  21
HETATM   21  C   UNL     1      -9.005   9.795  66.132  1.00  0.00    -0.152 C  
HETATM   22  O   UNL     1      -9.684   9.492  65.149  1.00  0.00    -0.277 OA 
HETATM   23  C   UNL     1      -9.493  10.970  66.954  1.00  0.00    -0.197 C  
ENDBRANCH   5  21
BRANCH   5  24
HETATM   24  O   UNL     1      -6.831  10.228  65.809  1.00  0.00    -0.114 OA 
BRANCH  24  25
HETATM   25  C   UNL     1      -6.039   9.901  64.752  1.00  0.00    -0.102 C  
HETATM   26  C   UNL     1      -6.503  10.643  63.535  1.00  0.00     0.116 C  
HETATM   27  O   UNL     1      -5.145   9.069  64.776  1.00  0.00    -0.037 OA 
ENDBRANCH  24  25
ENDBRANCH   5  24
TORSDOF 3
ENDMDL
MODEL       99
REMARK 921   NORMALIZED FREE ENERGY PREDICTED BY IDOCK:    5.52 KCAL/MOL
REMARK 922        TOTAL FREE ENERGY PREDICTED BY IDOCK:    6.72 KCAL/MOL
REMARK 923 INTER-LIGAND FREE ENERGY PREDICTED BY IDOCK:    5.40 KCAL/MOL
REMARK 924 INTRA-LIGAND FREE ENERGY PREDICTED BY IDOCK:    1.32 KCAL/MOL
REMARK 927      BINDING AFFINITY PREDICTED BY RF-SCORE:    0.00 PKD
ROOT
HETATM    1  C   UNL     1     -11.616  13.806  67.935  1.00  0.00    -0.376 C  
HETATM    2  C   UNL     1     -12.185  14.743  67.025  1.00  0.00     0.013 C  
HETATM    3  C   UNL     1     -10.986  14.960  67.855  1.00  0.00    -0.288 C  
HETATM    4  C   UNL     1     -10.964  16.364  68.024  1.00  0.00    -0.327 C  
HETATM    5  C   UNL     1     -10.126  13.194  68.359  1.00  0.00    -0.231 C  
HETATM    6  C   UNL     1      -9.711  14.314  67.703  1.00  0.00    -0.220 C  
HETATM    7  C   UNL     1     -13.160  14.801  72.147  1.00  0.00    -0.426 C  
HETATM    8  O   UNL     1     -12.998  17.495  74.456  1.00  0.00     0.666 OA 
HETATM    9  C   UNL     1     -13.556  15.786  72.966  1.00  0.00    -0.638 C  
HETATM   10  C   UNL     1     -12.602  16.514  73.828  1.00  0.00    -0.331 C  
HETATM   11  C   UNL     1      -8.908  15.071  69.021  1.00  0.00    -0.205 C  
HETATM   12  C   UNL     1     -12.112  13.829  69.605  1.00  0.00    -0.392 C  
HETATM   13  C   UNL     1      -9.019  14.248  66.320  1.00  0.00    -0.002 C  
HETATM   14  C   UNL     1     -13.633  14.067  69.758  1.00  0.00     2.159 C  
HETATM   15  C   UNL     1     -14.117  14.091  71.219  1.00  0.00    -0.053 C  
HETATM   16  C   UNL     1      -9.695  14.963  70.417  1.00  0.00     0.699 C  
HETATM   17  C   UNL     1     -11.271  14.804  70.572  1.00  0.00    -0.192 C  
HETATM   18  C   UNL     1     -11.716  14.372  72.010  1.00  0.00     0.206 C  
HETATM   19  C   UNL     1     -10.844  14.759  73.211  1.00  0.00     2.279 C  
HETATM   20  C   UNL     1     -11.164  16.068  73.907  1.00  0.00     1.764 C  
ENDROOT
BRANCH   5  21
HETATM   21  C   UNL     1      -8.734  12.537  68.904  1.00  0.00     0.320 C  
HETATM   22  O   UNL     1      -8.625  11.948  69.981  1.00  0.00     1.972 OA 
HETATM   23  C   UNL     1      -7.459  12.732  68.110  1.00  0.00    -0.124 C  
ENDBRANCH   5  21
BRANCH   5  24
HETATM   24  O   UNL     1     -10.196  12.113  67.260  1.00  0.00    -0.201 OA 
BRANCH  24  25
HETATM   25  C   UNL     1     -10.880  10.972  67.543  1.00  0.00    -0.263 C  
HETATM   26  C   UNL     1      -9.911   9.840  67.711  1.00  0.00    -0.206 C  
HETATM   27  O   UNL     1     -12.097  10.872  67.572  1.00  0.00    -0.202 OA 
ENDBRANCH  24  25
ENDBRANCH   5  24
TORSDOF 3
ENDMDL
MODEL      100
REMARK 921   NORMALIZED FREE ENERGY PREDICTED BY IDOCK:    5.70 KCAL/MOL
REMARK 922        TOTAL FREE ENERGY PREDICTED BY IDOCK:    6.93 KCAL/MOL
REMARK 923 INTER-LIGAND FREE ENERGY PREDICTED BY IDOCK:   -2.95 KCAL/MOL
REMARK 924 INTRA-LIGAND FREE ENERGY PREDICTED BY IDOCK:    9.88 KCAL/MOL
REMARK 927      BINDING AFFINITY PREDICTED BY RF-SCORE:    0.00 PKD
ROOT
HETATM    1  C   UNL     1     -10.403  10.848  68.489  1.00  0.00    -0.203 C  
HETATM    2  C   UNL     1     -10.157  11.890  69.429  1.00  0.00     0.443 C  
HETATM    3  C   UNL     1      -9.182  10.879  68.981  1.00  0.00    -0.128 C  
HETATM    4  C   UNL     1      -8.295  10.782  70.078  1.00  0.00     0.747 C  
HETATM    5  C   UNL     1      -9.687  10.143  67.160  1.00  0.00    -0.173 C  
HETATM    6  C   UNL     1      -8.595  10.776  67.674  1.00  0.00    -0.123 C  
HETATM    7  C   UNL     1     -11.384   7.021  70.836  1.00  0.00    -0.334 C  
HETATM    8  O   UNL     1      -9.790   4.862  73.163  1.00  0.00    -0.146 OA 
HETATM    9  C   UNL     1     -11.149   6.335  71.964  1.00  0.00    -0.313 C  
HETATM   10  C   UNL     1     -10.042   5.361  72.066  1.00  0.00    -0.190 C  
HETATM   11  C   UNL     1      -7.633   9.381  67.959  1.00  0.00    -0.083 C  
HETATM   12  C   UNL     1     -10.938   9.291  69.061  1.00  0.00    -0.060 C  
HETATM   13  C   UNL     1      -7.966  12.014  66.990  1.00  0.00    -0.150 C  
HETATM   14  C   UNL     1     -11.972   9.414  70.205  1.00  0.00     0.105 C  
HETATM   15  C   UNL     1     -12.475   8.061  70.738  1.00  0.00     0.090 C  
HETATM   16  C   UNL     1      -8.446   8.137  68.569  1.00  0.00    -0.127 C  
HETATM   17  C   UNL     1      -9.773   8.246  69.440  1.00  0.00    -0.177 C  
HETATM   18  C   UNL     1     -10.532   6.885  69.593  1.00  0.00    -0.240 C  
HETATM   19  C   UNL     1      -9.739   5.575  69.534  1.00  0.00    -0.218 C  
HETATM   20  C   UNL     1      -9.227   5.014  70.847  1.00  0.00    -0.192 C  
ENDROOT
BRANCH   5  21
HETATM   21  C   UNL     1      -9.087   9.334  65.875  1.00  0.00    -0.197 C  
HETATM   22  O   UNL     1      -9.264   8.130  65.676  1.00  0.00    -0.108 OA 
HETATM   23  C   UNL     1      -8.172  10.052  64.906  1.00  0.00    -0.154 C  
ENDBRANCH   5  21
BRANCH   5  24
HETATM   24  O   UNL     1     -10.314  11.180  66.204  1.00  0.00    -0.237 OA 
BRANCH  24  25
HETATM   25  C   UNL     1     -10.039  12.492  66.431  1.00  0.00    -0.243 C  
HETATM   26  C   UNL     1     -11.252  13.316  66.118  1.00  0.00    -0.317 C  
HETATM   27  O   UNL     1      -8.949  12.934  66.760  1.00  0.00    -0.218 OA 
ENDBRANCH  24  25
ENDBRANCH   5  24
TORSDOF 3
ENDMDL
MODEL      101
REMARK 921   NORMALIZED FREE ENERGY PREDICTED BY IDOCK:    5.78 KCAL/MOL
REMARK 922        TOTAL FREE ENERGY PREDICTED BY IDOCK:    7.03 KCAL/MOL
REMARK 923 INTER-LIGAND FREE ENERGY PREDICTED BY IDOCK:    5.81 KCAL/MOL
REMARK 924 INTRA-LIGAND FREE ENERGY PREDICTED BY IDOCK:    1.22 KCAL/MOL
REMARK 927      BINDING AFFINITY PREDICTED BY RF-SCORE:    0.00 PKD
ROOT
HETATM    1  C   UNL     1      -8.645  15.346  69.080  1.00  0.00    -0.242 C  
HETATM    2  C   UNL     1      -7.586  14.466  69.444  1.00  0.00     0.015 C  
HETATM    3  C   UNL     1      -8.759  14.117  68.622  1.00  0.00    -0.126 C  
HETATM    4  C   UNL     1      -8.905  12.729  68.846  1.00  0.00     0.333 C  
HETATM    5  C   UNL     1      -9.542  15.767  67.741  1.00  0.00    -0.214 C  
HETATM    6  C   UNL     1      -9.041  14.583  67.292  1.00  0.00    -0.217 C  
HETATM    7  C   UNL     1     -12.107  14.696  72.032  1.00  0.00    -0.346 C  
HETATM    8  O   UNL     1     -14.302  12.076  72.998  1.00  0.00     0.943 OA 
HETATM    9  C   UNL     1     -12.737  13.798  72.803  1.00  0.00    -0.146 C  
HETATM   10  C   UNL     1     -13.852  12.976  72.290  1.00  0.00    -0.434 C  
HETATM   11  C   UNL     1     -10.538  13.767  67.073  1.00  0.00    -0.278 C  
HETATM   12  C   UNL     1     -10.061  15.441  70.092  1.00  0.00    -0.156 C  
HETATM   13  C   UNL     1      -7.962  14.514  66.185  1.00  0.00     1.737 C  
HETATM   14  C   UNL     1      -9.705  15.412  71.597  1.00  0.00     2.971 C  
HETATM   15  C   UNL     1     -10.927  15.498  72.528  1.00  0.00     0.475 C  
HETATM   16  C   UNL     1     -11.602  14.021  68.249  1.00  0.00    -0.364 C  
HETATM   17  C   UNL     1     -11.236  14.393  69.752  1.00  0.00    -0.251 C  
HETATM   18  C   UNL     1     -12.455  14.924  70.578  1.00  0.00    -0.419 C  
HETATM   19  C   UNL     1     -13.869  14.462  70.206  1.00  0.00     1.153 C  
HETATM   20  C   UNL     1     -14.403  13.230  70.910  1.00  0.00     2.404 C  
ENDROOT
BRANCH   5  21
HETATM   21  C   UNL     1     -10.521  16.250  66.527  1.00  0.00    -0.290 C  
HETATM   22  O   UNL     1     -11.475  17.017  66.675  1.00  0.00     0.616 OA 
HETATM   23  C   UNL     1     -10.337  15.660  65.144  1.00  0.00    -0.366 C  
ENDBRANCH   5  21
BRANCH   5  24
HETATM   24  O   UNL     1      -8.496  16.814  67.302  1.00  0.00    -0.178 OA 
BRANCH  24  25
HETATM   25  C   UNL     1      -8.633  18.079  67.782  1.00  0.00    -0.244 C  
HETATM   26  C   UNL     1      -7.864  19.027  66.911  1.00  0.00    -0.256 C  
HETATM   27  O   UNL     1      -9.222  18.381  68.809  1.00  0.00    -0.314 OA 
ENDBRANCH  24  25
ENDBRANCH   5  24
TORSDOF 3
ENDMDL
MODEL      102
REMARK 921   NORMALIZED FREE ENERGY PREDICTED BY IDOCK:    8.19 KCAL/MOL
REMARK 922        TOTAL FREE ENERGY PREDICTED BY IDOCK:    9.86 KCAL/MOL
REMARK 923 INTER-LIGAND FREE ENERGY PREDICTED BY IDOCK:    3.18 KCAL/MOL
REMARK 924 INTRA-LIGAND FREE ENERGY PREDICTED BY IDOCK:    6.68 KCAL/MOL
REMARK 927      BINDING AFFINITY PREDICTED BY RF-SCORE:    0.00 PKD
ROOT
HETATM    1  C   UNL     1      -7.046   9.198  69.252  1.00  0.00    -0.058 C  
HETATM    2  C   UNL     1      -5.846   9.964  69.237  1.00  0.00    -0.034 C  
HETATM    3  C   UNL     1      -6.958  10.114  70.193  1.00  0.00    -0.157 C  
HETATM    4  C   UNL     1      -6.861  11.469  70.586  1.00  0.00     1.405 C  
HETATM    5  C   UNL     1      -8.028   8.397  70.333  1.00  0.00    -0.099 C  
HETATM    6  C   UNL     1      -7.341   9.178  71.214  1.00  0.00    -0.054 C  
HETATM    7  C   UNL     1     -10.288  11.599  67.050  1.00  0.00    -0.248 C  
HETATM    8  O   UNL     1     -11.985  14.698  67.407  1.00  0.00    -0.384 OA 
HETATM    9  C   UNL     1     -10.740  12.829  66.768  1.00  0.00    -0.278 C  
HETATM   10  C   UNL     1     -11.710  13.522  67.642  1.00  0.00    -0.363 C  
HETATM   11  C   UNL     1      -8.682  10.054  71.841  1.00  0.00     3.715 C  
HETATM   12  C   UNL     1      -8.438   9.775  68.375  1.00  0.00    -0.114 C  
HETATM   13  C   UNL     1      -6.288   8.592  72.184  1.00  0.00    -0.072 C  
HETATM   14  C   UNL     1      -8.053  10.385  67.007  1.00  0.00    -0.116 C  
HETATM   15  C   UNL     1      -9.253  10.905  66.196  1.00  0.00    -0.205 C  
HETATM   16  C   UNL     1      -9.750  10.502  70.728  1.00  0.00     1.654 C  
HETATM   17  C   UNL     1      -9.423  10.753  69.191  1.00  0.00    -0.151 C  
HETATM   18  C   UNL     1     -10.699  10.831  68.287  1.00  0.00    -0.253 C  
HETATM   19  C   UNL     1     -12.020  11.314  68.897  1.00  0.00    -0.378 C  
HETATM   20  C   UNL     1     -12.322  12.797  68.813  1.00  0.00     0.209 C  
ENDROOT
BRANCH   5  21
HETATM   21  C   UNL     1      -9.099   7.609  71.281  1.00  0.00    -0.137 C  
HETATM   22  O   UNL     1      -8.906   7.351  72.471  1.00  0.00    -0.123 OA 
HETATM   23  C   UNL     1     -10.371   7.060  70.668  1.00  0.00    -0.223 C  
ENDBRANCH   5  21
BRANCH   5  24
HETATM   24  O   UNL     1      -7.185   7.109  70.230  1.00  0.00    -0.068 OA 
BRANCH  24  25
HETATM   25  C   UNL     1      -7.565   6.046  70.987  1.00  0.00    -0.097 C  
HETATM   26  C   UNL     1      -8.440   5.141  70.172  1.00  0.00    -0.102 C  
HETATM   27  O   UNL     1      -7.302   5.897  72.171  1.00  0.00    -0.090 OA 
ENDBRANCH  24  25
ENDBRANCH   5  24
TORSDOF 3
ENDMDL
MODEL      103
REMARK 921   NORMALIZED FREE ENERGY PREDICTED BY IDOCK:    9.66 KCAL/MOL
REMARK 922        TOTAL FREE ENERGY PREDICTED BY IDOCK:   11.59 KCAL/MOL
REMARK 923 INTER-LIGAND FREE ENERGY PREDICTED BY IDOCK:   10.75 KCAL/MOL
REMARK 924 INTRA-LIGAND FREE ENERGY PREDICTED BY IDOCK:    0.85 KCAL/MOL
REMARK 927      BINDING AFFINITY PREDICTED BY RF-SCORE:    0.00 PKD
ROOT
HETATM    1  C   UNL     1      -7.831   8.865  66.439  1.00  0.00    -0.103 C  
HETATM    2  C   UNL     1      -7.574   7.877  67.433  1.00  0.00    -0.097 C  
HETATM    3  C   UNL     1      -8.867   8.541  67.185  1.00  0.00    -0.139 C  
HETATM    4  C   UNL     1      -9.504   8.480  68.446  1.00  0.00    -0.141 C  
HETATM    5  C   UNL     1      -8.972   9.235  65.283  1.00  0.00    -0.213 C  
HETATM    6  C   UNL     1      -9.710   8.371  66.035  1.00  0.00    -0.146 C  
HETATM    7  C   UNL     1      -7.532  12.994  68.434  1.00  0.00    -0.128 C  
HETATM    8  O   UNL     1      -9.172  14.816  71.004  1.00  0.00     1.874 OA 
HETATM    9  C   UNL     1      -7.720  13.680  69.571  1.00  0.00     0.563 C  
HETATM   10  C   UNL     1      -9.015  14.317  69.891  1.00  0.00     1.166 C  
HETATM   11  C   UNL     1     -10.953   9.467  66.492  1.00  0.00     0.355 C  
HETATM   12  C   UNL     1      -7.659  10.550  66.848  1.00  0.00    -0.110 C  
HETATM   13  C   UNL     1     -10.084   6.956  65.531  1.00  0.00     1.569 C  
HETATM   14  C   UNL     1      -6.425  10.811  67.743  1.00  0.00    -0.059 C  
HETATM   15  C   UNL     1      -6.232  12.289  68.125  1.00  0.00    -0.058 C  
HETATM   16  C   UNL     1     -10.424  10.932  66.884  1.00  0.00    -0.299 C  
HETATM   17  C   UNL     1      -8.973  11.263  67.448  1.00  0.00    -0.144 C  
HETATM   18  C   UNL     1      -8.620  12.788  67.404  1.00  0.00    -0.194 C  
HETATM   19  C   UNL     1      -9.749  13.821  67.490  1.00  0.00    -0.230 C  
HETATM   20  C   UNL     1     -10.123  14.326  68.870  1.00  0.00    -0.179 C  
ENDROOT
BRANCH   5  21
HETATM   21  C   UNL     1     -10.025   9.740  64.142  1.00  0.00     0.563 C  
HETATM   22  O   UNL     1     -10.426  10.901  64.040  1.00  0.00    -0.364 OA 
HETATM   23  C   UNL     1     -10.642   8.727  63.199  1.00  0.00     7.670 C  
ENDBRANCH   5  21
BRANCH   5  24
HETATM   24  O   UNL     1      -8.282   8.335  64.236  1.00  0.00    -0.160 OA 
BRANCH  24  25
HETATM   25  C   UNL     1      -7.061   8.722  63.780  1.00  0.00    -0.092 C  
HETATM   26  C   UNL     1      -6.074   7.615  63.998  1.00  0.00    -0.049 C  
HETATM   27  O   UNL     1      -6.795   9.831  63.340  1.00  0.00    -0.109 OA 
ENDBRANCH  24  25
ENDBRANCH   5  24
TORSDOF 3
ENDMDL
MODEL      104
REMARK 921   NORMALIZED FREE ENERGY PREDICTED BY IDOCK:    9.78 KCAL/MOL
REMARK 922        TOTAL FREE ENERGY PREDICTED BY IDOCK:   11.73 KCAL/MOL
REMARK 923 INTER-LIGAND FREE ENERGY PREDICTED BY IDOCK:    9.83 KCAL/MOL
REMARK 924 INTRA-LIGAND FREE ENERGY PREDICTED BY IDOCK:    1.90 KCAL/MOL
REMARK 927      BINDING AFFINITY PREDICTED BY RF-SCORE:    0.00 PKD
ROOT
HETATM    1  C   UNL     1     -10.539   6.600  70.660  1.00  0.00    -0.268 C  
HETATM    2  C   UNL     1     -10.317   5.222  70.378  1.00  0.00    -0.345 C  
HETATM    3  C   UNL     1      -9.283   6.211  70.732  1.00  0.00    -0.163 C  
HETATM    4  C   UNL     1      -8.119   5.691  70.122  1.00  0.00    -0.103 C  
HETATM    5  C   UNL     1     -10.087   7.757  71.769  1.00  0.00    -0.179 C  
HETATM    6  C   UNL     1      -9.106   6.843  72.011  1.00  0.00    -0.141 C  
HETATM    7  C   UNL     1      -9.705   8.986  66.822  1.00  0.00    -0.279 C  
HETATM    8  O   UNL     1      -6.970   9.632  64.650  1.00  0.00    -0.101 OA 
HETATM    9  C   UNL     1      -8.969   9.041  65.702  1.00  0.00    -0.249 C  
HETATM   10  C   UNL     1      -7.661   9.728  65.663  1.00  0.00    -0.115 C  
HETATM   11  C   UNL     1      -7.762   7.832  71.598  1.00  0.00    -0.091 C  
HETATM   12  C   UNL     1     -10.438   7.763  69.366  1.00  0.00    -0.221 C  
HETATM   13  C   UNL     1      -9.068   6.002  73.309  1.00  0.00    -0.129 C  
HETATM   14  C   UNL     1     -11.078   7.238  68.059  1.00  0.00     0.022 C  
HETATM   15  C   UNL     1     -11.015   8.236  66.889  1.00  0.00     0.266 C  
HETATM   16  C   UNL     1      -7.989   8.733  70.288  1.00  0.00    -0.106 C  
HETATM   17  C   UNL     1      -8.976   8.379  69.090  1.00  0.00    -0.147 C  
HETATM   18  C   UNL     1      -9.257   9.587  68.136  1.00  0.00    -0.134 C  
HETATM   19  C   UNL     1      -8.193  10.680  67.978  1.00  0.00    -0.113 C  
HETATM   20  C   UNL     1      -7.183  10.510  66.860  1.00  0.00    -0.106 C  
ENDROOT
BRANCH   5  21
HETATM   21  C   UNL     1      -9.701   8.998  72.757  1.00  0.00     0.870 C  
HETATM   22  O   UNL     1     -10.117   9.116  73.912  1.00  0.00     3.602 OA 
HETATM   23  C   UNL     1      -8.864  10.142  72.222  1.00  0.00     5.901 C  
ENDBRANCH   5  21
BRANCH   5  24
HETATM   24  O   UNL     1     -11.226   7.357  72.732  1.00  0.00    -0.311 OA 
BRANCH  24  25
HETATM   25  C   UNL     1     -12.471   7.835  72.466  1.00  0.00    -0.033 C  
HETATM   26  C   UNL     1     -13.480   7.061  73.260  1.00  0.00     2.819 C  
HETATM   27  O   UNL     1     -12.730   8.702  71.647  1.00  0.00    -0.318 OA 
ENDBRANCH  24  25
ENDBRANCH   5  24
TORSDOF 3
ENDMDL
MODEL      105
REMARK 921   NORMALIZED FREE ENERGY PREDICTED BY IDOCK:   10.02 KCAL/MOL
REMARK 922        TOTAL FREE ENERGY PREDICTED BY IDOCK:   12.01 KCAL/MOL
REMARK 923 INTER-LIGAND FREE ENERGY PREDICTED BY IDOCK:    2.04 KCAL/MOL
REMARK 924 INTRA-LIGAND FREE ENERGY PREDICTED BY IDOCK:    9.98 KCAL/MOL
REMARK 927      BINDING AFFINITY PREDICTED BY RF-SCORE:    0.00 PKD
ROOT
HETATM    1  C   UNL     1      -8.915  13.347  66.764  1.00  0.00    -0.190 C  
HETATM    2  C   UNL     1      -7.527  13.085  66.580  1.00  0.00     1.118 C  
HETATM    3  C   UNL     1      -8.163  13.546  67.826  1.00  0.00    -0.176 C  
HETATM    4  C   UNL     1      -7.118  14.237  68.483  1.00  0.00    -0.105 C  
HETATM    5  C   UNL     1     -10.127  13.045  67.865  1.00  0.00    -0.235 C  
HETATM    6  C   UNL     1      -9.053  12.790  68.664  1.00  0.00     0.044 C  
HETATM    7  C   UNL     1      -9.588  17.863  66.242  1.00  0.00    -0.252 C  
HETATM    8  O   UNL     1      -8.571  20.887  67.803  1.00  0.00    -0.049 OA 
HETATM    9  C   UNL     1      -9.046  19.079  66.404  1.00  0.00    -0.339 C  
HETATM   10  C   UNL     1      -9.200  19.839  67.662  1.00  0.00    -0.338 C  
HETATM   11  C   UNL     1      -9.350  14.004  69.844  1.00  0.00     1.474 C  
HETATM   12  C   UNL     1      -9.522  14.958  66.496  1.00  0.00    -0.307 C  
HETATM   13  C   UNL     1      -8.687  11.356  69.115  1.00  0.00     0.186 C  
HETATM   14  C   UNL     1      -8.876  15.627  65.260  1.00  0.00     1.618 C  
HETATM   15  C   UNL     1      -9.386  17.052  64.983  1.00  0.00     2.257 C  
HETATM   16  C   UNL     1      -9.831  15.409  69.233  1.00  0.00    -0.262 C  
HETATM   17  C   UNL     1      -9.488  15.940  67.772  1.00  0.00    -0.216 C  
HETATM   18  C   UNL     1     -10.369  17.155  67.327  1.00  0.00    -0.320 C  
HETATM   19  C   UNL     1     -10.932  18.102  68.394  1.00  0.00     0.246 C  
HETATM   20  C   UNL     1     -10.096  19.315  68.755  1.00  0.00    -0.477 C  
ENDROOT
BRANCH   5  21
HETATM   21  C   UNL     1     -11.400  12.859  68.870  1.00  0.00    -0.288 C  
HETATM   22  O   UNL     1     -11.723  11.785  69.383  1.00  0.00    -0.289 OA 
HETATM   23  C   UNL     1     -12.321  14.034  69.130  1.00  0.00    -0.169 C  
ENDBRANCH   5  21
BRANCH   5  24
HETATM   24  O   UNL     1     -10.452  11.682  67.217  1.00  0.00    -0.206 OA 
BRANCH  24  25
HETATM   25  C   UNL     1      -9.441  11.032  66.581  1.00  0.00    -0.184 C  
HETATM   26  C   UNL     1      -9.974   9.781  65.948  1.00  0.00    -0.345 C  
HETATM   27  O   UNL     1      -8.268  11.372  66.596  1.00  0.00    -0.159 OA 
ENDBRANCH  24  25
ENDBRANCH   5  24
TORSDOF 3
ENDMDL
MODEL      106
REMARK 921   NORMALIZED FREE ENERGY PREDICTED BY IDOCK:   11.34 KCAL/MOL
REMARK 922        TOTAL FREE ENERGY PREDICTED BY IDOCK:   13.56 KCAL/MOL
REMARK 923 INTER-LIGAND FREE ENERGY PREDICTED BY IDOCK:   -0.46 KCAL/MOL
REMARK 924 INTRA-LIGAND FREE ENERGY PREDICTED BY IDOCK:   14.02 KCAL/MOL
REMARK 927      BINDING AFFINITY PREDICTED BY RF-SCORE:    0.00 PKD
ROOT
HETATM    1  C   UNL     1      -9.151  10.102  67.670  1.00  0.00    -0.144 C  
HETATM    2  C   UNL     1      -9.457  10.958  66.575  1.00  0.00    -0.210 C  
HETATM    3  C   UNL     1     -10.041   9.628  66.824  1.00  0.00    -0.301 C  
HETATM    4  C   UNL     1     -10.393   9.186  65.528  1.00  0.00     0.834 C  
HETATM    5  C   UNL     1      -9.930   9.147  68.790  1.00  0.00    -0.176 C  
HETATM    6  C   UNL     1     -10.942   9.275  67.886  1.00  0.00    -0.076 C  
HETATM    7  C   UNL     1      -6.011   7.058  66.258  1.00  0.00    -0.035 C  
HETATM    8  O   UNL     1      -5.740   4.461  63.850  1.00  0.00    -0.013 OA 
HETATM    9  C   UNL     1      -5.562   6.350  65.211  1.00  0.00    -0.022 C  
HETATM   10  C   UNL     1      -6.090   5.006  64.896  1.00  0.00    -0.029 C  
HETATM   11  C   UNL     1     -11.117   7.609  67.498  1.00  0.00     0.092 C  
HETATM   12  C   UNL     1      -7.886   8.915  67.499  1.00  0.00    -0.101 C  
HETATM   13  C   UNL     1     -12.198  10.131  68.175  1.00  0.00     2.081 C  
HETATM   14  C   UNL     1      -6.666   9.470  66.726  1.00  0.00    -0.072 C  
HETATM   15  C   UNL     1      -5.522   8.456  66.554  1.00  0.00    -0.032 C  
HETATM   16  C   UNL     1      -9.726   6.823  67.337  1.00  0.00    -0.164 C  
HETATM   17  C   UNL     1      -8.342   7.485  66.915  1.00  0.00    -0.125 C  
HETATM   18  C   UNL     1      -7.104   6.565  67.181  1.00  0.00    -0.076 C  
HETATM   19  C   UNL     1      -7.284   5.042  67.159  1.00  0.00    -0.077 C  
HETATM   20  C   UNL     1      -7.058   4.336  65.837  1.00  0.00    -0.067 C  
ENDROOT
BRANCH   5  21
HETATM   21  C   UNL     1     -10.555   8.145  69.919  1.00  0.00    -0.239 C  
HETATM   22  O   UNL     1     -10.874   6.975  69.700  1.00  0.00    -0.236 OA 
HETATM   23  C   UNL     1     -10.868   8.684  71.299  1.00  0.00    -0.327 C  
ENDBRANCH   5  21
BRANCH   5  24
HETATM   24  O   UNL     1     -10.126  10.338  69.752  1.00  0.00    -0.236 OA 
BRANCH  24  25
HETATM   25  C   UNL     1     -10.805  11.419  69.284  1.00  0.00    -0.194 C  
HETATM   26  C   UNL     1     -10.163  11.899  68.017  1.00  0.00    -0.199 C  
HETATM   27  O   UNL     1     -11.740  11.961  69.854  1.00  0.00    -0.310 OA 
ENDBRANCH  24  25
ENDBRANCH   5  24
TORSDOF 3
ENDMDL
MODEL      107
REMARK 921   NORMALIZED FREE ENERGY PREDICTED BY IDOCK:   11.38 KCAL/MOL
REMARK 922        TOTAL FREE ENERGY PREDICTED BY IDOCK:   13.61 KCAL/MOL
REMARK 923 INTER-LIGAND FREE ENERGY PREDICTED BY IDOCK:    7.55 KCAL/MOL
REMARK 924 INTRA-LIGAND FREE ENERGY PREDICTED BY IDOCK:    6.06 KCAL/MOL
REMARK 927      BINDING AFFINITY PREDICTED BY RF-SCORE:    0.00 PKD
ROOT
HETATM    1  C   UNL     1     -11.668  11.873  69.047  1.00  0.00    -0.391 C  
HETATM    2  C   UNL     1     -11.891  11.271  70.318  1.00  0.00    -0.446 C  
HETATM    3  C   UNL     1     -10.620  11.848  69.845  1.00  0.00     0.748 C  
HETATM    4  C   UNL     1      -9.649  11.128  70.578  1.00  0.00     2.952 C  
HETATM    5  C   UNL     1     -10.947  13.225  68.393  1.00  0.00    -0.264 C  
HETATM    6  C   UNL     1     -10.345  13.240  69.615  1.00  0.00     0.760 C  
HETATM    7  C   UNL     1      -9.795   8.710  66.289  1.00  0.00    -0.320 C  
HETATM    8  O   UNL     1      -6.839   6.746  66.141  1.00  0.00    -0.057 OA 
HETATM    9  C   UNL     1      -8.997   7.634  66.237  1.00  0.00    -0.203 C  
HETATM   10  C   UNL     1      -7.537   7.755  66.045  1.00  0.00    -0.087 C  
HETATM   11  C   UNL     1      -8.722  13.070  69.075  1.00  0.00     0.483 C  
HETATM   12  C   UNL     1     -11.087  10.892  67.729  1.00  0.00    -0.371 C  
HETATM   13  C   UNL     1     -10.688  14.301  70.687  1.00  0.00     0.824 C  
HETATM   14  C   UNL     1     -11.760   9.500  67.698  1.00  0.00     1.894 C  
HETATM   15  C   UNL     1     -11.280   8.600  66.545  1.00  0.00     1.720 C  
HETATM   16  C   UNL     1      -8.535  12.012  67.881  1.00  0.00    -0.160 C  
HETATM   17  C   UNL     1      -9.487  10.767  67.601  1.00  0.00    -0.166 C  
HETATM   18  C   UNL     1      -9.277  10.128  66.187  1.00  0.00    -0.196 C  
HETATM   19  C   UNL     1      -7.904  10.232  65.514  1.00  0.00    -0.152 C  
HETATM   20  C   UNL     1      -6.923   9.102  65.762  1.00  0.00    -0.085 C  
ENDROOT
BRANCH   5  21
HETATM   21  C   UNL     1     -10.251  14.479  67.612  1.00  0.00    -0.225 C  
HETATM   22  O   UNL     1      -9.857  15.505  68.170  1.00  0.00    -0.214 OA 
HETATM   23  C   UNL     1     -10.160  14.455  66.100  1.00  0.00    -0.323 C  
ENDBRANCH   5  21
BRANCH   5  24
HETATM   24  O   UNL     1     -12.225  14.068  68.588  1.00  0.00    -0.332 OA 
BRANCH  24  25
HETATM   25  C   UNL     1     -12.279  15.279  67.972  1.00  0.00     0.305 C  
HETATM   26  C   UNL     1     -12.667  16.328  68.970  1.00  0.00     1.630 C  
HETATM   27  O   UNL     1     -12.118  15.466  66.775  1.00  0.00     0.225 OA 
ENDBRANCH  24  25
ENDBRANCH   5  24
TORSDOF 3
ENDMDL
MODEL      108
REMARK 921   NORMALIZED FREE ENERGY PREDICTED BY IDOCK:   11.73 KCAL/MOL
REMARK 922        TOTAL FREE ENERGY PREDICTED BY IDOCK:   14.02 KCAL/MOL
REMARK 923 INTER-LIGAND FREE ENERGY PREDICTED BY IDOCK:   10.11 KCAL/MOL
REMARK 924 INTRA-LIGAND FREE ENERGY PREDICTED BY IDOCK:    3.91 KCAL/MOL
REMARK 927      BINDING AFFINITY PREDICTED BY RF-SCORE:    0.00 PKD
ROOT
HETATM    1  C   UNL     1     -11.198  15.654  66.691  1.00  0.00    -0.067 C  
HETATM    2  C   UNL     1     -12.597  15.887  66.822  1.00  0.00     2.467 C  
HETATM    3  C   UNL     1     -11.768  15.065  67.722  1.00  0.00    -0.294 C  
HETATM    4  C   UNL     1     -12.694  14.138  68.252  1.00  0.00     0.893 C  
HETATM    5  C   UNL     1      -9.823  15.629  67.630  1.00  0.00    -0.227 C  
HETATM    6  C   UNL     1     -10.753  15.539  68.621  1.00  0.00    -0.252 C  
HETATM    7  C   UNL     1     -10.626  11.626  64.554  1.00  0.00    -0.373 C  
HETATM    8  O   UNL     1     -11.383   8.201  65.117  1.00  0.00     7.135 OA 
HETATM    9  C   UNL     1     -11.137  10.399  64.369  1.00  0.00     1.426 C  
HETATM   10  C   UNL     1     -10.783   9.267  65.250  1.00  0.00     2.429 C  
HETATM   11  C   UNL     1     -10.271  14.015  69.253  1.00  0.00     0.070 C  
HETATM   12  C   UNL     1     -10.645  14.264  65.797  1.00  0.00    -0.315 C  
HETATM   13  C   UNL     1     -11.039  16.713  69.588  1.00  0.00    -0.146 C  
HETATM   14  C   UNL     1     -11.484  14.020  64.520  1.00  0.00    -0.380 C  
HETATM   15  C   UNL     1     -11.027  12.803  63.697  1.00  0.00    -0.403 C  
HETATM   16  C   UNL     1      -9.898  12.928  68.131  1.00  0.00    -0.227 C  
HETATM   17  C   UNL     1     -10.474  12.907  66.647  1.00  0.00    -0.272 C  
HETATM   18  C   UNL     1      -9.678  11.964  65.683  1.00  0.00    -0.248 C  
HETATM   19  C   UNL     1      -8.952  10.743  66.260  1.00  0.00    -0.184 C  
HETATM   20  C   UNL     1      -9.720   9.437  66.306  1.00  0.00    -0.330 C  
ENDROOT
BRANCH   5  21
HETATM   21  C   UNL     1      -8.403  15.531  68.431  1.00  0.00    -0.154 C  
HETATM   22  O   UNL     1      -7.334  15.220  67.903  1.00  0.00    -0.118 OA 
HETATM   23  C   UNL     1      -8.382  15.729  69.933  1.00  0.00     0.335 C  
ENDBRANCH   5  21
BRANCH   5  24
HETATM   24  O   UNL     1      -9.605  17.146  67.448  1.00  0.00    -0.241 OA 
BRANCH  24  25
HETATM   25  C   UNL     1      -8.536  17.544  66.707  1.00  0.00    -0.250 C  
HETATM   26  C   UNL     1      -7.972  16.364  65.973  1.00  0.00     0.086 C  
HETATM   27  O   UNL     1      -8.061  18.669  66.707  1.00  0.00    -0.247 OA 
ENDBRANCH  24  25
ENDBRANCH   5  24
TORSDOF 3
ENDMDL
MODEL      109
REMARK 921   NORMALIZED FREE ENERGY PREDICTED BY IDOCK:   12.04 KCAL/MOL
REMARK 922        TOTAL FREE ENERGY PREDICTED BY IDOCK:   14.38 KCAL/MOL
REMARK 923 INTER-LIGAND FREE ENERGY PREDICTED BY IDOCK:   13.65 KCAL/MOL
REMARK 924 INTRA-LIGAND FREE ENERGY PREDICTED BY IDOCK:    0.73 KCAL/MOL
REMARK 927      BINDING AFFINITY PREDICTED BY RF-SCORE:    0.00 PKD
ROOT
HETATM    1  C   UNL     1      -8.871  13.239  66.629  1.00  0.00    -0.072 C  
HETATM    2  C   UNL     1      -7.770  12.349  66.478  1.00  0.00     0.395 C  
HETATM    3  C   UNL     1      -8.563  12.545  67.705  1.00  0.00    -0.178 C  
HETATM    4  C   UNL     1      -7.652  12.207  68.732  1.00  0.00    -0.056 C  
HETATM    5  C   UNL     1     -10.410  13.257  67.266  1.00  0.00    -0.247 C  
HETATM    6  C   UNL     1      -9.931  12.157  67.911  1.00  0.00    -0.200 C  
HETATM    7  C   UNL     1      -7.308  17.117  68.537  1.00  0.00    -0.231 C  
HETATM    8  O   UNL     1      -5.764  18.139  71.568  1.00  0.00     0.167 OA 
HETATM    9  C   UNL     1      -6.404  17.639  69.378  1.00  0.00    -0.243 C  
HETATM   10  C   UNL     1      -6.676  17.781  70.824  1.00  0.00     2.134 C  
HETATM   11  C   UNL     1     -10.099  12.740  69.519  1.00  0.00     0.927 C  
HETATM   12  C   UNL     1      -8.585  14.860  67.203  1.00  0.00    -0.248 C  
HETATM   13  C   UNL     1     -10.408  10.727  67.560  1.00  0.00    -0.244 C  
HETATM   14  C   UNL     1      -7.307  15.479  66.591  1.00  0.00     0.324 C  
HETATM   15  C   UNL     1      -7.018  16.913  67.068  1.00  0.00    -0.235 C  
HETATM   16  C   UNL     1      -9.669  14.276  69.708  1.00  0.00     0.681 C  
HETATM   17  C   UNL     1      -8.615  15.051  68.802  1.00  0.00    -0.182 C  
HETATM   18  C   UNL     1      -8.658  16.605  68.988  1.00  0.00    -0.190 C  
HETATM   19  C   UNL     1      -9.116  17.187  70.331  1.00  0.00     3.103 C  
HETATM   20  C   UNL     1      -8.046  17.464  71.368  1.00  0.00     9.064 C  
ENDROOT
BRANCH   5  21
HETATM   21  C   UNL     1     -11.914  13.431  67.878  1.00  0.00    -0.323 C  
HETATM   22  O   UNL     1     -12.673  12.490  68.118  1.00  0.00     0.519 OA 
HETATM   23  C   UNL     1     -12.478  14.823  68.081  1.00  0.00     0.320 C  
ENDBRANCH   5  21
BRANCH   5  24
HETATM   24  O   UNL     1     -11.016  12.700  65.960  1.00  0.00    -0.271 OA 
BRANCH  24  25
HETATM   25  C   UNL     1     -10.772  13.385  64.811  1.00  0.00    -0.390 C  
HETATM   26  C   UNL     1     -11.884  14.363  64.569  1.00  0.00    -0.463 C  
HETATM   27  O   UNL     1      -9.836  13.177  64.054  1.00  0.00    -0.209 OA 
ENDBRANCH  24  25
ENDBRANCH   5  24
TORSDOF 3
ENDMDL
MODEL      110
REMARK 921   NORMALIZED FREE ENERGY PREDICTED BY IDOCK:   12.97 KCAL/MOL
REMARK 922        TOTAL FREE ENERGY PREDICTED BY IDOCK:   15.48 KCAL/MOL
REMARK 923 INTER-LIGAND FREE ENERGY PREDICTED BY IDOCK:   14.21 KCAL/MOL
REMARK 924 INTRA-LIGAND FREE ENERGY PREDICTED BY IDOCK:    1.26 KCAL/MOL
REMARK 927      BINDING AFFINITY PREDICTED BY RF-SCORE:    0.00 PKD
ROOT
HETATM    1  C   UNL     1     -11.297  12.561  68.138  1.00  0.00    -0.343 C  
HETATM    2  C   UNL     1     -11.776  11.859  69.281  1.00  0.00    -0.389 C  
HETATM    3  C   UNL     1     -11.743  13.323  69.114  1.00  0.00    -0.379 C  
HETATM    4  C   UNL     1     -11.658  13.795  70.445  1.00  0.00    -0.143 C  
HETATM    5  C   UNL     1     -11.738  13.828  67.151  1.00  0.00    -0.385 C  
HETATM    6  C   UNL     1     -12.548  14.100  68.212  1.00  0.00     0.514 C  
HETATM    7  C   UNL     1      -6.959  13.830  68.967  1.00  0.00    -0.104 C  
HETATM    8  O   UNL     1      -5.198  15.892  71.261  1.00  0.00    -0.145 OA 
HETATM    9  C   UNL     1      -6.087  14.204  69.914  1.00  0.00    -0.140 C  
HETATM   10  C   UNL     1      -5.910  15.621  70.294  1.00  0.00    -0.127 C  
HETATM   11  C   UNL     1     -11.907  15.647  68.601  1.00  0.00    -0.306 C  
HETATM   12  C   UNL     1      -9.629  13.061  68.081  1.00  0.00    -0.227 C  
HETATM   13  C   UNL     1     -14.081  13.900  68.148  1.00  0.00    10.862 C  
HETATM   14  C   UNL     1      -8.677  11.981  68.647  1.00  0.00    -0.014 C  
HETATM   15  C   UNL     1      -7.191  12.380  68.612  1.00  0.00    -0.104 C  
HETATM   16  C   UNL     1     -10.305  15.733  68.518  1.00  0.00    -0.229 C  
HETATM   17  C   UNL     1      -9.309  14.507  68.713  1.00  0.00    -0.177 C  
HETATM   18  C   UNL     1      -7.850  14.807  68.232  1.00  0.00    -0.125 C  
HETATM   19  C   UNL     1      -7.333  16.250  68.262  1.00  0.00    -0.146 C  
HETATM   20  C   UNL     1      -6.616  16.704  69.519  1.00  0.00    -0.212 C  
ENDROOT
BRANCH   5  21
HETATM   21  C   UNL     1     -12.022  15.069  66.128  1.00  0.00     0.065 C  
HETATM   22  O   UNL     1     -13.086  15.691  66.079  1.00  0.00     2.039 OA 
HETATM   23  C   UNL     1     -10.976  15.437  65.097  1.00  0.00    -0.430 C  
ENDBRANCH   5  21
BRANCH   5  24
HETATM   24  O   UNL     1     -12.586  12.904  66.251  1.00  0.00    -0.380 OA 
BRANCH  24  25
HETATM   25  C   UNL     1     -12.163  11.622  66.089  1.00  0.00     1.157 C  
HETATM   26  C   UNL     1     -10.981  11.601  65.167  1.00  0.00    -0.326 C  
HETATM   27  O   UNL     1     -12.712  10.637  66.557  1.00  0.00     4.406 OA 
ENDBRANCH  24  25
ENDBRANCH   5  24
TORSDOF 3
ENDMDL
MODEL      111
REMARK 921   NORMALIZED FREE ENERGY PREDICTED BY IDOCK:   18.22 KCAL/MOL
REMARK 922        TOTAL FREE ENERGY PREDICTED BY IDOCK:   21.65 KCAL/MOL
REMARK 923 INTER-LIGAND FREE ENERGY PREDICTED BY IDOCK:   15.38 KCAL/MOL
REMARK 924 INTRA-LIGAND FREE ENERGY PREDICTED BY IDOCK:    6.28 KCAL/MOL
REMARK 927      BINDING AFFINITY PREDICTED BY RF-SCORE:    0.00 PKD
ROOT
HETATM    1  C   UNL     1     -10.068  16.328  67.931  1.00  0.00    -0.247 C  
HETATM    2  C   UNL     1      -9.244  17.302  68.565  1.00  0.00    -0.273 C  
HETATM    3  C   UNL     1      -8.863  16.460  67.417  1.00  0.00    -0.194 C  
HETATM    4  C   UNL     1      -7.457  16.372  67.538  1.00  0.00    -0.165 C  
HETATM    5  C   UNL     1     -10.503  15.838  66.400  1.00  0.00    -0.303 C  
HETATM    6  C   UNL     1      -9.385  16.548  66.081  1.00  0.00    -0.339 C  
HETATM    7  C   UNL     1      -9.002  12.214  69.678  1.00  0.00     1.831 C  
HETATM    8  O   UNL     1      -6.183  10.060  69.847  1.00  0.00    -0.047 OA 
HETATM    9  C   UNL     1      -8.019  11.461  70.193  1.00  0.00     1.902 C  
HETATM   10  C   UNL     1      -7.152  10.623  69.339  1.00  0.00    -0.120 C  
HETATM   11  C   UNL     1      -8.480  15.258  65.392  1.00  0.00     2.539 C  
HETATM   12  C   UNL     1     -10.003  14.673  68.472  1.00  0.00    -0.235 C  
HETATM   13  C   UNL     1      -9.457  17.909  65.348  1.00  0.00     1.163 C  
HETATM   14  C   UNL     1      -9.911  14.566  70.012  1.00  0.00     0.627 C  
HETATM   15  C   UNL     1      -9.855  13.120  70.535  1.00  0.00     4.821 C  
HETATM   16  C   UNL     1      -8.589  13.876  66.202  1.00  0.00     0.724 C  
HETATM   17  C   UNL     1      -8.897  13.745  67.758  1.00  0.00    -0.188 C  
HETATM   18  C   UNL     1      -9.291  12.295  68.196  1.00  0.00    -0.205 C  
HETATM   19  C   UNL     1      -8.753  11.100  67.400  1.00  0.00    -0.133 C  
HETATM   20  C   UNL     1      -7.447  10.488  67.867  1.00  0.00    -0.091 C  
ENDROOT
BRANCH   5  21
HETATM   21  C   UNL     1     -10.986  15.226  64.965  1.00  0.00    -0.437 C  
HETATM   22  O   UNL     1     -10.510  15.561  63.878  1.00  0.00     0.927 OA 
HETATM   23  C   UNL     1     -12.154  14.264  64.922  1.00  0.00    -0.442 C  
ENDBRANCH   5  21
BRANCH   5  24
HETATM   24  O   UNL     1     -11.644  16.874  66.332  1.00  0.00     0.876 OA 
BRANCH  24  25
HETATM   25  C   UNL     1     -11.682  17.832  67.297  1.00  0.00     1.758 C  
HETATM   26  C   UNL     1     -11.055  19.090  66.774  1.00  0.00    -0.021 C  
HETATM   27  O   UNL     1     -12.088  17.665  68.437  1.00  0.00     1.648 OA 
ENDBRANCH  24  25
ENDBRANCH   5  24
TORSDOF 3
ENDMDL
MODEL      112
REMARK 921   NORMALIZED FREE ENERGY PREDICTED BY IDOCK:   33.34 KCAL/MOL
REMARK 922        TOTAL FREE ENERGY PREDICTED BY IDOCK:   39.42 KCAL/MOL
REMARK 923 INTER-LIGAND FREE ENERGY PREDICTED BY IDOCK:   38.06 KCAL/MOL
REMARK 924 INTRA-LIGAND FREE ENERGY PREDICTED BY IDOCK:    1.36 KCAL/MOL
REMARK 927      BINDING AFFINITY PREDICTED BY RF-SCORE:    0.00 PKD
ROOT
HETATM    1  C   UNL     1     -10.677   7.909  66.438  1.00  0.00     0.649 C  
HETATM    2  C   UNL     1     -11.110   8.680  65.321  1.00  0.00     5.978 C  
HETATM    3  C   UNL     1     -10.221   9.143  66.401  1.00  0.00    -0.300 C  
HETATM    4  C   UNL     1     -10.446  10.539  66.424  1.00  0.00    -0.258 C  
HETATM    5  C   UNL     1      -9.283   7.580  67.288  1.00  0.00    -0.131 C  
HETATM    6  C   UNL     1      -8.873   8.710  66.646  1.00  0.00    -0.155 C  
HETATM    7  C   UNL     1     -13.417   8.895  69.992  1.00  0.00     2.224 C  
HETATM    8  O   UNL     1     -14.267  11.718  71.974  1.00  0.00     0.553 OA 
HETATM    9  C   UNL     1     -14.155   9.850  70.577  1.00  0.00     0.957 C  
HETATM   10  C   UNL     1     -13.580  10.779  71.573  1.00  0.00     0.097 C  
HETATM   11  C   UNL     1      -8.569   9.670  68.039  1.00  0.00    -0.119 C  
HETATM   12  C   UNL     1     -11.600   7.953  67.915  1.00  0.00     1.546 C  
HETATM   13  C   UNL     1      -7.835   8.673  65.499  1.00  0.00    -0.099 C  
HETATM   14  C   UNL     1     -13.124   7.945  67.651  1.00  0.00    14.341 C  
HETATM   15  C   UNL     1     -13.979   7.980  68.930  1.00  0.00    12.942 C  
HETATM   16  C   UNL     1      -9.677   9.521  69.193  1.00  0.00    -0.178 C  
HETATM   17  C   UNL     1     -11.197   9.112  68.958  1.00  0.00     0.181 C  
HETATM   18  C   UNL     1     -11.943   8.704  70.272  1.00  0.00     0.271 C  
HETATM   19  C   UNL     1     -11.489   9.304  71.608  1.00  0.00    -0.468 C  
HETATM   20  C   UNL     1     -12.168  10.582  72.060  1.00  0.00     0.250 C  
ENDROOT
BRANCH   5  21
HETATM   21  C   UNL     1      -8.008   7.198  68.234  1.00  0.00    -0.123 C  
HETATM   22  O   UNL     1      -8.100   6.584  69.299  1.00  0.00    -0.109 OA 
HETATM   23  C   UNL     1      -6.628   7.699  67.861  1.00  0.00    -0.059 C  
ENDBRANCH   5  21
BRANCH   5  24
HETATM   24  O   UNL     1      -8.901   6.435  66.326  1.00  0.00    -0.137 OA 
BRANCH  24  25
HETATM   25  C   UNL     1      -9.831   5.471  66.094  1.00  0.00    -0.107 C  
HETATM   26  C   UNL     1      -9.919   4.567  67.287  1.00  0.00    -0.187 C  
HETATM   27  O   UNL     1     -10.439   5.320  65.045  1.00  0.00     0.499 OA 
ENDBRANCH  24  25
ENDBRANCH   5  24
TORSDOF 3
ENDMDL
MODEL      113
REMARK 921   NORMALIZED FREE ENERGY PREDICTED BY IDOCK:   55.34 KCAL/MOL
REMARK 922        TOTAL FREE ENERGY PREDICTED BY IDOCK:   65.29 KCAL/MOL
REMARK 923 INTER-LIGAND FREE ENERGY PREDICTED BY IDOCK:   64.43 KCAL/MOL
REMARK 924 INTRA-LIGAND FREE ENERGY PREDICTED BY IDOCK:    0.86 KCAL/MOL
REMARK 927      BINDING AFFINITY PREDICTED BY RF-SCORE:    0.00 PKD
ROOT
HETATM    1  C   UNL     1      -7.963  16.455  72.515  1.00  0.00    14.215 C  
HETATM    2  C   UNL     1      -7.247  15.459  73.238  1.00  0.00     6.849 C  
HETATM    3  C   UNL     1      -7.549  15.434  71.795  1.00  0.00     4.429 C  
HETATM    4  C   UNL     1      -7.565  14.052  71.496  1.00  0.00     4.573 C  
HETATM    5  C   UNL     1      -7.859  17.308  71.089  1.00  0.00     6.839 C  
HETATM    6  C   UNL     1      -6.995  16.299  70.790  1.00  0.00     2.024 C  
HETATM    7  C   UNL     1     -12.335  15.084  72.162  1.00  0.00    -0.433 C  
HETATM    8  O   UNL     1     -14.157  12.396  70.722  1.00  0.00     2.230 OA 
HETATM    9  C   UNL     1     -13.147  14.021  72.061  1.00  0.00    -0.487 C  
HETATM   10  C   UNL     1     -13.521  13.449  70.750  1.00  0.00     0.396 C  
HETATM   11  C   UNL     1      -7.844  15.659  69.439  1.00  0.00    -0.222 C  
HETATM   12  C   UNL     1      -9.689  16.298  72.327  1.00  0.00     7.111 C  
HETATM   13  C   UNL     1      -5.467  16.525  70.697  1.00  0.00    -0.112 C  
HETATM   14  C   UNL     1     -10.372  15.790  73.618  1.00  0.00     5.995 C  
HETATM   15  C   UNL     1     -11.899  15.639  73.498  1.00  0.00    -0.418 C  
HETATM   16  C   UNL     1      -9.436  15.586  69.640  1.00  0.00    -0.244 C  
HETATM   17  C   UNL     1     -10.179  15.460  71.041  1.00  0.00     0.646 C  
HETATM   18  C   UNL     1     -11.713  15.765  70.964  1.00  0.00    -0.462 C  
HETATM   19  C   UNL     1     -12.463  15.505  69.652  1.00  0.00    -0.137 C  
HETATM   20  C   UNL     1     -13.102  14.141  69.478  1.00  0.00     1.037 C  
ENDROOT
BRANCH   5  21
HETATM   21  C   UNL     1      -7.907  18.186  69.712  1.00  0.00     0.994 C  
HETATM   22  O   UNL     1      -6.921  18.423  69.011  1.00  0.00    -0.270 OA 
HETATM   23  C   UNL     1      -9.205  18.847  69.297  1.00  0.00     0.007 C  
ENDBRANCH   5  21
BRANCH   5  24
HETATM   24  O   UNL     1      -6.971  18.391  71.737  1.00  0.00     3.704 OA 
BRANCH  24  25
HETATM   25  C   UNL     1      -7.530  19.610  71.965  1.00  0.00     2.625 C  
HETATM   26  C   UNL     1      -6.449  20.646  72.043  1.00  0.00     0.806 C  
HETATM   27  O   UNL     1      -8.719  19.811  72.158  1.00  0.00     2.734 OA 
ENDBRANCH  24  25
ENDBRANCH   5  24
TORSDOF 3
ENDMDL
MODEL      114
REMARK 921   NORMALIZED FREE ENERGY PREDICTED BY IDOCK:   59.52 KCAL/MOL
REMARK 922        TOTAL FREE ENERGY PREDICTED BY IDOCK:   70.20 KCAL/MOL
REMARK 923 INTER-LIGAND FREE ENERGY PREDICTED BY IDOCK:   67.05 KCAL/MOL
REMARK 924 INTRA-LIGAND FREE ENERGY PREDICTED BY IDOCK:    3.15 KCAL/MOL
REMARK 927      BINDING AFFINITY PREDICTED BY RF-SCORE:    0.00 PKD
ROOT
HETATM    1  C   UNL     1     -10.161   8.419  71.575  1.00  0.00    -0.294 C  
HETATM    2  C   UNL     1     -11.214   7.823  72.327  1.00  0.00    -0.365 C  
HETATM    3  C   UNL     1     -11.350   8.474  71.011  1.00  0.00    -0.313 C  
HETATM    4  C   UNL     1     -12.692   8.919  71.011  1.00  0.00    -0.102 C  
HETATM    5  C   UNL     1      -9.585   8.461  70.013  1.00  0.00    -0.168 C  
HETATM    6  C   UNL     1     -10.838   7.988  69.759  1.00  0.00    -0.194 C  
HETATM    7  C   UNL     1     -10.208  12.939  72.400  1.00  0.00    14.388 C  
HETATM    8  O   UNL     1     -12.407  15.690  71.939  1.00  0.00    -0.354 OA 
HETATM    9  C   UNL     1     -10.984  13.995  72.685  1.00  0.00     3.793 C  
HETATM   10  C   UNL     1     -11.597  14.820  71.622  1.00  0.00    -0.191 C  
HETATM   11  C   UNL     1     -11.379   9.285  68.768  1.00  0.00     0.309 C  
HETATM   12  C   UNL     1      -9.824  10.117  71.775  1.00  0.00     3.205 C  
HETATM   13  C   UNL     1     -11.090   6.528  69.316  1.00  0.00    -0.393 C  
HETATM   14  C   UNL     1      -9.920  10.560  73.253  1.00  0.00    13.021 C  
HETATM   15  C   UNL     1      -9.626  12.054  73.477  1.00  0.00    24.463 C  
HETATM   16  C   UNL     1     -10.947  10.739  69.297  1.00  0.00    -0.292 C  
HETATM   17  C   UNL     1     -10.649  11.112  70.814  1.00  0.00     1.892 C  
HETATM   18  C   UNL     1      -9.916  12.485  70.987  1.00  0.00     8.247 C  
HETATM   19  C   UNL     1     -10.123  13.581  69.935  1.00  0.00     1.445 C  
HETATM   20  C   UNL     1     -11.246  14.571  70.178  1.00  0.00    -0.196 C  
ENDROOT
BRANCH   5  21
HETATM   21  C   UNL     1      -8.935   8.628  68.524  1.00  0.00    -0.139 C  
HETATM   22  O   UNL     1      -8.071   9.459  68.238  1.00  0.00    -0.107 OA 
HETATM   23  C   UNL     1      -9.475   7.795  67.379  1.00  0.00    -0.177 C  
ENDBRANCH   5  21
BRANCH   5  24
HETATM   24  O   UNL     1      -8.736   7.192  70.232  1.00  0.00    -0.142 OA 
BRANCH  24  25
HETATM   25  C   UNL     1      -7.661   7.290  71.059  1.00  0.00    -0.084 C  
HETATM   26  C   UNL     1      -7.638   8.652  71.686  1.00  0.00    -0.139 C  
HETATM   27  O   UNL     1      -6.804   6.431  71.202  1.00  0.00    -0.063 OA 
ENDBRANCH  24  25
ENDBRANCH   5  24
TORSDOF 3
ENDMDL
MODEL      115
REMARK 921   NORMALIZED FREE ENERGY PREDICTED BY IDOCK:   59.57 KCAL/MOL
REMARK 922        TOTAL FREE ENERGY PREDICTED BY IDOCK:   70.26 KCAL/MOL
REMARK 923 INTER-LIGAND FREE ENERGY PREDICTED BY IDOCK:   63.09 KCAL/MOL
REMARK 924 INTRA-LIGAND FREE ENERGY PREDICTED BY IDOCK:    7.17 KCAL/MOL
REMARK 927      BINDING AFFINITY PREDICTED BY RF-SCORE:    0.00 PKD
ROOT
HETATM    1  C   UNL     1      -9.895  13.069  71.375  1.00  0.00    10.873 C  
HETATM    2  C   UNL     1     -10.780  13.920  72.098  1.00  0.00     4.808 C  
HETATM    3  C   UNL     1     -10.627  13.873  70.633  1.00  0.00     1.774 C  
HETATM    4  C   UNL     1     -11.001  15.176  70.230  1.00  0.00    -0.277 C  
HETATM    5  C   UNL     1      -9.901  12.076  70.038  1.00  0.00     2.435 C  
HETATM    6  C   UNL     1     -11.024  12.798  69.765  1.00  0.00     0.278 C  
HETATM    7  C   UNL     1      -6.087  15.458  70.424  1.00  0.00    -0.046 C  
HETATM    8  O   UNL     1      -5.173  18.358  68.587  1.00  0.00    -0.173 OA 
HETATM    9  C   UNL     1      -5.595  16.676  70.151  1.00  0.00    -0.207 C  
HETATM   10  C   UNL     1      -5.505  17.187  68.767  1.00  0.00    -0.139 C  
HETATM   11  C   UNL     1     -10.498  13.491  68.282  1.00  0.00    -0.258 C  
HETATM   12  C   UNL     1      -8.296  13.638  70.980  1.00  0.00     6.517 C  
HETATM   13  C   UNL     1     -12.440  12.184  69.864  1.00  0.00     0.005 C  
HETATM   14  C   UNL     1      -7.655  14.431  72.142  1.00  0.00     4.829 C  
HETATM   15  C   UNL     1      -6.239  14.949  71.838  1.00  0.00     0.737 C  
HETATM   16  C   UNL     1      -8.970  13.985  68.294  1.00  0.00    -0.190 C  
HETATM   17  C   UNL     1      -8.162  14.437  69.587  1.00  0.00     0.433 C  
HETATM   18  C   UNL     1      -6.615  14.523  69.359  1.00  0.00    -0.138 C  
HETATM   19  C   UNL     1      -6.082  14.830  67.954  1.00  0.00    -0.167 C  
HETATM   20  C   UNL     1      -5.842  16.286  67.606  1.00  0.00    -0.169 C  
ENDROOT
BRANCH   5  21
HETATM   21  C   UNL     1      -9.750  11.104  68.734  1.00  0.00    -0.185 C  
HETATM   22  O   UNL     1     -10.695  10.528  68.191  1.00  0.00    -0.198 OA 
HETATM   23  C   UNL     1      -8.369  10.789  68.198  1.00  0.00    -0.120 C  
ENDBRANCH   5  21
BRANCH   5  24
HETATM   24  O   UNL     1     -10.412  10.876  70.862  1.00  0.00     1.133 OA 
BRANCH  24  25
HETATM   25  C   UNL     1      -9.844  10.662  72.079  1.00  0.00     7.613 C  
HETATM   26  C   UNL     1      -9.475  11.979  72.694  1.00  0.00    23.084 C  
HETATM   27  O   UNL     1      -9.600   9.565  72.558  1.00  0.00     0.838 OA 
ENDBRANCH  24  25
ENDBRANCH   5  24
TORSDOF 3
ENDMDL
MODEL      116
REMARK 921   NORMALIZED FREE ENERGY PREDICTED BY IDOCK:   70.13 KCAL/MOL
REMARK 922        TOTAL FREE ENERGY PREDICTED BY IDOCK:   82.67 KCAL/MOL
REMARK 923 INTER-LIGAND FREE ENERGY PREDICTED BY IDOCK:   75.43 KCAL/MOL
REMARK 924 INTRA-LIGAND FREE ENERGY PREDICTED BY IDOCK:    7.24 KCAL/MOL
REMARK 927      BINDING AFFINITY PREDICTED BY RF-SCORE:    0.00 PKD
ROOT
HETATM    1  C   UNL     1      -8.922  10.982  71.987  1.00  0.00    12.033 C  
HETATM    2  C   UNL     1      -8.007  11.909  72.564  1.00  0.00    17.537 C  
HETATM    3  C   UNL     1      -8.826  12.136  71.360  1.00  0.00    14.255 C  
HETATM    4  C   UNL     1      -8.067  13.081  70.631  1.00  0.00     5.673 C  
HETATM    5  C   UNL     1     -10.466  10.945  71.365  1.00  0.00     3.767 C  
HETATM    6  C   UNL     1     -10.254  12.289  71.312  1.00  0.00     8.457 C  
HETATM    7  C   UNL     1      -6.763   8.805  68.563  1.00  0.00    -0.060 C  
HETATM    8  O   UNL     1      -5.252   9.611  65.452  1.00  0.00    -0.038 OA 
HETATM    9  C   UNL     1      -5.832   8.919  67.605  1.00  0.00    -0.043 C  
HETATM   10  C   UNL     1      -6.166   9.398  66.248  1.00  0.00    -0.064 C  
HETATM   11  C   UNL     1     -10.410  12.482  69.610  1.00  0.00     0.879 C  
HETATM   12  C   UNL     1      -8.365   9.897  70.742  1.00  0.00     0.494 C  
HETATM   13  C   UNL     1     -10.975  13.273  72.263  1.00  0.00     6.611 C  
HETATM   14  C   UNL     1      -6.953   9.340  71.043  1.00  0.00    -0.090 C  
HETATM   15  C   UNL     1      -6.423   8.373  69.970  1.00  0.00    -0.038 C  
HETATM   16  C   UNL     1      -9.703  11.323  68.752  1.00  0.00    -0.184 C  
HETATM   17  C   UNL     1      -8.462  10.452  69.234  1.00  0.00    -0.162 C  
HETATM   18  C   UNL     1      -8.214   9.180  68.355  1.00  0.00    -0.115 C  
HETATM   19  C   UNL     1      -8.638   9.194  66.881  1.00  0.00    -0.129 C  
HETATM   20  C   UNL     1      -7.604   9.643  65.867  1.00  0.00    -0.103 C  
ENDROOT
BRANCH   5  21
HETATM   21  C   UNL     1     -11.944  10.768  70.693  1.00  0.00    -0.367 C  
HETATM   22  O   UNL     1     -12.613  11.700  70.243  1.00  0.00    -0.187 OA 
HETATM   23  C   UNL     1     -12.606   9.405  70.700  1.00  0.00    -0.005 C  
ENDBRANCH   5  21
BRANCH   5  24
HETATM   24  O   UNL     1     -11.082  10.711  72.760  1.00  0.00     5.104 OA 
BRANCH  24  25
HETATM   25  C   UNL     1     -12.267  10.046  72.821  1.00  0.00     1.830 C  
HETATM   26  C   UNL     1     -12.006   8.574  72.941  1.00  0.00     0.073 C  
HETATM   27  O   UNL     1     -13.368  10.562  72.712  1.00  0.00     0.302 OA 
ENDBRANCH  24  25
ENDBRANCH   5  24
TORSDOF 3
ENDMDL
