MODEL        1
REMARK 921   NORMALIZED FREE ENERGY PREDICTED BY IDOCK:   -7.53 KCAL/MOL
REMARK 922        TOTAL FREE ENERGY PREDICTED BY IDOCK:  -14.13 KCAL/MOL
REMARK 923 INTER-LIGAND FREE ENERGY PREDICTED BY IDOCK:  -12.81 KCAL/MOL
REMARK 924 INTRA-LIGAND FREE ENERGY PREDICTED BY IDOCK:   -1.32 KCAL/MOL
REMARK 927      BINDING AFFINITY PREDICTED BY RF-SCORE:    0.00 PKD
ROOT
HETATM    1  C   UNL     1      -9.837   8.057  66.580  1.00  0.00    -0.322 C  
HETATM    2  C   UNL     1      -8.966   9.266  66.931  1.00  0.00    -0.130 C  
HETATM    3  C   UNL     1      -7.565   9.077  66.347  1.00  0.00    -0.092 C  
ENDROOT
BRANCH   2   4
HETATM    4  N   UNL     1      -9.553  10.569  66.535  1.00  0.00    -0.170 NA 
BRANCH   4   5
HETATM    5  C   UNL     1      -9.356  11.139  65.190  1.00  0.00    -0.213 C  
BRANCH   5   6
HETATM    6  C   UNL     1     -10.605  11.025  64.308  1.00  0.00    -0.402 C  
BRANCH   6   7
HETATM    7  C   UNL     1     -10.973  12.326  63.572  1.00  0.00    -0.521 C  
BRANCH   7   8
HETATM    8  C   UNL     1     -12.409  12.805  63.785  1.00  0.00    -0.446 C  
BRANCH   8   9
HETATM    9  O   UNL     1     -12.414  14.219  63.967  1.00  0.00    -0.700 OA 
BRANCH   9  10
HETATM   10  C   UNL     1     -12.057  14.584  65.298  1.00  0.00    -0.337 C  
BRANCH  10  11
HETATM   11  C   UNL     1     -11.265  15.886  65.326  1.00  0.00    -0.153 C  
HETATM   12  O   UNL     1     -11.213  16.632  64.358  1.00  0.00    -1.033 OA 
HETATM   13  N   UNL     1     -10.665  16.181  66.560  1.00  0.00    -0.270 N  
HETATM   14  H   UNL     1     -10.847  15.573  67.358  1.00  0.00     0.000 HD 
BRANCH  13  15
HETATM   15  S   UNL     1      -9.666  17.495  66.756  1.00  0.00    -0.308 S  
HETATM   16  O   UNL     1      -8.460  17.296  65.997  1.00  0.00    -0.489 OA 
HETATM   17  C   UNL     1      -9.234  17.301  68.456  1.00  0.00    -0.273 C  
HETATM   18  O   UNL     1     -10.467  18.690  66.657  1.00  0.00    -0.389 OA 
ENDBRANCH  13  15
ENDBRANCH  10  11
ENDBRANCH   9  10
ENDBRANCH   8   9
ENDBRANCH   7   8
ENDBRANCH   6   7
ENDBRANCH   5   6
ENDBRANCH   4   5
BRANCH   4  19
HETATM   19  C   UNL     1     -10.238  11.264  67.537  1.00  0.00    -0.189 A  
HETATM   20  N   UNL     1     -11.030  13.354  68.528  1.00  0.00    -0.258 NA 
HETATM   21  N   UNL     1     -10.794  10.578  68.562  1.00  0.00    -0.217 NA 
HETATM   22  C   UNL     1     -11.563  12.641  69.569  1.00  0.00    -0.281 A  
HETATM   23  C   UNL     1     -11.467  11.234  69.569  1.00  0.00    -0.307 A  
HETATM   24  C   UNL     1     -10.397  12.644  67.551  1.00  0.00    -0.218 A  
BRANCH  23  25
HETATM   25  C   UNL     1     -11.988  10.319  70.624  1.00  0.00    -0.436 A  
HETATM   26  C   UNL     1     -13.372  10.093  70.759  1.00  0.00    -0.189 A  
HETATM   27  C   UNL     1     -11.637   8.524  72.253  1.00  0.00    -0.444 A  
HETATM   28  C   UNL     1     -11.153   9.588  71.487  1.00  0.00    -0.406 A  
HETATM   29  C   UNL     1     -13.000   8.272  72.303  1.00  0.00    -0.289 A  
HETATM   30  C   UNL     1     -13.874   9.095  71.601  1.00  0.00    -0.396 A  
ENDBRANCH  23  25
BRANCH  22  31
HETATM   31  C   UNL     1     -12.166  13.497  70.644  1.00  0.00    -0.434 A  
HETATM   32  C   UNL     1     -12.287  15.646  71.837  1.00  0.00    -0.502 A  
HETATM   33  C   UNL     1     -13.785  13.877  72.454  1.00  0.00    -0.678 A  
HETATM   34  C   UNL     1     -13.139  13.025  71.549  1.00  0.00    -0.400 A  
HETATM   35  C   UNL     1     -11.724  14.823  70.851  1.00  0.00    -0.360 A  
HETATM   36  C   UNL     1     -13.362  15.192  72.593  1.00  0.00    -0.564 A  
ENDBRANCH  22  31
ENDBRANCH   4  19
ENDBRANCH   2   4
TORSDOF 12
ENDMDL
MODEL        2
REMARK 921   NORMALIZED FREE ENERGY PREDICTED BY IDOCK:   -7.23 KCAL/MOL
REMARK 922        TOTAL FREE ENERGY PREDICTED BY IDOCK:  -13.62 KCAL/MOL
REMARK 923 INTER-LIGAND FREE ENERGY PREDICTED BY IDOCK:  -11.74 KCAL/MOL
REMARK 924 INTRA-LIGAND FREE ENERGY PREDICTED BY IDOCK:   -1.88 KCAL/MOL
REMARK 927      BINDING AFFINITY PREDICTED BY RF-SCORE:    0.00 PKD
ROOT
HETATM    1  C   UNL     1     -12.522  14.612  64.238  1.00  0.00    -0.267 C  
HETATM    2  C   UNL     1     -12.255  13.208  64.786  1.00  0.00    -0.425 C  
HETATM    3  C   UNL     1     -12.165  12.213  63.627  1.00  0.00    -0.663 C  
ENDROOT
BRANCH   2   4
HETATM    4  N   UNL     1     -11.072  13.120  65.675  1.00  0.00    -0.275 NA 
BRANCH   4   5
HETATM    5  C   UNL     1      -9.812  13.822  65.373  1.00  0.00    -0.143 C  
BRANCH   5   6
HETATM    6  C   UNL     1      -9.369  14.760  66.502  1.00  0.00    -0.316 C  
BRANCH   6   7
HETATM    7  C   UNL     1      -9.897  16.200  66.363  1.00  0.00    -0.304 C  
BRANCH   7   8
HETATM    8  C   UNL     1     -10.270  16.881  67.680  1.00  0.00    -0.306 C  
BRANCH   8   9
HETATM    9  O   UNL     1     -11.002  15.967  68.494  1.00  0.00    -0.290 OA 
BRANCH   9  10
HETATM   10  C   UNL     1     -10.807  16.221  69.884  1.00  0.00    -0.352 C  
BRANCH  10  11
HETATM   11  C   UNL     1     -12.014  15.784  70.705  1.00  0.00    -0.407 C  
HETATM   12  O   UNL     1     -13.132  15.692  70.214  1.00  0.00    -0.301 OA 
HETATM   13  N   UNL     1     -11.726  15.439  72.034  1.00  0.00    -0.419 N  
HETATM   14  H   UNL     1     -10.754  15.427  72.344  1.00  0.00     0.000 HD 
BRANCH  13  15
HETATM   15  S   UNL     1     -12.924  15.049  73.118  1.00  0.00    -0.534 S  
HETATM   16  O   UNL     1     -12.336  14.773  74.402  1.00  0.00    -0.510 OA 
HETATM   17  C   UNL     1     -13.445  13.500  72.453  1.00  0.00    -0.584 C  
HETATM   18  O   UNL     1     -14.014  15.975  72.937  1.00  0.00    -0.560 OA 
ENDBRANCH  13  15
ENDBRANCH  10  11
ENDBRANCH   9  10
ENDBRANCH   8   9
ENDBRANCH   7   8
ENDBRANCH   6   7
ENDBRANCH   5   6
ENDBRANCH   4   5
BRANCH   4  19
HETATM   19  C   UNL     1     -11.195  12.268  66.778  1.00  0.00    -0.318 A  
HETATM   20  N   UNL     1     -11.907  11.839  69.077  1.00  0.00    -0.315 NA 
HETATM   21  N   UNL     1     -10.714  11.005  66.701  1.00  0.00    -0.260 NA 
HETATM   22  C   UNL     1     -11.390  10.574  68.985  1.00  0.00    -0.257 A  
HETATM   23  C   UNL     1     -10.813  10.145  67.772  1.00  0.00    -0.292 A  
HETATM   24  C   UNL     1     -11.800  12.633  67.974  1.00  0.00    -0.323 A  
BRANCH  23  25
HETATM   25  C   UNL     1     -10.205   8.809  67.514  1.00  0.00    -0.309 A  
HETATM   26  C   UNL     1      -8.811   8.625  67.602  1.00  0.00    -0.138 A  
HETATM   27  C   UNL     1     -10.412   6.378  67.302  1.00  0.00    -0.326 A  
HETATM   28  C   UNL     1     -10.967   7.659  67.241  1.00  0.00    -0.122 A  
HETATM   29  C   UNL     1      -9.045   6.223  67.472  1.00  0.00    -0.110 A  
HETATM   30  C   UNL     1      -8.235   7.350  67.564  1.00  0.00    -0.113 A  
ENDBRANCH  23  25
BRANCH  22  31
HETATM   31  C   UNL     1     -11.470   9.793  70.264  1.00  0.00    -0.317 A  
HETATM   32  C   UNL     1     -12.814   8.753  72.044  1.00  0.00    -0.442 A  
HETATM   33  C   UNL     1     -10.427   8.532  72.098  1.00  0.00    -0.412 A  
HETATM   34  C   UNL     1     -10.331   9.374  70.982  1.00  0.00    -0.382 A  
HETATM   35  C   UNL     1     -12.717   9.497  70.859  1.00  0.00    -0.231 A  
HETATM   36  C   UNL     1     -11.672   8.216  72.625  1.00  0.00    -0.419 A  
ENDBRANCH  22  31
ENDBRANCH   4  19
ENDBRANCH   2   4
TORSDOF 12
ENDMDL
MODEL        3
REMARK 921   NORMALIZED FREE ENERGY PREDICTED BY IDOCK:   -7.22 KCAL/MOL
REMARK 922        TOTAL FREE ENERGY PREDICTED BY IDOCK:  -13.60 KCAL/MOL
REMARK 923 INTER-LIGAND FREE ENERGY PREDICTED BY IDOCK:  -11.93 KCAL/MOL
REMARK 924 INTRA-LIGAND FREE ENERGY PREDICTED BY IDOCK:   -1.67 KCAL/MOL
REMARK 927      BINDING AFFINITY PREDICTED BY RF-SCORE:    0.00 PKD
ROOT
HETATM    1  C   UNL     1     -12.229  15.098  72.727  1.00  0.00    -0.485 C  
HETATM    2  C   UNL     1     -13.230  14.349  71.845  1.00  0.00    -0.365 C  
HETATM    3  C   UNL     1     -14.363  15.292  71.436  1.00  0.00    -0.578 C  
ENDROOT
BRANCH   2   4
HETATM    4  N   UNL     1     -12.620  13.685  70.667  1.00  0.00    -0.319 NA 
BRANCH   4   5
HETATM    5  C   UNL     1     -12.386  14.400  69.400  1.00  0.00    -0.191 C  
BRANCH   5   6
HETATM    6  C   UNL     1     -10.965  14.967  69.292  1.00  0.00    -0.269 C  
BRANCH   6   7
HETATM    7  C   UNL     1     -10.863  16.466  69.629  1.00  0.00    -0.346 C  
BRANCH   7   8
HETATM    8  C   UNL     1     -10.034  17.294  68.647  1.00  0.00    -0.327 C  
BRANCH   8   9
HETATM    9  O   UNL     1      -9.693  16.489  67.520  1.00  0.00    -0.237 OA 
BRANCH   9  10
HETATM   10  C   UNL     1     -10.093  17.097  66.294  1.00  0.00    -0.320 C  
BRANCH  10  11
HETATM   11  C   UNL     1     -10.777  16.095  65.371  1.00  0.00    -0.358 C  
HETATM   12  O   UNL     1     -11.101  16.385  64.228  1.00  0.00    -0.845 OA 
HETATM   13  N   UNL     1     -10.939  14.811  65.916  1.00  0.00    -0.327 N  
HETATM   14  H   UNL     1     -10.540  14.608  66.832  1.00  0.00     0.000 HD 
BRANCH  13  15
HETATM   15  S   UNL     1     -11.765  13.616  65.110  1.00  0.00    -0.349 S  
HETATM   16  O   UNL     1     -12.131  12.578  66.037  1.00  0.00    -0.557 OA 
HETATM   17  C   UNL     1     -10.464  12.967  64.109  1.00  0.00    -0.406 C  
HETATM   18  O   UNL     1     -12.710  14.241  64.220  1.00  0.00    -0.660 OA 
ENDBRANCH  13  15
ENDBRANCH  10  11
ENDBRANCH   9  10
ENDBRANCH   8   9
ENDBRANCH   7   8
ENDBRANCH   6   7
ENDBRANCH   5   6
ENDBRANCH   4   5
BRANCH   4  19
HETATM   19  C   UNL     1     -12.352  12.318  70.803  1.00  0.00    -0.290 A  
HETATM   20  N   UNL     1     -12.653  10.189  71.965  1.00  0.00    -0.334 NA 
HETATM   21  N   UNL     1     -11.504  11.716  69.938  1.00  0.00    -0.262 NA 
HETATM   22  C   UNL     1     -11.771   9.606  71.094  1.00  0.00    -0.372 A  
HETATM   23  C   UNL     1     -11.213  10.375  70.052  1.00  0.00    -0.316 A  
HETATM   24  C   UNL     1     -12.917  11.514  71.785  1.00  0.00    -0.394 A  
BRANCH  23  25
HETATM   25  C   UNL     1     -10.239   9.893  69.032  1.00  0.00    -0.213 A  
HETATM   26  C   UNL     1      -8.873   9.763  69.347  1.00  0.00    -0.188 A  
HETATM   27  C   UNL     1      -9.755   8.760  66.915  1.00  0.00    -0.273 A  
HETATM   28  C   UNL     1     -10.620   9.482  67.742  1.00  0.00    -0.318 A  
HETATM   29  C   UNL     1      -8.433   8.575  67.289  1.00  0.00    -0.123 A  
HETATM   30  C   UNL     1      -7.976   9.128  68.481  1.00  0.00    -0.102 A  
ENDBRANCH  23  25
BRANCH  22  31
HETATM   31  C   UNL     1     -11.467   8.171  71.410  1.00  0.00    -0.301 A  
HETATM   32  C   UNL     1     -10.869   6.430  73.043  1.00  0.00    -0.287 A  
HETATM   33  C   UNL     1     -11.268   5.808  70.761  1.00  0.00    -0.198 A  
HETATM   34  C   UNL     1     -11.418   7.161  70.427  1.00  0.00    -0.317 A  
HETATM   35  C   UNL     1     -11.137   7.768  72.723  1.00  0.00    -0.457 A  
HETATM   36  C   UNL     1     -10.999   5.442  72.073  1.00  0.00    -0.244 A  
ENDBRANCH  22  31
ENDBRANCH   4  19
ENDBRANCH   2   4
TORSDOF 12
ENDMDL
MODEL        4
REMARK 921   NORMALIZED FREE ENERGY PREDICTED BY IDOCK:   -7.22 KCAL/MOL
REMARK 922        TOTAL FREE ENERGY PREDICTED BY IDOCK:  -13.60 KCAL/MOL
REMARK 923 INTER-LIGAND FREE ENERGY PREDICTED BY IDOCK:  -12.35 KCAL/MOL
REMARK 924 INTRA-LIGAND FREE ENERGY PREDICTED BY IDOCK:   -1.25 KCAL/MOL
REMARK 927      BINDING AFFINITY PREDICTED BY RF-SCORE:    0.00 PKD
ROOT
HETATM    1  C   UNL     1     -12.469  12.197  63.464  1.00  0.00    -0.666 C  
HETATM    2  C   UNL     1     -11.392  12.106  64.548  1.00  0.00    -0.334 C  
HETATM    3  C   UNL     1     -10.046  12.555  63.975  1.00  0.00    -0.316 C  
ENDROOT
BRANCH   2   4
HETATM    4  N   UNL     1     -11.725  12.834  65.796  1.00  0.00    -0.379 NA 
BRANCH   4   5
HETATM    5  C   UNL     1     -12.150  14.245  65.788  1.00  0.00    -0.405 C  
BRANCH   5   6
HETATM    6  C   UNL     1     -10.987  15.214  65.538  1.00  0.00    -0.370 C  
BRANCH   6   7
HETATM    7  C   UNL     1     -10.099  15.457  66.772  1.00  0.00    -0.266 C  
BRANCH   7   8
HETATM    8  C   UNL     1     -10.760  16.254  67.896  1.00  0.00    -0.329 C  
BRANCH   8   9
HETATM    9  O   UNL     1     -10.915  17.611  67.485  1.00  0.00    -0.273 OA 
BRANCH   9  10
HETATM   10  C   UNL     1     -10.151  18.502  68.296  1.00  0.00    -0.390 C  
BRANCH  10  11
HETATM   11  C   UNL     1      -9.015  19.140  67.505  1.00  0.00    -0.295 C  
HETATM   12  O   UNL     1      -9.103  20.271  67.046  1.00  0.00    -0.353 OA 
HETATM   13  N   UNL     1      -7.855  18.357  67.408  1.00  0.00    -0.232 N  
HETATM   14  H   UNL     1      -7.809  17.474  67.914  1.00  0.00     0.000 HD 
BRANCH  13  15
HETATM   15  S   UNL     1      -6.553  18.831  66.490  1.00  0.00    -0.202 S  
HETATM   16  O   UNL     1      -6.906  18.778  65.096  1.00  0.00    -0.512 OA 
HETATM   17  C   UNL     1      -5.459  17.479  66.789  1.00  0.00    -0.166 C  
HETATM   18  O   UNL     1      -5.965  19.994  67.107  1.00  0.00    -0.178 OA 
ENDBRANCH  13  15
ENDBRANCH  10  11
ENDBRANCH   9  10
ENDBRANCH   8   9
ENDBRANCH   7   8
ENDBRANCH   6   7
ENDBRANCH   5   6
ENDBRANCH   4   5
BRANCH   4  19
HETATM   19  C   UNL     1     -11.536  12.127  66.988  1.00  0.00    -0.337 A  
HETATM   20  N   UNL     1     -10.830  10.120  68.192  1.00  0.00    -0.251 NA 
HETATM   21  N   UNL     1     -11.882  12.699  68.164  1.00  0.00    -0.336 NA 
HETATM   22  C   UNL     1     -11.211  10.709  69.368  1.00  0.00    -0.270 A  
HETATM   23  C   UNL     1     -11.717  12.025  69.354  1.00  0.00    -0.340 A  
HETATM   24  C   UNL     1     -10.997  10.848  67.051  1.00  0.00    -0.247 A  
BRANCH  23  25
HETATM   25  C   UNL     1     -12.178  12.800  70.540  1.00  0.00    -0.389 A  
HETATM   26  C   UNL     1     -11.786  14.141  70.718  1.00  0.00    -0.313 A  
HETATM   27  C   UNL     1     -13.715  13.103  72.423  1.00  0.00    -0.640 A  
HETATM   28  C   UNL     1     -13.065  12.280  71.500  1.00  0.00    -0.356 A  
HETATM   29  C   UNL     1     -13.367  14.442  72.521  1.00  0.00    -0.578 A  
HETATM   30  C   UNL     1     -12.360  14.949  71.707  1.00  0.00    -0.410 A  
ENDBRANCH  23  25
BRANCH  22  31
HETATM   31  C   UNL     1     -11.077   9.814  70.565  1.00  0.00    -0.384 A  
HETATM   32  C   UNL     1     -12.110   8.411  72.302  1.00  0.00    -0.456 A  
HETATM   33  C   UNL     1      -9.720   8.583  72.204  1.00  0.00    -0.387 A  
HETATM   34  C   UNL     1      -9.838   9.526  71.175  1.00  0.00    -0.177 A  
HETATM   35  C   UNL     1     -12.216   9.265  71.195  1.00  0.00    -0.373 A  
HETATM   36  C   UNL     1     -10.859   8.020  72.765  1.00  0.00    -0.438 A  
ENDBRANCH  22  31
ENDBRANCH   4  19
ENDBRANCH   2   4
TORSDOF 12
ENDMDL
MODEL        5
REMARK 921   NORMALIZED FREE ENERGY PREDICTED BY IDOCK:   -7.21 KCAL/MOL
REMARK 922        TOTAL FREE ENERGY PREDICTED BY IDOCK:  -13.59 KCAL/MOL
REMARK 923 INTER-LIGAND FREE ENERGY PREDICTED BY IDOCK:  -11.91 KCAL/MOL
REMARK 924 INTRA-LIGAND FREE ENERGY PREDICTED BY IDOCK:   -1.68 KCAL/MOL
REMARK 927      BINDING AFFINITY PREDICTED BY RF-SCORE:    0.00 PKD
ROOT
HETATM    1  C   UNL     1     -11.716  14.046  63.838  1.00  0.00    -0.182 C  
HETATM    2  C   UNL     1     -12.321  12.824  64.531  1.00  0.00    -0.445 C  
HETATM    3  C   UNL     1     -12.639  11.748  63.492  1.00  0.00    -0.485 C  
ENDROOT
BRANCH   2   4
HETATM    4  N   UNL     1     -11.496  12.287  65.640  1.00  0.00    -0.355 NA 
BRANCH   4   5
HETATM    5  C   UNL     1     -10.495  11.226  65.427  1.00  0.00    -0.268 C  
BRANCH   5   6
HETATM    6  C   UNL     1      -9.058  11.712  65.655  1.00  0.00    -0.088 C  
BRANCH   6   7
HETATM    7  C   UNL     1      -8.258  10.851  66.650  1.00  0.00    -0.145 C  
BRANCH   7   8
HETATM    8  C   UNL     1      -8.240  11.374  68.087  1.00  0.00    -0.143 C  
BRANCH   8   9
HETATM    9  O   UNL     1      -8.436  12.787  68.078  1.00  0.00    -0.159 OA 
BRANCH   9  10
HETATM   10  C   UNL     1      -7.219  13.489  67.830  1.00  0.00    -0.154 C  
BRANCH  10  11
HETATM   11  C   UNL     1      -7.484  14.922  67.385  1.00  0.00    -0.199 C  
HETATM   12  O   UNL     1      -6.716  15.836  67.656  1.00  0.00    -0.141 OA 
HETATM   13  N   UNL     1      -8.631  15.089  66.594  1.00  0.00    -0.393 N  
HETATM   14  H   UNL     1      -9.161  14.266  66.309  1.00  0.00     0.000 HD 
BRANCH  13  15
HETATM   15  S   UNL     1      -9.150  16.592  66.110  1.00  0.00    -0.242 S  
HETATM   16  O   UNL     1      -8.013  17.455  65.928  1.00  0.00    -0.525 OA 
HETATM   17  C   UNL     1      -9.961  17.125  67.584  1.00  0.00    -0.283 C  
HETATM   18  O   UNL     1     -10.169  16.416  65.106  1.00  0.00    -0.582 OA 
ENDBRANCH  13  15
ENDBRANCH  10  11
ENDBRANCH   9  10
ENDBRANCH   8   9
ENDBRANCH   7   8
ENDBRANCH   6   7
ENDBRANCH   5   6
ENDBRANCH   4   5
BRANCH   4  19
HETATM   19  C   UNL     1     -11.779  12.789  66.915  1.00  0.00    -0.380 A  
HETATM   20  N   UNL     1     -12.298  14.653  68.409  1.00  0.00    -0.066 NA 
HETATM   21  N   UNL     1     -11.803  11.947  67.973  1.00  0.00    -0.526 NA 
HETATM   22  C   UNL     1     -12.292  13.786  69.469  1.00  0.00    -0.209 A  
HETATM   23  C   UNL     1     -12.069  12.413  69.241  1.00  0.00    -0.165 A  
HETATM   24  C   UNL     1     -12.052  14.126  67.176  1.00  0.00    -0.397 A  
BRANCH  23  25
HETATM   25  C   UNL     1     -12.026  11.347  70.283  1.00  0.00    -0.460 A  
HETATM   26  C   UNL     1     -13.071  11.214  71.217  1.00  0.00    -0.353 A  
HETATM   27  C   UNL     1     -11.128   9.233  71.135  1.00  0.00    -0.411 A  
HETATM   28  C   UNL     1     -11.000  10.388  70.357  1.00  0.00    -0.320 A  
HETATM   29  C   UNL     1     -12.213   9.090  71.987  1.00  0.00    -0.446 A  
HETATM   30  C   UNL     1     -13.156  10.108  72.072  1.00  0.00    -0.538 A  
ENDBRANCH  23  25
BRANCH  22  31
HETATM   31  C   UNL     1     -12.486  14.454  70.798  1.00  0.00    -0.423 A  
HETATM   32  C   UNL     1     -13.984  15.311  72.553  1.00  0.00    -0.609 A  
HETATM   33  C   UNL     1     -11.611  15.428  72.879  1.00  0.00    -0.419 A  
HETATM   34  C   UNL     1     -11.416  14.932  71.583  1.00  0.00    -0.288 A  
HETATM   35  C   UNL     1     -13.781  14.706  71.304  1.00  0.00    -0.439 A  
HETATM   36  C   UNL     1     -12.898  15.612  73.366  1.00  0.00    -0.667 A  
ENDBRANCH  22  31
ENDBRANCH   4  19
ENDBRANCH   2   4
TORSDOF 12
ENDMDL
MODEL        6
REMARK 921   NORMALIZED FREE ENERGY PREDICTED BY IDOCK:   -7.20 KCAL/MOL
REMARK 922        TOTAL FREE ENERGY PREDICTED BY IDOCK:  -13.57 KCAL/MOL
REMARK 923 INTER-LIGAND FREE ENERGY PREDICTED BY IDOCK:  -12.25 KCAL/MOL
REMARK 924 INTRA-LIGAND FREE ENERGY PREDICTED BY IDOCK:   -1.33 KCAL/MOL
REMARK 927      BINDING AFFINITY PREDICTED BY RF-SCORE:    0.00 PKD
ROOT
HETATM    1  C   UNL     1     -12.625  12.001  63.208  1.00  0.00    -0.512 C  
HETATM    2  C   UNL     1     -11.619  11.787  64.341  1.00  0.00    -0.245 C  
HETATM    3  C   UNL     1     -10.209  12.114  63.846  1.00  0.00    -0.426 C  
ENDROOT
BRANCH   2   4
HETATM    4  N   UNL     1     -11.945  12.522  65.587  1.00  0.00    -0.488 NA 
BRANCH   4   5
HETATM    5  C   UNL     1     -12.438  13.911  65.570  1.00  0.00    -0.511 C  
BRANCH   5   6
HETATM    6  C   UNL     1     -11.385  14.908  65.072  1.00  0.00    -0.398 C  
BRANCH   6   7
HETATM    7  C   UNL     1     -10.486  15.476  66.186  1.00  0.00    -0.323 C  
BRANCH   7   8
HETATM    8  C   UNL     1      -9.231  14.655  66.485  1.00  0.00    -0.266 C  
BRANCH   8   9
HETATM    9  O   UNL     1      -8.604  15.162  67.661  1.00  0.00    -0.160 OA 
BRANCH   9  10
HETATM   10  C   UNL     1      -7.542  16.061  67.350  1.00  0.00    -0.171 C  
BRANCH  10  11
HETATM   11  C   UNL     1      -7.840  17.471  67.848  1.00  0.00    -0.218 C  
HETATM   12  O   UNL     1      -7.323  17.922  68.861  1.00  0.00    -0.276 OA 
HETATM   13  N   UNL     1      -8.694  18.217  67.021  1.00  0.00    -0.252 N  
HETATM   14  H   UNL     1      -8.995  17.819  66.131  1.00  0.00     0.000 HD 
BRANCH  13  15
HETATM   15  S   UNL     1      -9.228  19.730  67.452  1.00  0.00    -0.354 S  
HETATM   16  O   UNL     1     -10.023  19.634  68.647  1.00  0.00    -0.423 OA 
HETATM   17  C   UNL     1     -10.346  20.049  66.124  1.00  0.00    -0.458 C  
HETATM   18  O   UNL     1      -8.131  20.653  67.311  1.00  0.00    -0.337 OA 
ENDBRANCH  13  15
ENDBRANCH  10  11
ENDBRANCH   9  10
ENDBRANCH   8   9
ENDBRANCH   7   8
ENDBRANCH   6   7
ENDBRANCH   5   6
ENDBRANCH   4   5
BRANCH   4  19
HETATM   19  C   UNL     1     -11.682  11.847  66.784  1.00  0.00    -0.202 A  
HETATM   20  N   UNL     1     -10.849   9.895  67.997  1.00  0.00    -0.254 NA 
HETATM   21  N   UNL     1     -12.008  12.428  67.962  1.00  0.00    -0.412 NA 
HETATM   22  C   UNL     1     -11.210  10.491  69.176  1.00  0.00    -0.256 A  
HETATM   23  C   UNL     1     -11.770  11.785  69.157  1.00  0.00    -0.325 A  
HETATM   24  C   UNL     1     -11.088  10.593  66.851  1.00  0.00    -0.090 A  
BRANCH  23  25
HETATM   25  C   UNL     1     -12.218  12.564  70.346  1.00  0.00    -0.368 A  
HETATM   26  C   UNL     1     -11.926  13.938  70.456  1.00  0.00    -0.384 A  
HETATM   27  C   UNL     1     -13.655  12.814  72.313  1.00  0.00    -0.563 A  
HETATM   28  C   UNL     1     -12.999  12.011  71.376  1.00  0.00    -0.362 A  
HETATM   29  C   UNL     1     -13.412  14.179  72.347  1.00  0.00    -0.616 A  
HETATM   30  C   UNL     1     -12.501  14.733  71.454  1.00  0.00    -0.401 A  
ENDBRANCH  23  25
BRANCH  22  31
HETATM   31  C   UNL     1     -10.993   9.627  70.383  1.00  0.00    -0.356 A  
HETATM   32  C   UNL     1      -9.473   8.611  72.030  1.00  0.00    -0.370 A  
HETATM   33  C   UNL     1     -11.835   8.248  72.236  1.00  0.00    -0.451 A  
HETATM   34  C   UNL     1     -12.038   8.938  71.033  1.00  0.00    -0.278 A  
HETATM   35  C   UNL     1      -9.695   9.400  70.892  1.00  0.00    -0.320 A  
HETATM   36  C   UNL     1     -10.550   8.090  72.738  1.00  0.00    -0.420 A  
ENDBRANCH  22  31
ENDBRANCH   4  19
ENDBRANCH   2   4
TORSDOF 12
ENDMDL
MODEL        7
REMARK 921   NORMALIZED FREE ENERGY PREDICTED BY IDOCK:   -7.12 KCAL/MOL
REMARK 922        TOTAL FREE ENERGY PREDICTED BY IDOCK:  -13.43 KCAL/MOL
REMARK 923 INTER-LIGAND FREE ENERGY PREDICTED BY IDOCK:  -11.52 KCAL/MOL
REMARK 924 INTRA-LIGAND FREE ENERGY PREDICTED BY IDOCK:   -1.91 KCAL/MOL
REMARK 927      BINDING AFFINITY PREDICTED BY RF-SCORE:    0.00 PKD
ROOT
HETATM    1  C   UNL     1     -12.490  12.249  63.596  1.00  0.00    -0.647 C  
HETATM    2  C   UNL     1     -11.213  11.641  64.179  1.00  0.00    -0.345 C  
HETATM    3  C   UNL     1     -10.126  11.598  63.104  1.00  0.00    -0.409 C  
ENDROOT
BRANCH   2   4
HETATM    4  N   UNL     1     -10.734  12.309  65.414  1.00  0.00    -0.275 NA 
BRANCH   4   5
HETATM    5  C   UNL     1     -10.116  13.646  65.390  1.00  0.00    -0.271 C  
BRANCH   5   6
HETATM    6  C   UNL     1     -11.041  14.738  65.942  1.00  0.00    -0.340 C  
BRANCH   6   7
HETATM    7  C   UNL     1     -10.331  15.756  66.854  1.00  0.00    -0.295 C  
BRANCH   7   8
HETATM    8  C   UNL     1     -11.233  16.439  67.883  1.00  0.00    -0.184 C  
BRANCH   8   9
HETATM    9  O   UNL     1     -10.585  16.438  69.154  1.00  0.00    -0.265 OA 
BRANCH   9  10
HETATM   10  C   UNL     1     -10.526  15.130  69.718  1.00  0.00    -0.233 C  
BRANCH  10  11
HETATM   11  C   UNL     1     -11.803  14.794  70.480  1.00  0.00    -0.302 C  
HETATM   12  O   UNL     1     -12.779  14.308  69.924  1.00  0.00    -0.262 OA 
HETATM   13  N   UNL     1     -11.739  15.024  71.863  1.00  0.00    -0.391 N  
HETATM   14  H   UNL     1     -10.854  15.320  72.276  1.00  0.00     0.000 HD 
BRANCH  13  15
HETATM   15  S   UNL     1     -13.064  14.829  72.846  1.00  0.00    -0.517 S  
HETATM   16  O   UNL     1     -14.094  15.752  72.449  1.00  0.00    -0.528 OA 
HETATM   17  C   UNL     1     -12.406  15.427  74.370  1.00  0.00    -0.616 C  
HETATM   18  O   UNL     1     -13.299  13.416  73.012  1.00  0.00    -0.518 OA 
ENDBRANCH  13  15
ENDBRANCH  10  11
ENDBRANCH   9  10
ENDBRANCH   8   9
ENDBRANCH   7   8
ENDBRANCH   6   7
ENDBRANCH   5   6
ENDBRANCH   4   5
BRANCH   4  19
HETATM   19  C   UNL     1     -10.831  11.562  66.593  1.00  0.00    -0.287 A  
HETATM   20  N   UNL     1     -11.365  11.385  68.972  1.00  0.00    -0.252 NA 
HETATM   21  N   UNL     1     -10.473  10.257  66.586  1.00  0.00    -0.218 NA 
HETATM   22  C   UNL     1     -10.973  10.073  68.948  1.00  0.00    -0.207 A  
HETATM   23  C   UNL     1     -10.549   9.497  67.732  1.00  0.00    -0.261 A  
HETATM   24  C   UNL     1     -11.289  12.076  67.799  1.00  0.00    -0.303 A  
BRANCH  23  25
HETATM   25  C   UNL     1     -10.089   8.093  67.541  1.00  0.00    -0.286 A  
HETATM   26  C   UNL     1     -10.993   7.088  67.145  1.00  0.00    -0.393 A  
HETATM   27  C   UNL     1      -8.289   6.466  67.202  1.00  0.00    -0.112 A  
HETATM   28  C   UNL     1      -8.744   7.701  67.673  1.00  0.00    -0.122 A  
HETATM   29  C   UNL     1      -9.195   5.524  66.740  1.00  0.00    -0.129 A  
HETATM   30  C   UNL     1     -10.555   5.814  66.766  1.00  0.00    -0.373 A  
ENDBRANCH  23  25
BRANCH  22  31
HETATM   31  C   UNL     1     -11.005   9.406  70.291  1.00  0.00    -0.305 A  
HETATM   32  C   UNL     1     -12.283   8.488  72.184  1.00  0.00    -0.446 A  
HETATM   33  C   UNL     1      -9.889   8.344  72.207  1.00  0.00    -0.383 A  
HETATM   34  C   UNL     1      -9.841   9.087  71.019  1.00  0.00    -0.352 A  
HETATM   35  C   UNL     1     -12.231   9.128  70.937  1.00  0.00    -0.239 A  
HETATM   36  C   UNL     1     -11.113   8.039  72.786  1.00  0.00    -0.448 A  
ENDBRANCH  22  31
ENDBRANCH   4  19
ENDBRANCH   2   4
TORSDOF 12
ENDMDL
MODEL        8
REMARK 921   NORMALIZED FREE ENERGY PREDICTED BY IDOCK:   -7.09 KCAL/MOL
REMARK 922        TOTAL FREE ENERGY PREDICTED BY IDOCK:  -13.38 KCAL/MOL
REMARK 923 INTER-LIGAND FREE ENERGY PREDICTED BY IDOCK:  -11.95 KCAL/MOL
REMARK 924 INTRA-LIGAND FREE ENERGY PREDICTED BY IDOCK:   -1.43 KCAL/MOL
REMARK 927      BINDING AFFINITY PREDICTED BY RF-SCORE:    0.00 PKD
ROOT
HETATM    1  C   UNL     1     -11.706  15.519  72.314  1.00  0.00    -0.578 C  
HETATM    2  C   UNL     1     -12.550  14.723  71.316  1.00  0.00    -0.334 C  
HETATM    3  C   UNL     1     -13.983  15.258  71.313  1.00  0.00    -0.548 C  
ENDROOT
BRANCH   2   4
HETATM    4  N   UNL     1     -11.982  14.675  69.946  1.00  0.00    -0.309 NA 
BRANCH   4   5
HETATM    5  C   UNL     1     -12.033  15.833  69.037  1.00  0.00    -0.278 C  
BRANCH   5   6
HETATM    6  C   UNL     1     -10.872  16.811  69.257  1.00  0.00    -0.275 C  
BRANCH   6   7
HETATM    7  C   UNL     1      -9.856  16.846  68.100  1.00  0.00    -0.264 C  
BRANCH   7   8
HETATM    8  C   UNL     1     -10.037  18.002  67.116  1.00  0.00    -0.346 C  
BRANCH   8   9
HETATM    9  O   UNL     1      -9.520  17.623  65.842  1.00  0.00    -0.514 OA 
BRANCH   9  10
HETATM   10  C   UNL     1      -9.332  16.213  65.744  1.00  0.00    -0.185 C  
BRANCH  10  11
HETATM   11  C   UNL     1     -10.463  15.551  64.966  1.00  0.00    -0.362 C  
HETATM   12  O   UNL     1     -11.162  16.178  64.181  1.00  0.00    -0.661 OA 
HETATM   13  N   UNL     1     -10.590  14.169  65.176  1.00  0.00    -0.373 N  
HETATM   14  H   UNL     1      -9.900  13.690  65.754  1.00  0.00     0.000 HD 
BRANCH  13  15
HETATM   15  S   UNL     1     -11.834  13.292  64.509  1.00  0.00    -0.409 S  
HETATM   16  O   UNL     1     -12.389  12.415  65.505  1.00  0.00    -0.621 OA 
HETATM   17  C   UNL     1     -10.925  12.277  63.387  1.00  0.00    -0.405 C  
HETATM   18  O   UNL     1     -12.639  14.185  63.713  1.00  0.00    -0.804 OA 
ENDBRANCH  13  15
ENDBRANCH  10  11
ENDBRANCH   9  10
ENDBRANCH   8   9
ENDBRANCH   7   8
ENDBRANCH   6   7
ENDBRANCH   5   6
ENDBRANCH   4   5
BRANCH   4  19
HETATM   19  C   UNL     1     -11.467  13.439  69.539  1.00  0.00    -0.244 A  
HETATM   20  N   UNL     1     -10.125  12.084  68.010  1.00  0.00    -0.192 NA 
HETATM   21  N   UNL     1     -11.790  12.322  70.231  1.00  0.00    -0.294 NA 
HETATM   22  C   UNL     1     -10.486  10.963  68.710  1.00  0.00    -0.200 A  
HETATM   23  C   UNL     1     -11.305  11.091  69.850  1.00  0.00    -0.287 A  
HETATM   24  C   UNL     1     -10.618  13.276  68.452  1.00  0.00    -0.252 A  
BRANCH  23  25
HETATM   25  C   UNL     1     -11.788   9.974  70.712  1.00  0.00    -0.435 A  
HETATM   26  C   UNL     1     -13.160   9.824  70.991  1.00  0.00    -0.363 A  
HETATM   27  C   UNL     1     -11.435   7.796  71.775  1.00  0.00    -0.307 A  
HETATM   28  C   UNL     1     -10.936   8.983  71.233  1.00  0.00    -0.384 A  
HETATM   29  C   UNL     1     -12.801   7.641  71.963  1.00  0.00    -0.242 A  
HETATM   30  C   UNL     1     -13.660   8.680  71.625  1.00  0.00    -0.408 A  
ENDBRANCH  23  25
BRANCH  22  31
HETATM   31  C   UNL     1      -9.974   9.686  68.113  1.00  0.00    -0.185 A  
HETATM   32  C   UNL     1     -10.314   7.726  66.664  1.00  0.00    -0.262 A  
HETATM   33  C   UNL     1      -8.198   8.024  67.754  1.00  0.00    -0.129 A  
HETATM   34  C   UNL     1      -8.710   9.143  68.424  1.00  0.00    -0.129 A  
HETATM   35  C   UNL     1     -10.780   8.912  67.248  1.00  0.00    -0.219 A  
HETATM   36  C   UNL     1      -9.001   7.318  66.867  1.00  0.00    -0.148 A  
ENDBRANCH  22  31
ENDBRANCH   4  19
ENDBRANCH   2   4
TORSDOF 12
ENDMDL
MODEL        9
REMARK 921   NORMALIZED FREE ENERGY PREDICTED BY IDOCK:   -7.01 KCAL/MOL
REMARK 922        TOTAL FREE ENERGY PREDICTED BY IDOCK:  -13.25 KCAL/MOL
REMARK 923 INTER-LIGAND FREE ENERGY PREDICTED BY IDOCK:  -12.20 KCAL/MOL
REMARK 924 INTRA-LIGAND FREE ENERGY PREDICTED BY IDOCK:   -1.05 KCAL/MOL
REMARK 927      BINDING AFFINITY PREDICTED BY RF-SCORE:    0.00 PKD
ROOT
HETATM    1  C   UNL     1      -5.247  18.365  68.287  1.00  0.00    -0.168 C  
HETATM    2  C   UNL     1      -6.462  18.400  69.217  1.00  0.00    -0.257 C  
HETATM    3  C   UNL     1      -6.405  19.655  70.090  1.00  0.00    -0.276 C  
ENDROOT
BRANCH   2   4
HETATM    4  N   UNL     1      -7.764  18.281  68.517  1.00  0.00    -0.298 NA 
BRANCH   4   5
HETATM    5  C   UNL     1      -8.424  19.439  67.889  1.00  0.00    -0.313 C  
BRANCH   5   6
HETATM    6  C   UNL     1      -9.885  19.600  68.328  1.00  0.00    -0.521 C  
BRANCH   6   7
HETATM    7  C   UNL     1     -10.908  19.132  67.278  1.00  0.00    -0.529 C  
BRANCH   7   8
HETATM    8  C   UNL     1     -10.435  19.226  65.827  1.00  0.00    -0.359 C  
BRANCH   8   9
HETATM    9  O   UNL     1     -11.077  18.215  65.054  1.00  0.00    -0.650 OA 
BRANCH   9  10
HETATM   10  C   UNL     1     -10.687  16.905  65.463  1.00  0.00    -0.163 C  
BRANCH  10  11
HETATM   11  C   UNL     1     -11.434  15.831  64.681  1.00  0.00    -0.282 C  
HETATM   12  O   UNL     1     -12.283  16.111  63.846  1.00  0.00    -0.935 OA 
HETATM   13  N   UNL     1     -11.022  14.516  64.950  1.00  0.00    -0.395 N  
HETATM   14  H   UNL     1     -10.228  14.363  65.571  1.00  0.00     0.000 HD 
BRANCH  13  15
HETATM   15  S   UNL     1     -11.793  13.203  64.285  1.00  0.00    -0.433 S  
HETATM   16  O   UNL     1     -12.590  12.556  65.292  1.00  0.00    -0.645 OA 
HETATM   17  C   UNL     1     -10.406  12.155  63.983  1.00  0.00    -0.385 C  
HETATM   18  O   UNL     1     -12.317  13.592  62.999  1.00  0.00    -0.661 OA 
ENDBRANCH  13  15
ENDBRANCH  10  11
ENDBRANCH   9  10
ENDBRANCH   8   9
ENDBRANCH   7   8
ENDBRANCH   6   7
ENDBRANCH   5   6
ENDBRANCH   4   5
BRANCH   4  19
HETATM   19  C   UNL     1      -8.368  17.019  68.556  1.00  0.00    -0.260 A  
HETATM   20  N   UNL     1      -8.551  14.714  67.764  1.00  0.00    -0.164 NA 
HETATM   21  N   UNL     1      -9.402  16.801  69.401  1.00  0.00    -0.047 NA 
HETATM   22  C   UNL     1      -9.613  14.524  68.609  1.00  0.00    -0.219 A  
HETATM   23  C   UNL     1     -10.022  15.573  69.456  1.00  0.00    -0.280 A  
HETATM   24  C   UNL     1      -7.964  15.944  67.773  1.00  0.00    -0.141 A  
BRANCH  23  25
HETATM   25  C   UNL     1     -11.156  15.528  70.423  1.00  0.00    -0.357 A  
HETATM   26  C   UNL     1     -12.488  15.502  69.967  1.00  0.00    -0.293 A  
HETATM   27  C   UNL     1     -12.023  15.096  72.673  1.00  0.00    -0.486 A  
HETATM   28  C   UNL     1     -10.974  15.439  71.815  1.00  0.00    -0.095 A  
HETATM   29  C   UNL     1     -13.316  14.997  72.181  1.00  0.00    -0.485 A  
HETATM   30  C   UNL     1     -13.558  15.258  70.836  1.00  0.00    -0.402 A  
ENDBRANCH  23  25
BRANCH  22  31
HETATM   31  C   UNL     1     -10.257  13.175  68.478  1.00  0.00    -0.218 A  
HETATM   32  C   UNL     1     -10.355  10.955  67.419  1.00  0.00    -0.248 A  
HETATM   33  C   UNL     1     -11.903  11.487  69.172  1.00  0.00    -0.406 A  
HETATM   34  C   UNL     1     -11.401  12.794  69.208  1.00  0.00    -0.307 A  
HETATM   35  C   UNL     1      -9.780  12.228  67.543  1.00  0.00    -0.190 A  
HETATM   36  C   UNL     1     -11.374  10.564  68.279  1.00  0.00    -0.332 A  
ENDBRANCH  22  31
ENDBRANCH   4  19
ENDBRANCH   2   4
TORSDOF 12
ENDMDL
MODEL       10
REMARK 921   NORMALIZED FREE ENERGY PREDICTED BY IDOCK:   -6.97 KCAL/MOL
REMARK 922        TOTAL FREE ENERGY PREDICTED BY IDOCK:  -13.17 KCAL/MOL
REMARK 923 INTER-LIGAND FREE ENERGY PREDICTED BY IDOCK:  -11.63 KCAL/MOL
REMARK 924 INTRA-LIGAND FREE ENERGY PREDICTED BY IDOCK:   -1.54 KCAL/MOL
REMARK 927      BINDING AFFINITY PREDICTED BY RF-SCORE:    0.00 PKD
ROOT
HETATM    1  C   UNL     1     -12.094  13.805  64.581  1.00  0.00    -0.452 C  
HETATM    2  C   UNL     1     -11.760  12.325  64.783  1.00  0.00    -0.358 C  
HETATM    3  C   UNL     1     -11.204  11.741  63.483  1.00  0.00    -0.494 C  
ENDROOT
BRANCH   2   4
HETATM    4  N   UNL     1     -10.860  12.058  65.931  1.00  0.00    -0.278 NA 
BRANCH   4   5
HETATM    5  C   UNL     1      -9.761  11.080  65.853  1.00  0.00    -0.224 C  
BRANCH   5   6
HETATM    6  C   UNL     1     -10.184   9.675  66.304  1.00  0.00    -0.286 C  
BRANCH   6   7
HETATM    7  C   UNL     1      -9.093   8.605  66.117  1.00  0.00    -0.250 C  
BRANCH   7   8
HETATM    8  C   UNL     1      -9.354   7.285  66.843  1.00  0.00    -0.156 C  
BRANCH   8   9
HETATM    9  O   UNL     1     -10.714   7.240  67.269  1.00  0.00    -0.297 OA 
BRANCH   9  10
HETATM   10  C   UNL     1     -10.935   6.212  68.233  1.00  0.00    -0.308 C  
BRANCH  10  11
HETATM   11  C   UNL     1     -10.722   6.724  69.652  1.00  0.00    -0.251 C  
HETATM   12  O   UNL     1      -9.952   6.176  70.429  1.00  0.00    -0.174 OA 
HETATM   13  N   UNL     1     -11.425   7.898  69.964  1.00  0.00    -0.471 N  
HETATM   14  H   UNL     1     -11.957   8.367  69.231  1.00  0.00     0.000 HD 
BRANCH  13  15
HETATM   15  S   UNL     1     -11.414   8.545  71.495  1.00  0.00    -0.310 S  
HETATM   16  O   UNL     1     -11.968   7.593  72.421  1.00  0.00    -0.299 OA 
HETATM   17  C   UNL     1     -12.618   9.821  71.297  1.00  0.00    -0.365 C  
HETATM   18  O   UNL     1     -10.143   9.193  71.702  1.00  0.00    -0.327 OA 
ENDBRANCH  13  15
ENDBRANCH  10  11
ENDBRANCH   9  10
ENDBRANCH   8   9
ENDBRANCH   7   8
ENDBRANCH   6   7
ENDBRANCH   5   6
ENDBRANCH   4   5
BRANCH   4  19
HETATM   19  C   UNL     1     -11.164  12.733  67.118  1.00  0.00    -0.292 A  
HETATM   20  N   UNL     1     -12.249  12.820  69.308  1.00  0.00    -0.146 NA 
HETATM   21  N   UNL     1     -10.716  13.996  67.300  1.00  0.00    -0.276 NA 
HETATM   22  C   UNL     1     -11.806  14.107  69.459  1.00  0.00    -0.322 A  
HETATM   23  C   UNL     1     -11.006  14.690  68.454  1.00  0.00    -0.251 A  
HETATM   24  C   UNL     1     -11.907  12.179  68.154  1.00  0.00    -0.299 A  
BRANCH  23  25
HETATM   25  C   UNL     1     -10.453  16.074  68.467  1.00  0.00    -0.258 A  
HETATM   26  C   UNL     1      -9.149  16.322  68.937  1.00  0.00    -0.250 A  
HETATM   27  C   UNL     1     -10.513  18.401  67.704  1.00  0.00    -0.445 A  
HETATM   28  C   UNL     1     -11.152  17.184  67.959  1.00  0.00    -0.113 A  
HETATM   29  C   UNL     1      -9.199  18.590  68.105  1.00  0.00    -0.329 A  
HETATM   30  C   UNL     1      -8.534  17.569  68.775  1.00  0.00    -0.213 A  
ENDBRANCH  23  25
BRANCH  22  31
HETATM   31  C   UNL     1     -12.293  14.772  70.713  1.00  0.00    -0.397 A  
HETATM   32  C   UNL     1     -14.151  15.491  72.159  1.00  0.00    -0.621 A  
HETATM   33  C   UNL     1     -11.893  15.867  72.877  1.00  0.00    -0.566 A  
HETATM   34  C   UNL     1     -11.429  15.374  71.651  1.00  0.00    -0.492 A  
HETATM   35  C   UNL     1     -13.675  14.891  70.984  1.00  0.00    -0.367 A  
HETATM   36  C   UNL     1     -13.257  15.919  73.134  1.00  0.00    -0.692 A  
ENDBRANCH  22  31
ENDBRANCH   4  19
ENDBRANCH   2   4
TORSDOF 12
ENDMDL
MODEL       11
REMARK 921   NORMALIZED FREE ENERGY PREDICTED BY IDOCK:   -6.94 KCAL/MOL
REMARK 922        TOTAL FREE ENERGY PREDICTED BY IDOCK:  -13.13 KCAL/MOL
REMARK 923 INTER-LIGAND FREE ENERGY PREDICTED BY IDOCK:  -10.95 KCAL/MOL
REMARK 924 INTRA-LIGAND FREE ENERGY PREDICTED BY IDOCK:   -2.17 KCAL/MOL
REMARK 927      BINDING AFFINITY PREDICTED BY RF-SCORE:    0.00 PKD
ROOT
HETATM    1  C   UNL     1     -10.147  11.979  63.679  1.00  0.00    -0.439 C  
HETATM    2  C   UNL     1     -11.215  12.799  64.406  1.00  0.00    -0.347 C  
HETATM    3  C   UNL     1     -12.606  12.285  64.027  1.00  0.00    -0.521 C  
ENDROOT
BRANCH   2   4
HETATM    4  N   UNL     1     -11.037  12.857  65.878  1.00  0.00    -0.278 NA 
BRANCH   4   5
HETATM    5  C   UNL     1     -11.877  12.072  66.799  1.00  0.00    -0.164 C  
BRANCH   5   6
HETATM    6  C   UNL     1     -11.160  10.831  67.346  1.00  0.00    -0.363 C  
BRANCH   6   7
HETATM    7  C   UNL     1     -10.741  10.952  68.823  1.00  0.00    -0.243 C  
BRANCH   7   8
HETATM    8  C   UNL     1     -11.606  10.163  69.806  1.00  0.00    -0.182 C  
BRANCH   8   9
HETATM    9  O   UNL     1     -12.776  10.918  70.117  1.00  0.00    -0.278 OA 
BRANCH   9  10
HETATM   10  C   UNL     1     -12.957  11.060  71.524  1.00  0.00    -0.448 C  
BRANCH  10  11
HETATM   11  C   UNL     1     -13.051  12.526  71.929  1.00  0.00    -0.368 C  
HETATM   12  O   UNL     1     -13.808  12.905  72.813  1.00  0.00    -0.522 OA 
HETATM   13  N   UNL     1     -12.161  13.379  71.258  1.00  0.00    -0.359 N  
HETATM   14  H   UNL     1     -11.477  12.976  70.617  1.00  0.00     0.000 HD 
BRANCH  13  15
HETATM   15  S   UNL     1     -12.193  15.026  71.477  1.00  0.00    -0.366 S  
HETATM   16  O   UNL     1     -13.477  15.537  71.078  1.00  0.00    -0.503 OA 
HETATM   17  C   UNL     1     -11.040  15.522  70.236  1.00  0.00    -0.328 C  
HETATM   18  O   UNL     1     -11.593  15.322  72.754  1.00  0.00    -0.445 OA 
ENDBRANCH  13  15
ENDBRANCH  10  11
ENDBRANCH   9  10
ENDBRANCH   8   9
ENDBRANCH   7   8
ENDBRANCH   6   7
ENDBRANCH   5   6
ENDBRANCH   4   5
BRANCH   4  19
HETATM   19  C   UNL     1     -10.076  13.761  66.344  1.00  0.00    -0.295 A  
HETATM   20  N   UNL     1      -7.853  14.241  67.240  1.00  0.00    -0.181 NA 
HETATM   21  N   UNL     1     -10.376  15.079  66.406  1.00  0.00    -0.278 NA 
HETATM   22  C   UNL     1      -8.187  15.567  67.318  1.00  0.00    -0.197 A  
HETATM   23  C   UNL     1      -9.455  15.992  66.869  1.00  0.00    -0.226 A  
HETATM   24  C   UNL     1      -8.800  13.391  66.750  1.00  0.00    -0.132 A  
BRANCH  23  25
HETATM   25  C   UNL     1      -9.969  17.390  66.892  1.00  0.00    -0.300 A  
HETATM   26  C   UNL     1     -10.040  18.109  68.101  1.00  0.00    -0.388 A  
HETATM   27  C   UNL     1     -10.532  19.475  65.735  1.00  0.00    -0.518 A  
HETATM   28  C   UNL     1     -10.344  18.090  65.731  1.00  0.00    -0.178 A  
HETATM   29  C   UNL     1     -10.515  20.172  66.934  1.00  0.00    -0.432 A  
HETATM   30  C   UNL     1     -10.327  19.479  68.125  1.00  0.00    -0.550 A  
ENDBRANCH  23  25
BRANCH  22  31
HETATM   31  C   UNL     1      -7.126  16.423  67.945  1.00  0.00    -0.149 A  
HETATM   32  C   UNL     1      -5.316  18.076  67.723  1.00  0.00    -0.146 A  
HETATM   33  C   UNL     1      -5.938  17.306  69.908  1.00  0.00    -0.230 A  
HETATM   34  C   UNL     1      -6.836  16.402  69.325  1.00  0.00    -0.218 A  
HETATM   35  C   UNL     1      -6.300  17.254  67.155  1.00  0.00    -0.195 A  
HETATM   36  C   UNL     1      -5.181  18.148  69.105  1.00  0.00    -0.187 A  
ENDBRANCH  22  31
ENDBRANCH   4  19
ENDBRANCH   2   4
TORSDOF 12
ENDMDL
MODEL       12
REMARK 921   NORMALIZED FREE ENERGY PREDICTED BY IDOCK:   -6.86 KCAL/MOL
REMARK 922        TOTAL FREE ENERGY PREDICTED BY IDOCK:  -12.99 KCAL/MOL
REMARK 923 INTER-LIGAND FREE ENERGY PREDICTED BY IDOCK:  -11.05 KCAL/MOL
REMARK 924 INTRA-LIGAND FREE ENERGY PREDICTED BY IDOCK:   -1.94 KCAL/MOL
REMARK 927      BINDING AFFINITY PREDICTED BY RF-SCORE:    0.00 PKD
ROOT
HETATM    1  C   UNL     1     -12.702  11.860  63.459  1.00  0.00    -0.530 C  
HETATM    2  C   UNL     1     -11.507  11.653  64.392  1.00  0.00    -0.224 C  
HETATM    3  C   UNL     1     -10.206  11.884  63.621  1.00  0.00    -0.466 C  
ENDROOT
BRANCH   2   4
HETATM    4  N   UNL     1     -11.558  12.466  65.631  1.00  0.00    -0.375 NA 
BRANCH   4   5
HETATM    5  C   UNL     1     -11.681  13.934  65.599  1.00  0.00    -0.354 C  
BRANCH   5   6
HETATM    6  C   UNL     1     -10.325  14.646  65.696  1.00  0.00    -0.370 C  
BRANCH   6   7
HETATM    7  C   UNL     1     -10.427  16.182  65.737  1.00  0.00    -0.384 C  
BRANCH   7   8
HETATM    8  C   UNL     1     -10.649  16.777  67.127  1.00  0.00    -0.256 C  
BRANCH   8   9
HETATM    9  O   UNL     1     -10.177  15.862  68.114  1.00  0.00    -0.226 OA 
BRANCH   9  10
HETATM   10  C   UNL     1      -9.115  16.417  68.887  1.00  0.00    -0.256 C  
BRANCH  10  11
HETATM   11  C   UNL     1      -7.935  15.457  68.984  1.00  0.00    -0.202 C  
HETATM   12  O   UNL     1      -6.972  15.686  69.704  1.00  0.00    -0.187 OA 
HETATM   13  N   UNL     1      -8.076  14.275  68.240  1.00  0.00    -0.134 N  
HETATM   14  H   UNL     1      -8.956  14.097  67.756  1.00  0.00     0.000 HD 
BRANCH  13  15
HETATM   15  S   UNL     1      -6.850  13.160  68.126  1.00  0.00    -0.130 S  
HETATM   16  O   UNL     1      -5.809  13.679  67.279  1.00  0.00    -0.336 OA 
HETATM   17  C   UNL     1      -7.670  11.896  67.206  1.00  0.00    -0.164 C  
HETATM   18  O   UNL     1      -6.598  12.629  69.442  1.00  0.00    -0.111 OA 
ENDBRANCH  13  15
ENDBRANCH  10  11
ENDBRANCH   9  10
ENDBRANCH   8   9
ENDBRANCH   7   8
ENDBRANCH   6   7
ENDBRANCH   5   6
ENDBRANCH   4   5
BRANCH   4  19
HETATM   19  C   UNL     1     -11.404  11.765  66.832  1.00  0.00    -0.320 A  
HETATM   20  N   UNL     1     -10.709   9.774  68.068  1.00  0.00    -0.250 NA 
HETATM   21  N   UNL     1     -11.808  12.333  67.992  1.00  0.00    -0.430 NA 
HETATM   22  C   UNL     1     -11.149  10.357  69.227  1.00  0.00    -0.253 A  
HETATM   23  C   UNL     1     -11.678  11.664  69.189  1.00  0.00    -0.326 A  
HETATM   24  C   UNL     1     -10.844  10.497  66.920  1.00  0.00    -0.187 A  
BRANCH  23  25
HETATM   25  C   UNL     1     -12.201  12.432  70.354  1.00  0.00    -0.370 A  
HETATM   26  C   UNL     1     -11.989  13.821  70.453  1.00  0.00    -0.385 A  
HETATM   27  C   UNL     1     -13.705  12.627  72.278  1.00  0.00    -0.429 A  
HETATM   28  C   UNL     1     -12.980  11.849  71.371  1.00  0.00    -0.385 A  
HETATM   29  C   UNL     1     -13.538  14.003  72.299  1.00  0.00    -0.622 A  
HETATM   30  C   UNL     1     -12.634  14.596  71.423  1.00  0.00    -0.404 A  
ENDBRANCH  23  25
BRANCH  22  31
HETATM   31  C   UNL     1     -11.045   9.468  70.431  1.00  0.00    -0.330 A  
HETATM   32  C   UNL     1      -9.735   8.573  72.311  1.00  0.00    -0.380 A  
HETATM   33  C   UNL     1     -12.022   7.899  72.052  1.00  0.00    -0.364 A  
HETATM   34  C   UNL     1     -12.089   8.618  70.851  1.00  0.00    -0.173 A  
HETATM   35  C   UNL     1      -9.846   9.383  71.173  1.00  0.00    -0.287 A  
HETATM   36  C   UNL     1     -10.844   7.882  72.786  1.00  0.00    -0.451 A  
ENDBRANCH  22  31
ENDBRANCH   4  19
ENDBRANCH   2   4
TORSDOF 12
ENDMDL
MODEL       13
REMARK 921   NORMALIZED FREE ENERGY PREDICTED BY IDOCK:   -6.80 KCAL/MOL
REMARK 922        TOTAL FREE ENERGY PREDICTED BY IDOCK:  -12.88 KCAL/MOL
REMARK 923 INTER-LIGAND FREE ENERGY PREDICTED BY IDOCK:  -11.80 KCAL/MOL
REMARK 924 INTRA-LIGAND FREE ENERGY PREDICTED BY IDOCK:   -1.09 KCAL/MOL
REMARK 927      BINDING AFFINITY PREDICTED BY RF-SCORE:    0.00 PKD
ROOT
HETATM    1  C   UNL     1     -12.491  12.164  63.598  1.00  0.00    -0.658 C  
HETATM    2  C   UNL     1     -11.462  13.183  64.093  1.00  0.00    -0.403 C  
HETATM    3  C   UNL     1     -12.164  14.503  64.423  1.00  0.00    -0.480 C  
ENDROOT
BRANCH   2   4
HETATM    4  N   UNL     1     -10.635  12.706  65.228  1.00  0.00    -0.285 NA 
BRANCH   4   5
HETATM    5  C   UNL     1      -9.583  11.689  65.055  1.00  0.00    -0.164 C  
BRANCH   5   6
HETATM    6  C   UNL     1     -10.120  10.256  65.158  1.00  0.00    -0.355 C  
BRANCH   6   7
HETATM    7  C   UNL     1      -9.230   9.313  65.989  1.00  0.00    -0.262 C  
BRANCH   7   8
HETATM    8  C   UNL     1      -8.518   9.972  67.171  1.00  0.00    -0.125 C  
BRANCH   8   9
HETATM    9  O   UNL     1      -9.457  10.203  68.219  1.00  0.00    -0.138 OA 
BRANCH   9  10
HETATM   10  C   UNL     1     -10.063   8.991  68.665  1.00  0.00    -0.189 C  
BRANCH  10  11
HETATM   11  C   UNL     1     -10.850   9.202  69.953  1.00  0.00    -0.228 C  
HETATM   12  O   UNL     1     -10.720  10.212  70.632  1.00  0.00    -0.297 OA 
HETATM   13  N   UNL     1     -11.769   8.185  70.252  1.00  0.00    -0.471 N  
HETATM   14  H   UNL     1     -11.909   7.430  69.581  1.00  0.00     0.000 HD 
BRANCH  13  15
HETATM   15  S   UNL     1     -12.636   8.177  71.670  1.00  0.00    -0.324 S  
HETATM   16  O   UNL     1     -13.003   9.525  72.014  1.00  0.00    -0.379 OA 
HETATM   17  C   UNL     1     -11.370   7.691  72.800  1.00  0.00    -0.367 C  
HETATM   18  O   UNL     1     -13.588   7.096  71.611  1.00  0.00    -0.377 OA 
ENDBRANCH  13  15
ENDBRANCH  10  11
ENDBRANCH   9  10
ENDBRANCH   8   9
ENDBRANCH   7   8
ENDBRANCH   6   7
ENDBRANCH   5   6
ENDBRANCH   4   5
BRANCH   4  19
HETATM   19  C   UNL     1     -10.965  13.220  66.487  1.00  0.00    -0.286 A  
HETATM   20  N   UNL     1     -12.153  13.055  68.617  1.00  0.00    -0.241 NA 
HETATM   21  N   UNL     1     -10.464  14.417  66.869  1.00  0.00    -0.268 NA 
HETATM   22  C   UNL     1     -11.655  14.280  68.973  1.00  0.00    -0.305 A  
HETATM   23  C   UNL     1     -10.777  14.954  68.098  1.00  0.00    -0.251 A  
HETATM   24  C   UNL     1     -11.786  12.567  67.398  1.00  0.00    -0.366 A  
BRANCH  23  25
HETATM   25  C   UNL     1     -10.158  16.289  68.335  1.00  0.00    -0.237 A  
HETATM   26  C   UNL     1      -8.799  16.397  68.689  1.00  0.00    -0.234 A  
HETATM   27  C   UNL     1     -10.185  18.726  68.091  1.00  0.00    -0.433 A  
HETATM   28  C   UNL     1     -10.852  17.499  68.160  1.00  0.00    -0.246 A  
HETATM   29  C   UNL     1      -8.826  18.791  68.364  1.00  0.00    -0.375 A  
HETATM   30  C   UNL     1      -8.144  17.633  68.720  1.00  0.00    -0.233 A  
ENDBRANCH  23  25
BRANCH  22  31
HETATM   31  C   UNL     1     -12.171  14.785  70.288  1.00  0.00    -0.394 A  
HETATM   32  C   UNL     1     -11.776  15.906  72.443  1.00  0.00    -0.582 A  
HETATM   33  C   UNL     1     -13.999  15.204  71.878  1.00  0.00    -0.629 A  
HETATM   34  C   UNL     1     -13.505  14.607  70.710  1.00  0.00    -0.195 A  
HETATM   35  C   UNL     1     -11.309  15.411  71.217  1.00  0.00    -0.441 A  
HETATM   36  C   UNL     1     -13.133  15.860  72.743  1.00  0.00    -0.580 A  
ENDBRANCH  22  31
ENDBRANCH   4  19
ENDBRANCH   2   4
TORSDOF 12
ENDMDL
MODEL       14
REMARK 921   NORMALIZED FREE ENERGY PREDICTED BY IDOCK:   -6.74 KCAL/MOL
REMARK 922        TOTAL FREE ENERGY PREDICTED BY IDOCK:  -12.79 KCAL/MOL
REMARK 923 INTER-LIGAND FREE ENERGY PREDICTED BY IDOCK:  -11.85 KCAL/MOL
REMARK 924 INTRA-LIGAND FREE ENERGY PREDICTED BY IDOCK:   -0.95 KCAL/MOL
REMARK 927      BINDING AFFINITY PREDICTED BY RF-SCORE:    0.00 PKD
ROOT
HETATM    1  C   UNL     1     -10.640  12.386  63.335  1.00  0.00    -0.375 C  
HETATM    2  C   UNL     1     -11.295  12.855  64.635  1.00  0.00    -0.323 C  
HETATM    3  C   UNL     1     -12.782  12.494  64.621  1.00  0.00    -0.434 C  
ENDROOT
BRANCH   2   4
HETATM    4  N   UNL     1     -10.625  12.362  65.863  1.00  0.00    -0.252 NA 
BRANCH   4   5
HETATM    5  C   UNL     1      -9.573  11.332  65.820  1.00  0.00    -0.227 C  
BRANCH   5   6
HETATM    6  C   UNL     1     -10.138   9.908  65.729  1.00  0.00    -0.317 C  
BRANCH   6   7
HETATM    7  C   UNL     1      -9.559   8.938  66.775  1.00  0.00    -0.262 C  
BRANCH   7   8
HETATM    8  C   UNL     1      -9.830   7.458  66.503  1.00  0.00    -0.139 C  
BRANCH   8   9
HETATM    9  O   UNL     1     -10.789   6.973  67.441  1.00  0.00    -0.285 OA 
BRANCH   9  10
HETATM   10  C   UNL     1     -10.255   5.929  68.253  1.00  0.00    -0.184 C  
BRANCH  10  11
HETATM   11  C   UNL     1     -10.856   5.950  69.654  1.00  0.00    -0.374 C  
HETATM   12  O   UNL     1     -11.890   6.554  69.905  1.00  0.00    -0.381 OA 
HETATM   13  N   UNL     1     -10.167   5.174  70.599  1.00  0.00    -0.253 N  
HETATM   14  H   UNL     1      -9.380   4.603  70.293  1.00  0.00     0.000 HD 
BRANCH  13  15
HETATM   15  S   UNL     1     -10.600   5.161  72.204  1.00  0.00    -0.185 S  
HETATM   16  O   UNL     1     -11.949   5.643  72.339  1.00  0.00    -0.235 OA 
HETATM   17  C   UNL     1      -9.541   6.433  72.816  1.00  0.00    -0.150 C  
HETATM   18  O   UNL     1     -10.148   3.920  72.783  1.00  0.00    -0.148 OA 
ENDBRANCH  13  15
ENDBRANCH  10  11
ENDBRANCH   9  10
ENDBRANCH   8   9
ENDBRANCH   7   8
ENDBRANCH   6   7
ENDBRANCH   5   6
ENDBRANCH   4   5
BRANCH   4  19
HETATM   19  C   UNL     1     -11.107  12.875  67.072  1.00  0.00    -0.275 A  
HETATM   20  N   UNL     1     -11.839  14.753  68.455  1.00  0.00    -0.325 NA 
HETATM   21  N   UNL     1     -11.315  12.038  68.115  1.00  0.00    -0.267 NA 
HETATM   22  C   UNL     1     -12.018  13.892  69.505  1.00  0.00    -0.343 A  
HETATM   23  C   UNL     1     -11.780  12.514  69.321  1.00  0.00    -0.321 A  
HETATM   24  C   UNL     1     -11.400  14.217  67.281  1.00  0.00    -0.332 A  
BRANCH  23  25
HETATM   25  C   UNL     1     -11.922  11.454  70.359  1.00  0.00    -0.465 A  
HETATM   26  C   UNL     1     -13.053  11.417  71.197  1.00  0.00    -0.216 A  
HETATM   27  C   UNL     1     -11.295   9.272  71.278  1.00  0.00    -0.423 A  
HETATM   28  C   UNL     1     -10.997  10.407  70.519  1.00  0.00    -0.270 A  
HETATM   29  C   UNL     1     -12.458   9.229  72.032  1.00  0.00    -0.451 A  
HETATM   30  C   UNL     1     -13.310  10.328  72.037  1.00  0.00    -0.466 A  
ENDBRANCH  23  25
BRANCH  22  31
HETATM   31  C   UNL     1     -12.419  14.569  70.782  1.00  0.00    -0.420 A  
HETATM   32  C   UNL     1     -14.175  15.376  72.305  1.00  0.00    -0.639 A  
HETATM   33  C   UNL     1     -11.874  15.617  72.938  1.00  0.00    -0.564 A  
HETATM   34  C   UNL     1     -11.486  15.112  71.690  1.00  0.00    -0.445 A  
HETATM   35  C   UNL     1     -13.780  14.763  71.108  1.00  0.00    -0.413 A  
HETATM   36  C   UNL     1     -13.222  15.743  73.248  1.00  0.00    -0.687 A  
ENDBRANCH  22  31
ENDBRANCH   4  19
ENDBRANCH   2   4
TORSDOF 12
ENDMDL
MODEL       15
REMARK 921   NORMALIZED FREE ENERGY PREDICTED BY IDOCK:   -6.67 KCAL/MOL
REMARK 922        TOTAL FREE ENERGY PREDICTED BY IDOCK:  -12.66 KCAL/MOL
REMARK 923 INTER-LIGAND FREE ENERGY PREDICTED BY IDOCK:  -10.85 KCAL/MOL
REMARK 924 INTRA-LIGAND FREE ENERGY PREDICTED BY IDOCK:   -1.81 KCAL/MOL
REMARK 927      BINDING AFFINITY PREDICTED BY RF-SCORE:    0.00 PKD
ROOT
HETATM    1  C   UNL     1     -13.157  13.861  65.367  1.00  0.00    -0.236 C  
HETATM    2  C   UNL     1     -12.336  12.589  65.140  1.00  0.00    -0.429 C  
HETATM    3  C   UNL     1     -12.104  12.388  63.641  1.00  0.00    -0.648 C  
ENDROOT
BRANCH   2   4
HETATM    4  N   UNL     1     -11.065  12.545  65.901  1.00  0.00    -0.288 NA 
BRANCH   4   5
HETATM    5  C   UNL     1      -9.865  13.279  65.462  1.00  0.00    -0.136 C  
BRANCH   5   6
HETATM    6  C   UNL     1      -9.387  14.308  66.495  1.00  0.00    -0.292 C  
BRANCH   6   7
HETATM    7  C   UNL     1     -10.169  15.634  66.465  1.00  0.00    -0.291 C  
BRANCH   7   8
HETATM    8  C   UNL     1     -10.911  15.976  67.757  1.00  0.00    -0.324 C  
BRANCH   8   9
HETATM    9  O   UNL     1     -10.387  17.188  68.296  1.00  0.00    -0.313 OA 
BRANCH   9  10
HETATM   10  C   UNL     1     -10.602  18.294  67.420  1.00  0.00    -0.401 C  
BRANCH  10  11
HETATM   11  C   UNL     1      -9.290  18.969  67.041  1.00  0.00    -0.309 C  
HETATM   12  O   UNL     1      -9.003  19.218  65.877  1.00  0.00    -0.434 OA 
HETATM   13  N   UNL     1      -8.481  19.334  68.129  1.00  0.00    -0.315 N  
HETATM   14  H   UNL     1      -8.835  19.202  69.075  1.00  0.00     0.000 HD 
BRANCH  13  15
HETATM   15  S   UNL     1      -6.963  19.975  67.915  1.00  0.00    -0.283 S  
HETATM   16  O   UNL     1      -6.133  19.021  67.228  1.00  0.00    -0.169 OA 
HETATM   17  C   UNL     1      -6.410  20.015  69.591  1.00  0.00    -0.352 C  
HETATM   18  O   UNL     1      -7.107  21.343  67.485  1.00  0.00    -0.522 OA 
ENDBRANCH  13  15
ENDBRANCH  10  11
ENDBRANCH   9  10
ENDBRANCH   8   9
ENDBRANCH   7   8
ENDBRANCH   6   7
ENDBRANCH   5   6
ENDBRANCH   4   5
BRANCH   4  19
HETATM   19  C   UNL     1     -11.047  11.703  67.018  1.00  0.00    -0.302 A  
HETATM   20  N   UNL     1     -11.394  11.314  69.406  1.00  0.00    -0.267 NA 
HETATM   21  N   UNL     1     -10.645  10.418  66.877  1.00  0.00    -0.246 NA 
HETATM   22  C   UNL     1     -10.959  10.025  69.245  1.00  0.00    -0.228 A  
HETATM   23  C   UNL     1     -10.608   9.567  67.958  1.00  0.00    -0.230 A  
HETATM   24  C   UNL     1     -11.430  12.100  68.293  1.00  0.00    -0.305 A  
BRANCH  23  25
HETATM   25  C   UNL     1     -10.115   8.202  67.619  1.00  0.00    -0.267 A  
HETATM   26  C   UNL     1     -11.019   7.143  67.409  1.00  0.00    -0.296 A  
HETATM   27  C   UNL     1      -8.341   6.714  66.818  1.00  0.00    -0.115 A  
HETATM   28  C   UNL     1      -8.754   7.904  67.423  1.00  0.00    -0.128 A  
HETATM   29  C   UNL     1      -9.268   5.718  66.547  1.00  0.00    -0.150 A  
HETATM   30  C   UNL     1     -10.600   5.910  66.897  1.00  0.00    -0.384 A  
ENDBRANCH  23  25
BRANCH  22  31
HETATM   31  C   UNL     1     -10.867   9.252  70.528  1.00  0.00    -0.318 A  
HETATM   32  C   UNL     1      -9.517   8.340  72.372  1.00  0.00    -0.357 A  
HETATM   33  C   UNL     1     -11.896   8.034  72.399  1.00  0.00    -0.429 A  
HETATM   34  C   UNL     1     -11.979   8.633  71.135  1.00  0.00    -0.320 A  
HETATM   35  C   UNL     1      -9.622   9.043  71.163  1.00  0.00    -0.356 A  
HETATM   36  C   UNL     1     -10.662   7.893  73.020  1.00  0.00    -0.408 A  
ENDBRANCH  22  31
ENDBRANCH   4  19
ENDBRANCH   2   4
TORSDOF 12
ENDMDL
MODEL       16
REMARK 921   NORMALIZED FREE ENERGY PREDICTED BY IDOCK:   -6.67 KCAL/MOL
REMARK 922        TOTAL FREE ENERGY PREDICTED BY IDOCK:  -12.66 KCAL/MOL
REMARK 923 INTER-LIGAND FREE ENERGY PREDICTED BY IDOCK:  -10.92 KCAL/MOL
REMARK 924 INTRA-LIGAND FREE ENERGY PREDICTED BY IDOCK:   -1.74 KCAL/MOL
REMARK 927      BINDING AFFINITY PREDICTED BY RF-SCORE:    0.00 PKD
ROOT
HETATM    1  C   UNL     1     -10.425  12.365  63.931  1.00  0.00    -0.469 C  
HETATM    2  C   UNL     1     -11.579  13.259  64.391  1.00  0.00    -0.382 C  
HETATM    3  C   UNL     1     -12.883  12.459  64.387  1.00  0.00    -0.344 C  
ENDROOT
BRANCH   2   4
HETATM    4  N   UNL     1     -11.348  13.920  65.698  1.00  0.00    -0.305 NA 
BRANCH   4   5
HETATM    5  C   UNL     1     -10.934  15.330  65.799  1.00  0.00    -0.338 C  
BRANCH   5   6
HETATM    6  C   UNL     1      -9.420  15.493  65.992  1.00  0.00    -0.387 C  
BRANCH   6   7
HETATM    7  C   UNL     1      -9.009  15.860  67.429  1.00  0.00    -0.203 C  
BRANCH   7   8
HETATM    8  C   UNL     1      -8.319  14.741  68.209  1.00  0.00    -0.148 C  
BRANCH   8   9
HETATM    9  O   UNL     1      -8.207  13.587  67.379  1.00  0.00    -0.169 OA 
BRANCH   9  10
HETATM   10  C   UNL     1      -7.838  12.429  68.127  1.00  0.00    -0.146 C  
BRANCH  10  11
HETATM   11  C   UNL     1      -7.837  11.179  67.255  1.00  0.00    -0.137 C  
HETATM   12  O   UNL     1      -7.348  11.173  66.133  1.00  0.00    -0.107 OA 
HETATM   13  N   UNL     1      -8.376  10.037  67.867  1.00  0.00    -0.117 N  
HETATM   14  H   UNL     1      -8.658  10.085  68.845  1.00  0.00     0.000 HD 
BRANCH  13  15
HETATM   15  S   UNL     1      -8.568   8.609  67.039  1.00  0.00    -0.117 S  
HETATM   16  O   UNL     1      -9.389   8.835  65.879  1.00  0.00    -0.220 OA 
HETATM   17  C   UNL     1      -9.558   7.716  68.196  1.00  0.00    -0.149 C  
HETATM   18  O   UNL     1      -7.290   7.947  66.978  1.00  0.00    -0.087 OA 
ENDBRANCH  13  15
ENDBRANCH  10  11
ENDBRANCH   9  10
ENDBRANCH   8   9
ENDBRANCH   7   8
ENDBRANCH   6   7
ENDBRANCH   5   6
ENDBRANCH   4   5
BRANCH   4  19
HETATM   19  C   UNL     1     -11.469  13.104  66.828  1.00  0.00    -0.343 A  
HETATM   20  N   UNL     1     -11.447  10.898  67.883  1.00  0.00    -0.487 NA 
HETATM   21  N   UNL     1     -11.755  13.664  68.027  1.00  0.00    -0.333 NA 
HETATM   22  C   UNL     1     -11.762  11.484  69.080  1.00  0.00    -0.329 A  
HETATM   23  C   UNL     1     -11.889  12.886  69.156  1.00  0.00    -0.303 A  
HETATM   24  C   UNL     1     -11.304  11.725  66.808  1.00  0.00    -0.320 A  
BRANCH  23  25
HETATM   25  C   UNL     1     -12.231  13.671  70.376  1.00  0.00    -0.434 A  
HETATM   26  C   UNL     1     -13.285  13.266  71.218  1.00  0.00    -0.226 A  
HETATM   27  C   UNL     1     -11.642  15.331  72.077  1.00  0.00    -0.529 A  
HETATM   28  C   UNL     1     -11.500  14.798  70.793  1.00  0.00    -0.273 A  
HETATM   29  C   UNL     1     -12.638  14.857  72.918  1.00  0.00    -0.503 A  
HETATM   30  C   UNL     1     -13.498  13.862  72.466  1.00  0.00    -0.676 A  
ENDBRANCH  23  25
BRANCH  22  31
HETATM   31  C   UNL     1     -11.986  10.503  70.193  1.00  0.00    -0.398 A  
HETATM   32  C   UNL     1     -11.088   8.933  71.861  1.00  0.00    -0.442 A  
HETATM   33  C   UNL     1     -13.453   9.319  71.771  1.00  0.00    -0.483 A  
HETATM   34  C   UNL     1     -13.269  10.130  70.643  1.00  0.00    -0.197 A  
HETATM   35  C   UNL     1     -10.901   9.838  70.807  1.00  0.00    -0.403 A  
HETATM   36  C   UNL     1     -12.358   8.724  72.385  1.00  0.00    -0.414 A  
ENDBRANCH  22  31
ENDBRANCH   4  19
ENDBRANCH   2   4
TORSDOF 12
ENDMDL
MODEL       17
REMARK 921   NORMALIZED FREE ENERGY PREDICTED BY IDOCK:   -6.66 KCAL/MOL
REMARK 922        TOTAL FREE ENERGY PREDICTED BY IDOCK:  -12.64 KCAL/MOL
REMARK 923 INTER-LIGAND FREE ENERGY PREDICTED BY IDOCK:  -10.72 KCAL/MOL
REMARK 924 INTRA-LIGAND FREE ENERGY PREDICTED BY IDOCK:   -1.92 KCAL/MOL
REMARK 927      BINDING AFFINITY PREDICTED BY RF-SCORE:    0.00 PKD
ROOT
HETATM    1  C   UNL     1     -10.544   7.105  73.478  1.00  0.00    -0.416 C  
HETATM    2  C   UNL     1     -10.415   8.304  72.536  1.00  0.00    -0.336 C  
HETATM    3  C   UNL     1      -8.951   8.483  72.129  1.00  0.00    -0.300 C  
ENDROOT
BRANCH   2   4
HETATM    4  N   UNL     1     -11.308   8.243  71.353  1.00  0.00    -0.253 NA 
BRANCH   4   5
HETATM    5  C   UNL     1     -12.087   7.037  71.022  1.00  0.00    -0.368 C  
BRANCH   5   6
HETATM    6  C   UNL     1     -11.523   6.279  69.813  1.00  0.00    -0.449 C  
BRANCH   6   7
HETATM    7  C   UNL     1     -10.060   5.829  69.985  1.00  0.00    -0.279 C  
BRANCH   7   8
HETATM    8  C   UNL     1      -9.404   5.272  68.722  1.00  0.00    -0.121 C  
BRANCH   8   9
HETATM    9  O   UNL     1      -8.696   6.317  68.058  1.00  0.00    -0.116 OA 
BRANCH   9  10
HETATM   10  C   UNL     1      -9.371   6.749  66.878  1.00  0.00    -0.150 C  
BRANCH  10  11
HETATM   11  C   UNL     1      -8.710   7.983  66.277  1.00  0.00    -0.153 C  
HETATM   12  O   UNL     1      -7.497   8.146  66.304  1.00  0.00    -0.080 OA 
HETATM   13  N   UNL     1      -9.592   8.871  65.642  1.00  0.00    -0.453 N  
HETATM   14  H   UNL     1     -10.575   8.615  65.555  1.00  0.00     0.000 HD 
BRANCH  13  15
HETATM   15  S   UNL     1      -9.078  10.328  65.029  1.00  0.00    -0.228 S  
HETATM   16  O   UNL     1      -8.524  11.125  66.091  1.00  0.00    -0.169 OA 
HETATM   17  C   UNL     1     -10.634  11.049  64.611  1.00  0.00    -0.299 C  
HETATM   18  O   UNL     1      -8.383  10.076  63.791  1.00  0.00    -0.149 OA 
ENDBRANCH  13  15
ENDBRANCH  10  11
ENDBRANCH   9  10
ENDBRANCH   8   9
ENDBRANCH   7   8
ENDBRANCH   6   7
ENDBRANCH   5   6
ENDBRANCH   4   5
BRANCH   4  19
HETATM   19  C   UNL     1     -11.306   9.372  70.525  1.00  0.00    -0.274 A  
HETATM   20  N   UNL     1     -10.770  10.465  68.406  1.00  0.00    -0.209 NA 
HETATM   21  N   UNL     1     -11.813  10.538  70.988  1.00  0.00    -0.355 NA 
HETATM   22  C   UNL     1     -11.265  11.641  68.904  1.00  0.00    -0.246 A  
HETATM   23  C   UNL     1     -11.818  11.668  70.201  1.00  0.00    -0.344 A  
HETATM   24  C   UNL     1     -10.816   9.376  69.226  1.00  0.00    -0.172 A  
BRANCH  23  25
HETATM   25  C   UNL     1     -12.389  12.862  70.885  1.00  0.00    -0.365 A  
HETATM   26  C   UNL     1     -11.966  14.160  70.538  1.00  0.00    -0.393 A  
HETATM   27  C   UNL     1     -14.134  13.905  72.252  1.00  0.00    -0.632 A  
HETATM   28  C   UNL     1     -13.410  12.779  71.849  1.00  0.00    -0.510 A  
HETATM   29  C   UNL     1     -13.744  15.166  71.828  1.00  0.00    -0.578 A  
HETATM   30  C   UNL     1     -12.623  15.299  71.016  1.00  0.00    -0.469 A  
ENDBRANCH  23  25
BRANCH  22  31
HETATM   31  C   UNL     1     -11.101  12.808  67.976  1.00  0.00    -0.284 A  
HETATM   32  C   UNL     1      -9.712  14.620  67.058  1.00  0.00    -0.247 A  
HETATM   33  C   UNL     1     -11.928  14.294  66.200  1.00  0.00    -0.422 A  
HETATM   34  C   UNL     1     -12.142  13.292  67.157  1.00  0.00    -0.352 A  
HETATM   35  C   UNL     1      -9.892  13.539  67.931  1.00  0.00    -0.235 A  
HETATM   36  C   UNL     1     -10.708  14.955  66.147  1.00  0.00    -0.317 A  
ENDBRANCH  22  31
ENDBRANCH   4  19
ENDBRANCH   2   4
TORSDOF 12
ENDMDL
MODEL       18
REMARK 921   NORMALIZED FREE ENERGY PREDICTED BY IDOCK:   -6.66 KCAL/MOL
REMARK 922        TOTAL FREE ENERGY PREDICTED BY IDOCK:  -12.64 KCAL/MOL
REMARK 923 INTER-LIGAND FREE ENERGY PREDICTED BY IDOCK:  -10.82 KCAL/MOL
REMARK 924 INTRA-LIGAND FREE ENERGY PREDICTED BY IDOCK:   -1.82 KCAL/MOL
REMARK 927      BINDING AFFINITY PREDICTED BY RF-SCORE:    0.00 PKD
ROOT
HETATM    1  C   UNL     1      -9.157   7.567  72.858  1.00  0.00    -0.211 C  
HETATM    2  C   UNL     1      -9.025   8.154  71.451  1.00  0.00    -0.150 C  
HETATM    3  C   UNL     1      -7.620   7.880  70.909  1.00  0.00    -0.078 C  
ENDROOT
BRANCH   2   4
HETATM    4  N   UNL     1     -10.073   7.702  70.505  1.00  0.00    -0.188 NA 
BRANCH   4   5
HETATM    5  C   UNL     1     -11.015   6.619  70.840  1.00  0.00    -0.268 C  
BRANCH   5   6
HETATM    6  C   UNL     1     -12.461   7.112  70.980  1.00  0.00    -0.359 C  
BRANCH   6   7
HETATM    7  C   UNL     1     -12.634   8.262  71.990  1.00  0.00    -0.387 C  
BRANCH   7   8
HETATM    8  C   UNL     1     -13.667   9.318  71.594  1.00  0.00    -0.354 C  
BRANCH   8   9
HETATM    9  O   UNL     1     -13.336  10.558  72.216  1.00  0.00    -0.384 OA 
BRANCH   9  10
HETATM   10  C   UNL     1     -12.721  11.463  71.302  1.00  0.00    -0.393 C  
BRANCH  10  11
HETATM   11  C   UNL     1     -13.053  12.911  71.641  1.00  0.00    -0.335 C  
HETATM   12  O   UNL     1     -14.034  13.210  72.309  1.00  0.00    -0.505 OA 
HETATM   13  N   UNL     1     -12.116  13.851  71.184  1.00  0.00    -0.454 N  
HETATM   14  H   UNL     1     -11.262  13.521  70.735  1.00  0.00     0.000 HD 
BRANCH  13  15
HETATM   15  S   UNL     1     -12.361  15.486  71.355  1.00  0.00    -0.439 S  
HETATM   16  O   UNL     1     -11.322  16.200  70.661  1.00  0.00    -0.375 OA 
HETATM   17  C   UNL     1     -12.037  15.665  73.080  1.00  0.00    -0.487 C  
HETATM   18  O   UNL     1     -13.764  15.755  71.158  1.00  0.00    -0.560 OA 
ENDBRANCH  13  15
ENDBRANCH  10  11
ENDBRANCH   9  10
ENDBRANCH   8   9
ENDBRANCH   7   8
ENDBRANCH   6   7
ENDBRANCH   5   6
ENDBRANCH   4   5
BRANCH   4  19
HETATM   19  C   UNL     1     -10.065   8.308  69.244  1.00  0.00    -0.199 A  
HETATM   20  N   UNL     1      -9.852   8.179  66.812  1.00  0.00    -0.236 NA 
HETATM   21  N   UNL     1     -10.238   9.647  69.148  1.00  0.00    -0.192 NA 
HETATM   22  C   UNL     1     -10.002   9.538  66.741  1.00  0.00    -0.233 A  
HETATM   23  C   UNL     1     -10.226  10.275  67.923  1.00  0.00    -0.183 A  
HETATM   24  C   UNL     1      -9.897   7.614  68.053  1.00  0.00    -0.161 A  
BRANCH  23  25
HETATM   25  C   UNL     1     -10.403  11.752  68.014  1.00  0.00    -0.212 A  
HETATM   26  C   UNL     1      -9.286  12.604  68.112  1.00  0.00    -0.210 A  
HETATM   27  C   UNL     1     -11.782  13.756  67.725  1.00  0.00    -0.393 A  
HETATM   28  C   UNL     1     -11.659  12.380  67.941  1.00  0.00    -0.415 A  
HETATM   29  C   UNL     1     -10.654  14.563  67.746  1.00  0.00    -0.250 A  
HETATM   30  C   UNL     1      -9.410  13.994  67.997  1.00  0.00    -0.205 A  
ENDBRANCH  23  25
BRANCH  22  31
HETATM   31  C   UNL     1      -9.856  10.092  65.354  1.00  0.00    -0.384 A  
HETATM   32  C   UNL     1     -10.531  11.704  63.622  1.00  0.00    -0.483 A  
HETATM   33  C   UNL     1      -8.751  10.164  63.159  1.00  0.00    -0.211 A  
HETATM   34  C   UNL     1      -8.971   9.550  64.399  1.00  0.00    -0.255 A  
HETATM   35  C   UNL     1     -10.666  11.160  64.907  1.00  0.00    -0.318 A  
HETATM   36  C   UNL     1      -9.530  11.248  62.773  1.00  0.00    -0.355 A  
ENDBRANCH  22  31
ENDBRANCH   4  19
ENDBRANCH   2   4
TORSDOF 12
ENDMDL
MODEL       19
REMARK 921   NORMALIZED FREE ENERGY PREDICTED BY IDOCK:   -6.63 KCAL/MOL
REMARK 922        TOTAL FREE ENERGY PREDICTED BY IDOCK:  -12.60 KCAL/MOL
REMARK 923 INTER-LIGAND FREE ENERGY PREDICTED BY IDOCK:  -10.47 KCAL/MOL
REMARK 924 INTRA-LIGAND FREE ENERGY PREDICTED BY IDOCK:   -2.12 KCAL/MOL
REMARK 927      BINDING AFFINITY PREDICTED BY RF-SCORE:    0.00 PKD
ROOT
HETATM    1  C   UNL     1      -6.303   8.610  71.669  1.00  0.00    -0.069 C  
HETATM    2  C   UNL     1      -6.887   8.995  70.308  1.00  0.00    -0.049 C  
HETATM    3  C   UNL     1      -6.180   8.207  69.204  1.00  0.00    -0.039 C  
ENDROOT
BRANCH   2   4
HETATM    4  N   UNL     1      -8.361   8.857  70.221  1.00  0.00    -0.131 NA 
BRANCH   4   5
HETATM    5  C   UNL     1      -9.117   7.962  71.114  1.00  0.00    -0.143 C  
BRANCH   5   6
HETATM    6  C   UNL     1     -10.035   8.723  72.079  1.00  0.00    -0.391 C  
BRANCH   6   7
HETATM    7  C   UNL     1     -11.456   8.140  72.180  1.00  0.00    -0.412 C  
BRANCH   7   8
HETATM    8  C   UNL     1     -12.524   8.903  71.395  1.00  0.00    -0.304 C  
BRANCH   8   9
HETATM    9  O   UNL     1     -12.661  10.215  71.936  1.00  0.00    -0.396 OA 
BRANCH   9  10
HETATM   10  C   UNL     1     -12.626  11.215  70.919  1.00  0.00    -0.386 C  
BRANCH  10  11
HETATM   11  C   UNL     1     -12.875  12.604  71.494  1.00  0.00    -0.268 C  
HETATM   12  O   UNL     1     -13.652  12.791  72.421  1.00  0.00    -0.565 OA 
HETATM   13  N   UNL     1     -12.098  13.624  70.922  1.00  0.00    -0.473 N  
HETATM   14  H   UNL     1     -11.386  13.378  70.235  1.00  0.00     0.000 HD 
BRANCH  13  15
HETATM   15  S   UNL     1     -12.308  15.220  71.334  1.00  0.00    -0.402 S  
HETATM   16  O   UNL     1     -13.665  15.610  71.058  1.00  0.00    -0.582 OA 
HETATM   17  C   UNL     1     -11.299  15.988  70.106  1.00  0.00    -0.365 C  
HETATM   18  O   UNL     1     -11.670  15.446  72.606  1.00  0.00    -0.434 OA 
ENDBRANCH  13  15
ENDBRANCH  10  11
ENDBRANCH   9  10
ENDBRANCH   8   9
ENDBRANCH   7   8
ENDBRANCH   6   7
ENDBRANCH   5   6
ENDBRANCH   4   5
BRANCH   4  19
HETATM   19  C   UNL     1      -8.983   9.567  69.188  1.00  0.00    -0.148 A  
HETATM   20  N   UNL     1     -10.585   9.692  67.346  1.00  0.00    -0.272 NA 
HETATM   21  N   UNL     1      -8.616  10.846  68.943  1.00  0.00    -0.158 NA 
HETATM   22  C   UNL     1     -10.180  10.977  67.100  1.00  0.00    -0.206 A  
HETATM   23  C   UNL     1      -9.204  11.568  67.928  1.00  0.00    -0.168 A  
HETATM   24  C   UNL     1      -9.982   9.039  68.380  1.00  0.00    -0.180 A  
BRANCH  23  25
HETATM   25  C   UNL     1      -8.655  12.947  67.790  1.00  0.00    -0.185 A  
HETATM   26  C   UNL     1      -7.274  13.187  67.924  1.00  0.00    -0.133 A  
HETATM   27  C   UNL     1      -8.884  15.267  67.040  1.00  0.00    -0.261 A  
HETATM   28  C   UNL     1      -9.449  14.059  67.458  1.00  0.00    -0.221 A  
HETATM   29  C   UNL     1      -7.511  15.448  67.105  1.00  0.00    -0.224 A  
HETATM   30  C   UNL     1      -6.709  14.427  67.603  1.00  0.00    -0.188 A  
ENDBRANCH  23  25
BRANCH  22  31
HETATM   31  C   UNL     1     -10.827  11.596  65.896  1.00  0.00    -0.339 A  
HETATM   32  C   UNL     1     -10.828  12.054  63.478  1.00  0.00    -0.509 A  
HETATM   33  C   UNL     1     -12.668  12.814  64.816  1.00  0.00    -0.469 A  
HETATM   34  C   UNL     1     -12.009  12.362  65.966  1.00  0.00    -0.419 A  
HETATM   35  C   UNL     1     -10.230  11.499  64.619  1.00  0.00    -0.334 A  
HETATM   36  C   UNL     1     -12.079  12.654  63.569  1.00  0.00    -0.648 A  
ENDBRANCH  22  31
ENDBRANCH   4  19
ENDBRANCH   2   4
TORSDOF 12
ENDMDL
MODEL       20
REMARK 921   NORMALIZED FREE ENERGY PREDICTED BY IDOCK:   -6.61 KCAL/MOL
REMARK 922        TOTAL FREE ENERGY PREDICTED BY IDOCK:  -12.56 KCAL/MOL
REMARK 923 INTER-LIGAND FREE ENERGY PREDICTED BY IDOCK:  -10.76 KCAL/MOL
REMARK 924 INTRA-LIGAND FREE ENERGY PREDICTED BY IDOCK:   -1.80 KCAL/MOL
REMARK 927      BINDING AFFINITY PREDICTED BY RF-SCORE:    0.00 PKD
ROOT
HETATM    1  C   UNL     1      -5.690  18.349  70.308  1.00  0.00    -0.202 C  
HETATM    2  C   UNL     1      -6.652  19.113  69.396  1.00  0.00    -0.298 C  
HETATM    3  C   UNL     1      -6.222  20.579  69.307  1.00  0.00    -0.300 C  
ENDROOT
BRANCH   2   4
HETATM    4  N   UNL     1      -6.819  18.510  68.051  1.00  0.00    -0.218 NA 
BRANCH   4   5
HETATM    5  C   UNL     1      -6.786  19.320  66.821  1.00  0.00    -0.196 C  
BRANCH   5   6
HETATM    6  C   UNL     1      -8.135  19.347  66.091  1.00  0.00    -0.323 C  
BRANCH   6   7
HETATM    7  C   UNL     1      -9.295  19.897  66.940  1.00  0.00    -0.493 C  
BRANCH   7   8
HETATM    8  C   UNL     1     -10.650  19.235  66.688  1.00  0.00    -0.438 C  
BRANCH   8   9
HETATM    9  O   UNL     1     -10.546  18.356  65.569  1.00  0.00    -0.627 OA 
BRANCH   9  10
HETATM   10  C   UNL     1     -10.476  16.990  65.972  1.00  0.00    -0.274 C  
BRANCH  10  11
HETATM   11  C   UNL     1     -11.112  16.070  64.937  1.00  0.00    -0.370 C  
HETATM   12  O   UNL     1     -11.701  16.508  63.958  1.00  0.00    -1.111 OA 
HETATM   13  N   UNL     1     -10.910  14.700  65.166  1.00  0.00    -0.373 N  
HETATM   14  H   UNL     1     -10.310  14.410  65.938  1.00  0.00     0.000 HD 
BRANCH  13  15
HETATM   15  S   UNL     1     -11.622  13.539  64.215  1.00  0.00    -0.388 S  
HETATM   16  O   UNL     1     -12.757  14.106  63.536  1.00  0.00    -0.794 OA 
HETATM   17  C   UNL     1     -12.260  12.468  65.464  1.00  0.00    -0.377 C  
HETATM   18  O   UNL     1     -10.580  12.815  63.530  1.00  0.00    -0.350 OA 
ENDBRANCH  13  15
ENDBRANCH  10  11
ENDBRANCH   9  10
ENDBRANCH   8   9
ENDBRANCH   7   8
ENDBRANCH   6   7
ENDBRANCH   5   6
ENDBRANCH   4   5
BRANCH   4  19
HETATM   19  C   UNL     1      -7.089  17.138  68.024  1.00  0.00    -0.175 A  
HETATM   20  N   UNL     1      -6.482  14.853  67.401  1.00  0.00    -0.311 NA 
HETATM   21  N   UNL     1      -8.239  16.674  68.566  1.00  0.00    -0.220 NA 
HETATM   22  C   UNL     1      -7.664  14.409  67.933  1.00  0.00    -0.146 A  
HETATM   23  C   UNL     1      -8.538  15.330  68.547  1.00  0.00    -0.167 A  
HETATM   24  C   UNL     1      -6.234  16.192  67.473  1.00  0.00    -0.162 A  
BRANCH  23  25
HETATM   25  C   UNL     1      -9.856  15.009  69.163  1.00  0.00    -0.223 A  
HETATM   26  C   UNL     1     -10.389  15.821  70.183  1.00  0.00    -0.230 A  
HETATM   27  C   UNL     1     -12.009  13.841  69.106  1.00  0.00    -0.403 A  
HETATM   28  C   UNL     1     -10.666  13.943  68.732  1.00  0.00    -0.278 A  
HETATM   29  C   UNL     1     -12.530  14.709  70.055  1.00  0.00    -0.333 A  
HETATM   30  C   UNL     1     -11.703  15.663  70.637  1.00  0.00    -0.398 A  
ENDBRANCH  23  25
BRANCH  22  31
HETATM   31  C   UNL     1      -7.901  12.941  67.739  1.00  0.00    -0.158 A  
HETATM   32  C   UNL     1      -7.777  10.633  68.585  1.00  0.00    -0.110 A  
HETATM   33  C   UNL     1      -8.756  11.041  66.434  1.00  0.00    -0.174 A  
HETATM   34  C   UNL     1      -8.415  12.396  66.544  1.00  0.00     0.052 A  
HETATM   35  C   UNL     1      -7.546  12.008  68.739  1.00  0.00    -0.070 A  
HETATM   36  C   UNL     1      -8.441  10.160  67.460  1.00  0.00    -0.118 A  
ENDBRANCH  22  31
ENDBRANCH   4  19
ENDBRANCH   2   4
TORSDOF 12
ENDMDL
MODEL       21
REMARK 921   NORMALIZED FREE ENERGY PREDICTED BY IDOCK:   -6.54 KCAL/MOL
REMARK 922        TOTAL FREE ENERGY PREDICTED BY IDOCK:  -12.45 KCAL/MOL
REMARK 923 INTER-LIGAND FREE ENERGY PREDICTED BY IDOCK:   -9.51 KCAL/MOL
REMARK 924 INTRA-LIGAND FREE ENERGY PREDICTED BY IDOCK:   -2.94 KCAL/MOL
REMARK 927      BINDING AFFINITY PREDICTED BY RF-SCORE:    0.00 PKD
ROOT
HETATM    1  C   UNL     1     -12.268   6.800  70.721  1.00  0.00    -0.353 C  
HETATM    2  C   UNL     1     -11.866   8.259  70.947  1.00  0.00    -0.216 C  
HETATM    3  C   UNL     1     -11.704   8.522  72.446  1.00  0.00    -0.429 C  
ENDROOT
BRANCH   2   4
HETATM    4  N   UNL     1     -10.666   8.682  70.185  1.00  0.00    -0.232 NA 
BRANCH   4   5
HETATM    5  C   UNL     1      -9.357   8.028  70.362  1.00  0.00    -0.158 C  
BRANCH   5   6
HETATM    6  C   UNL     1      -8.298   8.968  70.952  1.00  0.00    -0.238 C  
BRANCH   6   7
HETATM    7  C   UNL     1      -7.179   9.347  69.964  1.00  0.00    -0.092 C  
BRANCH   7   8
HETATM    8  C   UNL     1      -6.943  10.848  69.801  1.00  0.00    -0.120 C  
BRANCH   8   9
HETATM    9  O   UNL     1      -7.733  11.336  68.718  1.00  0.00    -0.127 OA 
BRANCH   9  10
HETATM   10  C   UNL     1      -6.929  11.690  67.593  1.00  0.00    -0.095 C  
BRANCH  10  11
HETATM   11  C   UNL     1      -7.137  10.723  66.433  1.00  0.00    -0.134 C  
HETATM   12  O   UNL     1      -6.432   9.734  66.281  1.00  0.00    -0.068 OA 
HETATM   13  N   UNL     1      -8.230  11.024  65.607  1.00  0.00    -0.336 N  
HETATM   14  H   UNL     1      -8.845  11.797  65.860  1.00  0.00     0.000 HD 
BRANCH  13  15
HETATM   15  S   UNL     1      -8.549  10.157  64.226  1.00  0.00    -0.206 S  
HETATM   16  O   UNL     1      -7.471  10.335  63.289  1.00  0.00    -0.144 OA 
HETATM   17  C   UNL     1      -9.922  11.072  63.599  1.00  0.00    -0.361 C  
HETATM   18  O   UNL     1      -9.047   8.860  64.612  1.00  0.00    -0.089 OA 
ENDBRANCH  13  15
ENDBRANCH  10  11
ENDBRANCH   9  10
ENDBRANCH   8   9
ENDBRANCH   7   8
ENDBRANCH   6   7
ENDBRANCH   5   6
ENDBRANCH   4   5
BRANCH   4  19
HETATM   19  C   UNL     1     -10.830   9.791  69.348  1.00  0.00    -0.232 A  
HETATM   20  N   UNL     1     -10.787  10.816  67.129  1.00  0.00    -0.280 NA 
HETATM   21  N   UNL     1     -11.175  10.985  69.883  1.00  0.00    -0.270 NA 
HETATM   22  C   UNL     1     -11.112  12.020  67.695  1.00  0.00    -0.264 A  
HETATM   23  C   UNL     1     -11.335  12.096  69.086  1.00  0.00    -0.276 A  
HETATM   24  C   UNL     1     -10.667   9.749  67.969  1.00  0.00    -0.247 A  
BRANCH  23  25
HETATM   25  C   UNL     1     -11.689  13.325  69.851  1.00  0.00    -0.330 A  
HETATM   26  C   UNL     1     -12.554  13.257  70.960  1.00  0.00    -0.408 A  
HETATM   27  C   UNL     1     -11.246  15.655  70.465  1.00  0.00    -0.382 A  
HETATM   28  C   UNL     1     -11.142  14.590  69.566  1.00  0.00    -0.285 A  
HETATM   29  C   UNL     1     -12.041  15.532  71.595  1.00  0.00    -0.471 A  
HETATM   30  C   UNL     1     -12.743  14.351  71.812  1.00  0.00    -0.427 A  
ENDBRANCH  23  25
BRANCH  22  31
HETATM   31  C   UNL     1     -11.141  13.160  66.720  1.00  0.00    -0.314 A  
HETATM   32  C   UNL     1     -12.383  14.576  65.136  1.00  0.00    -0.324 A  
HETATM   33  C   UNL     1     -10.070  15.046  65.563  1.00  0.00    -0.400 A  
HETATM   34  C   UNL     1      -9.995  13.902  66.369  1.00  0.00    -0.303 A  
HETATM   35  C   UNL     1     -12.330  13.503  66.037  1.00  0.00    -0.486 A  
HETATM   36  C   UNL     1     -11.269  15.386  64.950  1.00  0.00    -0.410 A  
ENDBRANCH  22  31
ENDBRANCH   4  19
ENDBRANCH   2   4
TORSDOF 12
ENDMDL
MODEL       22
REMARK 921   NORMALIZED FREE ENERGY PREDICTED BY IDOCK:   -6.54 KCAL/MOL
REMARK 922        TOTAL FREE ENERGY PREDICTED BY IDOCK:  -12.44 KCAL/MOL
REMARK 923 INTER-LIGAND FREE ENERGY PREDICTED BY IDOCK:  -11.17 KCAL/MOL
REMARK 924 INTRA-LIGAND FREE ENERGY PREDICTED BY IDOCK:   -1.28 KCAL/MOL
REMARK 927      BINDING AFFINITY PREDICTED BY RF-SCORE:    0.00 PKD
ROOT
HETATM    1  C   UNL     1     -11.387  15.644  71.302  1.00  0.00    -0.451 C  
HETATM    2  C   UNL     1     -12.417  14.514  71.238  1.00  0.00    -0.346 C  
HETATM    3  C   UNL     1     -13.825  15.105  71.147  1.00  0.00    -0.495 C  
ENDROOT
BRANCH   2   4
HETATM    4  N   UNL     1     -12.167  13.527  70.159  1.00  0.00    -0.340 NA 
BRANCH   4   5
HETATM    5  C   UNL     1     -12.150  13.911  68.737  1.00  0.00    -0.309 C  
BRANCH   5   6
HETATM    6  C   UNL     1     -11.095  13.147  67.928  1.00  0.00    -0.288 C  
BRANCH   6   7
HETATM    7  C   UNL     1     -11.526  12.824  66.485  1.00  0.00    -0.409 C  
BRANCH   7   8
HETATM    8  C   UNL     1     -12.524  13.808  65.874  1.00  0.00    -0.468 C  
BRANCH   8   9
HETATM    9  O   UNL     1     -12.115  14.132  64.547  1.00  0.00    -0.430 OA 
BRANCH   9  10
HETATM   10  C   UNL     1     -10.771  14.607  64.507  1.00  0.00    -0.131 C  
BRANCH  10  11
HETATM   11  C   UNL     1     -10.683  16.068  64.933  1.00  0.00    -0.316 C  
HETATM   12  O   UNL     1     -11.250  16.958  64.312  1.00  0.00    -1.204 OA 
HETATM   13  N   UNL     1      -9.963  16.292  66.116  1.00  0.00    -0.313 N  
HETATM   14  H   UNL     1      -9.617  15.492  66.645  1.00  0.00     0.000 HD 
BRANCH  13  15
HETATM   15  S   UNL     1      -9.659  17.826  66.679  1.00  0.00    -0.318 S  
HETATM   16  O   UNL     1      -8.630  18.434  65.877  1.00  0.00    -0.503 OA 
HETATM   17  C   UNL     1      -8.926  17.440  68.237  1.00  0.00    -0.268 C  
HETATM   18  O   UNL     1     -10.921  18.465  66.952  1.00  0.00    -0.228 OA 
ENDBRANCH  13  15
ENDBRANCH  10  11
ENDBRANCH   9  10
ENDBRANCH   8   9
ENDBRANCH   7   8
ENDBRANCH   6   7
ENDBRANCH   5   6
ENDBRANCH   4   5
BRANCH   4  19
HETATM   19  C   UNL     1     -12.028  12.196  70.566  1.00  0.00    -0.216 A  
HETATM   20  N   UNL     1     -12.688  10.313  71.979  1.00  0.00    -0.369 NA 
HETATM   21  N   UNL     1     -11.079  11.420  69.992  1.00  0.00    -0.085 NA 
HETATM   22  C   UNL     1     -11.705   9.554  71.402  1.00  0.00    -0.393 A  
HETATM   23  C   UNL     1     -10.911  10.108  70.377  1.00  0.00    -0.319 A  
HETATM   24  C   UNL     1     -12.820  11.597  71.538  1.00  0.00    -0.364 A  
BRANCH  23  25
HETATM   25  C   UNL     1      -9.804   9.419  69.656  1.00  0.00    -0.205 A  
HETATM   26  C   UNL     1      -9.994   8.924  68.351  1.00  0.00    -0.198 A  
HETATM   27  C   UNL     1      -7.422   8.909  69.394  1.00  0.00    -0.077 A  
HETATM   28  C   UNL     1      -8.510   9.280  70.190  1.00  0.00    -0.206 A  
HETATM   29  C   UNL     1      -7.629   8.504  68.084  1.00  0.00    -0.098 A  
HETATM   30  C   UNL     1      -8.924   8.456  67.580  1.00  0.00    -0.142 A  
ENDBRANCH  23  25
BRANCH  22  31
HETATM   31  C   UNL     1     -11.568   8.185  72.000  1.00  0.00    -0.389 A  
HETATM   32  C   UNL     1     -10.484   6.656  73.596  1.00  0.00    -0.353 A  
HETATM   33  C   UNL     1     -12.267   5.838  72.216  1.00  0.00     0.043 A  
HETATM   34  C   UNL     1     -12.311   7.073  71.555  1.00  0.00    -0.420 A  
HETATM   35  C   UNL     1     -10.615   7.924  73.010  1.00  0.00    -0.406 A  
HETATM   36  C   UNL     1     -11.355   5.632  73.243  1.00  0.00    -0.156 A  
ENDBRANCH  22  31
ENDBRANCH   4  19
ENDBRANCH   2   4
TORSDOF 12
ENDMDL
MODEL       23
REMARK 921   NORMALIZED FREE ENERGY PREDICTED BY IDOCK:   -6.53 KCAL/MOL
REMARK 922        TOTAL FREE ENERGY PREDICTED BY IDOCK:  -12.43 KCAL/MOL
REMARK 923 INTER-LIGAND FREE ENERGY PREDICTED BY IDOCK:  -12.10 KCAL/MOL
REMARK 924 INTRA-LIGAND FREE ENERGY PREDICTED BY IDOCK:   -0.33 KCAL/MOL
REMARK 927      BINDING AFFINITY PREDICTED BY RF-SCORE:    0.00 PKD
ROOT
HETATM    1  C   UNL     1     -11.117  12.750  63.935  1.00  0.00    -0.477 C  
HETATM    2  C   UNL     1     -11.504  13.953  64.798  1.00  0.00    -0.362 C  
HETATM    3  C   UNL     1     -12.986  13.863  65.171  1.00  0.00    -0.282 C  
ENDROOT
BRANCH   2   4
HETATM    4  N   UNL     1     -10.649  14.139  65.995  1.00  0.00    -0.290 NA 
BRANCH   4   5
HETATM    5  C   UNL     1      -9.525  15.091  66.013  1.00  0.00    -0.302 C  
BRANCH   5   6
HETATM    6  C   UNL     1      -8.805  15.136  67.367  1.00  0.00    -0.199 C  
BRANCH   6   7
HETATM    7  C   UNL     1      -7.296  14.845  67.282  1.00  0.00    -0.174 C  
BRANCH   7   8
HETATM    8  C   UNL     1      -6.391  16.046  67.556  1.00  0.00    -0.170 C  
BRANCH   8   9
HETATM    9  O   UNL     1      -6.468  16.956  66.461  1.00  0.00    -0.215 OA 
BRANCH   9  10
HETATM   10  C   UNL     1      -6.249  18.303  66.874  1.00  0.00    -0.172 C  
BRANCH  10  11
HETATM   11  C   UNL     1      -7.554  18.985  67.269  1.00  0.00    -0.229 C  
HETATM   12  O   UNL     1      -7.685  19.560  68.341  1.00  0.00    -0.315 OA 
HETATM   13  N   UNL     1      -8.555  18.952  66.285  1.00  0.00    -0.292 N  
HETATM   14  H   UNL     1      -8.338  18.558  65.370  1.00  0.00     0.000 HD 
BRANCH  13  15
HETATM   15  S   UNL     1     -10.083  19.539  66.571  1.00  0.00    -0.481 S  
HETATM   16  O   UNL     1      -9.992  20.787  67.281  1.00  0.00    -0.433 OA 
HETATM   17  C   UNL     1     -10.660  18.337  67.728  1.00  0.00    -0.393 C  
HETATM   18  O   UNL     1     -10.861  19.375  65.369  1.00  0.00    -0.452 OA 
ENDBRANCH  13  15
ENDBRANCH  10  11
ENDBRANCH   9  10
ENDBRANCH   8   9
ENDBRANCH   7   8
ENDBRANCH   6   7
ENDBRANCH   5   6
ENDBRANCH   4   5
BRANCH   4  19
HETATM   19  C   UNL     1     -10.924  13.301  67.081  1.00  0.00    -0.272 A  
HETATM   20  N   UNL     1     -11.042  11.075  68.085  1.00  0.00    -0.247 NA 
HETATM   21  N   UNL     1     -11.375  13.837  68.239  1.00  0.00    -0.268 NA 
HETATM   22  C   UNL     1     -11.522  11.637  69.238  1.00  0.00    -0.300 A  
HETATM   23  C   UNL     1     -11.663  13.037  69.323  1.00  0.00    -0.320 A  
HETATM   24  C   UNL     1     -10.753  11.923  67.056  1.00  0.00    -0.240 A  
BRANCH  23  25
HETATM   25  C   UNL     1     -12.173  13.798  70.498  1.00  0.00    -0.440 A  
HETATM   26  C   UNL     1     -13.270  13.319  71.242  1.00  0.00    -0.226 A  
HETATM   27  C   UNL     1     -11.867  15.499  72.233  1.00  0.00    -0.560 A  
HETATM   28  C   UNL     1     -11.568  14.975  70.973  1.00  0.00    -0.367 A  
HETATM   29  C   UNL     1     -12.901  14.956  72.981  1.00  0.00    -0.586 A  
HETATM   30  C   UNL     1     -13.642  13.901  72.459  1.00  0.00    -0.680 A  
ENDBRANCH  23  25
BRANCH  22  31
HETATM   31  C   UNL     1     -11.896  10.634  70.290  1.00  0.00    -0.430 A  
HETATM   32  C   UNL     1     -11.242   8.887  71.895  1.00  0.00    -0.447 A  
HETATM   33  C   UNL     1     -13.542   9.552  71.760  1.00  0.00    -0.447 A  
HETATM   34  C   UNL     1     -13.228  10.392  70.683  1.00  0.00    -0.191 A  
HETATM   35  C   UNL     1     -10.916   9.816  70.897  1.00  0.00    -0.411 A  
HETATM   36  C   UNL     1     -12.545   8.803  72.370  1.00  0.00    -0.430 A  
ENDBRANCH  22  31
ENDBRANCH   4  19
ENDBRANCH   2   4
TORSDOF 12
ENDMDL
MODEL       24
REMARK 921   NORMALIZED FREE ENERGY PREDICTED BY IDOCK:   -6.53 KCAL/MOL
REMARK 922        TOTAL FREE ENERGY PREDICTED BY IDOCK:  -12.42 KCAL/MOL
REMARK 923 INTER-LIGAND FREE ENERGY PREDICTED BY IDOCK:  -11.38 KCAL/MOL
REMARK 924 INTRA-LIGAND FREE ENERGY PREDICTED BY IDOCK:   -1.04 KCAL/MOL
REMARK 927      BINDING AFFINITY PREDICTED BY RF-SCORE:    0.00 PKD
ROOT
HETATM    1  C   UNL     1     -12.518  12.604  64.634  1.00  0.00    -0.538 C  
HETATM    2  C   UNL     1     -11.285  11.697  64.658  1.00  0.00    -0.253 C  
HETATM    3  C   UNL     1     -10.589  11.740  63.296  1.00  0.00    -0.427 C  
ENDROOT
BRANCH   2   4
HETATM    4  N   UNL     1     -10.341  11.987  65.764  1.00  0.00    -0.245 NA 
BRANCH   4   5
HETATM    5  C   UNL     1      -9.553  10.928  66.418  1.00  0.00    -0.197 C  
BRANCH   5   6
HETATM    6  C   UNL     1     -10.199   9.542  66.290  1.00  0.00    -0.290 C  
BRANCH   6   7
HETATM    7  C   UNL     1      -9.187   8.391  66.154  1.00  0.00    -0.263 C  
BRANCH   7   8
HETATM    8  C   UNL     1      -9.419   7.212  67.099  1.00  0.00    -0.147 C  
BRANCH   8   9
HETATM    9  O   UNL     1     -10.785   7.197  67.509  1.00  0.00    -0.254 OA 
BRANCH   9  10
HETATM   10  C   UNL     1     -11.059   6.118  68.401  1.00  0.00    -0.248 C  
BRANCH  10  11
HETATM   11  C   UNL     1     -11.236   6.609  69.833  1.00  0.00    -0.364 C  
HETATM   12  O   UNL     1     -11.108   5.861  70.793  1.00  0.00    -0.293 OA 
HETATM   13  N   UNL     1     -11.487   7.984  69.955  1.00  0.00    -0.469 N  
HETATM   14  H   UNL     1     -11.463   8.568  69.120  1.00  0.00     0.000 HD 
BRANCH  13  15
HETATM   15  S   UNL     1     -11.821   8.685  71.424  1.00  0.00    -0.311 S  
HETATM   16  O   UNL     1     -13.149   8.316  71.839  1.00  0.00    -0.329 OA 
HETATM   17  C   UNL     1     -11.893  10.382  70.944  1.00  0.00    -0.377 C  
HETATM   18  O   UNL     1     -10.664   8.534  72.271  1.00  0.00    -0.323 OA 
ENDBRANCH  13  15
ENDBRANCH  10  11
ENDBRANCH   9  10
ENDBRANCH   8   9
ENDBRANCH   7   8
ENDBRANCH   6   7
ENDBRANCH   5   6
ENDBRANCH   4   5
BRANCH   4  19
HETATM   19  C   UNL     1     -10.301  13.315  66.203  1.00  0.00    -0.290 A  
HETATM   20  N   UNL     1      -9.630  15.646  65.900  1.00  0.00    -0.342 NA 
HETATM   21  N   UNL     1     -10.864  13.641  67.390  1.00  0.00    -0.270 NA 
HETATM   22  C   UNL     1     -10.185  15.949  67.115  1.00  0.00    -0.278 A  
HETATM   23  C   UNL     1     -10.833  14.937  67.854  1.00  0.00    -0.276 A  
HETATM   24  C   UNL     1      -9.715  14.350  65.485  1.00  0.00    -0.179 A  
BRANCH  23  25
HETATM   25  C   UNL     1     -11.477  15.103  69.188  1.00  0.00    -0.322 A  
HETATM   26  C   UNL     1     -12.299  14.090  69.719  1.00  0.00    -0.344 A  
HETATM   27  C   UNL     1     -11.621  16.221  71.362  1.00  0.00    -0.424 A  
HETATM   28  C   UNL     1     -11.259  16.221  70.012  1.00  0.00    -0.324 A  
HETATM   29  C   UNL     1     -12.361  15.169  71.880  1.00  0.00    -0.423 A  
HETATM   30  C   UNL     1     -12.751  14.129  71.043  1.00  0.00    -0.433 A  
ENDBRANCH  23  25
BRANCH  22  31
HETATM   31  C   UNL     1      -9.976  17.373  67.538  1.00  0.00    -0.298 A  
HETATM   32  C   UNL     1      -8.628  19.074  68.699  1.00  0.00    -0.389 A  
HETATM   33  C   UNL     1     -10.624  19.744  67.549  1.00  0.00    -0.544 A  
HETATM   34  C   UNL     1     -10.902  18.400  67.265  1.00  0.00    -0.296 A  
HETATM   35  C   UNL     1      -8.852  17.746  68.310  1.00  0.00    -0.277 A  
HETATM   36  C   UNL     1      -9.481  20.081  68.262  1.00  0.00    -0.342 A  
ENDBRANCH  22  31
ENDBRANCH   4  19
ENDBRANCH   2   4
TORSDOF 12
ENDMDL
MODEL       25
REMARK 921   NORMALIZED FREE ENERGY PREDICTED BY IDOCK:   -6.51 KCAL/MOL
REMARK 922        TOTAL FREE ENERGY PREDICTED BY IDOCK:  -12.40 KCAL/MOL
REMARK 923 INTER-LIGAND FREE ENERGY PREDICTED BY IDOCK:  -11.22 KCAL/MOL
REMARK 924 INTRA-LIGAND FREE ENERGY PREDICTED BY IDOCK:   -1.18 KCAL/MOL
REMARK 927      BINDING AFFINITY PREDICTED BY RF-SCORE:    0.00 PKD
ROOT
HETATM    1  C   UNL     1      -8.640   6.089  65.697  1.00  0.00    -0.154 C  
HETATM    2  C   UNL     1      -8.394   7.005  66.898  1.00  0.00    -0.118 C  
HETATM    3  C   UNL     1      -6.999   6.742  67.468  1.00  0.00    -0.083 C  
ENDROOT
BRANCH   2   4
HETATM    4  N   UNL     1      -8.607   8.445  66.615  1.00  0.00    -0.117 NA 
BRANCH   4   5
HETATM    5  C   UNL     1      -7.915   9.136  65.513  1.00  0.00    -0.104 C  
BRANCH   5   6
HETATM    6  C   UNL     1      -8.751   9.190  64.228  1.00  0.00    -0.180 C  
BRANCH   6   7
HETATM    7  C   UNL     1      -8.229  10.194  63.184  1.00  0.00    -0.160 C  
BRANCH   7   8
HETATM    8  C   UNL     1      -9.233  11.267  62.761  1.00  0.00    -0.322 C  
BRANCH   8   9
HETATM    9  O   UNL     1     -10.003  11.666  63.894  1.00  0.00    -0.283 OA 
BRANCH   9  10
HETATM   10  C   UNL     1     -11.295  12.137  63.517  1.00  0.00    -0.453 C  
BRANCH  10  11
HETATM   11  C   UNL     1     -11.679  13.392  64.292  1.00  0.00    -0.412 C  
HETATM   12  O   UNL     1     -12.823  13.587  64.682  1.00  0.00    -0.667 OA 
HETATM   13  N   UNL     1     -10.611  14.258  64.573  1.00  0.00    -0.598 N  
HETATM   14  H   UNL     1      -9.665  13.976  64.320  1.00  0.00     0.000 HD 
BRANCH  13  15
HETATM   15  S   UNL     1     -10.848  15.731  65.306  1.00  0.00    -0.374 S  
HETATM   16  O   UNL     1     -11.155  16.719  64.307  1.00  0.00    -1.106 OA 
HETATM   17  C   UNL     1      -9.206  16.063  65.861  1.00  0.00    -0.286 C  
HETATM   18  O   UNL     1     -11.657  15.525  66.481  1.00  0.00    -0.041 OA 
ENDBRANCH  13  15
ENDBRANCH  10  11
ENDBRANCH   9  10
ENDBRANCH   8   9
ENDBRANCH   7   8
ENDBRANCH   6   7
ENDBRANCH   5   6
ENDBRANCH   4   5
BRANCH   4  19
HETATM   19  C   UNL     1      -9.442   9.128  67.506  1.00  0.00    -0.139 A  
HETATM   20  N   UNL     1     -10.835  11.054  68.077  1.00  0.00    -0.210 NA 
HETATM   21  N   UNL     1      -9.703   8.591  68.720  1.00  0.00    -0.161 NA 
HETATM   22  C   UNL     1     -11.065  10.503  69.310  1.00  0.00    -0.246 A  
HETATM   23  C   UNL     1     -10.514   9.243  69.622  1.00  0.00    -0.224 A  
HETATM   24  C   UNL     1     -10.044  10.348  67.221  1.00  0.00    -0.200 A  
BRANCH  23  25
HETATM   25  C   UNL     1     -10.666   8.515  70.913  1.00  0.00    -0.268 A  
HETATM   26  C   UNL     1     -11.646   7.515  71.063  1.00  0.00    -0.305 A  
HETATM   27  C   UNL     1      -9.782   7.836  73.094  1.00  0.00    -0.347 A  
HETATM   28  C   UNL     1      -9.819   8.725  72.017  1.00  0.00    -0.376 A  
HETATM   29  C   UNL     1     -10.709   6.807  73.175  1.00  0.00    -0.326 A  
HETATM   30  C   UNL     1     -11.680   6.682  72.187  1.00  0.00    -0.342 A  
ENDBRANCH  23  25
BRANCH  22  31
HETATM   31  C   UNL     1     -11.873  11.378  70.223  1.00  0.00    -0.438 A  
HETATM   32  C   UNL     1     -13.433  11.621  72.110  1.00  0.00    -0.238 A  
HETATM   33  C   UNL     1     -12.581  13.588  71.034  1.00  0.00    -0.438 A  
HETATM   34  C   UNL     1     -11.932  12.781  70.091  1.00  0.00    -0.371 A  
HETATM   35  C   UNL     1     -12.686  10.820  71.235  1.00  0.00    -0.546 A  
HETATM   36  C   UNL     1     -13.328  13.006  72.050  1.00  0.00    -0.588 A  
ENDBRANCH  22  31
ENDBRANCH   4  19
ENDBRANCH   2   4
TORSDOF 12
ENDMDL
MODEL       26
REMARK 921   NORMALIZED FREE ENERGY PREDICTED BY IDOCK:   -6.47 KCAL/MOL
REMARK 922        TOTAL FREE ENERGY PREDICTED BY IDOCK:  -12.32 KCAL/MOL
REMARK 923 INTER-LIGAND FREE ENERGY PREDICTED BY IDOCK:   -9.84 KCAL/MOL
REMARK 924 INTRA-LIGAND FREE ENERGY PREDICTED BY IDOCK:   -2.48 KCAL/MOL
REMARK 927      BINDING AFFINITY PREDICTED BY RF-SCORE:    0.00 PKD
ROOT
HETATM    1  C   UNL     1     -12.445   6.758  71.848  1.00  0.00    -0.355 C  
HETATM    2  C   UNL     1     -12.697   8.153  71.272  1.00  0.00    -0.206 C  
HETATM    3  C   UNL     1     -13.765   8.867  72.104  1.00  0.00    -0.527 C  
ENDROOT
BRANCH   2   4
HETATM    4  N   UNL     1     -11.473   8.978  71.128  1.00  0.00    -0.287 NA 
BRANCH   4   5
HETATM    5  C   UNL     1     -10.307   8.808  72.013  1.00  0.00    -0.340 C  
BRANCH   5   6
HETATM    6  C   UNL     1      -8.979   8.781  71.245  1.00  0.00    -0.295 C  
BRANCH   6   7
HETATM    7  C   UNL     1      -8.397   7.369  71.053  1.00  0.00    -0.114 C  
BRANCH   7   8
HETATM    8  C   UNL     1      -9.165   6.482  70.073  1.00  0.00    -0.157 C  
BRANCH   8   9
HETATM    9  O   UNL     1      -8.511   6.502  68.806  1.00  0.00    -0.121 OA 
BRANCH   9  10
HETATM   10  C   UNL     1      -9.390   6.920  67.763  1.00  0.00    -0.120 C  
BRANCH  10  11
HETATM   11  C   UNL     1      -8.647   7.711  66.692  1.00  0.00    -0.133 C  
HETATM   12  O   UNL     1      -7.478   7.483  66.414  1.00  0.00    -0.081 OA 
HETATM   13  N   UNL     1      -9.428   8.663  66.019  1.00  0.00    -0.335 N  
HETATM   14  H   UNL     1     -10.426   8.719  66.221  1.00  0.00     0.000 HD 
BRANCH  13  15
HETATM   15  S   UNL     1      -8.771   9.702  64.901  1.00  0.00    -0.195 S  
HETATM   16  O   UNL     1      -7.904  10.637  65.568  1.00  0.00    -0.154 OA 
HETATM   17  C   UNL     1     -10.216  10.599  64.429  1.00  0.00    -0.330 C  
HETATM   18  O   UNL     1      -8.359   8.931  63.755  1.00  0.00    -0.173 OA 
ENDBRANCH  13  15
ENDBRANCH  10  11
ENDBRANCH   9  10
ENDBRANCH   8   9
ENDBRANCH   7   8
ENDBRANCH   6   7
ENDBRANCH   5   6
ENDBRANCH   4   5
BRANCH   4  19
HETATM   19  C   UNL     1     -11.521   9.982  70.155  1.00  0.00    -0.277 A  
HETATM   20  N   UNL     1     -11.345  10.710  67.828  1.00  0.00    -0.440 NA 
HETATM   21  N   UNL     1     -11.768  11.259  70.526  1.00  0.00    -0.310 NA 
HETATM   22  C   UNL     1     -11.571  12.000  68.230  1.00  0.00    -0.334 A  
HETATM   23  C   UNL     1     -11.812  12.270  69.592  1.00  0.00    -0.324 A  
HETATM   24  C   UNL     1     -11.337   9.751  68.797  1.00  0.00     0.072 A  
BRANCH  23  25
HETATM   25  C   UNL     1     -12.068  13.613  70.187  1.00  0.00    -0.431 A  
HETATM   26  C   UNL     1     -13.187  13.831  71.013  1.00  0.00    -0.222 A  
HETATM   27  C   UNL     1     -11.288  15.846  70.823  1.00  0.00    -0.424 A  
HETATM   28  C   UNL     1     -11.194  14.703  70.024  1.00  0.00    -0.252 A  
HETATM   29  C   UNL     1     -12.360  15.999  71.690  1.00  0.00    -0.472 A  
HETATM   30  C   UNL     1     -13.342  15.016  71.743  1.00  0.00    -0.478 A  
ENDBRANCH  23  25
BRANCH  22  31
HETATM   31  C   UNL     1     -11.480  13.005  67.119  1.00  0.00    -0.379 A  
HETATM   32  C   UNL     1     -10.120  14.361  65.581  1.00  0.00    -0.377 A  
HETATM   33  C   UNL     1     -12.511  14.457  65.426  1.00  0.00    -0.357 A  
HETATM   34  C   UNL     1     -12.610  13.627  66.550  1.00  0.00    -0.225 A  
HETATM   35  C   UNL     1     -10.226  13.438  66.631  1.00  0.00    -0.274 A  
HETATM   36  C   UNL     1     -11.263  14.820  64.937  1.00  0.00    -0.411 A  
ENDBRANCH  22  31
ENDBRANCH   4  19
ENDBRANCH   2   4
TORSDOF 12
ENDMDL
MODEL       27
REMARK 921   NORMALIZED FREE ENERGY PREDICTED BY IDOCK:   -6.44 KCAL/MOL
REMARK 922        TOTAL FREE ENERGY PREDICTED BY IDOCK:  -12.27 KCAL/MOL
REMARK 923 INTER-LIGAND FREE ENERGY PREDICTED BY IDOCK:  -10.67 KCAL/MOL
REMARK 924 INTRA-LIGAND FREE ENERGY PREDICTED BY IDOCK:   -1.60 KCAL/MOL
REMARK 927      BINDING AFFINITY PREDICTED BY RF-SCORE:    0.00 PKD
ROOT
HETATM    1  C   UNL     1     -12.111  14.291  63.949  1.00  0.00    -0.247 C  
HETATM    2  C   UNL     1     -12.405  12.879  64.459  1.00  0.00    -0.417 C  
HETATM    3  C   UNL     1     -12.423  11.900  63.283  1.00  0.00    -0.506 C  
ENDROOT
BRANCH   2   4
HETATM    4  N   UNL     1     -11.493  12.422  65.535  1.00  0.00    -0.346 NA 
BRANCH   4   5
HETATM    5  C   UNL     1     -10.399  11.468  65.281  1.00  0.00    -0.272 C  
BRANCH   5   6
HETATM    6  C   UNL     1      -9.056  11.936  65.858  1.00  0.00    -0.085 C  
BRANCH   6   7
HETATM    7  C   UNL     1      -8.123  10.787  66.281  1.00  0.00    -0.159 C  
BRANCH   7   8
HETATM    8  C   UNL     1      -8.453  10.151  67.631  1.00  0.00    -0.118 C  
BRANCH   8   9
HETATM    9  O   UNL     1      -8.668   8.752  67.455  1.00  0.00    -0.128 OA 
BRANCH   9  10
HETATM   10  C   UNL     1     -10.053   8.443  67.309  1.00  0.00    -0.253 C  
BRANCH  10  11
HETATM   11  C   UNL     1     -10.263   6.971  66.973  1.00  0.00    -0.260 C  
HETATM   12  O   UNL     1     -11.382   6.488  66.857  1.00  0.00    -0.330 OA 
HETATM   13  N   UNL     1      -9.083   6.247  66.746  1.00  0.00    -0.130 N  
HETATM   14  H   UNL     1      -8.191   6.740  66.744  1.00  0.00     0.000 HD 
BRANCH  13  15
HETATM   15  S   UNL     1      -9.100   4.606  66.482  1.00  0.00    -0.130 S  
HETATM   16  O   UNL     1      -9.444   3.928  67.704  1.00  0.00    -0.176 OA 
HETATM   17  C   UNL     1      -7.380   4.322  66.211  1.00  0.00    -0.080 C  
HETATM   18  O   UNL     1      -9.772   4.357  65.231  1.00  0.00    -0.173 OA 
ENDBRANCH  13  15
ENDBRANCH  10  11
ENDBRANCH   9  10
ENDBRANCH   8   9
ENDBRANCH   7   8
ENDBRANCH   6   7
ENDBRANCH   5   6
ENDBRANCH   4   5
BRANCH   4  19
HETATM   19  C   UNL     1     -11.780  12.889  66.822  1.00  0.00    -0.383 A  
HETATM   20  N   UNL     1     -12.323  14.709  68.362  1.00  0.00    -0.066 NA 
HETATM   21  N   UNL     1     -11.791  12.021  67.860  1.00  0.00    -0.520 NA 
HETATM   22  C   UNL     1     -12.303  13.816  69.401  1.00  0.00    -0.173 A  
HETATM   23  C   UNL     1     -12.061  12.451  69.139  1.00  0.00    -0.146 A  
HETATM   24  C   UNL     1     -12.071  14.216  67.116  1.00  0.00    -0.397 A  
BRANCH  23  25
HETATM   25  C   UNL     1     -12.001  11.362  70.154  1.00  0.00    -0.460 A  
HETATM   26  C   UNL     1     -13.112  11.083  70.975  1.00  0.00    -0.257 A  
HETATM   27  C   UNL     1     -10.962   9.329  71.041  1.00  0.00    -0.390 A  
HETATM   28  C   UNL     1     -10.888  10.517  70.309  1.00  0.00    -0.241 A  
HETATM   29  C   UNL     1     -12.102   9.039  71.777  1.00  0.00    -0.438 A  
HETATM   30  C   UNL     1     -13.156   9.946  71.790  1.00  0.00    -0.553 A  
ENDBRANCH  23  25
BRANCH  22  31
HETATM   31  C   UNL     1     -12.504  14.448  70.747  1.00  0.00    -0.423 A  
HETATM   32  C   UNL     1     -11.575  15.536  72.749  1.00  0.00    -0.472 A  
HETATM   33  C   UNL     1     -13.950  15.254  72.564  1.00  0.00    -0.609 A  
HETATM   34  C   UNL     1     -13.764  14.540  71.373  1.00  0.00    -0.448 A  
HETATM   35  C   UNL     1     -11.407  14.925  71.498  1.00  0.00    -0.232 A  
HETATM   36  C   UNL     1     -12.853  15.758  73.250  1.00  0.00    -0.655 A  
ENDBRANCH  22  31
ENDBRANCH   4  19
ENDBRANCH   2   4
TORSDOF 12
ENDMDL
MODEL       28
REMARK 921   NORMALIZED FREE ENERGY PREDICTED BY IDOCK:   -6.44 KCAL/MOL
REMARK 922        TOTAL FREE ENERGY PREDICTED BY IDOCK:  -12.27 KCAL/MOL
REMARK 923 INTER-LIGAND FREE ENERGY PREDICTED BY IDOCK:  -11.03 KCAL/MOL
REMARK 924 INTRA-LIGAND FREE ENERGY PREDICTED BY IDOCK:   -1.24 KCAL/MOL
REMARK 927      BINDING AFFINITY PREDICTED BY RF-SCORE:    0.00 PKD
ROOT
HETATM    1  C   UNL     1      -9.480  10.026  64.874  1.00  0.00    -0.355 C  
HETATM    2  C   UNL     1     -10.188  11.381  64.936  1.00  0.00    -0.278 C  
HETATM    3  C   UNL     1     -11.331  11.412  63.919  1.00  0.00    -0.302 C  
ENDROOT
BRANCH   2   4
HETATM    4  N   UNL     1     -10.654  11.759  66.293  1.00  0.00    -0.243 NA 
BRANCH   4   5
HETATM    5  C   UNL     1     -11.278  10.785  67.205  1.00  0.00    -0.147 C  
BRANCH   5   6
HETATM    6  C   UNL     1     -10.350  10.368  68.353  1.00  0.00    -0.198 C  
BRANCH   6   7
HETATM    7  C   UNL     1     -10.793  10.886  69.734  1.00  0.00    -0.247 C  
BRANCH   7   8
HETATM    8  C   UNL     1     -12.306  10.942  69.948  1.00  0.00    -0.285 C  
BRANCH   8   9
HETATM    9  O   UNL     1     -12.596  10.721  71.327  1.00  0.00    -0.368 OA 
BRANCH   9  10
HETATM   10  C   UNL     1     -13.242   9.467  71.539  1.00  0.00    -0.390 C  
BRANCH  10  11
HETATM   11  C   UNL     1     -12.229   8.345  71.737  1.00  0.00    -0.330 C  
HETATM   12  O   UNL     1     -11.651   8.176  72.802  1.00  0.00    -0.411 OA 
HETATM   13  N   UNL     1     -12.071   7.496  70.630  1.00  0.00    -0.513 N  
HETATM   14  H   UNL     1     -12.671   7.626  69.816  1.00  0.00     0.000 HD 
BRANCH  13  15
HETATM   15  S   UNL     1     -10.931   6.287  70.611  1.00  0.00    -0.330 S  
HETATM   16  O   UNL     1     -10.952   5.589  71.869  1.00  0.00    -0.244 OA 
HETATM   17  C   UNL     1      -9.456   7.257  70.592  1.00  0.00    -0.164 C  
HETATM   18  O   UNL     1     -11.010   5.613  69.339  1.00  0.00    -0.320 OA 
ENDBRANCH  13  15
ENDBRANCH  10  11
ENDBRANCH   9  10
ENDBRANCH   8   9
ENDBRANCH   7   8
ENDBRANCH   6   7
ENDBRANCH   5   6
ENDBRANCH   4   5
BRANCH   4  19
HETATM   19  C   UNL     1     -10.538  13.113  66.626  1.00  0.00    -0.279 A  
HETATM   20  N   UNL     1      -9.737  15.371  66.141  1.00  0.00    -0.293 NA 
HETATM   21  N   UNL     1     -11.079  13.564  67.781  1.00  0.00    -0.261 NA 
HETATM   22  C   UNL     1     -10.271  15.800  67.327  1.00  0.00    -0.268 A  
HETATM   23  C   UNL     1     -10.974  14.888  68.142  1.00  0.00    -0.272 A  
HETATM   24  C   UNL     1      -9.896  14.053  65.830  1.00  0.00    -0.256 A  
BRANCH  23  25
HETATM   25  C   UNL     1     -11.605  15.195  69.456  1.00  0.00    -0.340 A  
HETATM   26  C   UNL     1     -12.745  14.489  69.888  1.00  0.00    -0.118 A  
HETATM   27  C   UNL     1     -11.500  16.192  71.691  1.00  0.00    -0.396 A  
HETATM   28  C   UNL     1     -11.079  16.136  70.360  1.00  0.00    -0.362 A  
HETATM   29  C   UNL     1     -12.575  15.423  72.110  1.00  0.00    -0.449 A  
HETATM   30  C   UNL     1     -13.236  14.613  71.193  1.00  0.00    -0.431 A  
ENDBRANCH  23  25
BRANCH  22  31
HETATM   31  C   UNL     1      -9.981  17.239  67.637  1.00  0.00    -0.297 A  
HETATM   32  C   UNL     1     -10.661  19.604  67.602  1.00  0.00    -0.556 A  
HETATM   33  C   UNL     1      -8.568  19.001  68.606  1.00  0.00    -0.389 A  
HETATM   34  C   UNL     1      -8.764  17.675  68.200  1.00  0.00    -0.265 A  
HETATM   35  C   UNL     1     -10.904  18.256  67.304  1.00  0.00    -0.269 A  
HETATM   36  C   UNL     1      -9.521  19.966  68.311  1.00  0.00    -0.403 A  
ENDBRANCH  22  31
ENDBRANCH   4  19
ENDBRANCH   2   4
TORSDOF 12
ENDMDL
MODEL       29
REMARK 921   NORMALIZED FREE ENERGY PREDICTED BY IDOCK:   -6.41 KCAL/MOL
REMARK 922        TOTAL FREE ENERGY PREDICTED BY IDOCK:  -12.23 KCAL/MOL
REMARK 923 INTER-LIGAND FREE ENERGY PREDICTED BY IDOCK:  -10.22 KCAL/MOL
REMARK 924 INTRA-LIGAND FREE ENERGY PREDICTED BY IDOCK:   -2.01 KCAL/MOL
REMARK 927      BINDING AFFINITY PREDICTED BY RF-SCORE:    0.00 PKD
ROOT
HETATM    1  C   UNL     1      -6.422   8.027  69.358  1.00  0.00    -0.035 C  
HETATM    2  C   UNL     1      -7.025   8.870  68.233  1.00  0.00    -0.076 C  
HETATM    3  C   UNL     1      -7.143   8.025  66.963  1.00  0.00    -0.082 C  
ENDROOT
BRANCH   2   4
HETATM    4  N   UNL     1      -8.315   9.513  68.583  1.00  0.00    -0.115 NA 
BRANCH   4   5
HETATM    5  C   UNL     1      -9.394   8.780  69.268  1.00  0.00    -0.149 C  
BRANCH   5   6
HETATM    6  C   UNL     1      -9.661   9.302  70.685  1.00  0.00    -0.334 C  
BRANCH   6   7
HETATM    7  C   UNL     1     -11.129   9.685  70.945  1.00  0.00    -0.422 C  
BRANCH   7   8
HETATM    8  C   UNL     1     -11.737  10.644  69.921  1.00  0.00    -0.317 C  
BRANCH   8   9
HETATM    9  O   UNL     1     -13.023  11.063  70.372  1.00  0.00    -0.201 OA 
BRANCH   9  10
HETATM   10  C   UNL     1     -13.036  11.317  71.775  1.00  0.00    -0.422 C  
BRANCH  10  11
HETATM   11  C   UNL     1     -13.211  12.802  72.072  1.00  0.00    -0.436 C  
HETATM   12  O   UNL     1     -14.122  13.218  72.775  1.00  0.00    -0.691 OA 
HETATM   13  N   UNL     1     -12.214  13.629  71.532  1.00  0.00    -0.282 N  
HETATM   14  H   UNL     1     -11.420  13.203  71.056  1.00  0.00     0.000 HD 
BRANCH  13  15
HETATM   15  S   UNL     1     -12.292  15.285  71.649  1.00  0.00    -0.405 S  
HETATM   16  O   UNL     1     -13.513  15.750  71.045  1.00  0.00    -0.581 OA 
HETATM   17  C   UNL     1     -10.982  15.731  70.554  1.00  0.00    -0.343 C  
HETATM   18  O   UNL     1     -11.881  15.664  72.977  1.00  0.00    -0.445 OA 
ENDBRANCH  13  15
ENDBRANCH  10  11
ENDBRANCH   9  10
ENDBRANCH   8   9
ENDBRANCH   7   8
ENDBRANCH   6   7
ENDBRANCH   5   6
ENDBRANCH   4   5
BRANCH   4  19
HETATM   19  C   UNL     1      -8.478  10.835  68.155  1.00  0.00    -0.125 A  
HETATM   20  N   UNL     1      -7.914  13.210  68.293  1.00  0.00    -0.142 NA 
HETATM   21  N   UNL     1      -9.376  11.114  67.182  1.00  0.00    -0.164 NA 
HETATM   22  C   UNL     1      -8.848  13.473  67.326  1.00  0.00    -0.224 A  
HETATM   23  C   UNL     1      -9.566  12.406  66.745  1.00  0.00    -0.224 A  
HETATM   24  C   UNL     1      -7.757  11.907  68.665  1.00  0.00    -0.113 A  
BRANCH  23  25
HETATM   25  C   UNL     1     -10.613  12.526  65.691  1.00  0.00    -0.298 A  
HETATM   26  C   UNL     1     -10.296  12.309  64.337  1.00  0.00    -0.358 A  
HETATM   27  C   UNL     1     -12.969  12.599  65.025  1.00  0.00    -0.028 A  
HETATM   28  C   UNL     1     -11.964  12.788  65.979  1.00  0.00    -0.491 A  
HETATM   29  C   UNL     1     -12.630  12.304  63.713  1.00  0.00    -0.577 A  
HETATM   30  C   UNL     1     -11.289  12.217  63.355  1.00  0.00    -0.495 A  
ENDBRANCH  23  25
BRANCH  22  31
HETATM   31  C   UNL     1      -9.022  14.934  67.033  1.00  0.00    -0.256 A  
HETATM   32  C   UNL     1     -10.488  16.891  66.758  1.00  0.00    -0.260 A  
HETATM   33  C   UNL     1      -8.114  17.169  66.561  1.00  0.00    -0.318 A  
HETATM   34  C   UNL     1      -7.949  15.784  66.696  1.00  0.00    -0.233 A  
HETATM   35  C   UNL     1     -10.306  15.524  67.010  1.00  0.00    -0.279 A  
HETATM   36  C   UNL     1      -9.387  17.723  66.598  1.00  0.00    -0.296 A  
ENDBRANCH  22  31
ENDBRANCH   4  19
ENDBRANCH   2   4
TORSDOF 12
ENDMDL
MODEL       30
REMARK 921   NORMALIZED FREE ENERGY PREDICTED BY IDOCK:   -6.41 KCAL/MOL
REMARK 922        TOTAL FREE ENERGY PREDICTED BY IDOCK:  -12.23 KCAL/MOL
REMARK 923 INTER-LIGAND FREE ENERGY PREDICTED BY IDOCK:  -10.54 KCAL/MOL
REMARK 924 INTRA-LIGAND FREE ENERGY PREDICTED BY IDOCK:   -1.69 KCAL/MOL
REMARK 927      BINDING AFFINITY PREDICTED BY RF-SCORE:    0.00 PKD
ROOT
HETATM    1  C   UNL     1      -7.767   6.810  69.949  1.00  0.00    -0.109 C  
HETATM    2  C   UNL     1      -8.942   7.532  69.286  1.00  0.00    -0.136 C  
HETATM    3  C   UNL     1     -10.153   6.599  69.230  1.00  0.00    -0.187 C  
ENDROOT
BRANCH   2   4
HETATM    4  N   UNL     1      -9.283   8.834  69.908  1.00  0.00    -0.153 NA 
BRANCH   4   5
HETATM    5  C   UNL     1      -9.348   9.008  71.370  1.00  0.00    -0.240 C  
BRANCH   5   6
HETATM    6  C   UNL     1     -10.599   8.370  71.989  1.00  0.00    -0.387 C  
BRANCH   6   7
HETATM    7  C   UNL     1     -11.923   8.913  71.422  1.00  0.00    -0.374 C  
BRANCH   7   8
HETATM    8  C   UNL     1     -13.040   9.091  72.450  1.00  0.00    -0.423 C  
BRANCH   8   9
HETATM    9  O   UNL     1     -13.644  10.372  72.274  1.00  0.00    -0.299 OA 
BRANCH   9  10
HETATM   10  C   UNL     1     -12.871  11.210  71.418  1.00  0.00    -0.439 C  
BRANCH  10  11
HETATM   11  C   UNL     1     -13.058  12.683  71.761  1.00  0.00    -0.360 C  
HETATM   12  O   UNL     1     -13.816  13.048  72.650  1.00  0.00    -0.653 OA 
HETATM   13  N   UNL     1     -12.251  13.564  71.025  1.00  0.00    -0.440 N  
HETATM   14  H   UNL     1     -11.558  13.182  70.382  1.00  0.00     0.000 HD 
BRANCH  13  15
HETATM   15  S   UNL     1     -12.395  15.213  71.173  1.00  0.00    -0.381 S  
HETATM   16  O   UNL     1     -13.760  15.598  70.929  1.00  0.00    -0.549 OA 
HETATM   17  C   UNL     1     -11.462  15.729  69.766  1.00  0.00    -0.349 C  
HETATM   18  O   UNL     1     -11.660  15.628  72.342  1.00  0.00    -0.428 OA 
ENDBRANCH  13  15
ENDBRANCH  10  11
ENDBRANCH   9  10
ENDBRANCH   8   9
ENDBRANCH   7   8
ENDBRANCH   6   7
ENDBRANCH   5   6
ENDBRANCH   4   5
BRANCH   4  19
HETATM   19  C   UNL     1      -9.616   9.867  69.026  1.00  0.00    -0.186 A  
HETATM   20  N   UNL     1     -10.749  11.978  68.540  1.00  0.00    -0.226 NA 
HETATM   21  N   UNL     1      -9.177   9.819  67.747  1.00  0.00    -0.131 NA 
HETATM   22  C   UNL     1     -10.315  11.895  67.243  1.00  0.00    -0.205 A  
HETATM   23  C   UNL     1      -9.496  10.816  66.853  1.00  0.00    -0.168 A  
HETATM   24  C   UNL     1     -10.380  10.972  69.382  1.00  0.00    -0.104 A  
BRANCH  23  25
HETATM   25  C   UNL     1      -8.948  10.581  65.486  1.00  0.00    -0.203 A  
HETATM   26  C   UNL     1      -7.570  10.365  65.292  1.00  0.00    -0.118 A  
HETATM   27  C   UNL     1      -9.273   9.978  63.134  1.00  0.00    -0.313 A  
HETATM   28  C   UNL     1      -9.758  10.492  64.340  1.00  0.00    -0.388 A  
HETATM   29  C   UNL     1      -7.922   9.696  62.997  1.00  0.00    -0.134 A  
HETATM   30  C   UNL     1      -7.059   9.945  64.059  1.00  0.00    -0.127 A  
ENDBRANCH  23  25
BRANCH  22  31
HETATM   31  C   UNL     1     -10.833  12.992  66.360  1.00  0.00    -0.294 A  
HETATM   32  C   UNL     1     -10.506  15.159  65.241  1.00  0.00    -0.434 A  
HETATM   33  C   UNL     1     -12.552  13.958  64.892  1.00  0.00    -0.380 A  
HETATM   34  C   UNL     1     -12.136  12.996  65.822  1.00  0.00    -0.510 A  
HETATM   35  C   UNL     1     -10.047  14.133  66.079  1.00  0.00    -0.330 A  
HETATM   36  C   UNL     1     -11.731  15.039  64.597  1.00  0.00    -0.383 A  
ENDBRANCH  22  31
ENDBRANCH   4  19
ENDBRANCH   2   4
TORSDOF 12
ENDMDL
MODEL       31
REMARK 921   NORMALIZED FREE ENERGY PREDICTED BY IDOCK:   -6.41 KCAL/MOL
REMARK 922        TOTAL FREE ENERGY PREDICTED BY IDOCK:  -12.22 KCAL/MOL
REMARK 923 INTER-LIGAND FREE ENERGY PREDICTED BY IDOCK:  -10.51 KCAL/MOL
REMARK 924 INTRA-LIGAND FREE ENERGY PREDICTED BY IDOCK:   -1.71 KCAL/MOL
REMARK 927      BINDING AFFINITY PREDICTED BY RF-SCORE:    0.00 PKD
ROOT
HETATM    1  C   UNL     1     -10.301  11.136  64.442  1.00  0.00    -0.407 C  
HETATM    2  C   UNL     1     -10.821  12.566  64.281  1.00  0.00    -0.364 C  
HETATM    3  C   UNL     1     -12.033  12.570  63.346  1.00  0.00    -0.602 C  
ENDROOT
BRANCH   2   4
HETATM    4  N   UNL     1     -11.118  13.251  65.562  1.00  0.00    -0.281 NA 
BRANCH   4   5
HETATM    5  C   UNL     1     -12.160  12.768  66.484  1.00  0.00    -0.268 C  
BRANCH   5   6
HETATM    6  C   UNL     1     -11.582  12.131  67.755  1.00  0.00    -0.410 C  
BRANCH   6   7
HETATM    7  C   UNL     1     -11.688  13.023  69.005  1.00  0.00    -0.376 C  
BRANCH   7   8
HETATM    8  C   UNL     1     -12.216  12.321  70.256  1.00  0.00    -0.262 C  
BRANCH   8   9
HETATM    9  O   UNL     1     -12.483  10.953  69.953  1.00  0.00    -0.319 OA 
BRANCH   9  10
HETATM   10  C   UNL     1     -12.457  10.136  71.121  1.00  0.00    -0.387 C  
BRANCH  10  11
HETATM   11  C   UNL     1     -11.106   9.452  71.294  1.00  0.00    -0.376 C  
HETATM   12  O   UNL     1     -10.150   9.719  70.578  1.00  0.00    -0.270 OA 
HETATM   13  N   UNL     1     -11.036   8.552  72.369  1.00  0.00    -0.361 N  
HETATM   14  H   UNL     1     -11.836   8.466  72.995  1.00  0.00     0.000 HD 
BRANCH  13  15
HETATM   15  S   UNL     1      -9.686   7.624  72.648  1.00  0.00    -0.219 S  
HETATM   16  O   UNL     1      -9.481   6.732  71.538  1.00  0.00    -0.157 OA 
HETATM   17  C   UNL     1     -10.266   6.638  73.992  1.00  0.00    -0.369 C  
HETATM   18  O   UNL     1      -8.650   8.480  73.168  1.00  0.00    -0.362 OA 
ENDBRANCH  13  15
ENDBRANCH  10  11
ENDBRANCH   9  10
ENDBRANCH   8   9
ENDBRANCH   7   8
ENDBRANCH   6   7
ENDBRANCH   5   6
ENDBRANCH   4   5
BRANCH   4  19
HETATM   19  C   UNL     1     -10.403  14.429  65.808  1.00  0.00    -0.326 A  
HETATM   20  N   UNL     1     -10.044  16.821  65.458  1.00  0.00    -0.596 NA 
HETATM   21  N   UNL     1      -9.324  14.395  66.624  1.00  0.00    -0.270 NA 
HETATM   22  C   UNL     1      -8.940  16.759  66.267  1.00  0.00    -0.290 A  
HETATM   23  C   UNL     1      -8.595  15.536  66.878  1.00  0.00    -0.256 A  
HETATM   24  C   UNL     1     -10.737  15.663  65.265  1.00  0.00    -0.425 A  
BRANCH  23  25
HETATM   25  C   UNL     1      -7.429  15.303  67.776  1.00  0.00    -0.178 A  
HETATM   26  C   UNL     1      -7.300  16.013  68.986  1.00  0.00    -0.191 A  
HETATM   27  C   UNL     1      -5.536  13.926  68.499  1.00  0.00    -0.094 A  
HETATM   28  C   UNL     1      -6.441  14.336  67.516  1.00  0.00    -0.064 A  
HETATM   29  C   UNL     1      -5.487  14.591  69.715  1.00  0.00    -0.095 A  
HETATM   30  C   UNL     1      -6.331  15.674  69.937  1.00  0.00    -0.150 A  
ENDBRANCH  23  25
BRANCH  22  31
HETATM   31  C   UNL     1      -8.184  18.051  66.361  1.00  0.00    -0.285 A  
HETATM   32  C   UNL     1      -8.021  20.370  67.171  1.00  0.00    -0.379 A  
HETATM   33  C   UNL     1      -6.197  19.432  65.927  1.00  0.00    -0.214 A  
HETATM   34  C   UNL     1      -6.950  18.269  65.715  1.00  0.00    -0.284 A  
HETATM   35  C   UNL     1      -8.720  19.159  67.055  1.00  0.00    -0.313 A  
HETATM   36  C   UNL     1      -6.733  20.482  66.661  1.00  0.00    -0.308 A  
ENDBRANCH  22  31
ENDBRANCH   4  19
ENDBRANCH   2   4
TORSDOF 12
ENDMDL
MODEL       32
REMARK 921   NORMALIZED FREE ENERGY PREDICTED BY IDOCK:   -6.39 KCAL/MOL
REMARK 922        TOTAL FREE ENERGY PREDICTED BY IDOCK:  -12.19 KCAL/MOL
REMARK 923 INTER-LIGAND FREE ENERGY PREDICTED BY IDOCK:  -11.14 KCAL/MOL
REMARK 924 INTRA-LIGAND FREE ENERGY PREDICTED BY IDOCK:   -1.05 KCAL/MOL
REMARK 927      BINDING AFFINITY PREDICTED BY RF-SCORE:    0.00 PKD
ROOT
HETATM    1  C   UNL     1     -11.065  13.120  63.897  1.00  0.00    -0.345 C  
HETATM    2  C   UNL     1     -11.574  14.256  64.787  1.00  0.00    -0.401 C  
HETATM    3  C   UNL     1     -13.032  13.994  65.172  1.00  0.00    -0.260 C  
ENDROOT
BRANCH   2   4
HETATM    4  N   UNL     1     -10.732  14.514  65.980  1.00  0.00    -0.297 NA 
BRANCH   4   5
HETATM    5  C   UNL     1      -9.673  15.539  65.984  1.00  0.00    -0.345 C  
BRANCH   5   6
HETATM    6  C   UNL     1     -10.216  16.954  65.747  1.00  0.00    -0.287 C  
BRANCH   6   7
HETATM    7  C   UNL     1     -10.655  17.678  67.033  1.00  0.00    -0.254 C  
BRANCH   7   8
HETATM    8  C   UNL     1     -10.540  19.202  66.987  1.00  0.00    -0.457 C  
BRANCH   8   9
HETATM    9  O   UNL     1      -9.168  19.576  67.099  1.00  0.00    -0.298 OA 
BRANCH   9  10
HETATM   10  C   UNL     1      -8.649  19.305  68.400  1.00  0.00    -0.354 C  
BRANCH  10  11
HETATM   11  C   UNL     1      -7.433  18.388  68.335  1.00  0.00    -0.286 C  
HETATM   12  O   UNL     1      -6.350  18.777  67.919  1.00  0.00    -0.201 OA 
HETATM   13  N   UNL     1      -7.643  17.099  68.848  1.00  0.00    -0.250 N  
HETATM   14  H   UNL     1      -8.537  16.879  69.287  1.00  0.00     0.000 HD 
BRANCH  13  15
HETATM   15  S   UNL     1      -6.474  15.920  68.760  1.00  0.00    -0.122 S  
HETATM   16  O   UNL     1      -7.012  14.676  69.243  1.00  0.00    -0.128 OA 
HETATM   17  C   UNL     1      -5.357  16.504  69.995  1.00  0.00    -0.182 C  
HETATM   18  O   UNL     1      -5.803  16.044  67.491  1.00  0.00    -0.142 OA 
ENDBRANCH  13  15
ENDBRANCH  10  11
ENDBRANCH   9  10
ENDBRANCH   8   9
ENDBRANCH   7   8
ENDBRANCH   6   7
ENDBRANCH   5   6
ENDBRANCH   4   5
BRANCH   4  19
HETATM   19  C   UNL     1     -10.949  13.674  67.077  1.00  0.00    -0.289 A  
HETATM   20  N   UNL     1     -10.895  11.461  68.117  1.00  0.00    -0.200 NA 
HETATM   21  N   UNL     1     -11.456  14.189  68.221  1.00  0.00    -0.286 NA 
HETATM   22  C   UNL     1     -11.432  12.000  69.256  1.00  0.00    -0.301 A  
HETATM   23  C   UNL     1     -11.689  13.385  69.315  1.00  0.00    -0.330 A  
HETATM   24  C   UNL     1     -10.665  12.313  67.077  1.00  0.00    -0.231 A  
BRANCH  23  25
HETATM   25  C   UNL     1     -12.274  14.119  70.473  1.00  0.00    -0.431 A  
HETATM   26  C   UNL     1     -13.651  14.036  70.755  1.00  0.00     0.131 A  
HETATM   27  C   UNL     1     -12.010  15.291  72.608  1.00  0.00    -0.535 A  
HETATM   28  C   UNL     1     -11.499  14.868  71.378  1.00  0.00    -0.317 A  
HETATM   29  C   UNL     1     -13.356  15.122  72.893  1.00  0.00    -0.603 A  
HETATM   30  C   UNL     1     -14.190  14.546  71.941  1.00  0.00    -0.622 A  
ENDBRANCH  23  25
BRANCH  22  31
HETATM   31  C   UNL     1     -11.734  10.986  70.321  1.00  0.00    -0.445 A  
HETATM   32  C   UNL     1     -13.271  10.058  72.003  1.00  0.00    -0.545 A  
HETATM   33  C   UNL     1     -11.155   8.992  71.636  1.00  0.00    -0.433 A  
HETATM   34  C   UNL     1     -10.806  10.011  70.740  1.00  0.00    -0.330 A  
HETATM   35  C   UNL     1     -12.962  11.008  71.019  1.00  0.00    -0.369 A  
HETATM   36  C   UNL     1     -12.393   9.013  72.264  1.00  0.00    -0.402 A  
ENDBRANCH  22  31
ENDBRANCH   4  19
ENDBRANCH   2   4
TORSDOF 12
ENDMDL
MODEL       33
REMARK 921   NORMALIZED FREE ENERGY PREDICTED BY IDOCK:   -6.36 KCAL/MOL
REMARK 922        TOTAL FREE ENERGY PREDICTED BY IDOCK:  -12.15 KCAL/MOL
REMARK 923 INTER-LIGAND FREE ENERGY PREDICTED BY IDOCK:  -10.74 KCAL/MOL
REMARK 924 INTRA-LIGAND FREE ENERGY PREDICTED BY IDOCK:   -1.40 KCAL/MOL
REMARK 927      BINDING AFFINITY PREDICTED BY RF-SCORE:    0.00 PKD
ROOT
HETATM    1  C   UNL     1     -10.891   7.811  72.369  1.00  0.00    -0.359 C  
HETATM    2  C   UNL     1     -10.554   9.102  71.619  1.00  0.00    -0.357 C  
HETATM    3  C   UNL     1      -9.169   8.980  70.982  1.00  0.00    -0.331 C  
ENDROOT
BRANCH   2   4
HETATM    4  N   UNL     1     -11.578   9.510  70.627  1.00  0.00    -0.277 NA 
BRANCH   4   5
HETATM    5  C   UNL     1     -12.986   9.730  71.001  1.00  0.00    -0.290 C  
BRANCH   5   6
HETATM    6  C   UNL     1     -13.177  10.954  71.905  1.00  0.00    -0.508 C  
BRANCH   6   7
HETATM    7  C   UNL     1     -12.745  12.283  71.257  1.00  0.00    -0.351 C  
BRANCH   7   8
HETATM    8  C   UNL     1     -13.248  13.540  71.965  1.00  0.00    -0.439 C  
BRANCH   8   9
HETATM    9  O   UNL     1     -12.211  14.519  71.984  1.00  0.00    -0.322 OA 
BRANCH   9  10
HETATM   10  C   UNL     1     -12.552  15.668  71.211  1.00  0.00    -0.463 C  
BRANCH  10  11
HETATM   11  C   UNL     1     -11.651  15.805  69.989  1.00  0.00    -0.357 C  
HETATM   12  O   UNL     1     -11.456  14.873  69.221  1.00  0.00    -0.269 OA 
HETATM   13  N   UNL     1     -11.126  17.091  69.788  1.00  0.00    -0.280 N  
HETATM   14  H   UNL     1     -11.425  17.850  70.401  1.00  0.00     0.000 HD 
BRANCH  13  15
HETATM   15  S   UNL     1     -10.033  17.412  68.579  1.00  0.00    -0.349 S  
HETATM   16  O   UNL     1      -8.854  16.610  68.775  1.00  0.00    -0.249 OA 
HETATM   17  C   UNL     1      -9.594  19.070  68.995  1.00  0.00    -0.308 C  
HETATM   18  O   UNL     1     -10.746  17.465  67.327  1.00  0.00    -0.315 OA 
ENDBRANCH  13  15
ENDBRANCH  10  11
ENDBRANCH   9  10
ENDBRANCH   8   9
ENDBRANCH   7   8
ENDBRANCH   6   7
ENDBRANCH   5   6
ENDBRANCH   4   5
BRANCH   4  19
HETATM   19  C   UNL     1     -11.145   9.598  69.299  1.00  0.00    -0.118 A  
HETATM   20  N   UNL     1     -10.218   8.574  67.282  1.00  0.00    -0.250 NA 
HETATM   21  N   UNL     1     -11.178  10.793  68.666  1.00  0.00    -0.254 NA 
HETATM   22  C   UNL     1     -10.237   9.798  66.669  1.00  0.00    -0.226 A  
HETATM   23  C   UNL     1     -10.750  10.914  67.362  1.00  0.00    -0.257 A  
HETATM   24  C   UNL     1     -10.678   8.515  68.565  1.00  0.00    -0.031 A  
BRANCH  23  25
HETATM   25  C   UNL     1     -10.834  12.308  66.840  1.00  0.00    -0.290 A  
HETATM   26  C   UNL     1      -9.682  13.114  66.756  1.00  0.00    -0.246 A  
HETATM   27  C   UNL     1     -12.022  14.048  65.591  1.00  0.00    -0.408 A  
HETATM   28  C   UNL     1     -12.024  12.871  66.345  1.00  0.00    -0.462 A  
HETATM   29  C   UNL     1     -10.852  14.782  65.456  1.00  0.00    -0.359 A  
HETATM   30  C   UNL     1      -9.694  14.344  66.089  1.00  0.00    -0.335 A  
ENDBRANCH  23  25
BRANCH  22  31
HETATM   31  C   UNL     1      -9.638   9.796  65.294  1.00  0.00    -0.368 A  
HETATM   32  C   UNL     1      -9.597  10.652  62.987  1.00  0.00    -0.379 A  
HETATM   33  C   UNL     1      -7.955   9.042  63.668  1.00  0.00    -0.150 A  
HETATM   34  C   UNL     1      -8.590   8.933  64.913  1.00  0.00    -0.198 A  
HETATM   35  C   UNL     1     -10.155  10.625  64.273  1.00  0.00    -0.411 A  
HETATM   36  C   UNL     1      -8.457   9.908  62.706  1.00  0.00    -0.175 A  
ENDBRANCH  22  31
ENDBRANCH   4  19
ENDBRANCH   2   4
TORSDOF 12
ENDMDL
MODEL       34
REMARK 921   NORMALIZED FREE ENERGY PREDICTED BY IDOCK:   -6.34 KCAL/MOL
REMARK 922        TOTAL FREE ENERGY PREDICTED BY IDOCK:  -12.11 KCAL/MOL
REMARK 923 INTER-LIGAND FREE ENERGY PREDICTED BY IDOCK:  -10.23 KCAL/MOL
REMARK 924 INTRA-LIGAND FREE ENERGY PREDICTED BY IDOCK:   -1.88 KCAL/MOL
REMARK 927      BINDING AFFINITY PREDICTED BY RF-SCORE:    0.00 PKD
ROOT
HETATM    1  C   UNL     1     -12.989  14.119  65.337  1.00  0.00    -0.300 C  
HETATM    2  C   UNL     1     -12.395  12.710  65.275  1.00  0.00    -0.466 C  
HETATM    3  C   UNL     1     -12.294  12.259  63.816  1.00  0.00    -0.637 C  
ENDROOT
BRANCH   2   4
HETATM    4  N   UNL     1     -11.099  12.568  65.982  1.00  0.00    -0.282 NA 
BRANCH   4   5
HETATM    5  C   UNL     1      -9.869  13.220  65.498  1.00  0.00    -0.136 C  
BRANCH   5   6
HETATM    6  C   UNL     1      -9.354  14.302  66.456  1.00  0.00    -0.292 C  
BRANCH   6   7
HETATM    7  C   UNL     1      -8.335  13.789  67.490  1.00  0.00    -0.197 C  
BRANCH   7   8
HETATM    8  C   UNL     1      -7.386  14.852  68.044  1.00  0.00    -0.130 C  
BRANCH   8   9
HETATM    9  O   UNL     1      -6.646  15.430  66.970  1.00  0.00    -0.268 OA 
BRANCH   9  10
HETATM   10  C   UNL     1      -6.503  16.840  67.123  1.00  0.00    -0.190 C  
BRANCH  10  11
HETATM   11  C   UNL     1      -7.800  17.571  66.795  1.00  0.00    -0.230 C  
HETATM   12  O   UNL     1      -8.343  17.466  65.703  1.00  0.00    -0.487 OA 
HETATM   13  N   UNL     1      -8.343  18.310  67.858  1.00  0.00    -0.246 N  
HETATM   14  H   UNL     1      -7.900  18.258  68.774  1.00  0.00     0.000 HD 
BRANCH  13  15
HETATM   15  S   UNL     1      -9.688  19.266  67.662  1.00  0.00    -0.346 S  
HETATM   16  O   UNL     1      -9.350  20.407  66.853  1.00  0.00    -0.368 OA 
HETATM   17  C   UNL     1      -9.886  19.856  69.314  1.00  0.00    -0.157 C  
HETATM   18  O   UNL     1     -10.813  18.410  67.382  1.00  0.00    -0.403 OA 
ENDBRANCH  13  15
ENDBRANCH  10  11
ENDBRANCH   9  10
ENDBRANCH   8   9
ENDBRANCH   7   8
ENDBRANCH   6   7
ENDBRANCH   5   6
ENDBRANCH   4   5
BRANCH   4  19
HETATM   19  C   UNL     1     -11.095  11.715  67.090  1.00  0.00    -0.299 A  
HETATM   20  N   UNL     1     -11.464  11.305  69.472  1.00  0.00    -0.279 NA 
HETATM   21  N   UNL     1     -10.699  10.430  66.940  1.00  0.00    -0.236 NA 
HETATM   22  C   UNL     1     -11.035  10.015  69.302  1.00  0.00    -0.228 A  
HETATM   23  C   UNL     1     -10.675   9.567  68.013  1.00  0.00    -0.212 A  
HETATM   24  C   UNL     1     -11.487  12.102  68.365  1.00  0.00    -0.304 A  
BRANCH  23  25
HETATM   25  C   UNL     1     -10.186   8.203  67.665  1.00  0.00    -0.296 A  
HETATM   26  C   UNL     1      -8.838   7.851  67.865  1.00  0.00    -0.123 A  
HETATM   27  C   UNL     1     -10.622   5.847  67.159  1.00  0.00    -0.373 A  
HETATM   28  C   UNL     1     -11.031   7.183  67.191  1.00  0.00    -0.342 A  
HETATM   29  C   UNL     1      -9.305   5.519  67.441  1.00  0.00    -0.115 A  
HETATM   30  C   UNL     1      -8.397   6.529  67.737  1.00  0.00    -0.119 A  
ENDBRANCH  23  25
BRANCH  22  31
HETATM   31  C   UNL     1     -10.957   9.230  70.577  1.00  0.00    -0.318 A  
HETATM   32  C   UNL     1      -9.629   8.303  72.430  1.00  0.00    -0.364 A  
HETATM   33  C   UNL     1     -12.007   7.989  72.422  1.00  0.00    -0.405 A  
HETATM   34  C   UNL     1     -12.075   8.601  71.163  1.00  0.00    -0.297 A  
HETATM   35  C   UNL     1      -9.721   9.017  71.227  1.00  0.00    -0.371 A  
HETATM   36  C   UNL     1     -10.782   7.846  73.059  1.00  0.00    -0.408 A  
ENDBRANCH  22  31
ENDBRANCH   4  19
ENDBRANCH   2   4
TORSDOF 12
ENDMDL
MODEL       35
REMARK 921   NORMALIZED FREE ENERGY PREDICTED BY IDOCK:   -6.33 KCAL/MOL
REMARK 922        TOTAL FREE ENERGY PREDICTED BY IDOCK:  -12.09 KCAL/MOL
REMARK 923 INTER-LIGAND FREE ENERGY PREDICTED BY IDOCK:   -9.81 KCAL/MOL
REMARK 924 INTRA-LIGAND FREE ENERGY PREDICTED BY IDOCK:   -2.28 KCAL/MOL
REMARK 927      BINDING AFFINITY PREDICTED BY RF-SCORE:    0.00 PKD
ROOT
HETATM    1  C   UNL     1      -6.976  16.912  66.533  1.00  0.00    -0.262 C  
HETATM    2  C   UNL     1      -7.116  16.367  67.956  1.00  0.00    -0.136 C  
HETATM    3  C   UNL     1      -6.693  17.440  68.961  1.00  0.00    -0.243 C  
ENDROOT
BRANCH   2   4
HETATM    4  N   UNL     1      -8.461  15.825  68.268  1.00  0.00    -0.161 NA 
BRANCH   4   5
HETATM    5  C   UNL     1      -9.491  16.632  68.944  1.00  0.00    -0.251 C  
BRANCH   5   6
HETATM    6  C   UNL     1     -10.354  15.807  69.908  1.00  0.00    -0.313 C  
BRANCH   6   7
HETATM    7  C   UNL     1     -11.761  15.490  69.371  1.00  0.00    -0.382 C  
BRANCH   7   8
HETATM    8  C   UNL     1     -12.382  14.201  69.911  1.00  0.00    -0.327 C  
BRANCH   8   9
HETATM    9  O   UNL     1     -11.430  13.144  69.821  1.00  0.00    -0.236 OA 
BRANCH   9  10
HETATM   10  C   UNL     1     -12.050  11.895  69.521  1.00  0.00    -0.226 C  
BRANCH  10  11
HETATM   11  C   UNL     1     -12.374  11.114  70.789  1.00  0.00    -0.406 C  
HETATM   12  O   UNL     1     -12.719  11.672  71.822  1.00  0.00    -0.316 OA 
HETATM   13  N   UNL     1     -12.306   9.719  70.652  1.00  0.00    -0.457 N  
HETATM   14  H   UNL     1     -12.126   9.319  69.731  1.00  0.00     0.000 HD 
BRANCH  13  15
HETATM   15  S   UNL     1     -12.511   8.700  71.949  1.00  0.00    -0.382 S  
HETATM   16  O   UNL     1     -11.324   8.717  72.762  1.00  0.00    -0.198 OA 
HETATM   17  C   UNL     1     -12.535   7.145  71.116  1.00  0.00    -0.359 C  
HETATM   18  O   UNL     1     -13.832   8.913  72.486  1.00  0.00    -0.456 OA 
ENDBRANCH  13  15
ENDBRANCH  10  11
ENDBRANCH   9  10
ENDBRANCH   8   9
ENDBRANCH   7   8
ENDBRANCH   6   7
ENDBRANCH   5   6
ENDBRANCH   4   5
BRANCH   4  19
HETATM   19  C   UNL     1      -8.667  14.478  67.953  1.00  0.00    -0.165 A  
HETATM   20  N   UNL     1      -8.224  12.104  68.332  1.00  0.00    -0.157 NA 
HETATM   21  N   UNL     1      -9.498  14.151  66.937  1.00  0.00    -0.257 NA 
HETATM   22  C   UNL     1      -9.049  11.797  67.283  1.00  0.00    -0.171 A  
HETATM   23  C   UNL     1      -9.715  12.834  66.597  1.00  0.00    -0.252 A  
HETATM   24  C   UNL     1      -8.070  13.424  68.634  1.00  0.00    -0.040 A  
BRANCH  23  25
HETATM   25  C   UNL     1     -10.636  12.667  65.438  1.00  0.00    -0.307 A  
HETATM   26  C   UNL     1     -10.183  12.086  64.238  1.00  0.00    -0.347 A  
HETATM   27  C   UNL     1     -12.902  12.570  64.512  1.00  0.00    -0.352 A  
HETATM   28  C   UNL     1     -12.000  13.007  65.486  1.00  0.00    -0.470 A  
HETATM   29  C   UNL     1     -12.435  11.926  63.376  1.00  0.00    -0.582 A  
HETATM   30  C   UNL     1     -11.067  11.735  63.211  1.00  0.00    -0.370 A  
ENDBRANCH  23  25
BRANCH  22  31
HETATM   31  C   UNL     1      -9.100  10.333  66.960  1.00  0.00    -0.154 A  
HETATM   32  C   UNL     1     -10.287   8.178  67.021  1.00  0.00    -0.403 A  
HETATM   33  C   UNL     1      -8.155   8.311  65.930  1.00  0.00    -0.105 A  
HETATM   34  C   UNL     1      -8.034   9.644  66.345  1.00  0.00    -0.108 A  
HETATM   35  C   UNL     1     -10.212   9.544  67.331  1.00  0.00    -0.285 A  
HETATM   36  C   UNL     1      -9.287   7.579  66.264  1.00  0.00    -0.176 A  
ENDBRANCH  22  31
ENDBRANCH   4  19
ENDBRANCH   2   4
TORSDOF 12
ENDMDL
MODEL       36
REMARK 921   NORMALIZED FREE ENERGY PREDICTED BY IDOCK:   -6.32 KCAL/MOL
REMARK 922        TOTAL FREE ENERGY PREDICTED BY IDOCK:  -12.07 KCAL/MOL
REMARK 923 INTER-LIGAND FREE ENERGY PREDICTED BY IDOCK:  -10.60 KCAL/MOL
REMARK 924 INTRA-LIGAND FREE ENERGY PREDICTED BY IDOCK:   -1.47 KCAL/MOL
REMARK 927      BINDING AFFINITY PREDICTED BY RF-SCORE:    0.00 PKD
ROOT
HETATM    1  C   UNL     1     -10.985  15.519  64.883  1.00  0.00    -0.452 C  
HETATM    2  C   UNL     1     -10.264  14.399  65.636  1.00  0.00    -0.350 C  
HETATM    3  C   UNL     1      -9.075  14.979  66.405  1.00  0.00    -0.312 C  
ENDROOT
BRANCH   2   4
HETATM    4  N   UNL     1     -11.146  13.596  66.517  1.00  0.00    -0.302 NA 
BRANCH   4   5
HETATM    5  C   UNL     1     -12.263  14.199  67.265  1.00  0.00    -0.279 C  
BRANCH   5   6
HETATM    6  C   UNL     1     -11.928  14.442  68.742  1.00  0.00    -0.331 C  
BRANCH   6   7
HETATM    7  C   UNL     1     -11.818  15.930  69.121  1.00  0.00    -0.340 C  
BRANCH   7   8
HETATM    8  C   UNL     1     -10.430  16.379  69.578  1.00  0.00    -0.301 C  
BRANCH   8   9
HETATM    9  O   UNL     1     -10.218  17.733  69.183  1.00  0.00    -0.346 OA 
BRANCH   9  10
HETATM   10  C   UNL     1     -10.757  17.999  67.889  1.00  0.00    -0.313 C  
BRANCH  10  11
HETATM   11  C   UNL     1      -9.719  18.635  66.973  1.00  0.00    -0.308 C  
HETATM   12  O   UNL     1      -9.853  18.650  65.756  1.00  0.00    -0.475 OA 
HETATM   13  N   UNL     1      -8.648  19.251  67.638  1.00  0.00    -0.290 N  
HETATM   14  H   UNL     1      -8.660  19.303  68.656  1.00  0.00     0.000 HD 
BRANCH  13  15
HETATM   15  S   UNL     1      -7.359  19.897  66.811  1.00  0.00    -0.255 S  
HETATM   16  O   UNL     1      -7.376  19.423  65.452  1.00  0.00    -0.432 OA 
HETATM   17  C   UNL     1      -6.029  19.068  67.621  1.00  0.00    -0.199 C  
HETATM   18  O   UNL     1      -7.258  21.294  67.153  1.00  0.00    -0.475 OA 
ENDBRANCH  13  15
ENDBRANCH  10  11
ENDBRANCH   9  10
ENDBRANCH   8   9
ENDBRANCH   7   8
ENDBRANCH   6   7
ENDBRANCH   5   6
ENDBRANCH   4   5
BRANCH   4  19
HETATM   19  C   UNL     1     -10.806  12.246  66.660  1.00  0.00    -0.258 A  
HETATM   20  N   UNL     1     -10.244  10.072  65.695  1.00  0.00    -0.240 NA 
HETATM   21  N   UNL     1     -10.710  11.711  67.899  1.00  0.00    -0.193 NA 
HETATM   22  C   UNL     1     -10.178   9.545  66.957  1.00  0.00    -0.255 A  
HETATM   23  C   UNL     1     -10.386  10.384  68.072  1.00  0.00    -0.179 A  
HETATM   24  C   UNL     1     -10.545  11.397  65.592  1.00  0.00    -0.258 A  
BRANCH  23  25
HETATM   25  C   UNL     1     -10.353   9.965  69.502  1.00  0.00    -0.248 A  
HETATM   26  C   UNL     1     -11.533   9.942  70.270  1.00  0.00    -0.349 A  
HETATM   27  C   UNL     1      -9.232   8.847  71.371  1.00  0.00    -0.328 A  
HETATM   28  C   UNL     1      -9.186   9.512  70.143  1.00  0.00    -0.281 A  
HETATM   29  C   UNL     1     -10.428   8.767  72.070  1.00  0.00    -0.414 A  
HETATM   30  C   UNL     1     -11.568   9.366  71.546  1.00  0.00    -0.467 A  
ENDBRANCH  23  25
BRANCH  22  31
HETATM   31  C   UNL     1      -9.926   8.066  66.984  1.00  0.00    -0.324 A  
HETATM   32  C   UNL     1      -8.373   6.166  66.804  1.00  0.00    -0.110 A  
HETATM   33  C   UNL     1     -10.680   5.749  67.310  1.00  0.00    -0.345 A  
HETATM   34  C   UNL     1     -10.953   7.114  67.152  1.00  0.00    -0.342 A  
HETATM   35  C   UNL     1      -8.632   7.543  66.764  1.00  0.00    -0.127 A  
HETATM   36  C   UNL     1      -9.386   5.275  67.141  1.00  0.00    -0.124 A  
ENDBRANCH  22  31
ENDBRANCH   4  19
ENDBRANCH   2   4
TORSDOF 12
ENDMDL
MODEL       37
REMARK 921   NORMALIZED FREE ENERGY PREDICTED BY IDOCK:   -6.32 KCAL/MOL
REMARK 922        TOTAL FREE ENERGY PREDICTED BY IDOCK:  -12.07 KCAL/MOL
REMARK 923 INTER-LIGAND FREE ENERGY PREDICTED BY IDOCK:  -10.08 KCAL/MOL
REMARK 924 INTRA-LIGAND FREE ENERGY PREDICTED BY IDOCK:   -1.99 KCAL/MOL
REMARK 927      BINDING AFFINITY PREDICTED BY RF-SCORE:    0.00 PKD
ROOT
HETATM    1  C   UNL     1     -12.589  12.673  64.646  1.00  0.00    -0.517 C  
HETATM    2  C   UNL     1     -11.380  11.754  64.830  1.00  0.00    -0.249 C  
HETATM    3  C   UNL     1     -10.546  11.738  63.547  1.00  0.00    -0.499 C  
ENDROOT
BRANCH   2   4
HETATM    4  N   UNL     1     -10.551  12.074  66.017  1.00  0.00    -0.258 NA 
BRANCH   4   5
HETATM    5  C   UNL     1      -9.874  11.028  66.804  1.00  0.00    -0.197 C  
BRANCH   5   6
HETATM    6  C   UNL     1      -8.389  11.331  67.043  1.00  0.00    -0.153 C  
BRANCH   6   7
HETATM    7  C   UNL     1      -8.054  11.705  68.499  1.00  0.00    -0.145 C  
BRANCH   7   8
HETATM    8  C   UNL     1      -7.148  10.713  69.228  1.00  0.00    -0.107 C  
BRANCH   8   9
HETATM    9  O   UNL     1      -7.803   9.448  69.311  1.00  0.00    -0.078 OA 
BRANCH   9  10
HETATM   10  C   UNL     1      -8.597   9.339  70.491  1.00  0.00    -0.233 C  
BRANCH  10  11
HETATM   11  C   UNL     1     -10.083   9.273  70.158  1.00  0.00    -0.213 C  
HETATM   12  O   UNL     1     -10.522   8.512  69.307  1.00  0.00    -0.220 OA 
HETATM   13  N   UNL     1     -10.899  10.100  70.947  1.00  0.00    -0.359 N  
HETATM   14  H   UNL     1     -10.479  10.620  71.717  1.00  0.00     0.000 HD 
BRANCH  13  15
HETATM   15  S   UNL     1     -12.528  10.253  70.660  1.00  0.00    -0.303 S  
HETATM   16  O   UNL     1     -12.733  10.772  69.333  1.00  0.00    -0.261 OA 
HETATM   17  C   UNL     1     -12.915  11.560  71.781  1.00  0.00    -0.394 C  
HETATM   18  O   UNL     1     -13.187   9.068  71.149  1.00  0.00    -0.247 OA 
ENDBRANCH  13  15
ENDBRANCH  10  11
ENDBRANCH   9  10
ENDBRANCH   8   9
ENDBRANCH   7   8
ENDBRANCH   6   7
ENDBRANCH   5   6
ENDBRANCH   4   5
BRANCH   4  19
HETATM   19  C   UNL     1     -10.512  13.421  66.393  1.00  0.00    -0.286 A  
HETATM   20  N   UNL     1      -9.935  15.752  65.933  1.00  0.00    -0.325 NA 
HETATM   21  N   UNL     1     -10.987  13.788  67.606  1.00  0.00    -0.260 NA 
HETATM   22  C   UNL     1     -10.397  16.096  67.175  1.00  0.00    -0.291 A  
HETATM   23  C   UNL     1     -10.955  15.104  68.009  1.00  0.00    -0.295 A  
HETATM   24  C   UNL     1     -10.017  14.436  65.584  1.00  0.00    -0.337 A  
BRANCH  23  25
HETATM   25  C   UNL     1     -11.493  15.315  69.382  1.00  0.00    -0.329 A  
HETATM   26  C   UNL     1     -12.879  15.443  69.599  1.00  0.00     0.184 A  
HETATM   27  C   UNL     1     -11.222  15.227  71.815  1.00  0.00    -0.364 A  
HETATM   28  C   UNL     1     -10.681  15.331  70.531  1.00  0.00    -0.247 A  
HETATM   29  C   UNL     1     -12.597  15.273  71.993  1.00  0.00    -0.429 A  
HETATM   30  C   UNL     1     -13.424  15.440  70.888  1.00  0.00    -0.427 A  
ENDBRANCH  23  25
BRANCH  22  31
HETATM   31  C   UNL     1     -10.195  17.543  67.517  1.00  0.00    -0.340 A  
HETATM   32  C   UNL     1     -10.550  19.923  67.001  1.00  0.00    -0.533 A  
HETATM   33  C   UNL     1      -9.368  19.321  68.999  1.00  0.00    -0.354 A  
HETATM   34  C   UNL     1      -9.430  17.974  68.621  1.00  0.00    -0.317 A  
HETATM   35  C   UNL     1     -10.712  18.565  66.689  1.00  0.00    -0.278 A  
HETATM   36  C   UNL     1      -9.935  20.297  68.189  1.00  0.00    -0.421 A  
ENDBRANCH  22  31
ENDBRANCH   4  19
ENDBRANCH   2   4
TORSDOF 12
ENDMDL
MODEL       38
REMARK 921   NORMALIZED FREE ENERGY PREDICTED BY IDOCK:   -6.31 KCAL/MOL
REMARK 922        TOTAL FREE ENERGY PREDICTED BY IDOCK:  -12.05 KCAL/MOL
REMARK 923 INTER-LIGAND FREE ENERGY PREDICTED BY IDOCK:  -10.24 KCAL/MOL
REMARK 924 INTRA-LIGAND FREE ENERGY PREDICTED BY IDOCK:   -1.81 KCAL/MOL
REMARK 927      BINDING AFFINITY PREDICTED BY RF-SCORE:    0.00 PKD
ROOT
HETATM    1  C   UNL     1      -9.608  14.816  69.255  1.00  0.00    -0.082 C  
HETATM    2  C   UNL     1     -11.132  14.753  69.137  1.00  0.00    -0.265 C  
HETATM    3  C   UNL     1     -11.656  16.059  68.536  1.00  0.00    -0.316 C  
ENDROOT
BRANCH   2   4
HETATM    4  N   UNL     1     -11.633  13.570  68.395  1.00  0.00    -0.319 NA 
BRANCH   4   5
HETATM    5  C   UNL     1     -12.265  13.688  67.069  1.00  0.00    -0.329 C  
BRANCH   5   6
HETATM    6  C   UNL     1     -11.535  12.879  65.990  1.00  0.00    -0.384 C  
BRANCH   6   7
HETATM    7  C   UNL     1     -10.851  13.744  64.915  1.00  0.00    -0.398 C  
BRANCH   7   8
HETATM    8  C   UNL     1     -11.532  15.084  64.636  1.00  0.00    -0.381 C  
BRANCH   8   9
HETATM    9  O   UNL     1     -10.666  16.146  65.030  1.00  0.00    -0.558 OA 
BRANCH   9  10
HETATM   10  C   UNL     1      -9.484  15.659  65.663  1.00  0.00    -0.237 C  
BRANCH  10  11
HETATM   11  C   UNL     1      -8.585  16.802  66.120  1.00  0.00    -0.264 C  
HETATM   12  O   UNL     1      -7.370  16.675  66.205  1.00  0.00    -0.239 OA 
HETATM   13  N   UNL     1      -9.252  18.011  66.367  1.00  0.00    -0.269 N  
HETATM   14  H   UNL     1     -10.249  18.078  66.163  1.00  0.00     0.000 HD 
BRANCH  13  15
HETATM   15  S   UNL     1      -8.463  19.337  66.983  1.00  0.00    -0.295 S  
HETATM   16  O   UNL     1      -7.923  19.014  68.277  1.00  0.00    -0.290 OA 
HETATM   17  C   UNL     1      -9.837  20.410  67.261  1.00  0.00    -0.456 C  
HETATM   18  O   UNL     1      -7.675  19.924  65.929  1.00  0.00    -0.335 OA 
ENDBRANCH  13  15
ENDBRANCH  10  11
ENDBRANCH   9  10
ENDBRANCH   8   9
ENDBRANCH   7   8
ENDBRANCH   6   7
ENDBRANCH   5   6
ENDBRANCH   4   5
BRANCH   4  19
HETATM   19  C   UNL     1     -11.542  12.344  69.063  1.00  0.00    -0.311 A  
HETATM   20  N   UNL     1     -12.046  10.914  70.981  1.00  0.00    -0.338 NA 
HETATM   21  N   UNL     1     -10.843  11.330  68.503  1.00  0.00    -0.190 NA 
HETATM   22  C   UNL     1     -11.311   9.910  70.407  1.00  0.00    -0.307 A  
HETATM   23  C   UNL     1     -10.727  10.115  69.139  1.00  0.00    -0.226 A  
HETATM   24  C   UNL     1     -12.142  12.085  70.289  1.00  0.00    -0.312 A  
BRANCH  23  25
HETATM   25  C   UNL     1      -9.899   9.130  68.387  1.00  0.00    -0.181 A  
HETATM   26  C   UNL     1     -10.420   8.467  67.259  1.00  0.00    -0.366 A  
HETATM   27  C   UNL     1      -7.718   8.172  67.819  1.00  0.00    -0.110 A  
HETATM   28  C   UNL     1      -8.556   8.856  68.703  1.00  0.00    -0.133 A  
HETATM   29  C   UNL     1      -8.243   7.597  66.671  1.00  0.00    -0.124 A  
HETATM   30  C   UNL     1      -9.608   7.695  66.420  1.00  0.00    -0.223 A  
ENDBRANCH  23  25
BRANCH  22  31
HETATM   31  C   UNL     1     -11.182   8.687  71.266  1.00  0.00    -0.338 A  
HETATM   32  C   UNL     1     -10.165   7.530  73.185  1.00  0.00    -0.382 A  
HETATM   33  C   UNL     1     -11.843   6.404  71.894  1.00  0.00    -0.380 A  
HETATM   34  C   UNL     1     -11.874   7.486  71.004  1.00  0.00    -0.319 A  
HETATM   35  C   UNL     1     -10.286   8.656  72.358  1.00  0.00    -0.317 A  
HETATM   36  C   UNL     1     -10.991   6.430  72.990  1.00  0.00    -0.269 A  
ENDBRANCH  22  31
ENDBRANCH   4  19
ENDBRANCH   2   4
TORSDOF 12
ENDMDL
MODEL       39
REMARK 921   NORMALIZED FREE ENERGY PREDICTED BY IDOCK:   -6.31 KCAL/MOL
REMARK 922        TOTAL FREE ENERGY PREDICTED BY IDOCK:  -12.05 KCAL/MOL
REMARK 923 INTER-LIGAND FREE ENERGY PREDICTED BY IDOCK:  -10.60 KCAL/MOL
REMARK 924 INTRA-LIGAND FREE ENERGY PREDICTED BY IDOCK:   -1.45 KCAL/MOL
REMARK 927      BINDING AFFINITY PREDICTED BY RF-SCORE:    0.00 PKD
ROOT
HETATM    1  C   UNL     1      -7.250  11.648  67.466  1.00  0.00    -0.119 C  
HETATM    2  C   UNL     1      -7.680  11.038  66.130  1.00  0.00    -0.102 C  
HETATM    3  C   UNL     1      -6.492  10.318  65.488  1.00  0.00    -0.121 C  
ENDROOT
BRANCH   2   4
HETATM    4  N   UNL     1      -8.868  10.155  66.222  1.00  0.00    -0.146 NA 
BRANCH   4   5
HETATM    5  C   UNL     1      -9.774   9.941  65.080  1.00  0.00    -0.288 C  
BRANCH   5   6
HETATM    6  C   UNL     1     -10.899  10.982  65.011  1.00  0.00    -0.194 C  
BRANCH   6   7
HETATM    7  C   UNL     1     -10.965  11.743  63.674  1.00  0.00    -0.513 C  
BRANCH   7   8
HETATM    8  C   UNL     1     -12.254  12.531  63.443  1.00  0.00    -0.517 C  
BRANCH   8   9
HETATM    9  O   UNL     1     -12.826  12.883  64.702  1.00  0.00    -0.705 OA 
BRANCH   9  10
HETATM   10  C   UNL     1     -12.350  14.144  65.167  1.00  0.00    -0.451 C  
BRANCH  10  11
HETATM   11  C   UNL     1     -11.989  14.094  66.646  1.00  0.00    -0.444 C  
HETATM   12  O   UNL     1     -12.147  13.082  67.317  1.00  0.00    -0.348 OA 
HETATM   13  N   UNL     1     -11.406  15.268  67.149  1.00  0.00    -0.294 N  
HETATM   14  H   UNL     1     -11.196  16.031  66.506  1.00  0.00     0.000 HD 
BRANCH  13  15
HETATM   15  S   UNL     1     -11.050  15.448  68.762  1.00  0.00    -0.304 S  
HETATM   16  O   UNL     1     -12.264  15.374  69.531  1.00  0.00    -0.313 OA 
HETATM   17  C   UNL     1     -10.541  17.137  68.776  1.00  0.00    -0.336 C  
HETATM   18  O   UNL     1      -9.885  14.653  69.058  1.00  0.00    -0.221 OA 
ENDBRANCH  13  15
ENDBRANCH  10  11
ENDBRANCH   9  10
ENDBRANCH   8   9
ENDBRANCH   7   8
ENDBRANCH   6   7
ENDBRANCH   5   6
ENDBRANCH   4   5
BRANCH   4  19
HETATM   19  C   UNL     1      -9.124   9.600  67.481  1.00  0.00    -0.130 A  
HETATM   20  N   UNL     1      -8.681   7.927  69.207  1.00  0.00    -0.137 NA 
HETATM   21  N   UNL     1     -10.088  10.139  68.263  1.00  0.00    -0.151 NA 
HETATM   22  C   UNL     1      -9.679   8.473  69.972  1.00  0.00    -0.170 A  
HETATM   23  C   UNL     1     -10.369   9.610  69.503  1.00  0.00    -0.221 A  
HETATM   24  C   UNL     1      -8.435   8.512  68.001  1.00  0.00    -0.131 A  
BRANCH  23  25
HETATM   25  C   UNL     1     -11.477  10.314  70.208  1.00  0.00    -0.395 A  
HETATM   26  C   UNL     1     -12.366   9.605  71.038  1.00  0.00    -0.396 A  
HETATM   27  C   UNL     1     -12.503  12.377  71.042  1.00  0.00    -0.353 A  
HETATM   28  C   UNL     1     -11.662  11.707  70.149  1.00  0.00    -0.381 A  
HETATM   29  C   UNL     1     -13.310  11.653  71.907  1.00  0.00    -0.403 A  
HETATM   30  C   UNL     1     -13.284  10.263  71.865  1.00  0.00    -0.550 A  
ENDBRANCH  23  25
BRANCH  22  31
HETATM   31  C   UNL     1      -9.946   7.723  71.244  1.00  0.00    -0.199 A  
HETATM   32  C   UNL     1      -9.687   7.504  73.681  1.00  0.00    -0.341 A  
HETATM   33  C   UNL     1     -11.004   5.890  72.493  1.00  0.00    -0.307 A  
HETATM   34  C   UNL     1     -10.648   6.501  71.283  1.00  0.00    -0.268 A  
HETATM   35  C   UNL     1      -9.432   8.179  72.479  1.00  0.00    -0.339 A  
HETATM   36  C   UNL     1     -10.527   6.396  73.694  1.00  0.00    -0.311 A  
ENDBRANCH  22  31
ENDBRANCH   4  19
ENDBRANCH   2   4
TORSDOF 12
ENDMDL
MODEL       40
REMARK 921   NORMALIZED FREE ENERGY PREDICTED BY IDOCK:   -6.24 KCAL/MOL
REMARK 922        TOTAL FREE ENERGY PREDICTED BY IDOCK:  -11.94 KCAL/MOL
REMARK 923 INTER-LIGAND FREE ENERGY PREDICTED BY IDOCK:   -9.69 KCAL/MOL
REMARK 924 INTRA-LIGAND FREE ENERGY PREDICTED BY IDOCK:   -2.25 KCAL/MOL
REMARK 927      BINDING AFFINITY PREDICTED BY RF-SCORE:    0.00 PKD
ROOT
HETATM    1  C   UNL     1      -6.219   7.811  69.077  1.00  0.00    -0.036 C  
HETATM    2  C   UNL     1      -6.494   9.115  68.324  1.00  0.00    -0.055 C  
HETATM    3  C   UNL     1      -6.354   8.878  66.818  1.00  0.00    -0.059 C  
ENDROOT
BRANCH   2   4
HETATM    4  N   UNL     1      -7.794   9.745  68.659  1.00  0.00    -0.080 NA 
BRANCH   4   5
HETATM    5  C   UNL     1      -8.921   8.970  69.207  1.00  0.00    -0.144 C  
BRANCH   5   6
HETATM    6  C   UNL     1      -9.300   9.398  70.630  1.00  0.00    -0.314 C  
BRANCH   6   7
HETATM    7  C   UNL     1     -10.790   9.747  70.802  1.00  0.00    -0.403 C  
BRANCH   7   8
HETATM    8  C   UNL     1     -11.423  10.476  69.617  1.00  0.00    -0.282 C  
BRANCH   8   9
HETATM    9  O   UNL     1     -12.659  11.059  70.026  1.00  0.00    -0.270 OA 
BRANCH   9  10
HETATM   10  C   UNL     1     -12.702  11.276  71.435  1.00  0.00    -0.396 C  
BRANCH  10  11
HETATM   11  C   UNL     1     -13.072  12.717  71.766  1.00  0.00    -0.356 C  
HETATM   12  O   UNL     1     -13.992  12.991  72.525  1.00  0.00    -0.632 OA 
HETATM   13  N   UNL     1     -12.238  13.685  71.185  1.00  0.00    -0.418 N  
HETATM   14  H   UNL     1     -11.420  13.382  70.658  1.00  0.00     0.000 HD 
BRANCH  13  15
HETATM   15  S   UNL     1     -12.548  15.311  71.334  1.00  0.00    -0.417 S  
HETATM   16  O   UNL     1     -13.927  15.566  71.012  1.00  0.00    -0.535 OA 
HETATM   17  C   UNL     1     -11.590  15.930  69.987  1.00  0.00    -0.344 C  
HETATM   18  O   UNL     1     -11.926  15.781  72.546  1.00  0.00    -0.406 OA 
ENDBRANCH  13  15
ENDBRANCH  10  11
ENDBRANCH   9  10
ENDBRANCH   8   9
ENDBRANCH   7   8
ENDBRANCH   6   7
ENDBRANCH   5   6
ENDBRANCH   4   5
BRANCH   4  19
HETATM   19  C   UNL     1      -7.914  11.105  68.351  1.00  0.00    -0.137 A  
HETATM   20  N   UNL     1      -7.162  13.420  68.576  1.00  0.00    -0.104 NA 
HETATM   21  N   UNL     1      -8.911  11.517  67.535  1.00  0.00    -0.156 NA 
HETATM   22  C   UNL     1      -8.195  13.818  67.768  1.00  0.00    -0.174 A  
HETATM   23  C   UNL     1      -9.061  12.850  67.220  1.00  0.00    -0.208 A  
HETATM   24  C   UNL     1      -7.054  12.085  68.830  1.00  0.00    -0.104 A  
BRANCH  23  25
HETATM   25  C   UNL     1     -10.227  13.119  66.333  1.00  0.00    -0.286 A  
HETATM   26  C   UNL     1     -11.388  13.736  66.840  1.00  0.00    -0.345 A  
HETATM   27  C   UNL     1     -11.190  13.375  64.095  1.00  0.00    -0.379 A  
HETATM   28  C   UNL     1     -10.222  12.846  64.953  1.00  0.00    -0.296 A  
HETATM   29  C   UNL     1     -12.283  14.051  64.617  1.00  0.00    -0.460 A  
HETATM   30  C   UNL     1     -12.412  14.181  65.996  1.00  0.00    -0.454 A  
ENDBRANCH  23  25
BRANCH  22  31
HETATM   31  C   UNL     1      -8.297  15.306  67.606  1.00  0.00    -0.176 A  
HETATM   32  C   UNL     1      -8.279  17.297  66.159  1.00  0.00    -0.258 A  
HETATM   33  C   UNL     1      -8.682  17.560  68.509  1.00  0.00    -0.282 A  
HETATM   34  C   UNL     1      -8.452  16.190  68.694  1.00  0.00    -0.216 A  
HETATM   35  C   UNL     1      -8.167  15.910  66.335  1.00  0.00    -0.264 A  
HETATM   36  C   UNL     1      -8.601  18.113  67.238  1.00  0.00    -0.240 A  
ENDBRANCH  22  31
ENDBRANCH   4  19
ENDBRANCH   2   4
TORSDOF 12
ENDMDL
MODEL       41
REMARK 921   NORMALIZED FREE ENERGY PREDICTED BY IDOCK:   -6.23 KCAL/MOL
REMARK 922        TOTAL FREE ENERGY PREDICTED BY IDOCK:  -11.91 KCAL/MOL
REMARK 923 INTER-LIGAND FREE ENERGY PREDICTED BY IDOCK:  -10.19 KCAL/MOL
REMARK 924 INTRA-LIGAND FREE ENERGY PREDICTED BY IDOCK:   -1.72 KCAL/MOL
REMARK 927      BINDING AFFINITY PREDICTED BY RF-SCORE:    0.00 PKD
ROOT
HETATM    1  C   UNL     1      -5.993  18.878  70.096  1.00  0.00    -0.205 C  
HETATM    2  C   UNL     1      -6.697  20.066  69.436  1.00  0.00    -0.280 C  
HETATM    3  C   UNL     1      -5.654  21.065  68.931  1.00  0.00    -0.363 C  
ENDROOT
BRANCH   2   4
HETATM    4  N   UNL     1      -7.653  19.686  68.368  1.00  0.00    -0.323 NA 
BRANCH   4   5
HETATM    5  C   UNL     1      -7.880  20.533  67.184  1.00  0.00    -0.315 C  
BRANCH   5   6
HETATM    6  C   UNL     1      -8.375  19.737  65.970  1.00  0.00    -0.314 C  
BRANCH   6   7
HETATM    7  C   UNL     1      -9.816  20.077  65.545  1.00  0.00    -0.016 C  
BRANCH   7   8
HETATM    8  C   UNL     1     -10.856  19.008  65.876  1.00  0.00    -0.192 C  
BRANCH   8   9
HETATM    9  O   UNL     1     -10.749  17.938  64.938  1.00  0.00    -0.574 OA 
BRANCH   9  10
HETATM   10  C   UNL     1     -10.573  16.680  65.586  1.00  0.00    -0.270 C  
BRANCH  10  11
HETATM   11  C   UNL     1     -11.397  15.587  64.915  1.00  0.00    -0.335 C  
HETATM   12  O   UNL     1     -12.336  15.847  64.175  1.00  0.00    -0.634 OA 
HETATM   13  N   UNL     1     -10.950  14.280  65.164  1.00  0.00    -0.341 N  
HETATM   14  H   UNL     1     -10.091  14.142  65.695  1.00  0.00     0.000 HD 
BRANCH  13  15
HETATM   15  S   UNL     1     -11.784  12.951  64.616  1.00  0.00    -0.384 S  
HETATM   16  O   UNL     1     -13.064  12.886  65.271  1.00  0.00    -0.682 OA 
HETATM   17  C   UNL     1     -10.795  11.663  65.308  1.00  0.00    -0.283 C  
HETATM   18  O   UNL     1     -11.631  12.880  63.185  1.00  0.00    -0.422 OA 
ENDBRANCH  13  15
ENDBRANCH  10  11
ENDBRANCH   9  10
ENDBRANCH   8   9
ENDBRANCH   7   8
ENDBRANCH   6   7
ENDBRANCH   5   6
ENDBRANCH   4   5
BRANCH   4  19
HETATM   19  C   UNL     1      -8.386  18.515  68.589  1.00  0.00    -0.304 A  
HETATM   20  N   UNL     1     -10.473  17.377  69.160  1.00  0.00    -0.313 NA 
HETATM   21  N   UNL     1      -7.770  17.314  68.486  1.00  0.00    -0.250 NA 
HETATM   22  C   UNL     1      -9.823  16.174  69.075  1.00  0.00    -0.245 A  
HETATM   23  C   UNL     1      -8.462  16.144  68.706  1.00  0.00    -0.236 A  
HETATM   24  C   UNL     1      -9.738  18.497  68.907  1.00  0.00    -0.308 A  
BRANCH  23  25
HETATM   25  C   UNL     1      -7.616  14.924  68.575  1.00  0.00    -0.121 A  
HETATM   26  C   UNL     1      -6.890  14.432  69.677  1.00  0.00    -0.118 A  
HETATM   27  C   UNL     1      -6.995  12.879  67.380  1.00  0.00    -0.129 A  
HETATM   28  C   UNL     1      -7.542  14.165  67.394  1.00  0.00    -0.179 A  
HETATM   29  C   UNL     1      -6.356  12.386  68.508  1.00  0.00    -0.064 A  
HETATM   30  C   UNL     1      -6.253  13.187  69.640  1.00  0.00    -0.112 A  
ENDBRANCH  23  25
BRANCH  22  31
HETATM   31  C   UNL     1     -10.675  14.998  69.450  1.00  0.00    -0.267 A  
HETATM   32  C   UNL     1     -12.196  13.888  71.035  1.00  0.00    -0.421 A  
HETATM   33  C   UNL     1     -11.676  12.807  68.958  1.00  0.00    -0.371 A  
HETATM   34  C   UNL     1     -10.772  13.834  68.659  1.00  0.00    -0.270 A  
HETATM   35  C   UNL     1     -11.379  14.970  70.675  1.00  0.00    -0.312 A  
HETATM   36  C   UNL     1     -12.394  12.838  70.147  1.00  0.00    -0.235 A  
ENDBRANCH  22  31
ENDBRANCH   4  19
ENDBRANCH   2   4
TORSDOF 12
ENDMDL
MODEL       42
REMARK 921   NORMALIZED FREE ENERGY PREDICTED BY IDOCK:   -6.22 KCAL/MOL
REMARK 922        TOTAL FREE ENERGY PREDICTED BY IDOCK:  -11.91 KCAL/MOL
REMARK 923 INTER-LIGAND FREE ENERGY PREDICTED BY IDOCK:   -9.87 KCAL/MOL
REMARK 924 INTRA-LIGAND FREE ENERGY PREDICTED BY IDOCK:   -2.04 KCAL/MOL
REMARK 927      BINDING AFFINITY PREDICTED BY RF-SCORE:    0.00 PKD
ROOT
HETATM    1  C   UNL     1     -10.933   9.565  67.878  1.00  0.00    -0.172 C  
HETATM    2  C   UNL     1     -10.279  10.413  68.971  1.00  0.00    -0.217 C  
HETATM    3  C   UNL     1      -9.864   9.515  70.139  1.00  0.00    -0.288 C  
ENDROOT
BRANCH   2   4
HETATM    4  N   UNL     1      -9.150  11.248  68.495  1.00  0.00    -0.173 NA 
BRANCH   4   5
HETATM    5  C   UNL     1      -7.797  10.696  68.300  1.00  0.00    -0.113 C  
BRANCH   5   6
HETATM    6  C   UNL     1      -7.398  10.613  66.821  1.00  0.00    -0.120 C  
BRANCH   6   7
HETATM    7  C   UNL     1      -6.950   9.210  66.372  1.00  0.00    -0.080 C  
BRANCH   7   8
HETATM    8  C   UNL     1      -8.046   8.355  65.736  1.00  0.00    -0.117 C  
BRANCH   8   9
HETATM    9  O   UNL     1      -9.096   9.202  65.272  1.00  0.00    -0.209 OA 
BRANCH   9  10
HETATM   10  C   UNL     1      -8.969   9.491  63.881  1.00  0.00    -0.179 C  
BRANCH  10  11
HETATM   11  C   UNL     1      -9.745  10.746  63.499  1.00  0.00    -0.341 C  
HETATM   12  O   UNL     1      -9.650  11.253  62.389  1.00  0.00    -0.178 OA 
HETATM   13  N   UNL     1     -10.615  11.223  64.492  1.00  0.00    -0.331 N  
HETATM   14  H   UNL     1     -10.731  10.684  65.349  1.00  0.00     0.000 HD 
BRANCH  13  15
HETATM   15  S   UNL     1     -11.459  12.643  64.307  1.00  0.00    -0.395 S  
HETATM   16  O   UNL     1     -10.534  13.741  64.216  1.00  0.00    -0.359 OA 
HETATM   17  C   UNL     1     -12.223  12.752  65.895  1.00  0.00    -0.359 C  
HETATM   18  O   UNL     1     -12.511  12.421  63.347  1.00  0.00    -0.625 OA 
ENDBRANCH  13  15
ENDBRANCH  10  11
ENDBRANCH   9  10
ENDBRANCH   8   9
ENDBRANCH   7   8
ENDBRANCH   6   7
ENDBRANCH   5   6
ENDBRANCH   4   5
BRANCH   4  19
HETATM   19  C   UNL     1      -9.425  12.608  68.319  1.00  0.00    -0.203 A  
HETATM   20  N   UNL     1      -9.099  14.715  67.123  1.00  0.00    -0.212 NA 
HETATM   21  N   UNL     1     -10.275  13.232  69.167  1.00  0.00     0.103 NA 
HETATM   22  C   UNL     1      -9.943  15.332  68.008  1.00  0.00    -0.224 A  
HETATM   23  C   UNL     1     -10.559  14.572  69.025  1.00  0.00    -0.247 A  
HETATM   24  C   UNL     1      -8.878  13.382  67.303  1.00  0.00    -0.220 A  
BRANCH  23  25
HETATM   25  C   UNL     1     -11.492  15.091  70.064  1.00  0.00    -0.310 A  
HETATM   26  C   UNL     1     -12.884  14.925  69.927  1.00  0.00    -0.035 A  
HETATM   27  C   UNL     1     -11.914  15.907  72.334  1.00  0.00    -0.620 A  
HETATM   28  C   UNL     1     -11.054  15.704  71.252  1.00  0.00    -0.315 A  
HETATM   29  C   UNL     1     -13.271  15.657  72.197  1.00  0.00    -0.547 A  
HETATM   30  C   UNL     1     -13.766  15.221  70.973  1.00  0.00    -0.452 A  
ENDBRANCH  23  25
BRANCH  22  31
HETATM   31  C   UNL     1     -10.068  16.812  67.796  1.00  0.00    -0.281 A  
HETATM   32  C   UNL     1     -10.652  18.714  66.348  1.00  0.00    -0.399 A  
HETATM   33  C   UNL     1      -9.943  19.131  68.601  1.00  0.00    -0.486 A  
HETATM   34  C   UNL     1      -9.692  17.762  68.767  1.00  0.00    -0.314 A  
HETATM   35  C   UNL     1     -10.510  17.335  66.560  1.00  0.00    -0.260 A  
HETATM   36  C   UNL     1     -10.430  19.606  67.391  1.00  0.00    -0.596 A  
ENDBRANCH  22  31
ENDBRANCH   4  19
ENDBRANCH   2   4
TORSDOF 12
ENDMDL
MODEL       43
REMARK 921   NORMALIZED FREE ENERGY PREDICTED BY IDOCK:   -6.20 KCAL/MOL
REMARK 922        TOTAL FREE ENERGY PREDICTED BY IDOCK:  -11.86 KCAL/MOL
REMARK 923 INTER-LIGAND FREE ENERGY PREDICTED BY IDOCK:  -10.32 KCAL/MOL
REMARK 924 INTRA-LIGAND FREE ENERGY PREDICTED BY IDOCK:   -1.55 KCAL/MOL
REMARK 927      BINDING AFFINITY PREDICTED BY RF-SCORE:    0.00 PKD
ROOT
HETATM    1  C   UNL     1     -10.658  11.956  64.370  1.00  0.00    -0.366 C  
HETATM    2  C   UNL     1     -10.332  11.107  65.600  1.00  0.00    -0.254 C  
HETATM    3  C   UNL     1      -8.831  10.814  65.641  1.00  0.00    -0.202 C  
ENDROOT
BRANCH   2   4
HETATM    4  N   UNL     1     -10.811  11.684  66.880  1.00  0.00    -0.263 NA 
BRANCH   4   5
HETATM    5  C   UNL     1     -11.445  10.858  67.922  1.00  0.00    -0.266 C  
BRANCH   5   6
HETATM    6  C   UNL     1     -10.917  11.168  69.329  1.00  0.00    -0.300 C  
BRANCH   6   7
HETATM    7  C   UNL     1     -12.004  11.627  70.318  1.00  0.00    -0.445 C  
BRANCH   7   8
HETATM    8  C   UNL     1     -12.590  10.519  71.192  1.00  0.00    -0.417 C  
BRANCH   8   9
HETATM    9  O   UNL     1     -11.529   9.786  71.801  1.00  0.00    -0.322 OA 
BRANCH   9  10
HETATM   10  C   UNL     1     -11.984   8.550  72.349  1.00  0.00    -0.364 C  
BRANCH  10  11
HETATM   11  C   UNL     1     -11.928   7.428  71.319  1.00  0.00    -0.313 C  
HETATM   12  O   UNL     1     -12.904   6.736  71.063  1.00  0.00    -0.290 OA 
HETATM   13  N   UNL     1     -10.699   7.303  70.654  1.00  0.00    -0.231 N  
HETATM   14  H   UNL     1      -9.966   7.989  70.834  1.00  0.00     0.000 HD 
BRANCH  13  15
HETATM   15  S   UNL     1     -10.405   6.068  69.581  1.00  0.00    -0.260 S  
HETATM   16  O   UNL     1     -10.360   4.818  70.292  1.00  0.00    -0.234 OA 
HETATM   17  C   UNL     1      -8.745   6.451  69.121  1.00  0.00    -0.127 C  
HETATM   18  O   UNL     1     -11.226   6.278  68.415  1.00  0.00    -0.335 OA 
ENDBRANCH  13  15
ENDBRANCH  10  11
ENDBRANCH   9  10
ENDBRANCH   8   9
ENDBRANCH   7   8
ENDBRANCH   6   7
ENDBRANCH   5   6
ENDBRANCH   4   5
BRANCH   4  19
HETATM   19  C   UNL     1     -10.698  13.073  67.006  1.00  0.00    -0.258 A  
HETATM   20  N   UNL     1     -11.642  15.320  66.814  1.00  0.00    -0.141 NA 
HETATM   21  N   UNL     1      -9.528  13.610  67.424  1.00  0.00    -0.217 NA 
HETATM   22  C   UNL     1     -10.442  15.843  67.215  1.00  0.00    -0.310 A  
HETATM   23  C   UNL     1      -9.383  14.974  67.550  1.00  0.00    -0.195 A  
HETATM   24  C   UNL     1     -11.730  13.961  66.732  1.00  0.00    -0.399 A  
BRANCH  23  25
HETATM   25  C   UNL     1      -8.021  15.384  67.996  1.00  0.00    -0.134 A  
HETATM   26  C   UNL     1      -7.159  16.078  67.125  1.00  0.00    -0.248 A  
HETATM   27  C   UNL     1      -6.403  15.820  69.783  1.00  0.00    -0.173 A  
HETATM   28  C   UNL     1      -7.544  15.171  69.302  1.00  0.00    -0.201 A  
HETATM   29  C   UNL     1      -5.616  16.566  68.919  1.00  0.00    -0.130 A  
HETATM   30  C   UNL     1      -5.962  16.647  67.575  1.00  0.00    -0.178 A  
ENDBRANCH  23  25
BRANCH  22  31
HETATM   31  C   UNL     1     -10.398  17.342  67.197  1.00  0.00    -0.325 A  
HETATM   32  C   UNL     1     -10.230  19.483  68.399  1.00  0.00    -0.536 A  
HETATM   33  C   UNL     1     -10.354  19.492  66.004  1.00  0.00    -0.604 A  
HETATM   34  C   UNL     1     -10.534  18.102  66.016  1.00  0.00    -0.346 A  
HETATM   35  C   UNL     1     -10.291  18.082  68.396  1.00  0.00    -0.377 A  
HETATM   36  C   UNL     1     -10.196  20.182  67.198  1.00  0.00    -0.554 A  
ENDBRANCH  22  31
ENDBRANCH   4  19
ENDBRANCH   2   4
TORSDOF 12
ENDMDL
MODEL       44
REMARK 921   NORMALIZED FREE ENERGY PREDICTED BY IDOCK:   -6.20 KCAL/MOL
REMARK 922        TOTAL FREE ENERGY PREDICTED BY IDOCK:  -11.86 KCAL/MOL
REMARK 923 INTER-LIGAND FREE ENERGY PREDICTED BY IDOCK:  -10.38 KCAL/MOL
REMARK 924 INTRA-LIGAND FREE ENERGY PREDICTED BY IDOCK:   -1.48 KCAL/MOL
REMARK 927      BINDING AFFINITY PREDICTED BY RF-SCORE:    0.00 PKD
ROOT
HETATM    1  C   UNL     1     -12.856  14.260  65.317  1.00  0.00    -0.300 C  
HETATM    2  C   UNL     1     -12.340  12.830  65.150  1.00  0.00    -0.496 C  
HETATM    3  C   UNL     1     -12.628  12.342  63.729  1.00  0.00    -0.577 C  
ENDROOT
BRANCH   2   4
HETATM    4  N   UNL     1     -10.912  12.655  65.509  1.00  0.00    -0.273 NA 
BRANCH   4   5
HETATM    5  C   UNL     1      -9.900  13.686  65.216  1.00  0.00    -0.107 C  
BRANCH   5   6
HETATM    6  C   UNL     1      -9.460  14.458  66.467  1.00  0.00    -0.309 C  
BRANCH   6   7
HETATM    7  C   UNL     1      -9.768  15.966  66.411  1.00  0.00    -0.310 C  
BRANCH   7   8
HETATM    8  C   UNL     1      -9.461  16.735  67.696  1.00  0.00    -0.234 C  
BRANCH   8   9
HETATM    9  O   UNL     1     -10.665  16.912  68.440  1.00  0.00    -0.344 OA 
BRANCH   9  10
HETATM   10  C   UNL     1     -11.572  15.829  68.247  1.00  0.00    -0.298 C  
BRANCH  10  11
HETATM   11  C   UNL     1     -11.729  15.001  69.517  1.00  0.00    -0.322 C  
HETATM   12  O   UNL     1     -11.329  13.846  69.591  1.00  0.00    -0.252 OA 
HETATM   13  N   UNL     1     -12.304  15.687  70.598  1.00  0.00    -0.413 N  
HETATM   14  H   UNL     1     -12.506  16.682  70.502  1.00  0.00     0.000 HD 
BRANCH  13  15
HETATM   15  S   UNL     1     -12.663  14.923  72.030  1.00  0.00    -0.344 S  
HETATM   16  O   UNL     1     -13.075  13.572  71.760  1.00  0.00    -0.361 OA 
HETATM   17  C   UNL     1     -14.115  15.813  72.495  1.00  0.00    -0.412 C  
HETATM   18  O   UNL     1     -11.639  15.255  72.988  1.00  0.00    -0.425 OA 
ENDBRANCH  13  15
ENDBRANCH  10  11
ENDBRANCH   9  10
ENDBRANCH   8   9
ENDBRANCH   7   8
ENDBRANCH   6   7
ENDBRANCH   5   6
ENDBRANCH   4   5
BRANCH   4  19
HETATM   19  C   UNL     1     -10.567  11.421  66.070  1.00  0.00    -0.266 A  
HETATM   20  N   UNL     1      -9.653   9.163  65.866  1.00  0.00    -0.271 NA 
HETATM   21  N   UNL     1     -10.808  11.195  67.382  1.00  0.00    -0.249 NA 
HETATM   22  C   UNL     1      -9.929   8.947  67.190  1.00  0.00    -0.226 A  
HETATM   23  C   UNL     1     -10.488   9.987  67.961  1.00  0.00    -0.218 A  
HETATM   24  C   UNL     1      -9.971  10.387  65.358  1.00  0.00    -0.295 A  
BRANCH  23  25
HETATM   25  C   UNL     1     -10.850   9.911  69.405  1.00  0.00    -0.265 A  
HETATM   26  C   UNL     1     -12.112  10.346  69.853  1.00  0.00    -0.252 A  
HETATM   27  C   UNL     1     -10.473   9.014  71.653  1.00  0.00    -0.426 A  
HETATM   28  C   UNL     1     -10.005   9.350  70.380  1.00  0.00    -0.306 A  
HETATM   29  C   UNL     1     -11.752   9.384  72.040  1.00  0.00    -0.269 A  
HETATM   30  C   UNL     1     -12.552  10.103  71.159  1.00  0.00    -0.486 A  
ENDBRANCH  23  25
BRANCH  22  31
HETATM   31  C   UNL     1      -9.630   7.551  67.652  1.00  0.00    -0.171 A  
HETATM   32  C   UNL     1     -10.401   5.284  68.220  1.00  0.00    -0.181 A  
HETATM   33  C   UNL     1      -8.057   5.784  68.320  1.00  0.00    -0.108 A  
HETATM   34  C   UNL     1      -8.338   7.124  68.024  1.00  0.00    -0.119 A  
HETATM   35  C   UNL     1     -10.662   6.599  67.808  1.00  0.00    -0.352 A  
HETATM   36  C   UNL     1      -9.091   4.861  68.412  1.00  0.00    -0.141 A  
ENDBRANCH  22  31
ENDBRANCH   4  19
ENDBRANCH   2   4
TORSDOF 12
ENDMDL
MODEL       45
REMARK 921   NORMALIZED FREE ENERGY PREDICTED BY IDOCK:   -6.15 KCAL/MOL
REMARK 922        TOTAL FREE ENERGY PREDICTED BY IDOCK:  -11.79 KCAL/MOL
REMARK 923 INTER-LIGAND FREE ENERGY PREDICTED BY IDOCK:   -9.43 KCAL/MOL
REMARK 924 INTRA-LIGAND FREE ENERGY PREDICTED BY IDOCK:   -2.36 KCAL/MOL
REMARK 927      BINDING AFFINITY PREDICTED BY RF-SCORE:    0.00 PKD
ROOT
HETATM    1  C   UNL     1     -11.886   6.672  70.692  1.00  0.00    -0.443 C  
HETATM    2  C   UNL     1     -11.534   8.156  70.811  1.00  0.00    -0.261 C  
HETATM    3  C   UNL     1     -11.290   8.511  72.279  1.00  0.00    -0.441 C  
ENDROOT
BRANCH   2   4
HETATM    4  N   UNL     1     -10.403   8.581  69.950  1.00  0.00    -0.205 NA 
BRANCH   4   5
HETATM    5  C   UNL     1      -9.072   7.955  70.042  1.00  0.00    -0.152 C  
BRANCH   5   6
HETATM    6  C   UNL     1      -8.033   8.863  70.712  1.00  0.00    -0.150 C  
BRANCH   6   7
HETATM    7  C   UNL     1      -6.811   9.173  69.828  1.00  0.00    -0.051 C  
BRANCH   7   8
HETATM    8  C   UNL     1      -6.442  10.653  69.734  1.00  0.00    -0.110 C  
BRANCH   8   9
HETATM    9  O   UNL     1      -7.537  11.379  69.179  1.00  0.00    -0.113 OA 
BRANCH   9  10
HETATM   10  C   UNL     1      -7.299  11.743  67.821  1.00  0.00    -0.106 C  
BRANCH  10  11
HETATM   11  C   UNL     1      -6.640  13.114  67.718  1.00  0.00    -0.151 C  
HETATM   12  O   UNL     1      -5.548  13.268  67.189  1.00  0.00    -0.327 OA 
HETATM   13  N   UNL     1      -7.413  14.175  68.215  1.00  0.00    -0.113 N  
HETATM   14  H   UNL     1      -8.363  13.989  68.534  1.00  0.00     0.000 HD 
BRANCH  13  15
HETATM   15  S   UNL     1      -6.822  15.726  68.297  1.00  0.00    -0.124 S  
HETATM   16  O   UNL     1      -6.095  15.896  69.527  1.00  0.00    -0.134 OA 
HETATM   17  C   UNL     1      -8.333  16.621  68.470  1.00  0.00    -0.228 C  
HETATM   18  O   UNL     1      -6.273  16.068  67.008  1.00  0.00    -0.314 OA 
ENDBRANCH  13  15
ENDBRANCH  10  11
ENDBRANCH   9  10
ENDBRANCH   8   9
ENDBRANCH   7   8
ENDBRANCH   6   7
ENDBRANCH   5   6
ENDBRANCH   4   5
BRANCH   4  19
HETATM   19  C   UNL     1     -10.651   9.665  69.101  1.00  0.00    -0.220 A  
HETATM   20  N   UNL     1     -10.687  10.668  66.872  1.00  0.00    -0.255 NA 
HETATM   21  N   UNL     1     -11.088  10.834  69.624  1.00  0.00    -0.262 NA 
HETATM   22  C   UNL     1     -11.103  11.849  67.426  1.00  0.00    -0.279 A  
HETATM   23  C   UNL     1     -11.332  11.922  68.816  1.00  0.00    -0.274 A  
HETATM   24  C   UNL     1     -10.485   9.621  67.723  1.00  0.00    -0.256 A  
BRANCH  23  25
HETATM   25  C   UNL     1     -11.779  13.128  69.569  1.00  0.00    -0.382 A  
HETATM   26  C   UNL     1     -12.562  13.000  70.732  1.00  0.00    -0.321 A  
HETATM   27  C   UNL     1     -11.574  15.513  70.091  1.00  0.00    -0.355 A  
HETATM   28  C   UNL     1     -11.402  14.437  69.216  1.00  0.00    -0.319 A  
HETATM   29  C   UNL     1     -12.280  15.338  71.272  1.00  0.00    -0.408 A  
HETATM   30  C   UNL     1     -12.825  14.093  71.566  1.00  0.00    -0.430 A  
ENDBRANCH  23  25
BRANCH  22  31
HETATM   31  C   UNL     1     -11.220  12.973  66.439  1.00  0.00    -0.332 A  
HETATM   32  C   UNL     1     -12.591  14.339  64.919  1.00  0.00    -0.339 A  
HETATM   33  C   UNL     1     -10.266  14.864  65.191  1.00  0.00    -0.409 A  
HETATM   34  C   UNL     1     -10.115  13.734  66.006  1.00  0.00    -0.320 A  
HETATM   35  C   UNL     1     -12.457  13.281  65.829  1.00  0.00    -0.480 A  
HETATM   36  C   UNL     1     -11.509  15.169  64.651  1.00  0.00    -0.363 A  
ENDBRANCH  22  31
ENDBRANCH   4  19
ENDBRANCH   2   4
TORSDOF 12
ENDMDL
MODEL       46
REMARK 921   NORMALIZED FREE ENERGY PREDICTED BY IDOCK:   -6.15 KCAL/MOL
REMARK 922        TOTAL FREE ENERGY PREDICTED BY IDOCK:  -11.78 KCAL/MOL
REMARK 923 INTER-LIGAND FREE ENERGY PREDICTED BY IDOCK:  -10.00 KCAL/MOL
REMARK 924 INTRA-LIGAND FREE ENERGY PREDICTED BY IDOCK:   -1.78 KCAL/MOL
REMARK 927      BINDING AFFINITY PREDICTED BY RF-SCORE:    0.00 PKD
ROOT
HETATM    1  C   UNL     1      -8.296  10.773  65.494  1.00  0.00    -0.129 C  
HETATM    2  C   UNL     1      -9.680  11.401  65.678  1.00  0.00    -0.231 C  
HETATM    3  C   UNL     1     -10.433  11.383  64.347  1.00  0.00    -0.388 C  
ENDROOT
BRANCH   2   4
HETATM    4  N   UNL     1     -10.481  10.791  66.767  1.00  0.00    -0.243 NA 
BRANCH   4   5
HETATM    5  C   UNL     1     -10.904   9.380  66.732  1.00  0.00     0.058 C  
BRANCH   5   6
HETATM    6  C   UNL     1     -10.296   8.549  67.868  1.00  0.00    -0.281 C  
BRANCH   6   7
HETATM    7  C   UNL     1      -8.893   7.996  67.557  1.00  0.00    -0.129 C  
BRANCH   7   8
HETATM    8  C   UNL     1      -7.814   8.362  68.576  1.00  0.00    -0.120 C  
BRANCH   8   9
HETATM    9  O   UNL     1      -8.248   9.486  69.340  1.00  0.00    -0.107 OA 
BRANCH   9  10
HETATM   10  C   UNL     1      -7.913   9.350  70.720  1.00  0.00    -0.116 C  
BRANCH  10  11
HETATM   11  C   UNL     1      -8.920   8.474  71.456  1.00  0.00    -0.213 C  
HETATM   12  O   UNL     1      -8.593   7.426  71.996  1.00  0.00    -0.106 OA 
HETATM   13  N   UNL     1     -10.220   8.999  71.515  1.00  0.00    -0.326 N  
HETATM   14  H   UNL     1     -10.396   9.932  71.145  1.00  0.00     0.000 HD 
BRANCH  13  15
HETATM   15  S   UNL     1     -11.482   8.139  72.173  1.00  0.00    -0.378 S  
HETATM   16  O   UNL     1     -11.005   7.370  73.291  1.00  0.00    -0.376 OA 
HETATM   17  C   UNL     1     -11.789   6.997  70.863  1.00  0.00    -0.356 C  
HETATM   18  O   UNL     1     -12.628   9.010  72.251  1.00  0.00    -0.380 OA 
ENDBRANCH  13  15
ENDBRANCH  10  11
ENDBRANCH   9  10
ENDBRANCH   8   9
ENDBRANCH   7   8
ENDBRANCH   6   7
ENDBRANCH   5   6
ENDBRANCH   4   5
BRANCH   4  19
HETATM   19  C   UNL     1     -10.878  11.655  67.794  1.00  0.00    -0.217 A  
HETATM   20  N   UNL     1     -12.133  12.103  69.843  1.00  0.00    -0.284 NA 
HETATM   21  N   UNL     1     -10.444  12.937  67.791  1.00  0.00    -0.217 NA 
HETATM   22  C   UNL     1     -11.702  13.402  69.806  1.00  0.00    -0.286 A  
HETATM   23  C   UNL     1     -10.824  13.814  68.782  1.00  0.00    -0.259 A  
HETATM   24  C   UNL     1     -11.702  11.278  68.847  1.00  0.00    -0.341 A  
BRANCH  23  25
HETATM   25  C   UNL     1     -10.272  15.186  68.600  1.00  0.00    -0.227 A  
HETATM   26  C   UNL     1     -11.130  16.282  68.382  1.00  0.00    -0.362 A  
HETATM   27  C   UNL     1      -8.439  16.794  68.827  1.00  0.00    -0.253 A  
HETATM   28  C   UNL     1      -8.901  15.482  68.700  1.00  0.00    -0.193 A  
HETATM   29  C   UNL     1      -9.321  17.855  68.689  1.00  0.00    -0.282 A  
HETATM   30  C   UNL     1     -10.659  17.600  68.408  1.00  0.00    -0.318 A  
ENDBRANCH  23  25
BRANCH  22  31
HETATM   31  C   UNL     1     -12.287  14.265  70.885  1.00  0.00    -0.429 A  
HETATM   32  C   UNL     1     -14.253  15.215  72.021  1.00  0.00    -0.673 A  
HETATM   33  C   UNL     1     -12.062  15.704  72.865  1.00  0.00    -0.583 A  
HETATM   34  C   UNL     1     -11.499  15.015  71.783  1.00  0.00    -0.376 A  
HETATM   35  C   UNL     1     -13.685  14.428  71.008  1.00  0.00    -0.201 A  
HETATM   36  C   UNL     1     -13.442  15.799  72.987  1.00  0.00    -0.672 A  
ENDBRANCH  22  31
ENDBRANCH   4  19
ENDBRANCH   2   4
TORSDOF 12
ENDMDL
MODEL       47
REMARK 921   NORMALIZED FREE ENERGY PREDICTED BY IDOCK:   -6.14 KCAL/MOL
REMARK 922        TOTAL FREE ENERGY PREDICTED BY IDOCK:  -11.77 KCAL/MOL
REMARK 923 INTER-LIGAND FREE ENERGY PREDICTED BY IDOCK:  -10.83 KCAL/MOL
REMARK 924 INTRA-LIGAND FREE ENERGY PREDICTED BY IDOCK:   -0.94 KCAL/MOL
REMARK 927      BINDING AFFINITY PREDICTED BY RF-SCORE:    0.00 PKD
ROOT
HETATM    1  C   UNL     1      -8.138   8.109  64.071  1.00  0.00    -0.122 C  
HETATM    2  C   UNL     1      -7.670   9.276  64.943  1.00  0.00    -0.110 C  
HETATM    3  C   UNL     1      -6.711  10.162  64.145  1.00  0.00    -0.107 C  
ENDROOT
BRANCH   2   4
HETATM    4  N   UNL     1      -8.773  10.065  65.542  1.00  0.00    -0.148 NA 
BRANCH   4   5
HETATM    5  C   UNL     1      -9.309  11.276  64.896  1.00  0.00    -0.159 C  
BRANCH   5   6
HETATM    6  C   UNL     1     -10.669  11.040  64.227  1.00  0.00    -0.348 C  
BRANCH   6   7
HETATM    7  C   UNL     1     -11.682  12.177  64.452  1.00  0.00    -0.430 C  
BRANCH   7   8
HETATM    8  C   UNL     1     -12.161  12.877  63.180  1.00  0.00    -0.270 C  
BRANCH   8   9
HETATM    9  O   UNL     1     -12.668  14.168  63.512  1.00  0.00    -0.794 OA 
BRANCH   9  10
HETATM   10  C   UNL     1     -12.330  14.543  64.846  1.00  0.00    -0.370 C  
BRANCH  10  11
HETATM   11  C   UNL     1     -11.532  15.840  64.876  1.00  0.00    -0.193 C  
HETATM   12  O   UNL     1     -11.622  16.676  63.986  1.00  0.00    -1.197 OA 
HETATM   13  N   UNL     1     -10.748  16.021  66.026  1.00  0.00    -0.301 N  
HETATM   14  H   UNL     1     -10.811  15.339  66.781  1.00  0.00     0.000 HD 
BRANCH  13  15
HETATM   15  S   UNL     1      -9.719  17.316  66.190  1.00  0.00    -0.180 S  
HETATM   16  O   UNL     1      -8.406  16.945  65.733  1.00  0.00    -0.472 OA 
HETATM   17  C   UNL     1      -9.634  17.418  67.950  1.00  0.00    -0.267 C  
HETATM   18  O   UNL     1     -10.405  18.498  65.731  1.00  0.00    -0.590 OA 
ENDBRANCH  13  15
ENDBRANCH  10  11
ENDBRANCH   9  10
ENDBRANCH   8   9
ENDBRANCH   7   8
ENDBRANCH   6   7
ENDBRANCH   5   6
ENDBRANCH   4   5
BRANCH   4  19
HETATM   19  C   UNL     1      -9.223   9.637  66.796  1.00  0.00    -0.149 A  
HETATM   20  N   UNL     1      -9.320   7.960  68.572  1.00  0.00    -0.141 NA 
HETATM   21  N   UNL     1     -10.040  10.437  67.519  1.00  0.00    -0.183 NA 
HETATM   22  C   UNL     1     -10.167   8.775  69.275  1.00  0.00    -0.210 A  
HETATM   23  C   UNL     1     -10.507  10.040  68.753  1.00  0.00    -0.208 A  
HETATM   24  C   UNL     1      -8.874   8.421  67.369  1.00  0.00    -0.134 A  
BRANCH  23  25
HETATM   25  C   UNL     1     -11.415  11.036  69.389  1.00  0.00    -0.364 A  
HETATM   26  C   UNL     1     -12.175  10.693  70.524  1.00  0.00    -0.449 A  
HETATM   27  C   UNL     1     -12.132  13.353  69.733  1.00  0.00    -0.374 A  
HETATM   28  C   UNL     1     -11.518  12.370  68.952  1.00  0.00    -0.355 A  
HETATM   29  C   UNL     1     -12.805  12.997  70.892  1.00  0.00    -0.222 A  
HETATM   30  C   UNL     1     -12.876  11.657  71.257  1.00  0.00    -0.430 A  
ENDBRANCH  23  25
BRANCH  22  31
HETATM   31  C   UNL     1     -10.680   8.164  70.546  1.00  0.00    -0.233 A  
HETATM   32  C   UNL     1     -10.510   7.855  72.981  1.00  0.00    -0.410 A  
HETATM   33  C   UNL     1     -12.319   6.820  71.792  1.00  0.00    -0.400 A  
HETATM   34  C   UNL     1     -11.771   7.271  70.584  1.00  0.00    -0.310 A  
HETATM   35  C   UNL     1     -10.036   8.401  71.780  1.00  0.00    -0.312 A  
HETATM   36  C   UNL     1     -11.689   7.118  72.994  1.00  0.00     0.111 A  
ENDBRANCH  22  31
ENDBRANCH   4  19
ENDBRANCH   2   4
TORSDOF 12
ENDMDL
MODEL       48
REMARK 921   NORMALIZED FREE ENERGY PREDICTED BY IDOCK:   -6.14 KCAL/MOL
REMARK 922        TOTAL FREE ENERGY PREDICTED BY IDOCK:  -11.77 KCAL/MOL
REMARK 923 INTER-LIGAND FREE ENERGY PREDICTED BY IDOCK:   -9.47 KCAL/MOL
REMARK 924 INTRA-LIGAND FREE ENERGY PREDICTED BY IDOCK:   -2.30 KCAL/MOL
REMARK 927      BINDING AFFINITY PREDICTED BY RF-SCORE:    0.00 PKD
ROOT
HETATM    1  C   UNL     1     -10.984   6.620  67.017  1.00  0.00    -0.463 C  
HETATM    2  C   UNL     1     -10.096   7.446  67.950  1.00  0.00    -0.178 C  
HETATM    3  C   UNL     1      -8.904   6.602  68.406  1.00  0.00    -0.121 C  
ENDROOT
BRANCH   2   4
HETATM    4  N   UNL     1      -9.662   8.744  67.381  1.00  0.00    -0.164 NA 
BRANCH   4   5
HETATM    5  C   UNL     1      -8.671   8.829  66.294  1.00  0.00    -0.147 C  
BRANCH   5   6
HETATM    6  C   UNL     1      -7.323   9.392  66.761  1.00  0.00    -0.086 C  
BRANCH   6   7
HETATM    7  C   UNL     1      -7.037  10.822  66.264  1.00  0.00    -0.134 C  
BRANCH   7   8
HETATM    8  C   UNL     1      -7.068  11.900  67.347  1.00  0.00    -0.129 C  
BRANCH   8   9
HETATM    9  O   UNL     1      -6.174  12.953  66.992  1.00  0.00    -0.242 OA 
BRANCH   9  10
HETATM   10  C   UNL     1      -6.006  13.887  68.057  1.00  0.00    -0.139 C  
BRANCH  10  11
HETATM   11  C   UNL     1      -6.230  15.318  67.583  1.00  0.00    -0.130 C  
HETATM   12  O   UNL     1      -5.359  15.952  67.004  1.00  0.00    -0.333 OA 
HETATM   13  N   UNL     1      -7.524  15.814  67.807  1.00  0.00    -0.133 N  
HETATM   14  H   UNL     1      -8.235  15.190  68.189  1.00  0.00     0.000 HD 
BRANCH  13  15
HETATM   15  S   UNL     1      -7.929  17.389  67.467  1.00  0.00    -0.197 S  
HETATM   16  O   UNL     1      -7.098  18.274  68.239  1.00  0.00    -0.232 OA 
HETATM   17  C   UNL     1      -9.541  17.452  68.183  1.00  0.00    -0.287 C  
HETATM   18  O   UNL     1      -8.096  17.515  66.040  1.00  0.00    -0.483 OA 
ENDBRANCH  13  15
ENDBRANCH  10  11
ENDBRANCH   9  10
ENDBRANCH   8   9
ENDBRANCH   7   8
ENDBRANCH   6   7
ENDBRANCH   5   6
ENDBRANCH   4   5
BRANCH   4  19
HETATM   19  C   UNL     1     -10.188   9.888  67.991  1.00  0.00    -0.182 A  
HETATM   20  N   UNL     1     -11.002  11.072  69.969  1.00  0.00    -0.165 NA 
HETATM   21  N   UNL     1     -10.450  10.983  67.240  1.00  0.00    -0.218 NA 
HETATM   22  C   UNL     1     -11.283  12.159  69.185  1.00  0.00    -0.244 A  
HETATM   23  C   UNL     1     -10.977  12.121  67.809  1.00  0.00    -0.233 A  
HETATM   24  C   UNL     1     -10.459   9.985  69.350  1.00  0.00    -0.232 A  
BRANCH  23  25
HETATM   25  C   UNL     1     -11.225  13.213  66.826  1.00  0.00    -0.330 A  
HETATM   26  C   UNL     1     -10.162  13.998  66.341  1.00  0.00    -0.293 A  
HETATM   27  C   UNL     1     -12.652  14.291  65.152  1.00  0.00    -0.384 A  
HETATM   28  C   UNL     1     -12.493  13.479  66.279  1.00  0.00    -0.384 A  
HETATM   29  C   UNL     1     -11.568  14.990  64.644  1.00  0.00    -0.386 A  
HETATM   30  C   UNL     1     -10.333  14.889  65.275  1.00  0.00    -0.424 A  
ENDBRANCH  23  25
BRANCH  22  31
HETATM   31  C   UNL     1     -11.955  13.279  69.923  1.00  0.00    -0.400 A  
HETATM   32  C   UNL     1     -12.243  15.689  70.332  1.00  0.00    -0.429 A  
HETATM   33  C   UNL     1     -13.613  14.125  71.529  1.00  0.00    -0.405 A  
HETATM   34  C   UNL     1     -12.899  13.068  70.949  1.00  0.00    -0.222 A  
HETATM   35  C   UNL     1     -11.614  14.626  69.668  1.00  0.00    -0.349 A  
HETATM   36  C   UNL     1     -13.288  15.438  71.215  1.00  0.00    -0.598 A  
ENDBRANCH  22  31
ENDBRANCH   4  19
ENDBRANCH   2   4
TORSDOF 12
ENDMDL
MODEL       49
REMARK 921   NORMALIZED FREE ENERGY PREDICTED BY IDOCK:   -6.13 KCAL/MOL
REMARK 922        TOTAL FREE ENERGY PREDICTED BY IDOCK:  -11.75 KCAL/MOL
REMARK 923 INTER-LIGAND FREE ENERGY PREDICTED BY IDOCK:   -9.85 KCAL/MOL
REMARK 924 INTRA-LIGAND FREE ENERGY PREDICTED BY IDOCK:   -1.91 KCAL/MOL
REMARK 927      BINDING AFFINITY PREDICTED BY RF-SCORE:    0.00 PKD
ROOT
HETATM    1  C   UNL     1     -10.019  11.850  64.559  1.00  0.00    -0.255 C  
HETATM    2  C   UNL     1     -10.730  13.181  64.305  1.00  0.00    -0.409 C  
HETATM    3  C   UNL     1     -11.932  12.954  63.386  1.00  0.00    -0.612 C  
ENDROOT
BRANCH   2   4
HETATM    4  N   UNL     1     -11.114  13.907  65.539  1.00  0.00    -0.300 NA 
BRANCH   4   5
HETATM    5  C   UNL     1     -12.261  13.492  66.366  1.00  0.00    -0.400 C  
BRANCH   5   6
HETATM    6  C   UNL     1     -12.154  13.977  67.817  1.00  0.00    -0.325 C  
BRANCH   6   7
HETATM    7  C   UNL     1     -11.704  12.889  68.809  1.00  0.00    -0.363 C  
BRANCH   7   8
HETATM    8  C   UNL     1     -12.141  13.114  70.257  1.00  0.00    -0.328 C  
BRANCH   8   9
HETATM    9  O   UNL     1     -12.236  11.856  70.922  1.00  0.00    -0.357 OA 
BRANCH   9  10
HETATM   10  C   UNL     1     -12.230  10.767  70.002  1.00  0.00    -0.334 C  
BRANCH  10  11
HETATM   11  C   UNL     1     -11.246   9.683  70.427  1.00  0.00    -0.283 C  
HETATM   12  O   UNL     1     -11.622   8.619  70.901  1.00  0.00    -0.277 OA 
HETATM   13  N   UNL     1      -9.899   9.980  70.171  1.00  0.00    -0.386 N  
HETATM   14  H   UNL     1      -9.667  10.835  69.667  1.00  0.00     0.000 HD 
BRANCH  13  15
HETATM   15  S   UNL     1      -8.671   8.976  70.667  1.00  0.00    -0.229 S  
HETATM   16  O   UNL     1      -8.709   8.847  72.100  1.00  0.00    -0.386 OA 
HETATM   17  C   UNL     1      -7.276   9.986  70.285  1.00  0.00    -0.147 C  
HETATM   18  O   UNL     1      -8.628   7.842  69.779  1.00  0.00    -0.132 OA 
ENDBRANCH  13  15
ENDBRANCH  10  11
ENDBRANCH   9  10
ENDBRANCH   8   9
ENDBRANCH   7   8
ENDBRANCH   6   7
ENDBRANCH   5   6
ENDBRANCH   4   5
BRANCH   4  19
HETATM   19  C   UNL     1     -10.373  15.058  65.830  1.00  0.00    -0.313 A  
HETATM   20  N   UNL     1      -9.929  17.444  65.536  1.00  0.00    -0.503 NA 
HETATM   21  N   UNL     1      -9.325  14.977  66.682  1.00  0.00    -0.249 NA 
HETATM   22  C   UNL     1      -8.857  17.333  66.380  1.00  0.00    -0.246 A  
HETATM   23  C   UNL     1      -8.571  16.090  66.981  1.00  0.00    -0.210 A  
HETATM   24  C   UNL     1     -10.651  16.311  65.299  1.00  0.00    -0.336 A  
BRANCH  23  25
HETATM   25  C   UNL     1      -7.443  15.806  67.913  1.00  0.00    -0.147 A  
HETATM   26  C   UNL     1      -7.662  15.726  69.302  1.00  0.00    -0.224 A  
HETATM   27  C   UNL     1      -5.173  14.983  68.325  1.00  0.00    -0.114 A  
HETATM   28  C   UNL     1      -6.134  15.537  67.475  1.00  0.00    -0.119 A  
HETATM   29  C   UNL     1      -5.446  14.840  69.677  1.00  0.00    -0.094 A  
HETATM   30  C   UNL     1      -6.671  15.266  70.177  1.00  0.00    -0.037 A  
ENDBRANCH  23  25
BRANCH  22  31
HETATM   31  C   UNL     1      -8.065  18.600  66.523  1.00  0.00    -0.301 A  
HETATM   32  C   UNL     1      -7.819  20.864  67.455  1.00  0.00    -0.188 A  
HETATM   33  C   UNL     1      -6.057  19.955  66.106  1.00  0.00    -0.187 A  
HETATM   34  C   UNL     1      -6.845  18.824  65.853  1.00  0.00    -0.307 A  
HETATM   35  C   UNL     1      -8.552  19.679  67.294  1.00  0.00    -0.356 A  
HETATM   36  C   UNL     1      -6.544  20.974  66.914  1.00  0.00    -0.397 A  
ENDBRANCH  22  31
ENDBRANCH   4  19
ENDBRANCH   2   4
TORSDOF 12
ENDMDL
MODEL       50
REMARK 921   NORMALIZED FREE ENERGY PREDICTED BY IDOCK:   -6.07 KCAL/MOL
REMARK 922        TOTAL FREE ENERGY PREDICTED BY IDOCK:  -11.65 KCAL/MOL
REMARK 923 INTER-LIGAND FREE ENERGY PREDICTED BY IDOCK:  -10.16 KCAL/MOL
REMARK 924 INTRA-LIGAND FREE ENERGY PREDICTED BY IDOCK:   -1.49 KCAL/MOL
REMARK 927      BINDING AFFINITY PREDICTED BY RF-SCORE:    0.00 PKD
ROOT
HETATM    1  C   UNL     1     -13.923   8.770  71.949  1.00  0.00    -0.493 C  
HETATM    2  C   UNL     1     -12.692   7.868  71.845  1.00  0.00    -0.316 C  
HETATM    3  C   UNL     1     -12.884   6.864  70.706  1.00  0.00    -0.033 C  
ENDROOT
BRANCH   2   4
HETATM    4  N   UNL     1     -11.411   8.604  71.713  1.00  0.00    -0.300 NA 
BRANCH   4   5
HETATM    5  C   UNL     1     -10.249   8.311  72.570  1.00  0.00    -0.316 C  
BRANCH   5   6
HETATM    6  C   UNL     1     -10.510   7.163  73.553  1.00  0.00    -0.422 C  
BRANCH   6   7
HETATM    7  C   UNL     1      -9.860   5.829  73.142  1.00  0.00    -0.178 C  
BRANCH   7   8
HETATM    8  C   UNL     1      -8.353   5.894  72.894  1.00  0.00    -0.118 C  
BRANCH   8   9
HETATM    9  O   UNL     1      -8.064   5.382  71.595  1.00  0.00    -0.113 OA 
BRANCH   9  10
HETATM   10  C   UNL     1      -9.247   5.221  70.814  1.00  0.00    -0.152 C  
BRANCH  10  11
HETATM   11  C   UNL     1      -9.152   5.980  69.495  1.00  0.00    -0.137 C  
HETATM   12  O   UNL     1      -8.473   6.991  69.379  1.00  0.00    -0.131 OA 
HETATM   13  N   UNL     1      -9.847   5.390  68.428  1.00  0.00    -0.139 N  
HETATM   14  H   UNL     1     -10.295   4.485  68.567  1.00  0.00     0.000 HD 
BRANCH  13  15
HETATM   15  S   UNL     1      -9.958   6.128  66.942  1.00  0.00    -0.183 S  
HETATM   16  O   UNL     1     -10.964   7.156  66.993  1.00  0.00    -0.369 OA 
HETATM   17  C   UNL     1     -10.634   4.802  65.993  1.00  0.00    -0.254 C  
HETATM   18  O   UNL     1      -8.623   6.360  66.452  1.00  0.00    -0.124 OA 
ENDBRANCH  13  15
ENDBRANCH  10  11
ENDBRANCH   9  10
ENDBRANCH   8   9
ENDBRANCH   7   8
ENDBRANCH   6   7
ENDBRANCH   5   6
ENDBRANCH   4   5
BRANCH   4  19
HETATM   19  C   UNL     1     -11.396   9.647  70.781  1.00  0.00    -0.340 A  
HETATM   20  N   UNL     1     -10.806  10.539  68.582  1.00  0.00    -0.220 NA 
HETATM   21  N   UNL     1     -11.930  10.845  71.113  1.00  0.00    -0.279 NA 
HETATM   22  C   UNL     1     -11.329  11.751  68.950  1.00  0.00    -0.267 A  
HETATM   23  C   UNL     1     -11.923  11.894  70.221  1.00  0.00    -0.330 A  
HETATM   24  C   UNL     1     -10.866   9.534  69.502  1.00  0.00    -0.222 A  
BRANCH  23  25
HETATM   25  C   UNL     1     -12.528  13.141  70.770  1.00  0.00    -0.389 A  
HETATM   26  C   UNL     1     -13.434  13.086  71.846  1.00  0.00    -0.498 A  
HETATM   27  C   UNL     1     -12.531  15.577  71.023  1.00  0.00    -0.492 A  
HETATM   28  C   UNL     1     -12.191  14.426  70.307  1.00  0.00    -0.397 A  
HETATM   29  C   UNL     1     -13.360  15.484  72.130  1.00  0.00    -0.561 A  
HETATM   30  C   UNL     1     -13.860  14.243  72.508  1.00  0.00    -0.575 A  
ENDBRANCH  23  25
BRANCH  22  31
HETATM   31  C   UNL     1     -11.149  12.825  67.918  1.00  0.00    -0.281 A  
HETATM   32  C   UNL     1     -12.036  14.144  66.039  1.00  0.00    -0.449 A  
HETATM   33  C   UNL     1      -9.842  14.628  66.877  1.00  0.00    -0.252 A  
HETATM   34  C   UNL     1      -9.944  13.538  67.752  1.00  0.00    -0.232 A  
HETATM   35  C   UNL     1     -12.177  13.130  66.998  1.00  0.00    -0.271 A  
HETATM   36  C   UNL     1     -10.893  14.934  66.023  1.00  0.00    -0.328 A  
ENDBRANCH  22  31
ENDBRANCH   4  19
ENDBRANCH   2   4
TORSDOF 12
ENDMDL
MODEL       51
REMARK 921   NORMALIZED FREE ENERGY PREDICTED BY IDOCK:   -6.05 KCAL/MOL
REMARK 922        TOTAL FREE ENERGY PREDICTED BY IDOCK:  -11.61 KCAL/MOL
REMARK 923 INTER-LIGAND FREE ENERGY PREDICTED BY IDOCK:   -9.96 KCAL/MOL
REMARK 924 INTRA-LIGAND FREE ENERGY PREDICTED BY IDOCK:   -1.65 KCAL/MOL
REMARK 927      BINDING AFFINITY PREDICTED BY RF-SCORE:    0.00 PKD
ROOT
HETATM    1  C   UNL     1      -7.865  10.289  67.873  1.00  0.00    -0.101 C  
HETATM    2  C   UNL     1      -9.026  10.713  66.971  1.00  0.00    -0.137 C  
HETATM    3  C   UNL     1      -9.480   9.522  66.124  1.00  0.00    -0.281 C  
ENDROOT
BRANCH   2   4
HETATM    4  N   UNL     1     -10.162  11.331  67.697  1.00  0.00    -0.178 NA 
BRANCH   4   5
HETATM    5  C   UNL     1     -11.282  10.532  68.225  1.00  0.00    -0.291 C  
BRANCH   5   6
HETATM    6  C   UNL     1     -11.095  10.148  69.698  1.00  0.00    -0.308 C  
BRANCH   6   7
HETATM    7  C   UNL     1     -12.174  10.722  70.635  1.00  0.00    -0.474 C  
BRANCH   7   8
HETATM    8  C   UNL     1     -12.561   9.817  71.805  1.00  0.00    -0.416 C  
BRANCH   8   9
HETATM    9  O   UNL     1     -11.415   9.082  72.232  1.00  0.00    -0.323 OA 
BRANCH   9  10
HETATM   10  C   UNL     1     -11.723   7.709  72.466  1.00  0.00    -0.301 C  
BRANCH  10  11
HETATM   11  C   UNL     1     -10.506   6.943  72.971  1.00  0.00    -0.264 C  
HETATM   12  O   UNL     1     -10.042   7.130  74.088  1.00  0.00    -0.309 OA 
HETATM   13  N   UNL     1     -10.013   5.973  72.085  1.00  0.00    -0.165 N  
HETATM   14  H   UNL     1     -10.520   5.789  71.219  1.00  0.00     0.000 HD 
BRANCH  13  15
HETATM   15  S   UNL     1      -8.626   5.117  72.406  1.00  0.00    -0.125 S  
HETATM   16  O   UNL     1      -7.481   5.955  72.170  1.00  0.00    -0.092 OA 
HETATM   17  C   UNL     1      -8.678   3.944  71.089  1.00  0.00    -0.081 C  
HETATM   18  O   UNL     1      -8.822   4.384  73.632  1.00  0.00    -0.101 OA 
ENDBRANCH  13  15
ENDBRANCH  10  11
ENDBRANCH   9  10
ENDBRANCH   8   9
ENDBRANCH   7   8
ENDBRANCH   6   7
ENDBRANCH   5   6
ENDBRANCH   4   5
BRANCH   4  19
HETATM   19  C   UNL     1     -10.148  12.728  67.782  1.00  0.00    -0.224 A  
HETATM   20  N   UNL     1      -9.392  14.909  66.979  1.00  0.00    -0.217 NA 
HETATM   21  N   UNL     1     -10.850  13.342  68.762  1.00  0.00    -0.250 NA 
HETATM   22  C   UNL     1     -10.089  15.509  67.994  1.00  0.00    -0.223 A  
HETATM   23  C   UNL     1     -10.849  14.715  68.878  1.00  0.00    -0.250 A  
HETATM   24  C   UNL     1      -9.452  13.549  66.904  1.00  0.00    -0.258 A  
BRANCH  23  25
HETATM   25  C   UNL     1     -11.654  15.211  70.029  1.00  0.00    -0.326 A  
HETATM   26  C   UNL     1     -13.014  14.867  70.156  1.00  0.00    -0.103 A  
HETATM   27  C   UNL     1     -11.791  16.174  72.278  1.00  0.00    -0.631 A  
HETATM   28  C   UNL     1     -11.107  15.978  71.074  1.00  0.00    -0.238 A  
HETATM   29  C   UNL     1     -13.105  15.751  72.404  1.00  0.00    -0.544 A  
HETATM   30  C   UNL     1     -13.737  15.149  71.321  1.00  0.00    -0.555 A  
ENDBRANCH  23  25
BRANCH  22  31
HETATM   31  C   UNL     1      -9.903  16.996  68.060  1.00  0.00    -0.275 A  
HETATM   32  C   UNL     1     -10.759  19.269  67.662  1.00  0.00    -0.533 A  
HETATM   33  C   UNL     1      -8.613  18.989  68.697  1.00  0.00    -0.389 A  
HETATM   34  C   UNL     1      -8.715  17.603  68.515  1.00  0.00    -0.285 A  
HETATM   35  C   UNL     1     -10.905  17.876  67.592  1.00  0.00    -0.243 A  
HETATM   36  C   UNL     1      -9.640  19.822  68.275  1.00  0.00    -0.467 A  
ENDBRANCH  22  31
ENDBRANCH   4  19
ENDBRANCH   2   4
TORSDOF 12
ENDMDL
MODEL       52
REMARK 921   NORMALIZED FREE ENERGY PREDICTED BY IDOCK:   -6.03 KCAL/MOL
REMARK 922        TOTAL FREE ENERGY PREDICTED BY IDOCK:  -11.58 KCAL/MOL
REMARK 923 INTER-LIGAND FREE ENERGY PREDICTED BY IDOCK:  -10.22 KCAL/MOL
REMARK 924 INTRA-LIGAND FREE ENERGY PREDICTED BY IDOCK:   -1.36 KCAL/MOL
REMARK 927      BINDING AFFINITY PREDICTED BY RF-SCORE:    0.00 PKD
ROOT
HETATM    1  C   UNL     1     -14.377  14.408  71.747  1.00  0.00    -0.584 C  
HETATM    2  C   UNL     1     -13.041  14.086  71.075  1.00  0.00    -0.272 C  
HETATM    3  C   UNL     1     -11.905  14.784  71.827  1.00  0.00    -0.373 C  
ENDROOT
BRANCH   2   4
HETATM    4  N   UNL     1     -12.778  12.636  70.912  1.00  0.00    -0.246 NA 
BRANCH   4   5
HETATM    5  C   UNL     1     -13.108  11.658  71.964  1.00  0.00    -0.328 C  
BRANCH   5   6
HETATM    6  C   UNL     1     -13.643  10.336  71.399  1.00  0.00    -0.176 C  
BRANCH   6   7
HETATM    7  C   UNL     1     -13.570   9.159  72.389  1.00  0.00    -0.544 C  
BRANCH   7   8
HETATM    8  C   UNL     1     -12.285   8.333  72.316  1.00  0.00    -0.370 C  
BRANCH   8   9
HETATM    9  O   UNL     1     -12.018   7.993  70.957  1.00  0.00    -0.296 OA 
BRANCH   9  10
HETATM   10  C   UNL     1     -12.031   6.582  70.750  1.00  0.00    -0.287 C  
BRANCH  10  11
HETATM   11  C   UNL     1     -10.982   6.158  69.729  1.00  0.00    -0.390 C  
HETATM   12  O   UNL     1     -10.282   5.169  69.894  1.00  0.00    -0.255 OA 
HETATM   13  N   UNL     1     -10.937   6.950  68.571  1.00  0.00    -0.446 N  
HETATM   14  H   UNL     1     -11.629   7.688  68.448  1.00  0.00     0.000 HD 
BRANCH  13  15
HETATM   15  S   UNL     1      -9.784   6.718  67.396  1.00  0.00    -0.141 S  
HETATM   16  O   UNL     1      -9.496   5.313  67.281  1.00  0.00    -0.119 OA 
HETATM   17  C   UNL     1      -8.390   7.459  68.184  1.00  0.00    -0.124 C  
HETATM   18  O   UNL     1     -10.120   7.546  66.265  1.00  0.00    -0.079 OA 
ENDBRANCH  13  15
ENDBRANCH  10  11
ENDBRANCH   9  10
ENDBRANCH   8   9
ENDBRANCH   7   8
ENDBRANCH   6   7
ENDBRANCH   5   6
ENDBRANCH   4   5
BRANCH   4  19
HETATM   19  C   UNL     1     -12.126  12.259  69.732  1.00  0.00    -0.229 A  
HETATM   20  N   UNL     1     -10.812  10.656  68.437  1.00  0.00    -0.219 NA 
HETATM   21  N   UNL     1     -12.110  13.109  68.679  1.00  0.00    -0.268 NA 
HETATM   22  C   UNL     1     -10.787  11.542  67.392  1.00  0.00    -0.246 A  
HETATM   23  C   UNL     1     -11.469  12.771  67.508  1.00  0.00    -0.336 A  
HETATM   24  C   UNL     1     -11.484  11.040  69.559  1.00  0.00    -0.299 A  
BRANCH  23  25
HETATM   25  C   UNL     1     -11.533  13.839  66.471  1.00  0.00    -0.364 A  
HETATM   26  C   UNL     1     -10.508  14.799  66.365  1.00  0.00    -0.294 A  
HETATM   27  C   UNL     1     -12.443  14.726  64.377  1.00  0.00    -0.274 A  
HETATM   28  C   UNL     1     -12.557  13.916  65.510  1.00  0.00    -0.560 A  
HETATM   29  C   UNL     1     -11.378  15.606  64.260  1.00  0.00    -0.181 A  
HETATM   30  C   UNL     1     -10.439  15.685  65.283  1.00  0.00    -0.439 A  
ENDBRANCH  23  25
BRANCH  22  31
HETATM   31  C   UNL     1      -9.959  11.084  66.229  1.00  0.00    -0.269 A  
HETATM   32  C   UNL     1      -9.758  10.561  63.832  1.00  0.00    -0.384 A  
HETATM   33  C   UNL     1      -7.822  10.380  65.238  1.00  0.00    -0.137 A  
HETATM   34  C   UNL     1      -8.616  10.673  66.355  1.00  0.00    -0.151 A  
HETATM   35  C   UNL     1     -10.519  10.969  64.937  1.00  0.00    -0.371 A  
HETATM   36  C   UNL     1      -8.394  10.330  63.973  1.00  0.00    -0.165 A  
ENDBRANCH  22  31
ENDBRANCH   4  19
ENDBRANCH   2   4
TORSDOF 12
ENDMDL
MODEL       53
REMARK 921   NORMALIZED FREE ENERGY PREDICTED BY IDOCK:   -6.03 KCAL/MOL
REMARK 922        TOTAL FREE ENERGY PREDICTED BY IDOCK:  -11.58 KCAL/MOL
REMARK 923 INTER-LIGAND FREE ENERGY PREDICTED BY IDOCK:   -8.94 KCAL/MOL
REMARK 924 INTRA-LIGAND FREE ENERGY PREDICTED BY IDOCK:   -2.64 KCAL/MOL
REMARK 927      BINDING AFFINITY PREDICTED BY RF-SCORE:    0.00 PKD
ROOT
HETATM    1  C   UNL     1     -10.176   7.430  73.460  1.00  0.00    -0.400 C  
HETATM    2  C   UNL     1     -10.646   6.387  72.444  1.00  0.00    -0.213 C  
HETATM    3  C   UNL     1     -11.261   5.194  73.179  1.00  0.00    -0.398 C  
ENDROOT
BRANCH   2   4
HETATM    4  N   UNL     1     -11.562   6.921  71.407  1.00  0.00    -0.281 NA 
BRANCH   4   5
HETATM    5  C   UNL     1     -13.013   7.044  71.633  1.00  0.00    -0.352 C  
BRANCH   5   6
HETATM    6  C   UNL     1     -13.542   8.455  71.343  1.00  0.00    -0.263 C  
BRANCH   6   7
HETATM    7  C   UNL     1     -12.924   9.549  72.233  1.00  0.00    -0.466 C  
BRANCH   7   8
HETATM    8  C   UNL     1     -12.743  10.907  71.554  1.00  0.00    -0.428 C  
BRANCH   8   9
HETATM    9  O   UNL     1     -12.413  10.708  70.180  1.00  0.00    -0.322 OA 
BRANCH   9  10
HETATM   10  C   UNL     1     -11.956  11.911  69.565  1.00  0.00    -0.292 C  
BRANCH  10  11
HETATM   11  C   UNL     1     -11.875  11.767  68.050  1.00  0.00    -0.234 C  
HETATM   12  O   UNL     1     -11.760  10.675  67.510  1.00  0.00    -0.445 OA 
HETATM   13  N   UNL     1     -12.008  12.969  67.338  1.00  0.00    -0.351 N  
HETATM   14  H   UNL     1     -12.218  13.826  67.848  1.00  0.00     0.000 HD 
BRANCH  13  15
HETATM   15  S   UNL     1     -11.831  13.033  65.687  1.00  0.00    -0.423 S  
HETATM   16  O   UNL     1     -10.572  12.443  65.317  1.00  0.00    -0.274 OA 
HETATM   17  C   UNL     1     -11.660  14.775  65.465  1.00  0.00    -0.301 C  
HETATM   18  O   UNL     1     -13.083  12.651  65.084  1.00  0.00    -0.726 OA 
ENDBRANCH  13  15
ENDBRANCH  10  11
ENDBRANCH   9  10
ENDBRANCH   8   9
ENDBRANCH   7   8
ENDBRANCH   6   7
ENDBRANCH   5   6
ENDBRANCH   4   5
BRANCH   4  19
HETATM   19  C   UNL     1     -10.979   7.228  70.173  1.00  0.00    -0.260 A  
HETATM   20  N   UNL     1     -10.808   6.914  67.754  1.00  0.00    -0.247 NA 
HETATM   21  N   UNL     1      -9.973   8.131  70.118  1.00  0.00    -0.185 NA 
HETATM   22  C   UNL     1      -9.774   7.812  67.726  1.00  0.00    -0.153 A  
HETATM   23  C   UNL     1      -9.373   8.448  68.919  1.00  0.00    -0.147 A  
HETATM   24  C   UNL     1     -11.376   6.662  68.968  1.00  0.00    -0.160 A  
BRANCH  23  25
HETATM   25  C   UNL     1      -8.268   9.439  69.055  1.00  0.00    -0.108 A  
HETATM   26  C   UNL     1      -8.428  10.760  68.596  1.00  0.00    -0.143 A  
HETATM   27  C   UNL     1      -6.162  10.157  70.079  1.00  0.00    -0.076 A  
HETATM   28  C   UNL     1      -7.051   9.148  69.697  1.00  0.00    -0.059 A  
HETATM   29  C   UNL     1      -6.388  11.466  69.681  1.00  0.00    -0.127 A  
HETATM   30  C   UNL     1      -7.492  11.759  68.889  1.00  0.00    -0.080 A  
ENDBRANCH  23  25
BRANCH  22  31
HETATM   31  C   UNL     1      -9.148   7.971  66.372  1.00  0.00    -0.226 A  
HETATM   32  C   UNL     1      -7.644   7.140  64.610  1.00  0.00    -0.106 A  
HETATM   33  C   UNL     1      -8.888   9.156  64.234  1.00  0.00    -0.139 A  
HETATM   34  C   UNL     1      -9.373   9.092  65.547  1.00  0.00    -0.287 A  
HETATM   35  C   UNL     1      -8.226   7.020  65.880  1.00  0.00    -0.133 A  
HETATM   36  C   UNL     1      -8.026   8.174  63.763  1.00  0.00    -0.137 A  
ENDBRANCH  22  31
ENDBRANCH   4  19
ENDBRANCH   2   4
TORSDOF 12
ENDMDL
MODEL       54
REMARK 921   NORMALIZED FREE ENERGY PREDICTED BY IDOCK:   -6.00 KCAL/MOL
REMARK 922        TOTAL FREE ENERGY PREDICTED BY IDOCK:  -11.53 KCAL/MOL
REMARK 923 INTER-LIGAND FREE ENERGY PREDICTED BY IDOCK:  -10.77 KCAL/MOL
REMARK 924 INTRA-LIGAND FREE ENERGY PREDICTED BY IDOCK:   -0.76 KCAL/MOL
REMARK 927      BINDING AFFINITY PREDICTED BY RF-SCORE:    0.00 PKD
ROOT
HETATM    1  C   UNL     1     -12.484  12.248  63.624  1.00  0.00    -0.647 C  
HETATM    2  C   UNL     1     -11.751  13.318  64.436  1.00  0.00    -0.388 C  
HETATM    3  C   UNL     1     -12.281  14.703  64.058  1.00  0.00    -0.226 C  
ENDROOT
BRANCH   2   4
HETATM    4  N   UNL     1     -11.793  13.099  65.903  1.00  0.00    -0.384 NA 
BRANCH   4   5
HETATM    5  C   UNL     1     -12.239  14.147  66.837  1.00  0.00    -0.365 C  
BRANCH   5   6
HETATM    6  C   UNL     1     -11.111  15.107  67.236  1.00  0.00    -0.332 C  
BRANCH   6   7
HETATM    7  C   UNL     1     -10.576  14.885  68.663  1.00  0.00    -0.251 C  
BRANCH   7   8
HETATM    8  C   UNL     1      -9.090  14.537  68.748  1.00  0.00    -0.158 C  
BRANCH   8   9
HETATM    9  O   UNL     1      -8.394  15.596  69.403  1.00  0.00    -0.243 OA 
BRANCH   9  10
HETATM   10  C   UNL     1      -7.505  16.274  68.518  1.00  0.00    -0.176 C  
BRANCH  10  11
HETATM   11  C   UNL     1      -7.819  17.764  68.444  1.00  0.00    -0.284 C  
HETATM   12  O   UNL     1      -7.156  18.595  69.049  1.00  0.00    -0.295 OA 
HETATM   13  N   UNL     1      -8.876  18.098  67.583  1.00  0.00    -0.250 N  
HETATM   14  H   UNL     1      -9.308  17.366  67.021  1.00  0.00     0.000 HD 
BRANCH  13  15
HETATM   15  S   UNL     1      -9.443  19.656  67.457  1.00  0.00    -0.348 S  
HETATM   16  O   UNL     1     -10.282  19.952  68.588  1.00  0.00    -0.447 OA 
HETATM   17  C   UNL     1     -10.511  19.480  66.063  1.00  0.00    -0.516 C  
HETATM   18  O   UNL     1      -8.350  20.502  67.048  1.00  0.00    -0.310 OA 
ENDBRANCH  13  15
ENDBRANCH  10  11
ENDBRANCH   9  10
ENDBRANCH   8   9
ENDBRANCH   7   8
ENDBRANCH   6   7
ENDBRANCH   5   6
ENDBRANCH   4   5
BRANCH   4  19
HETATM   19  C   UNL     1     -11.309  11.866  66.353  1.00  0.00    -0.339 A  
HETATM   20  N   UNL     1     -10.114   9.769  65.962  1.00  0.00    -0.273 NA 
HETATM   21  N   UNL     1     -11.549  11.481  67.627  1.00  0.00    -0.515 NA 
HETATM   22  C   UNL     1     -10.392   9.388  67.248  1.00  0.00    -0.260 A  
HETATM   23  C   UNL     1     -11.094  10.269  68.097  1.00  0.00    -0.264 A  
HETATM   24  C   UNL     1     -10.572  10.990  65.565  1.00  0.00    -0.200 A  
BRANCH  23  25
HETATM   25  C   UNL     1     -11.476  10.003  69.513  1.00  0.00    -0.176 A  
HETATM   26  C   UNL     1     -12.535  10.709  70.115  1.00  0.00    -0.342 A  
HETATM   27  C   UNL     1     -11.432   8.572  71.500  1.00  0.00    -0.350 A  
HETATM   28  C   UNL     1     -10.868   9.008  70.298  1.00  0.00    -0.269 A  
HETATM   29  C   UNL     1     -12.528   9.237  72.031  1.00  0.00    -0.451 A  
HETATM   30  C   UNL     1     -13.044  10.344  71.367  1.00  0.00    -0.512 A  
ENDBRANCH  23  25
BRANCH  22  31
HETATM   31  C   UNL     1      -9.930   8.000  67.582  1.00  0.00    -0.234 A  
HETATM   32  C   UNL     1     -10.384   5.587  67.748  1.00  0.00    -0.246 A  
HETATM   33  C   UNL     1      -8.192   6.406  68.274  1.00  0.00    -0.116 A  
HETATM   34  C   UNL     1      -8.649   7.719  68.099  1.00  0.00    -0.123 A  
HETATM   35  C   UNL     1     -10.801   6.894  67.460  1.00  0.00    -0.363 A  
HETATM   36  C   UNL     1      -9.060   5.338  68.093  1.00  0.00    -0.120 A  
ENDBRANCH  22  31
ENDBRANCH   4  19
ENDBRANCH   2   4
TORSDOF 12
ENDMDL
MODEL       55
REMARK 921   NORMALIZED FREE ENERGY PREDICTED BY IDOCK:   -5.99 KCAL/MOL
REMARK 922        TOTAL FREE ENERGY PREDICTED BY IDOCK:  -11.51 KCAL/MOL
REMARK 923 INTER-LIGAND FREE ENERGY PREDICTED BY IDOCK:  -10.24 KCAL/MOL
REMARK 924 INTRA-LIGAND FREE ENERGY PREDICTED BY IDOCK:   -1.27 KCAL/MOL
REMARK 927      BINDING AFFINITY PREDICTED BY RF-SCORE:    0.00 PKD
ROOT
HETATM    1  C   UNL     1      -8.330  12.507  67.275  1.00  0.00    -0.185 C  
HETATM    2  C   UNL     1      -9.167  11.983  66.106  1.00  0.00    -0.179 C  
HETATM    3  C   UNL     1      -8.417  10.849  65.404  1.00  0.00    -0.088 C  
ENDROOT
BRANCH   2   4
HETATM    4  N   UNL     1     -10.544  11.579  66.481  1.00  0.00    -0.248 NA 
BRANCH   4   5
HETATM    5  C   UNL     1     -11.732  12.128  65.804  1.00  0.00    -0.327 C  
BRANCH   5   6
HETATM    6  C   UNL     1     -11.592  12.141  64.276  1.00  0.00    -0.444 C  
BRANCH   6   7
HETATM    7  C   UNL     1     -12.332  13.304  63.591  1.00  0.00    -0.456 C  
BRANCH   7   8
HETATM    8  C   UNL     1     -12.301  14.628  64.354  1.00  0.00    -0.398 C  
BRANCH   8   9
HETATM    9  O   UNL     1     -10.964  15.124  64.386  1.00  0.00    -0.245 OA 
BRANCH   9  10
HETATM   10  C   UNL     1     -10.598  15.579  65.687  1.00  0.00    -0.373 C  
BRANCH  10  11
HETATM   11  C   UNL     1     -10.491  17.099  65.737  1.00  0.00    -0.233 C  
HETATM   12  O   UNL     1     -11.085  17.815  64.942  1.00  0.00    -0.821 OA 
HETATM   13  N   UNL     1      -9.718  17.598  66.796  1.00  0.00    -0.287 N  
HETATM   14  H   UNL     1      -9.348  16.949  67.489  1.00  0.00     0.000 HD 
BRANCH  13  15
HETATM   15  S   UNL     1      -9.388  19.220  66.951  1.00  0.00    -0.334 S  
HETATM   16  O   UNL     1      -8.510  19.632  65.888  1.00  0.00    -0.394 OA 
HETATM   17  C   UNL     1      -8.423  19.196  68.428  1.00  0.00    -0.349 C  
HETATM   18  O   UNL     1     -10.619  19.903  67.261  1.00  0.00    -0.430 OA 
ENDBRANCH  13  15
ENDBRANCH  10  11
ENDBRANCH   9  10
ENDBRANCH   8   9
ENDBRANCH   7   8
ENDBRANCH   6   7
ENDBRANCH   5   6
ENDBRANCH   4   5
BRANCH   4  19
HETATM   19  C   UNL     1     -10.652  10.705  67.568  1.00  0.00    -0.252 A  
HETATM   20  N   UNL     1     -11.243  10.257  69.898  1.00  0.00    -0.279 NA 
HETATM   21  N   UNL     1     -10.258   9.418  67.430  1.00  0.00    -0.222 NA 
HETATM   22  C   UNL     1     -10.815   8.965  69.743  1.00  0.00    -0.200 A  
HETATM   23  C   UNL     1     -10.344   8.536  68.485  1.00  0.00    -0.198 A  
HETATM   24  C   UNL     1     -11.155  11.074  68.809  1.00  0.00    -0.239 A  
BRANCH  23  25
HETATM   25  C   UNL     1      -9.841   7.172  68.156  1.00  0.00    -0.157 A  
HETATM   26  C   UNL     1      -8.749   6.622  68.855  1.00  0.00    -0.128 A  
HETATM   27  C   UNL     1     -10.157   4.975  67.122  1.00  0.00    -0.239 A  
HETATM   28  C   UNL     1     -10.449   6.339  67.200  1.00  0.00    -0.327 A  
HETATM   29  C   UNL     1      -9.128   4.442  67.884  1.00  0.00    -0.154 A  
HETATM   30  C   UNL     1      -8.384   5.279  68.709  1.00  0.00    -0.092 A  
ENDBRANCH  23  25
BRANCH  22  31
HETATM   31  C   UNL     1     -10.864   8.156  71.005  1.00  0.00    -0.265 A  
HETATM   32  C   UNL     1     -11.636   6.166  72.230  1.00  0.00    -0.362 A  
HETATM   33  C   UNL     1     -10.204   7.740  73.336  1.00  0.00    -0.315 A  
HETATM   34  C   UNL     1     -10.262   8.572  72.210  1.00  0.00    -0.395 A  
HETATM   35  C   UNL     1     -11.593   6.947  71.066  1.00  0.00    -0.374 A  
HETATM   36  C   UNL     1     -10.887   6.531  73.343  1.00  0.00    -0.249 A  
ENDBRANCH  22  31
ENDBRANCH   4  19
ENDBRANCH   2   4
TORSDOF 12
ENDMDL
MODEL       56
REMARK 921   NORMALIZED FREE ENERGY PREDICTED BY IDOCK:   -5.98 KCAL/MOL
REMARK 922        TOTAL FREE ENERGY PREDICTED BY IDOCK:  -11.50 KCAL/MOL
REMARK 923 INTER-LIGAND FREE ENERGY PREDICTED BY IDOCK:   -9.42 KCAL/MOL
REMARK 924 INTRA-LIGAND FREE ENERGY PREDICTED BY IDOCK:   -2.08 KCAL/MOL
REMARK 927      BINDING AFFINITY PREDICTED BY RF-SCORE:    0.00 PKD
ROOT
HETATM    1  C   UNL     1     -10.951   8.144  72.715  1.00  0.00    -0.401 C  
HETATM    2  C   UNL     1     -11.549   7.851  71.337  1.00  0.00    -0.272 C  
HETATM    3  C   UNL     1     -12.866   7.089  71.500  1.00  0.00    -0.420 C  
ENDROOT
BRANCH   2   4
HETATM    4  N   UNL     1     -11.714   9.051  70.481  1.00  0.00    -0.189 NA 
BRANCH   4   5
HETATM    5  C   UNL     1     -12.850   9.975  70.640  1.00  0.00    -0.192 C  
BRANCH   5   6
HETATM    6  C   UNL     1     -12.490  11.225  71.454  1.00  0.00    -0.392 C  
BRANCH   6   7
HETATM    7  C   UNL     1     -12.300  12.493  70.602  1.00  0.00    -0.369 C  
BRANCH   7   8
HETATM    8  C   UNL     1     -12.760  13.791  71.264  1.00  0.00    -0.371 C  
BRANCH   8   9
HETATM    9  O   UNL     1     -11.722  14.765  71.168  1.00  0.00    -0.318 OA 
BRANCH   9  10
HETATM   10  C   UNL     1     -11.906  15.627  70.047  1.00  0.00    -0.367 C  
BRANCH  10  11
HETATM   11  C   UNL     1     -10.662  15.672  69.167  1.00  0.00    -0.243 C  
HETATM   12  O   UNL     1      -9.535  15.608  69.638  1.00  0.00    -0.282 OA 
HETATM   13  N   UNL     1     -10.920  15.725  67.789  1.00  0.00    -0.316 N  
HETATM   14  H   UNL     1     -11.883  15.657  67.461  1.00  0.00     0.000 HD 
BRANCH  13  15
HETATM   15  S   UNL     1      -9.698  15.896  66.675  1.00  0.00    -0.270 S  
HETATM   16  O   UNL     1      -9.064  17.175  66.854  1.00  0.00    -0.224 OA 
HETATM   17  C   UNL     1     -10.648  16.002  65.192  1.00  0.00    -0.370 C  
HETATM   18  O   UNL     1      -8.963  14.657  66.618  1.00  0.00    -0.256 OA 
ENDBRANCH  13  15
ENDBRANCH  10  11
ENDBRANCH   9  10
ENDBRANCH   8   9
ENDBRANCH   7   8
ENDBRANCH   6   7
ENDBRANCH   5   6
ENDBRANCH   4   5
BRANCH   4  19
HETATM   19  C   UNL     1     -10.769   9.211  69.462  1.00  0.00    -0.215 A  
HETATM   20  N   UNL     1      -8.551   8.797  68.520  1.00  0.00    -0.133 NA 
HETATM   21  N   UNL     1     -11.079   9.959  68.378  1.00  0.00    -0.186 NA 
HETATM   22  C   UNL     1      -8.878   9.580  67.445  1.00  0.00    -0.128 A  
HETATM   23  C   UNL     1     -10.168  10.143  67.362  1.00  0.00    -0.218 A  
HETATM   24  C   UNL     1      -9.505   8.634  69.481  1.00  0.00    -0.162 A  
BRANCH  23  25
HETATM   25  C   UNL     1     -10.674  11.017  66.266  1.00  0.00    -0.273 A  
HETATM   26  C   UNL     1     -10.397  10.712  64.919  1.00  0.00    -0.347 A  
HETATM   27  C   UNL     1     -12.199  12.754  65.455  1.00  0.00    -0.519 A  
HETATM   28  C   UNL     1     -11.496  12.135  66.493  1.00  0.00    -0.430 A  
HETATM   29  C   UNL     1     -11.967  12.377  64.141  1.00  0.00    -0.518 A  
HETATM   30  C   UNL     1     -11.022  11.394  63.868  1.00  0.00    -0.442 A  
ENDBRANCH  23  25
BRANCH  22  31
HETATM   31  C   UNL     1      -7.749   9.779  66.476  1.00  0.00    -0.105 A  
HETATM   32  C   UNL     1      -5.751  11.026  65.762  1.00  0.00    -0.084 A  
HETATM   33  C   UNL     1      -6.447   9.107  64.502  1.00  0.00    -0.075 A  
HETATM   34  C   UNL     1      -7.581   8.993  65.318  1.00  0.00    -0.098 A  
HETATM   35  C   UNL     1      -6.824  10.834  66.644  1.00  0.00    -0.125 A  
HETATM   36  C   UNL     1      -5.528  10.122  64.729  1.00  0.00    -0.107 A  
ENDBRANCH  22  31
ENDBRANCH   4  19
ENDBRANCH   2   4
TORSDOF 12
ENDMDL
MODEL       57
REMARK 921   NORMALIZED FREE ENERGY PREDICTED BY IDOCK:   -5.97 KCAL/MOL
REMARK 922        TOTAL FREE ENERGY PREDICTED BY IDOCK:  -11.47 KCAL/MOL
REMARK 923 INTER-LIGAND FREE ENERGY PREDICTED BY IDOCK:  -10.17 KCAL/MOL
REMARK 924 INTRA-LIGAND FREE ENERGY PREDICTED BY IDOCK:   -1.30 KCAL/MOL
REMARK 927      BINDING AFFINITY PREDICTED BY RF-SCORE:    0.00 PKD
ROOT
HETATM    1  C   UNL     1      -7.240   9.548  68.759  1.00  0.00    -0.073 C  
HETATM    2  C   UNL     1      -7.631  11.024  68.859  1.00  0.00    -0.134 C  
HETATM    3  C   UNL     1      -6.413  11.851  69.277  1.00  0.00    -0.111 C  
ENDROOT
BRANCH   2   4
HETATM    4  N   UNL     1      -8.267  11.567  67.634  1.00  0.00    -0.126 NA 
BRANCH   4   5
HETATM    5  C   UNL     1      -8.443  10.753  66.419  1.00  0.00    -0.158 C  
BRANCH   5   6
HETATM    6  C   UNL     1      -9.917  10.468  66.103  1.00  0.00    -0.286 C  
BRANCH   6   7
HETATM    7  C   UNL     1     -10.622   9.590  67.153  1.00  0.00    -0.295 C  
BRANCH   7   8
HETATM    8  C   UNL     1     -10.515   8.084  66.912  1.00  0.00    -0.317 C  
BRANCH   8   9
HETATM    9  O   UNL     1      -9.950   7.461  68.064  1.00  0.00    -0.153 OA 
BRANCH   9  10
HETATM   10  C   UNL     1     -10.873   6.572  68.691  1.00  0.00    -0.295 C  
BRANCH  10  11
HETATM   11  C   UNL     1     -11.155   6.986  70.131  1.00  0.00    -0.285 C  
HETATM   12  O   UNL     1     -10.736   6.341  71.083  1.00  0.00    -0.229 OA 
HETATM   13  N   UNL     1     -11.868   8.186  70.267  1.00  0.00    -0.458 N  
HETATM   14  H   UNL     1     -12.084   8.732  69.434  1.00  0.00     0.000 HD 
BRANCH  13  15
HETATM   15  S   UNL     1     -12.371   8.742  71.750  1.00  0.00    -0.376 S  
HETATM   16  O   UNL     1     -11.745   7.968  72.789  1.00  0.00    -0.396 OA 
HETATM   17  C   UNL     1     -14.066   8.250  71.703  1.00  0.00    -0.418 C  
HETATM   18  O   UNL     1     -12.349  10.183  71.724  1.00  0.00    -0.388 OA 
ENDBRANCH  13  15
ENDBRANCH  10  11
ENDBRANCH   9  10
ENDBRANCH   8   9
ENDBRANCH   7   8
ENDBRANCH   6   7
ENDBRANCH   5   6
ENDBRANCH   4   5
BRANCH   4  19
HETATM   19  C   UNL     1      -8.618  12.920  67.674  1.00  0.00    -0.182 A  
HETATM   20  N   UNL     1      -8.335  15.224  66.906  1.00  0.00    -0.233 NA 
HETATM   21  N   UNL     1      -9.580  13.334  68.531  1.00  0.00    -0.175 NA 
HETATM   22  C   UNL     1      -9.293  15.624  67.799  1.00  0.00    -0.202 A  
HETATM   23  C   UNL     1      -9.941  14.661  68.600  1.00  0.00    -0.234 A  
HETATM   24  C   UNL     1      -8.039  13.893  66.869  1.00  0.00     0.140 A  
BRANCH  23  25
HETATM   25  C   UNL     1     -10.995  14.934  69.618  1.00  0.00    -0.294 A  
HETATM   26  C   UNL     1     -12.037  14.012  69.838  1.00  0.00    -0.406 A  
HETATM   27  C   UNL     1     -11.794  16.153  71.587  1.00  0.00    -0.557 A  
HETATM   28  C   UNL     1     -10.982  16.066  70.452  1.00  0.00    -0.347 A  
HETATM   29  C   UNL     1     -12.758  15.185  71.824  1.00  0.00    -0.423 A  
HETATM   30  C   UNL     1     -12.919  14.144  70.916  1.00  0.00    -0.374 A  
ENDBRANCH  23  25
BRANCH  22  31
HETATM   31  C   UNL     1      -9.500  17.109  67.840  1.00  0.00    -0.257 A  
HETATM   32  C   UNL     1      -8.791  19.339  68.603  1.00  0.00    -0.415 A  
HETATM   33  C   UNL     1     -10.700  19.146  67.164  1.00  0.00    -0.567 A  
HETATM   34  C   UNL     1     -10.599  17.750  67.230  1.00  0.00    -0.322 A  
HETATM   35  C   UNL     1      -8.626  17.947  68.568  1.00  0.00    -0.298 A  
HETATM   36  C   UNL     1      -9.790  19.942  67.847  1.00  0.00    -0.529 A  
ENDBRANCH  22  31
ENDBRANCH   4  19
ENDBRANCH   2   4
TORSDOF 12
ENDMDL
MODEL       58
REMARK 921   NORMALIZED FREE ENERGY PREDICTED BY IDOCK:   -5.97 KCAL/MOL
REMARK 922        TOTAL FREE ENERGY PREDICTED BY IDOCK:  -11.47 KCAL/MOL
REMARK 923 INTER-LIGAND FREE ENERGY PREDICTED BY IDOCK:  -10.49 KCAL/MOL
REMARK 924 INTRA-LIGAND FREE ENERGY PREDICTED BY IDOCK:   -0.98 KCAL/MOL
REMARK 927      BINDING AFFINITY PREDICTED BY RF-SCORE:    0.00 PKD
ROOT
HETATM    1  C   UNL     1     -11.440  12.194  64.026  1.00  0.00    -0.488 C  
HETATM    2  C   UNL     1     -11.455  13.601  64.627  1.00  0.00    -0.365 C  
HETATM    3  C   UNL     1     -12.853  13.915  65.167  1.00  0.00    -0.383 C  
ENDROOT
BRANCH   2   4
HETATM    4  N   UNL     1     -10.409  13.833  65.653  1.00  0.00    -0.301 NA 
BRANCH   4   5
HETATM    5  C   UNL     1      -9.562  15.039  65.648  1.00  0.00    -0.244 C  
BRANCH   5   6
HETATM    6  C   UNL     1     -10.163  16.189  66.466  1.00  0.00    -0.304 C  
BRANCH   6   7
HETATM    7  C   UNL     1     -10.054  15.997  67.989  1.00  0.00    -0.240 C  
BRANCH   7   8
HETATM    8  C   UNL     1     -10.471  17.207  68.824  1.00  0.00    -0.351 C  
BRANCH   8   9
HETATM    9  O   UNL     1     -10.642  18.336  67.969  1.00  0.00    -0.383 OA 
BRANCH   9  10
HETATM   10  C   UNL     1      -9.923  19.473  68.442  1.00  0.00    -0.443 C  
BRANCH  10  11
HETATM   11  C   UNL     1      -8.434  19.360  68.134  1.00  0.00    -0.332 C  
HETATM   12  O   UNL     1      -7.589  19.372  69.019  1.00  0.00    -0.360 OA 
HETATM   13  N   UNL     1      -8.128  19.177  66.777  1.00  0.00    -0.263 N  
HETATM   14  H   UNL     1      -8.888  19.059  66.109  1.00  0.00     0.000 HD 
BRANCH  13  15
HETATM   15  S   UNL     1      -6.559  19.148  66.230  1.00  0.00    -0.212 S  
HETATM   16  O   UNL     1      -5.715  18.549  67.229  1.00  0.00    -0.141 OA 
HETATM   17  C   UNL     1      -6.202  20.877  66.234  1.00  0.00    -0.260 C  
HETATM   18  O   UNL     1      -6.569  18.722  64.853  1.00  0.00    -0.516 OA 
ENDBRANCH  13  15
ENDBRANCH  10  11
ENDBRANCH   9  10
ENDBRANCH   8   9
ENDBRANCH   7   8
ENDBRANCH   6   7
ENDBRANCH   5   6
ENDBRANCH   4   5
BRANCH   4  19
HETATM   19  C   UNL     1     -10.220  12.802  66.580  1.00  0.00    -0.253 A  
HETATM   20  N   UNL     1      -9.076  10.767  67.307  1.00  0.00    -0.144 NA 
HETATM   21  N   UNL     1     -10.992  12.754  67.690  1.00  0.00    -0.237 NA 
HETATM   22  C   UNL     1      -9.887  10.724  68.411  1.00  0.00    -0.169 A  
HETATM   23  C   UNL     1     -10.836  11.747  68.616  1.00  0.00    -0.220 A  
HETATM   24  C   UNL     1      -9.264  11.803  66.441  1.00  0.00    -0.217 A  
BRANCH  23  25
HETATM   25  C   UNL     1     -11.791  11.840  69.756  1.00  0.00    -0.420 A  
HETATM   26  C   UNL     1     -12.359  10.679  70.314  1.00  0.00    -0.406 A  
HETATM   27  C   UNL     1     -12.771  13.094  71.619  1.00  0.00    -0.320 A  
HETATM   28  C   UNL     1     -12.125  13.056  70.380  1.00  0.00    -0.391 A  
HETATM   29  C   UNL     1     -13.250  11.922  72.185  1.00  0.00    -0.366 A  
HETATM   30  C   UNL     1     -13.095  10.720  71.504  1.00  0.00    -0.517 A  
ENDBRANCH  23  25
BRANCH  22  31
HETATM   31  C   UNL     1      -9.677   9.512  69.269  1.00  0.00    -0.180 A  
HETATM   32  C   UNL     1      -8.693   8.459  71.264  1.00  0.00    -0.203 A  
HETATM   33  C   UNL     1     -10.089   7.151  69.817  1.00  0.00    -0.200 A  
HETATM   34  C   UNL     1     -10.180   8.237  68.937  1.00  0.00    -0.222 A  
HETATM   35  C   UNL     1      -8.886   9.576  70.438  1.00  0.00    -0.279 A  
HETATM   36  C   UNL     1      -9.349   7.265  70.987  1.00  0.00    -0.158 A  
ENDBRANCH  22  31
ENDBRANCH   4  19
ENDBRANCH   2   4
TORSDOF 12
ENDMDL
MODEL       59
REMARK 921   NORMALIZED FREE ENERGY PREDICTED BY IDOCK:   -5.95 KCAL/MOL
REMARK 922        TOTAL FREE ENERGY PREDICTED BY IDOCK:  -11.45 KCAL/MOL
REMARK 923 INTER-LIGAND FREE ENERGY PREDICTED BY IDOCK:   -9.88 KCAL/MOL
REMARK 924 INTRA-LIGAND FREE ENERGY PREDICTED BY IDOCK:   -1.57 KCAL/MOL
REMARK 927      BINDING AFFINITY PREDICTED BY RF-SCORE:    0.00 PKD
ROOT
HETATM    1  C   UNL     1      -7.757  12.234  68.077  1.00  0.00    -0.132 C  
HETATM    2  C   UNL     1      -7.896  11.421  66.788  1.00  0.00    -0.157 C  
HETATM    3  C   UNL     1      -6.513  10.972  66.312  1.00  0.00    -0.112 C  
ENDROOT
BRANCH   2   4
HETATM    4  N   UNL     1      -8.836  10.279  66.890  1.00  0.00    -0.132 NA 
BRANCH   4   5
HETATM    5  C   UNL     1      -9.711   9.883  65.773  1.00  0.00    -0.266 C  
BRANCH   5   6
HETATM    6  C   UNL     1     -10.249  11.085  64.986  1.00  0.00    -0.360 C  
BRANCH   6   7
HETATM    7  C   UNL     1     -11.520  11.709  65.590  1.00  0.00    -0.171 C  
BRANCH   7   8
HETATM    8  C   UNL     1     -11.301  13.027  66.334  1.00  0.00    -0.317 C  
BRANCH   8   9
HETATM    9  O   UNL     1     -11.917  14.088  65.607  1.00  0.00    -0.362 OA 
BRANCH   9  10
HETATM   10  C   UNL     1     -11.014  14.691  64.682  1.00  0.00    -0.325 C  
BRANCH  10  11
HETATM   11  C   UNL     1     -10.803  16.169  64.992  1.00  0.00    -0.363 C  
HETATM   12  O   UNL     1     -11.171  17.049  64.225  1.00  0.00    -1.186 OA 
HETATM   13  N   UNL     1     -10.221  16.430  66.242  1.00  0.00    -0.316 N  
HETATM   14  H   UNL     1     -10.047  15.653  66.879  1.00  0.00     0.000 HD 
BRANCH  13  15
HETATM   15  S   UNL     1      -9.806  17.969  66.710  1.00  0.00    -0.353 S  
HETATM   16  O   UNL     1      -8.871  18.521  65.766  1.00  0.00    -0.419 OA 
HETATM   17  C   UNL     1      -8.892  17.607  68.176  1.00  0.00    -0.269 C  
HETATM   18  O   UNL     1     -11.006  18.655  67.119  1.00  0.00    -0.357 OA 
ENDBRANCH  13  15
ENDBRANCH  10  11
ENDBRANCH   9  10
ENDBRANCH   8   9
ENDBRANCH   7   8
ENDBRANCH   6   7
ENDBRANCH   5   6
ENDBRANCH   4   5
BRANCH   4  19
HETATM   19  C   UNL     1      -8.901   9.648  68.137  1.00  0.00    -0.119 A  
HETATM   20  N   UNL     1      -7.874   8.324  69.918  1.00  0.00    -0.100 NA 
HETATM   21  N   UNL     1     -10.055   9.684  68.843  1.00  0.00    -0.180 NA 
HETATM   22  C   UNL     1      -9.060   8.352  70.602  1.00  0.00    -0.156 A  
HETATM   23  C   UNL     1     -10.153   9.064  70.069  1.00  0.00    -0.196 A  
HETATM   24  C   UNL     1      -7.834   8.977  68.721  1.00  0.00    -0.096 A  
BRANCH  23  25
HETATM   25  C   UNL     1     -11.505   9.185  70.685  1.00  0.00    -0.310 A  
HETATM   26  C   UNL     1     -12.284   8.039  70.938  1.00  0.00    -0.122 A  
HETATM   27  C   UNL     1     -13.168  10.471  71.943  1.00  0.00    -0.526 A  
HETATM   28  C   UNL     1     -12.050  10.411  71.106  1.00  0.00    -0.487 A  
HETATM   29  C   UNL     1     -13.870   9.313  72.243  1.00  0.00    -0.492 A  
HETATM   30  C   UNL     1     -13.461   8.103  71.693  1.00  0.00    -0.363 A  
ENDBRANCH  23  25
BRANCH  22  31
HETATM   31  C   UNL     1      -9.049   7.542  71.865  1.00  0.00    -0.153 A  
HETATM   32  C   UNL     1      -8.955   7.428  74.322  1.00  0.00    -0.242 A  
HETATM   33  C   UNL     1      -9.190   5.400  73.063  1.00  0.00    -0.136 A  
HETATM   34  C   UNL     1      -9.063   6.132  71.875  1.00  0.00    -0.140 A  
HETATM   35  C   UNL     1      -8.947   8.165  73.129  1.00  0.00    -0.330 A  
HETATM   36  C   UNL     1      -9.141   6.051  74.289  1.00  0.00    -0.132 A  
ENDBRANCH  22  31
ENDBRANCH   4  19
ENDBRANCH   2   4
TORSDOF 12
ENDMDL
MODEL       60
REMARK 921   NORMALIZED FREE ENERGY PREDICTED BY IDOCK:   -5.91 KCAL/MOL
REMARK 922        TOTAL FREE ENERGY PREDICTED BY IDOCK:  -11.37 KCAL/MOL
REMARK 923 INTER-LIGAND FREE ENERGY PREDICTED BY IDOCK:   -9.91 KCAL/MOL
REMARK 924 INTRA-LIGAND FREE ENERGY PREDICTED BY IDOCK:   -1.46 KCAL/MOL
REMARK 927      BINDING AFFINITY PREDICTED BY RF-SCORE:    0.00 PKD
ROOT
HETATM    1  C   UNL     1     -12.626  14.384  73.153  1.00  0.00    -0.368 C  
HETATM    2  C   UNL     1     -13.523  14.018  71.968  1.00  0.00    -0.439 C  
HETATM    3  C   UNL     1     -14.311  15.250  71.520  1.00  0.00    -0.633 C  
ENDROOT
BRANCH   2   4
HETATM    4  N   UNL     1     -12.803  13.388  70.835  1.00  0.00    -0.250 NA 
BRANCH   4   5
HETATM    5  C   UNL     1     -12.522  14.115  69.585  1.00  0.00    -0.161 C  
BRANCH   5   6
HETATM    6  C   UNL     1     -11.096  14.678  69.533  1.00  0.00    -0.294 C  
BRANCH   6   7
HETATM    7  C   UNL     1     -10.279  14.199  68.319  1.00  0.00    -0.243 C  
BRANCH   7   8
HETATM    8  C   UNL     1      -8.763  14.342  68.464  1.00  0.00    -0.180 C  
BRANCH   8   9
HETATM    9  O   UNL     1      -8.200  14.694  67.202  1.00  0.00    -0.202 OA 
BRANCH   9  10
HETATM   10  C   UNL     1      -7.326  15.817  67.305  1.00  0.00    -0.222 C  
BRANCH  10  11
HETATM   11  C   UNL     1      -7.896  17.036  66.589  1.00  0.00    -0.264 C  
HETATM   12  O   UNL     1      -8.822  16.944  65.794  1.00  0.00    -0.522 OA 
HETATM   13  N   UNL     1      -7.322  18.259  66.965  1.00  0.00    -0.204 N  
HETATM   14  H   UNL     1      -6.636  18.274  67.720  1.00  0.00     0.000 HD 
BRANCH  13  15
HETATM   15  S   UNL     1      -7.728  19.685  66.214  1.00  0.00    -0.325 S  
HETATM   16  O   UNL     1      -6.978  19.813  64.993  1.00  0.00    -0.367 OA 
HETATM   17  C   UNL     1      -7.039  20.840  67.357  1.00  0.00    -0.359 C  
HETATM   18  O   UNL     1      -9.161  19.835  66.274  1.00  0.00    -0.365 OA 
ENDBRANCH  13  15
ENDBRANCH  10  11
ENDBRANCH   9  10
ENDBRANCH   8   9
ENDBRANCH   7   8
ENDBRANCH   6   7
ENDBRANCH   5   6
ENDBRANCH   4   5
BRANCH   4  19
HETATM   19  C   UNL     1     -12.476  12.036  70.992  1.00  0.00    -0.276 A  
HETATM   20  N   UNL     1     -12.808   9.870  72.075  1.00  0.00    -0.407 NA 
HETATM   21  N   UNL     1     -11.480  11.502  70.248  1.00  0.00    -0.201 NA 
HETATM   22  C   UNL     1     -11.779   9.356  71.330  1.00  0.00    -0.378 A  
HETATM   23  C   UNL     1     -11.128  10.177  70.386  1.00  0.00    -0.324 A  
HETATM   24  C   UNL     1     -13.123  11.181  71.875  1.00  0.00    -0.408 A  
BRANCH  23  25
HETATM   25  C   UNL     1      -9.995   9.773  69.507  1.00  0.00    -0.230 A  
HETATM   26  C   UNL     1      -8.667  10.090  69.855  1.00  0.00    -0.169 A  
HETATM   27  C   UNL     1      -9.085   8.390  67.702  1.00  0.00    -0.144 A  
HETATM   28  C   UNL     1     -10.165   9.008  68.339  1.00  0.00    -0.232 A  
HETATM   29  C   UNL     1      -7.790   8.656  68.119  1.00  0.00    -0.103 A  
HETATM   30  C   UNL     1      -7.577   9.553  69.160  1.00  0.00    -0.075 A  
ENDBRANCH  23  25
BRANCH  22  31
HETATM   31  C   UNL     1     -11.437   7.935  71.669  1.00  0.00    -0.304 A  
HETATM   32  C   UNL     1     -11.363   5.556  71.045  1.00  0.00     0.128 A  
HETATM   33  C   UNL     1     -10.480   6.239  73.168  1.00  0.00    -0.259 A  
HETATM   34  C   UNL     1     -10.919   7.546  72.921  1.00  0.00    -0.434 A  
HETATM   35  C   UNL     1     -11.693   6.888  70.755  1.00  0.00    -0.417 A  
HETATM   36  C   UNL     1     -10.698   5.243  72.224  1.00  0.00    -0.282 A  
ENDBRANCH  22  31
ENDBRANCH   4  19
ENDBRANCH   2   4
TORSDOF 12
ENDMDL
MODEL       61
REMARK 921   NORMALIZED FREE ENERGY PREDICTED BY IDOCK:   -5.89 KCAL/MOL
REMARK 922        TOTAL FREE ENERGY PREDICTED BY IDOCK:  -11.34 KCAL/MOL
REMARK 923 INTER-LIGAND FREE ENERGY PREDICTED BY IDOCK:   -9.52 KCAL/MOL
REMARK 924 INTRA-LIGAND FREE ENERGY PREDICTED BY IDOCK:   -1.82 KCAL/MOL
REMARK 927      BINDING AFFINITY PREDICTED BY RF-SCORE:    0.00 PKD
ROOT
HETATM    1  C   UNL     1     -10.438  15.450  70.004  1.00  0.00    -0.301 C  
HETATM    2  C   UNL     1     -11.658  14.570  70.286  1.00  0.00    -0.268 C  
HETATM    3  C   UNL     1     -12.908  15.445  70.396  1.00  0.00    -0.355 C  
ENDROOT
BRANCH   2   4
HETATM    4  N   UNL     1     -11.847  13.467  69.313  1.00  0.00    -0.319 NA 
BRANCH   4   5
HETATM    5  C   UNL     1     -12.160  13.719  67.896  1.00  0.00    -0.287 C  
BRANCH   5   6
HETATM    6  C   UNL     1     -10.976  14.316  67.123  1.00  0.00    -0.305 C  
BRANCH   6   7
HETATM    7  C   UNL     1      -9.869  13.299  66.793  1.00  0.00    -0.264 C  
BRANCH   7   8
HETATM    8  C   UNL     1      -8.447  13.771  67.098  1.00  0.00    -0.175 C  
BRANCH   8   9
HETATM    9  O   UNL     1      -8.339  15.163  66.809  1.00  0.00    -0.231 OA 
BRANCH   9  10
HETATM   10  C   UNL     1      -7.241  15.763  67.492  1.00  0.00    -0.184 C  
BRANCH  10  11
HETATM   11  C   UNL     1      -7.627  17.109  68.096  1.00  0.00    -0.208 C  
HETATM   12  O   UNL     1      -7.125  17.520  69.133  1.00  0.00    -0.251 OA 
HETATM   13  N   UNL     1      -8.543  17.851  67.336  1.00  0.00    -0.237 N  
HETATM   14  H   UNL     1      -8.831  17.499  66.423  1.00  0.00     0.000 HD 
BRANCH  13  15
HETATM   15  S   UNL     1      -9.173  19.289  67.883  1.00  0.00    -0.326 S  
HETATM   16  O   UNL     1      -9.997  19.041  69.037  1.00  0.00    -0.402 OA 
HETATM   17  C   UNL     1     -10.266  19.671  66.551  1.00  0.00    -0.480 C  
HETATM   18  O   UNL     1      -8.124  20.277  67.866  1.00  0.00    -0.262 OA 
ENDBRANCH  13  15
ENDBRANCH  10  11
ENDBRANCH   9  10
ENDBRANCH   8   9
ENDBRANCH   7   8
ENDBRANCH   6   7
ENDBRANCH   5   6
ENDBRANCH   4   5
BRANCH   4  19
HETATM   19  C   UNL     1     -11.789  12.171  69.837  1.00  0.00    -0.319 A  
HETATM   20  N   UNL     1     -12.403  10.524  71.537  1.00  0.00    -0.365 NA 
HETATM   21  N   UNL     1     -11.046  11.231  69.208  1.00  0.00    -0.241 NA 
HETATM   22  C   UNL     1     -11.625   9.596  70.898  1.00  0.00    -0.344 A  
HETATM   23  C   UNL     1     -10.962   9.949  69.704  1.00  0.00    -0.252 A  
HETATM   24  C   UNL     1     -12.464  11.769  70.983  1.00  0.00    -0.309 A  
BRANCH  23  25
HETATM   25  C   UNL     1     -10.079   9.060  68.896  1.00  0.00    -0.207 A  
HETATM   26  C   UNL     1      -8.804   8.694  69.369  1.00  0.00    -0.144 A  
HETATM   27  C   UNL     1      -9.766   7.436  67.090  1.00  0.00    -0.223 A  
HETATM   28  C   UNL     1     -10.475   8.489  67.674  1.00  0.00    -0.308 A  
HETATM   29  C   UNL     1      -8.550   7.039  67.626  1.00  0.00    -0.122 A  
HETATM   30  C   UNL     1      -8.039   7.709  68.733  1.00  0.00    -0.127 A  
ENDBRANCH  23  25
BRANCH  22  31
HETATM   31  C   UNL     1     -11.540   8.280  71.614  1.00  0.00    -0.337 A  
HETATM   32  C   UNL     1     -12.283   5.949  71.880  1.00  0.00     0.114 A  
HETATM   33  C   UNL     1     -10.546   6.795  73.301  1.00  0.00    -0.335 A  
HETATM   34  C   UNL     1     -10.711   8.066  72.734  1.00  0.00    -0.431 A  
HETATM   35  C   UNL     1     -12.360   7.193  71.236  1.00  0.00    -0.418 A  
HETATM   36  C   UNL     1     -11.330   5.734  72.869  1.00  0.00    -0.298 A  
ENDBRANCH  22  31
ENDBRANCH   4  19
ENDBRANCH   2   4
TORSDOF 12
ENDMDL
MODEL       62
REMARK 921   NORMALIZED FREE ENERGY PREDICTED BY IDOCK:   -5.89 KCAL/MOL
REMARK 922        TOTAL FREE ENERGY PREDICTED BY IDOCK:  -11.34 KCAL/MOL
REMARK 923 INTER-LIGAND FREE ENERGY PREDICTED BY IDOCK:  -10.32 KCAL/MOL
REMARK 924 INTRA-LIGAND FREE ENERGY PREDICTED BY IDOCK:   -1.02 KCAL/MOL
REMARK 927      BINDING AFFINITY PREDICTED BY RF-SCORE:    0.00 PKD
ROOT
HETATM    1  C   UNL     1      -8.810  13.040  67.716  1.00  0.00    -0.188 C  
HETATM    2  C   UNL     1     -10.077  12.315  68.175  1.00  0.00    -0.211 C  
HETATM    3  C   UNL     1     -11.191  13.334  68.424  1.00  0.00    -0.314 C  
ENDROOT
BRANCH   2   4
HETATM    4  N   UNL     1     -10.519  11.232  67.264  1.00  0.00    -0.204 NA 
BRANCH   4   5
HETATM    5  C   UNL     1     -11.277  11.509  66.031  1.00  0.00    -0.178 C  
BRANCH   5   6
HETATM    6  C   UNL     1     -10.395  11.492  64.775  1.00  0.00    -0.341 C  
BRANCH   6   7
HETATM    7  C   UNL     1     -10.624  12.689  63.835  1.00  0.00    -0.460 C  
BRANCH   7   8
HETATM    8  C   UNL     1     -12.052  13.234  63.819  1.00  0.00    -0.482 C  
BRANCH   8   9
HETATM    9  O   UNL     1     -12.041  14.602  64.220  1.00  0.00    -0.475 OA 
BRANCH   9  10
HETATM   10  C   UNL     1     -10.787  14.979  64.785  1.00  0.00    -0.355 C  
BRANCH  10  11
HETATM   11  C   UNL     1     -10.735  16.473  65.082  1.00  0.00    -0.244 C  
HETATM   12  O   UNL     1     -11.248  17.299  64.338  1.00  0.00    -1.082 OA 
HETATM   13  N   UNL     1     -10.117  16.809  66.297  1.00  0.00    -0.312 N  
HETATM   14  H   UNL     1      -9.816  16.063  66.923  1.00  0.00     0.000 HD 
BRANCH  13  15
HETATM   15  S   UNL     1      -9.861  18.390  66.741  1.00  0.00    -0.362 S  
HETATM   16  O   UNL     1      -8.949  19.005  65.814  1.00  0.00    -0.388 OA 
HETATM   17  C   UNL     1      -8.968  18.144  68.244  1.00  0.00    -0.296 C  
HETATM   18  O   UNL     1     -11.131  18.971  67.094  1.00  0.00    -0.358 OA 
ENDBRANCH  13  15
ENDBRANCH  10  11
ENDBRANCH   9  10
ENDBRANCH   8   9
ENDBRANCH   7   8
ENDBRANCH   6   7
ENDBRANCH   5   6
ENDBRANCH   4   5
BRANCH   4  19
HETATM   19  C   UNL     1     -10.244   9.926  67.684  1.00  0.00    -0.208 A  
HETATM   20  N   UNL     1      -9.869   7.560  67.196  1.00  0.00    -0.183 NA 
HETATM   21  N   UNL     1     -10.090   9.669  69.003  1.00  0.00    -0.178 NA 
HETATM   22  C   UNL     1      -9.743   7.318  68.538  1.00  0.00    -0.149 A  
HETATM   23  C   UNL     1      -9.827   8.393  69.448  1.00  0.00    -0.185 A  
HETATM   24  C   UNL     1     -10.105   8.849  66.818  1.00  0.00    -0.280 A  
BRANCH  23  25
HETATM   25  C   UNL     1      -9.717   8.296  70.931  1.00  0.00    -0.204 A  
HETATM   26  C   UNL     1     -10.837   7.955  71.714  1.00  0.00    -0.286 A  
HETATM   27  C   UNL     1      -8.360   8.078  72.959  1.00  0.00    -0.243 A  
HETATM   28  C   UNL     1      -8.504   8.465  71.624  1.00  0.00    -0.213 A  
HETATM   29  C   UNL     1      -9.468   7.667  73.684  1.00  0.00    -0.340 A  
HETATM   30  C   UNL     1     -10.719   7.661  73.077  1.00  0.00    -0.449 A  
ENDBRANCH  23  25
BRANCH  22  31
HETATM   31  C   UNL     1      -9.571   5.868  68.879  1.00  0.00    -0.158 A  
HETATM   32  C   UNL     1      -9.215   4.101  70.555  1.00  0.00    -0.194 A  
HETATM   33  C   UNL     1      -9.511   3.491  68.254  1.00  0.00    -0.210 A  
HETATM   34  C   UNL     1      -9.535   4.848  67.906  1.00  0.00    -0.172 A  
HETATM   35  C   UNL     1      -9.359   5.453  70.213  1.00  0.00    -0.198 A  
HETATM   36  C   UNL     1      -9.357   3.117  69.582  1.00  0.00    -0.222 A  
ENDBRANCH  22  31
ENDBRANCH   4  19
ENDBRANCH   2   4
TORSDOF 12
ENDMDL
MODEL       63
REMARK 921   NORMALIZED FREE ENERGY PREDICTED BY IDOCK:   -5.89 KCAL/MOL
REMARK 922        TOTAL FREE ENERGY PREDICTED BY IDOCK:  -11.33 KCAL/MOL
REMARK 923 INTER-LIGAND FREE ENERGY PREDICTED BY IDOCK:   -9.68 KCAL/MOL
REMARK 924 INTRA-LIGAND FREE ENERGY PREDICTED BY IDOCK:   -1.65 KCAL/MOL
REMARK 927      BINDING AFFINITY PREDICTED BY RF-SCORE:    0.00 PKD
ROOT
HETATM    1  C   UNL     1      -7.762   9.020  68.047  1.00  0.00    -0.097 C  
HETATM    2  C   UNL     1      -8.610   7.962  68.755  1.00  0.00    -0.128 C  
HETATM    3  C   UNL     1      -8.219   7.893  70.232  1.00  0.00    -0.124 C  
ENDROOT
BRANCH   2   4
HETATM    4  N   UNL     1     -10.072   8.144  68.585  1.00  0.00    -0.191 NA 
BRANCH   4   5
HETATM    5  C   UNL     1     -10.907   7.158  67.877  1.00  0.00    -0.150 C  
BRANCH   5   6
HETATM    6  C   UNL     1     -10.685   5.724  68.376  1.00  0.00    -0.283 C  
BRANCH   6   7
HETATM    7  C   UNL     1      -9.859   4.849  67.415  1.00  0.00    -0.213 C  
BRANCH   7   8
HETATM    8  C   UNL     1     -10.331   4.865  65.961  1.00  0.00    -0.271 C  
BRANCH   8   9
HETATM    9  O   UNL     1      -9.211   5.077  65.104  1.00  0.00    -0.155 OA 
BRANCH   9  10
HETATM   10  C   UNL     1      -8.279   5.999  65.667  1.00  0.00    -0.139 C  
BRANCH  10  11
HETATM   11  C   UNL     1      -8.025   7.176  64.732  1.00  0.00    -0.122 C  
HETATM   12  O   UNL     1      -7.126   7.160  63.902  1.00  0.00    -0.054 OA 
HETATM   13  N   UNL     1      -8.937   8.234  64.859  1.00  0.00    -0.393 N  
HETATM   14  H   UNL     1      -9.732   8.131  65.490  1.00  0.00     0.000 HD 
BRANCH  13  15
HETATM   15  S   UNL     1      -8.758   9.652  64.011  1.00  0.00    -0.224 S  
HETATM   16  O   UNL     1      -7.548  10.309  64.428  1.00  0.00    -0.148 OA 
HETATM   17  C   UNL     1     -10.099  10.583  64.683  1.00  0.00    -0.338 C  
HETATM   18  O   UNL     1      -9.074   9.393  62.628  1.00  0.00    -0.252 OA 
ENDBRANCH  13  15
ENDBRANCH  10  11
ENDBRANCH   9  10
ENDBRANCH   8   9
ENDBRANCH   7   8
ENDBRANCH   6   7
ENDBRANCH   5   6
ENDBRANCH   4   5
BRANCH   4  19
HETATM   19  C   UNL     1     -10.601   9.347  69.068  1.00  0.00    -0.213 A  
HETATM   20  N   UNL     1     -11.676  10.651  70.834  1.00  0.00    -0.322 NA 
HETATM   21  N   UNL     1     -10.608  10.439  68.269  1.00  0.00    -0.197 NA 
HETATM   22  C   UNL     1     -11.696  11.737  70.000  1.00  0.00    -0.305 A  
HETATM   23  C   UNL     1     -11.129  11.634  68.713  1.00  0.00    -0.230 A  
HETATM   24  C   UNL     1     -11.124   9.503  70.345  1.00  0.00    -0.277 A  
BRANCH  23  25
HETATM   25  C   UNL     1     -11.076  12.717  67.690  1.00  0.00    -0.303 A  
HETATM   26  C   UNL     1      -9.921  13.507  67.539  1.00  0.00    -0.230 A  
HETATM   27  C   UNL     1     -11.941  13.771  65.654  1.00  0.00    -0.410 A  
HETATM   28  C   UNL     1     -12.123  12.969  66.785  1.00  0.00    -0.366 A  
HETATM   29  C   UNL     1     -10.758  14.475  65.489  1.00  0.00    -0.350 A  
HETATM   30  C   UNL     1      -9.769  14.389  66.463  1.00  0.00    -0.305 A  
ENDBRANCH  23  25
BRANCH  22  31
HETATM   31  C   UNL     1     -12.393  12.932  70.579  1.00  0.00    -0.362 A  
HETATM   32  C   UNL     1     -13.921  13.907  72.244  1.00  0.00    -0.663 A  
HETATM   33  C   UNL     1     -12.828  15.350  70.670  1.00  0.00    -0.484 A  
HETATM   34  C   UNL     1     -12.279  14.228  70.035  1.00  0.00    -0.417 A  
HETATM   35  C   UNL     1     -13.274  12.800  71.676  1.00  0.00    -0.410 A  
HETATM   36  C   UNL     1     -13.646  15.189  71.781  1.00  0.00    -0.553 A  
ENDBRANCH  22  31
ENDBRANCH   4  19
ENDBRANCH   2   4
TORSDOF 12
ENDMDL
MODEL       64
REMARK 921   NORMALIZED FREE ENERGY PREDICTED BY IDOCK:   -5.88 KCAL/MOL
REMARK 922        TOTAL FREE ENERGY PREDICTED BY IDOCK:  -11.32 KCAL/MOL
REMARK 923 INTER-LIGAND FREE ENERGY PREDICTED BY IDOCK:   -9.10 KCAL/MOL
REMARK 924 INTRA-LIGAND FREE ENERGY PREDICTED BY IDOCK:   -2.21 KCAL/MOL
REMARK 927      BINDING AFFINITY PREDICTED BY RF-SCORE:    0.00 PKD
ROOT
HETATM    1  C   UNL     1     -10.106   7.168  73.749  1.00  0.00    -0.391 C  
HETATM    2  C   UNL     1     -10.589   6.385  72.526  1.00  0.00    -0.214 C  
HETATM    3  C   UNL     1     -11.522   5.257  72.973  1.00  0.00    -0.340 C  
ENDROOT
BRANCH   2   4
HETATM    4  N   UNL     1     -11.213   7.227  71.476  1.00  0.00    -0.242 NA 
BRANCH   4   5
HETATM    5  C   UNL     1     -12.589   7.738  71.599  1.00  0.00    -0.332 C  
BRANCH   5   6
HETATM    6  C   UNL     1     -12.643   9.173  72.140  1.00  0.00    -0.451 C  
BRANCH   6   7
HETATM    7  C   UNL     1     -13.249  10.190  71.155  1.00  0.00    -0.438 C  
BRANCH   7   8
HETATM    8  C   UNL     1     -12.249  11.173  70.546  1.00  0.00    -0.384 C  
BRANCH   8   9
HETATM    9  O   UNL     1     -12.395  11.176  69.127  1.00  0.00    -0.438 OA 
BRANCH   9  10
HETATM   10  C   UNL     1     -11.223  11.663  68.475  1.00  0.00    -0.256 C  
BRANCH  10  11
HETATM   11  C   UNL     1     -11.573  12.505  67.254  1.00  0.00    -0.367 C  
HETATM   12  O   UNL     1     -12.109  13.601  67.357  1.00  0.00    -0.380 OA 
HETATM   13  N   UNL     1     -11.174  11.954  66.027  1.00  0.00    -0.329 N  
HETATM   14  H   UNL     1     -10.628  11.093  66.024  1.00  0.00     0.000 HD 
BRANCH  13  15
HETATM   15  S   UNL     1     -11.568  12.666  64.578  1.00  0.00    -0.370 S  
HETATM   16  O   UNL     1     -12.959  12.432  64.292  1.00  0.00    -0.737 OA 
HETATM   17  C   UNL     1     -10.644  11.645  63.474  1.00  0.00    -0.435 C  
HETATM   18  O   UNL     1     -10.970  13.977  64.542  1.00  0.00    -0.389 OA 
ENDBRANCH  13  15
ENDBRANCH  10  11
ENDBRANCH   9  10
ENDBRANCH   8   9
ENDBRANCH   7   8
ENDBRANCH   6   7
ENDBRANCH   5   6
ENDBRANCH   4   5
BRANCH   4  19
HETATM   19  C   UNL     1     -10.446   7.441  70.326  1.00  0.00    -0.221 A  
HETATM   20  N   UNL     1      -9.039   8.876  68.934  1.00  0.00    -0.140 NA 
HETATM   21  N   UNL     1     -10.334   6.455  69.406  1.00  0.00    -0.193 NA 
HETATM   22  C   UNL     1      -8.961   7.872  68.004  1.00  0.00    -0.127 A  
HETATM   23  C   UNL     1      -9.594   6.638  68.260  1.00  0.00    -0.125 A  
HETATM   24  C   UNL     1      -9.767   8.623  70.059  1.00  0.00    -0.171 A  
BRANCH  23  25
HETATM   25  C   UNL     1      -9.607   5.456  67.353  1.00  0.00    -0.139 A  
HETATM   26  C   UNL     1     -10.457   5.422  66.230  1.00  0.00    -0.277 A  
HETATM   27  C   UNL     1      -8.563   3.412  66.499  1.00  0.00    -0.115 A  
HETATM   28  C   UNL     1      -8.746   4.355  67.513  1.00  0.00    -0.112 A  
HETATM   29  C   UNL     1      -9.360   3.450  65.365  1.00  0.00    -0.153 A  
HETATM   30  C   UNL     1     -10.348   4.422  65.256  1.00  0.00    -0.220 A  
ENDBRANCH  23  25
BRANCH  22  31
HETATM   31  C   UNL     1      -8.216   8.256  66.760  1.00  0.00    -0.103 A  
HETATM   32  C   UNL     1      -6.222   8.073  65.329  1.00  0.00    -0.045 A  
HETATM   33  C   UNL     1      -8.061   9.433  64.607  1.00  0.00    -0.133 A  
HETATM   34  C   UNL     1      -8.707   9.192  65.827  1.00  0.00    -0.192 A  
HETATM   35  C   UNL     1      -6.926   7.742  66.495  1.00  0.00    -0.067 A  
HETATM   36  C   UNL     1      -6.818   8.867  64.356  1.00  0.00    -0.081 A  
ENDBRANCH  22  31
ENDBRANCH   4  19
ENDBRANCH   2   4
TORSDOF 12
ENDMDL
MODEL       65
REMARK 921   NORMALIZED FREE ENERGY PREDICTED BY IDOCK:   -5.87 KCAL/MOL
REMARK 922        TOTAL FREE ENERGY PREDICTED BY IDOCK:  -11.31 KCAL/MOL
REMARK 923 INTER-LIGAND FREE ENERGY PREDICTED BY IDOCK:  -10.36 KCAL/MOL
REMARK 924 INTRA-LIGAND FREE ENERGY PREDICTED BY IDOCK:   -0.96 KCAL/MOL
REMARK 927      BINDING AFFINITY PREDICTED BY RF-SCORE:    0.00 PKD
ROOT
HETATM    1  C   UNL     1      -7.758  10.204  65.985  1.00  0.00    -0.120 C  
HETATM    2  C   UNL     1      -9.018  10.943  65.528  1.00  0.00    -0.197 C  
HETATM    3  C   UNL     1      -9.750  10.107  64.476  1.00  0.00    -0.361 C  
ENDROOT
BRANCH   2   4
HETATM    4  N   UNL     1      -9.921  11.343  66.634  1.00  0.00    -0.203 NA 
BRANCH   4   5
HETATM    5  C   UNL     1     -10.775  10.370  67.337  1.00  0.00    -0.283 C  
BRANCH   5   6
HETATM    6  C   UNL     1     -10.037   9.069  67.678  1.00  0.00    -0.271 C  
BRANCH   6   7
HETATM    7  C   UNL     1     -10.605   7.825  66.971  1.00  0.00    -0.396 C  
BRANCH   7   8
HETATM    8  C   UNL     1     -10.071   6.489  67.488  1.00  0.00    -0.155 C  
BRANCH   8   9
HETATM    9  O   UNL     1     -10.931   6.002  68.517  1.00  0.00    -0.296 OA 
BRANCH   9  10
HETATM   10  C   UNL     1     -10.208   5.297  69.524  1.00  0.00    -0.268 C  
BRANCH  10  11
HETATM   11  C   UNL     1     -10.021   6.148  70.775  1.00  0.00    -0.189 C  
HETATM   12  O   UNL     1      -9.263   5.816  71.675  1.00  0.00    -0.146 OA 
HETATM   13  N   UNL     1     -10.732   7.358  70.773  1.00  0.00    -0.228 N  
HETATM   14  H   UNL     1     -11.253   7.626  69.938  1.00  0.00     0.000 HD 
BRANCH  13  15
HETATM   15  S   UNL     1     -10.748   8.366  72.094  1.00  0.00    -0.355 S  
HETATM   16  O   UNL     1     -11.393   7.701  73.195  1.00  0.00    -0.360 OA 
HETATM   17  C   UNL     1     -11.869   9.603  71.521  1.00  0.00    -0.407 C  
HETATM   18  O   UNL     1      -9.452   8.988  72.203  1.00  0.00    -0.340 OA 
ENDBRANCH  13  15
ENDBRANCH  10  11
ENDBRANCH   9  10
ENDBRANCH   8   9
ENDBRANCH   7   8
ENDBRANCH   6   7
ENDBRANCH   5   6
ENDBRANCH   4   5
BRANCH   4  19
HETATM   19  C   UNL     1      -9.973  12.712  66.918  1.00  0.00    -0.230 A  
HETATM   20  N   UNL     1      -9.442  15.031  66.358  1.00  0.00    -0.279 NA 
HETATM   21  N   UNL     1     -10.581  13.134  68.051  1.00  0.00    -0.230 NA 
HETATM   22  C   UNL     1     -10.040  15.434  67.522  1.00  0.00    -0.233 A  
HETATM   23  C   UNL     1     -10.640  14.474  68.363  1.00  0.00    -0.244 A  
HETATM   24  C   UNL     1      -9.437  13.694  66.094  1.00  0.00    -0.146 A  
BRANCH  23  25
HETATM   25  C   UNL     1     -11.322  14.748  69.659  1.00  0.00    -0.316 A  
HETATM   26  C   UNL     1     -10.885  15.795  70.494  1.00  0.00    -0.319 A  
HETATM   27  C   UNL     1     -13.255  14.507  71.145  1.00  0.00    -0.423 A  
HETATM   28  C   UNL     1     -12.461  14.044  70.092  1.00  0.00    -0.380 A  
HETATM   29  C   UNL     1     -12.839  15.593  71.900  1.00  0.00    -0.522 A  
HETATM   30  C   UNL     1     -11.623  16.202  71.611  1.00  0.00    -0.503 A  
ENDBRANCH  23  25
BRANCH  22  31
HETATM   31  C   UNL     1      -9.929  16.908  67.782  1.00  0.00    -0.278 A  
HETATM   32  C   UNL     1     -10.870  19.176  67.616  1.00  0.00    -0.467 A  
HETATM   33  C   UNL     1      -8.771  18.856  68.733  1.00  0.00    -0.331 A  
HETATM   34  C   UNL     1      -8.797  17.501  68.377  1.00  0.00    -0.276 A  
HETATM   35  C   UNL     1     -10.945  17.798  67.367  1.00  0.00    -0.074 A  
HETATM   36  C   UNL     1      -9.813  19.694  68.357  1.00  0.00    -0.531 A  
ENDBRANCH  22  31
ENDBRANCH   4  19
ENDBRANCH   2   4
TORSDOF 12
ENDMDL
MODEL       66
REMARK 921   NORMALIZED FREE ENERGY PREDICTED BY IDOCK:   -5.87 KCAL/MOL
REMARK 922        TOTAL FREE ENERGY PREDICTED BY IDOCK:  -11.31 KCAL/MOL
REMARK 923 INTER-LIGAND FREE ENERGY PREDICTED BY IDOCK:  -10.13 KCAL/MOL
REMARK 924 INTRA-LIGAND FREE ENERGY PREDICTED BY IDOCK:   -1.19 KCAL/MOL
REMARK 927      BINDING AFFINITY PREDICTED BY RF-SCORE:    0.00 PKD
ROOT
HETATM    1  C   UNL     1     -10.906  12.045  64.555  1.00  0.00    -0.363 C  
HETATM    2  C   UNL     1     -10.434  11.284  65.797  1.00  0.00    -0.254 C  
HETATM    3  C   UNL     1      -8.912  11.134  65.761  1.00  0.00    -0.207 C  
ENDROOT
BRANCH   2   4
HETATM    4  N   UNL     1     -10.895  11.872  67.078  1.00  0.00    -0.246 NA 
BRANCH   4   5
HETATM    5  C   UNL     1     -11.586  11.069  68.103  1.00  0.00    -0.272 C  
BRANCH   5   6
HETATM    6  C   UNL     1     -11.064  11.339  69.520  1.00  0.00    -0.299 C  
BRANCH   6   7
HETATM    7  C   UNL     1     -12.163  11.722  70.528  1.00  0.00    -0.438 C  
BRANCH   7   8
HETATM    8  C   UNL     1     -12.836  10.542  71.229  1.00  0.00    -0.431 C  
BRANCH   8   9
HETATM    9  O   UNL     1     -11.880   9.502  71.427  1.00  0.00    -0.333 OA 
BRANCH   9  10
HETATM   10  C   UNL     1     -12.355   8.510  72.335  1.00  0.00    -0.359 C  
BRANCH  10  11
HETATM   11  C   UNL     1     -11.228   7.598  72.805  1.00  0.00    -0.377 C  
HETATM   12  O   UNL     1     -10.141   8.040  73.153  1.00  0.00    -0.307 OA 
HETATM   13  N   UNL     1     -11.561   6.236  72.865  1.00  0.00    -0.488 N  
HETATM   14  H   UNL     1     -12.521   5.952  72.672  1.00  0.00     0.000 HD 
BRANCH  13  15
HETATM   15  S   UNL     1     -10.434   5.074  73.241  1.00  0.00    -0.238 S  
HETATM   16  O   UNL     1      -9.645   4.778  72.075  1.00  0.00    -0.140 OA 
HETATM   17  C   UNL     1     -11.498   3.690  73.501  1.00  0.00    -0.059 C  
HETATM   18  O   UNL     1      -9.853   5.406  74.518  1.00  0.00    -0.174 OA 
ENDBRANCH  13  15
ENDBRANCH  10  11
ENDBRANCH   9  10
ENDBRANCH   8   9
ENDBRANCH   7   8
ENDBRANCH   6   7
ENDBRANCH   5   6
ENDBRANCH   4   5
BRANCH   4  19
HETATM   19  C   UNL     1     -10.706  13.250  67.224  1.00  0.00    -0.255 A  
HETATM   20  N   UNL     1     -11.543  15.545  67.110  1.00  0.00    -0.076 NA 
HETATM   21  N   UNL     1      -9.495  13.720  67.603  1.00  0.00    -0.210 NA 
HETATM   22  C   UNL     1     -10.302  15.999  67.470  1.00  0.00    -0.287 A  
HETATM   23  C   UNL     1      -9.276  15.072  67.747  1.00  0.00    -0.181 A  
HETATM   24  C   UNL     1     -11.702  14.194  67.009  1.00  0.00    -0.405 A  
BRANCH  23  25
HETATM   25  C   UNL     1      -7.878  15.405  68.143  1.00  0.00    -0.125 A  
HETATM   26  C   UNL     1      -7.393  15.063  69.421  1.00  0.00    -0.194 A  
HETATM   27  C   UNL     1      -5.585  16.030  67.551  1.00  0.00    -0.146 A  
HETATM   28  C   UNL     1      -6.954  16.004  67.268  1.00  0.00    -0.240 A  
HETATM   29  C   UNL     1      -5.126  15.610  68.790  1.00  0.00    -0.100 A  
HETATM   30  C   UNL     1      -6.037  15.180  69.748  1.00  0.00    -0.139 A  
ENDBRANCH  23  25
BRANCH  22  31
HETATM   31  C   UNL     1     -10.183  17.495  67.477  1.00  0.00    -0.340 A  
HETATM   32  C   UNL     1      -9.960  19.619  66.254  1.00  0.00    -0.563 A  
HETATM   33  C   UNL     1     -10.148  19.658  68.645  1.00  0.00    -0.547 A  
HETATM   34  C   UNL     1     -10.121  18.257  68.662  1.00  0.00    -0.407 A  
HETATM   35  C   UNL     1     -10.053  18.220  66.271  1.00  0.00    -0.389 A  
HETATM   36  C   UNL     1     -10.073  20.339  67.437  1.00  0.00    -0.534 A  
ENDBRANCH  22  31
ENDBRANCH   4  19
ENDBRANCH   2   4
TORSDOF 12
ENDMDL
MODEL       67
REMARK 921   NORMALIZED FREE ENERGY PREDICTED BY IDOCK:   -5.86 KCAL/MOL
REMARK 922        TOTAL FREE ENERGY PREDICTED BY IDOCK:  -11.29 KCAL/MOL
REMARK 923 INTER-LIGAND FREE ENERGY PREDICTED BY IDOCK:   -9.54 KCAL/MOL
REMARK 924 INTRA-LIGAND FREE ENERGY PREDICTED BY IDOCK:   -1.76 KCAL/MOL
REMARK 927      BINDING AFFINITY PREDICTED BY RF-SCORE:    0.00 PKD
ROOT
HETATM    1  C   UNL     1      -8.769   8.361  65.520  1.00  0.00    -0.196 C  
HETATM    2  C   UNL     1      -7.964   9.266  66.455  1.00  0.00    -0.107 C  
HETATM    3  C   UNL     1      -7.181  10.291  65.630  1.00  0.00    -0.148 C  
ENDROOT
BRANCH   2   4
HETATM    4  N   UNL     1      -8.774   9.919  67.511  1.00  0.00    -0.122 NA 
BRANCH   4   5
HETATM    5  C   UNL     1      -9.265  11.302  67.378  1.00  0.00    -0.162 C  
BRANCH   5   6
HETATM    6  C   UNL     1     -10.455  11.420  66.417  1.00  0.00    -0.299 C  
BRANCH   6   7
HETATM    7  C   UNL     1     -11.710  12.049  67.050  1.00  0.00    -0.341 C  
BRANCH   7   8
HETATM    8  C   UNL     1     -12.099  13.417  66.489  1.00  0.00    -0.388 C  
BRANCH   8   9
HETATM    9  O   UNL     1     -11.219  14.410  67.012  1.00  0.00    -0.307 OA 
BRANCH   9  10
HETATM   10  C   UNL     1     -11.906  15.347  67.838  1.00  0.00    -0.073 C  
BRANCH  10  11
HETATM   11  C   UNL     1     -11.720  15.029  69.317  1.00  0.00    -0.323 C  
HETATM   12  O   UNL     1     -10.681  14.549  69.749  1.00  0.00    -0.170 OA 
HETATM   13  N   UNL     1     -12.801  15.389  70.136  1.00  0.00    -0.654 N  
HETATM   14  H   UNL     1     -13.588  15.892  69.725  1.00  0.00     0.000 HD 
BRANCH  13  15
HETATM   15  S   UNL     1     -12.835  15.019  71.755  1.00  0.00    -0.370 S  
HETATM   16  O   UNL     1     -11.514  15.162  72.306  1.00  0.00    -0.425 OA 
HETATM   17  C   UNL     1     -13.164  13.287  71.666  1.00  0.00    -0.359 C  
HETATM   18  O   UNL     1     -13.999  15.640  72.336  1.00  0.00    -0.530 OA 
ENDBRANCH  13  15
ENDBRANCH  10  11
ENDBRANCH   9  10
ENDBRANCH   8   9
ENDBRANCH   7   8
ENDBRANCH   6   7
ENDBRANCH   5   6
ENDBRANCH   4   5
BRANCH   4  19
HETATM   19  C   UNL     1      -8.979   9.173  68.676  1.00  0.00    -0.136 A  
HETATM   20  N   UNL     1      -8.164   7.656  70.412  1.00  0.00    -0.120 NA 
HETATM   21  N   UNL     1     -10.199   9.171  69.261  1.00  0.00    -0.204 NA 
HETATM   22  C   UNL     1      -9.414   7.649  70.972  1.00  0.00    -0.159 A  
HETATM   23  C   UNL     1     -10.435   8.439  70.404  1.00  0.00    -0.214 A  
HETATM   24  C   UNL     1      -7.990   8.419  69.296  1.00  0.00    -0.113 A  
BRANCH  23  25
HETATM   25  C   UNL     1     -11.841   8.536  70.888  1.00  0.00    -0.243 A  
HETATM   26  C   UNL     1     -12.698   7.420  70.833  1.00  0.00    -0.162 A  
HETATM   27  C   UNL     1     -13.572   9.676  72.193  1.00  0.00    -0.471 A  
HETATM   28  C   UNL     1     -12.370   9.697  71.480  1.00  0.00    -0.477 A  
HETATM   29  C   UNL     1     -14.359   8.534  72.189  1.00  0.00    -0.529 A  
HETATM   30  C   UNL     1     -13.949   7.423  71.460  1.00  0.00    -0.517 A  
ENDBRANCH  23  25
BRANCH  22  31
HETATM   31  C   UNL     1      -9.548   6.720  72.143  1.00  0.00    -0.152 A  
HETATM   32  C   UNL     1      -9.754   4.438  73.038  1.00  0.00    -0.167 A  
HETATM   33  C   UNL     1      -9.641   6.287  74.561  1.00  0.00    -0.277 A  
HETATM   34  C   UNL     1      -9.655   7.172  73.475  1.00  0.00    -0.266 A  
HETATM   35  C   UNL     1      -9.648   5.323  71.957  1.00  0.00    -0.189 A  
HETATM   36  C   UNL     1      -9.685   4.917  74.341  1.00  0.00    -0.167 A  
ENDBRANCH  22  31
ENDBRANCH   4  19
ENDBRANCH   2   4
TORSDOF 12
ENDMDL
MODEL       68
REMARK 921   NORMALIZED FREE ENERGY PREDICTED BY IDOCK:   -5.84 KCAL/MOL
REMARK 922        TOTAL FREE ENERGY PREDICTED BY IDOCK:  -11.25 KCAL/MOL
REMARK 923 INTER-LIGAND FREE ENERGY PREDICTED BY IDOCK:   -9.99 KCAL/MOL
REMARK 924 INTRA-LIGAND FREE ENERGY PREDICTED BY IDOCK:   -1.26 KCAL/MOL
REMARK 927      BINDING AFFINITY PREDICTED BY RF-SCORE:    0.00 PKD
ROOT
HETATM    1  C   UNL     1      -7.755   9.083  67.059  1.00  0.00    -0.098 C  
HETATM    2  C   UNL     1      -8.591   8.348  68.109  1.00  0.00    -0.139 C  
HETATM    3  C   UNL     1      -8.117   8.740  69.510  1.00  0.00    -0.105 C  
ENDROOT
BRANCH   2   4
HETATM    4  N   UNL     1     -10.054   8.533  67.956  1.00  0.00    -0.191 NA 
BRANCH   4   5
HETATM    5  C   UNL     1     -10.874   7.631  67.128  1.00  0.00    -0.188 C  
BRANCH   5   6
HETATM    6  C   UNL     1     -11.034   6.237  67.748  1.00  0.00    -0.427 C  
BRANCH   6   7
HETATM    7  C   UNL     1     -10.296   5.124  66.981  1.00  0.00    -0.267 C  
BRANCH   7   8
HETATM    8  C   UNL     1      -9.069   4.553  67.693  1.00  0.00    -0.122 C  
BRANCH   8   9
HETATM    9  O   UNL     1      -9.373   4.355  69.072  1.00  0.00    -0.128 OA 
BRANCH   9  10
HETATM   10  C   UNL     1      -8.419   4.989  69.922  1.00  0.00    -0.088 C  
BRANCH  10  11
HETATM   11  C   UNL     1      -9.055   5.453  71.226  1.00  0.00    -0.142 C  
HETATM   12  O   UNL     1      -8.453   5.409  72.291  1.00  0.00    -0.121 OA 
HETATM   13  N   UNL     1     -10.345   5.989  71.092  1.00  0.00    -0.207 N  
HETATM   14  H   UNL     1     -10.740   6.103  70.159  1.00  0.00     0.000 HD 
BRANCH  13  15
HETATM   15  S   UNL     1     -11.247   6.441  72.413  1.00  0.00    -0.286 S  
HETATM   16  O   UNL     1     -11.520   5.285  73.224  1.00  0.00    -0.294 OA 
HETATM   17  C   UNL     1     -12.762   6.870  71.615  1.00  0.00    -0.352 C  
HETATM   18  O   UNL     1     -10.690   7.659  72.944  1.00  0.00    -0.305 OA 
ENDBRANCH  13  15
ENDBRANCH  10  11
ENDBRANCH   9  10
ENDBRANCH   8   9
ENDBRANCH   7   8
ENDBRANCH   6   7
ENDBRANCH   5   6
ENDBRANCH   4   5
BRANCH   4  19
HETATM   19  C   UNL     1     -10.599   9.661  68.580  1.00  0.00    -0.220 A  
HETATM   20  N   UNL     1     -11.595  10.752  70.527  1.00  0.00    -0.332 NA 
HETATM   21  N   UNL     1     -10.717  10.815  67.883  1.00  0.00    -0.219 NA 
HETATM   22  C   UNL     1     -11.729  11.903  69.796  1.00  0.00    -0.331 A  
HETATM   23  C   UNL     1     -11.258  11.940  68.467  1.00  0.00    -0.256 A  
HETATM   24  C   UNL     1     -11.030   9.681  69.900  1.00  0.00    -0.252 A  
BRANCH  23  25
HETATM   25  C   UNL     1     -11.333  13.106  67.542  1.00  0.00    -0.336 A  
HETATM   26  C   UNL     1     -10.298  14.060  67.503  1.00  0.00    -0.245 A  
HETATM   27  C   UNL     1     -12.286  14.207  65.572  1.00  0.00    -0.472 A  
HETATM   28  C   UNL     1     -12.382  13.290  66.623  1.00  0.00    -0.274 A  
HETATM   29  C   UNL     1     -11.212  15.081  65.513  1.00  0.00    -0.344 A  
HETATM   30  C   UNL     1     -10.246  15.047  66.512  1.00  0.00    -0.281 A  
ENDBRANCH  23  25
BRANCH  22  31
HETATM   31  C   UNL     1     -12.434  13.007  70.526  1.00  0.00    -0.306 A  
HETATM   32  C   UNL     1     -13.001  15.391  70.751  1.00  0.00    -0.510 A  
HETATM   33  C   UNL     1     -13.931  13.815  72.301  1.00  0.00    -0.672 A  
HETATM   34  C   UNL     1     -13.169  12.797  71.712  1.00  0.00    -0.471 A  
HETATM   35  C   UNL     1     -12.333  14.348  70.093  1.00  0.00    -0.406 A  
HETATM   36  C   UNL     1     -13.851  15.113  71.815  1.00  0.00    -0.605 A  
ENDBRANCH  22  31
ENDBRANCH   4  19
ENDBRANCH   2   4
TORSDOF 12
ENDMDL
MODEL       69
REMARK 921   NORMALIZED FREE ENERGY PREDICTED BY IDOCK:   -5.83 KCAL/MOL
REMARK 922        TOTAL FREE ENERGY PREDICTED BY IDOCK:  -11.23 KCAL/MOL
REMARK 923 INTER-LIGAND FREE ENERGY PREDICTED BY IDOCK:   -9.49 KCAL/MOL
REMARK 924 INTRA-LIGAND FREE ENERGY PREDICTED BY IDOCK:   -1.74 KCAL/MOL
REMARK 927      BINDING AFFINITY PREDICTED BY RF-SCORE:    0.00 PKD
ROOT
HETATM    1  C   UNL     1      -9.467  17.514  68.453  1.00  0.00    -0.292 C  
HETATM    2  C   UNL     1     -10.615  16.868  67.674  1.00  0.00    -0.325 C  
HETATM    3  C   UNL     1     -10.125  16.450  66.286  1.00  0.00    -0.346 C  
ENDROOT
BRANCH   2   4
HETATM    4  N   UNL     1     -11.270  15.742  68.384  1.00  0.00    -0.345 NA 
BRANCH   4   5
HETATM    5  C   UNL     1     -12.180  15.960  69.523  1.00  0.00    -0.089 C  
BRANCH   5   6
HETATM    6  C   UNL     1     -11.782  15.150  70.764  1.00  0.00    -0.370 C  
BRANCH   6   7
HETATM    7  C   UNL     1     -12.465  13.774  70.858  1.00  0.00    -0.451 C  
BRANCH   7   8
HETATM    8  C   UNL     1     -13.370  13.584  72.075  1.00  0.00    -0.475 C  
BRANCH   8   9
HETATM    9  O   UNL     1     -13.586  12.190  72.290  1.00  0.00    -0.432 OA 
BRANCH   9  10
HETATM   10  C   UNL     1     -12.889  11.392  71.336  1.00  0.00    -0.397 C  
BRANCH  10  11
HETATM   11  C   UNL     1     -12.869   9.924  71.745  1.00  0.00    -0.442 C  
HETATM   12  O   UNL     1     -13.755   9.431  72.430  1.00  0.00    -0.454 OA 
HETATM   13  N   UNL     1     -11.798   9.183  71.221  1.00  0.00    -0.306 N  
HETATM   14  H   UNL     1     -11.161   9.631  70.563  1.00  0.00     0.000 HD 
BRANCH  13  15
HETATM   15  S   UNL     1     -11.539   7.598  71.646  1.00  0.00    -0.278 S  
HETATM   16  O   UNL     1     -11.183   7.528  73.039  1.00  0.00    -0.361 OA 
HETATM   17  C   UNL     1     -10.067   7.271  70.729  1.00  0.00    -0.190 C  
HETATM   18  O   UNL     1     -12.587   6.797  71.063  1.00  0.00    -0.347 OA 
ENDBRANCH  13  15
ENDBRANCH  10  11
ENDBRANCH   9  10
ENDBRANCH   8   9
ENDBRANCH   7   8
ENDBRANCH   6   7
ENDBRANCH   5   6
ENDBRANCH   4   5
BRANCH   4  19
HETATM   19  C   UNL     1     -10.913  14.458  67.959  1.00  0.00    -0.258 A  
HETATM   20  N   UNL     1     -11.459  12.341  66.866  1.00  0.00    -0.339 NA 
HETATM   21  N   UNL     1      -9.670  13.992  68.220  1.00  0.00    -0.221 NA 
HETATM   22  C   UNL     1     -10.203  11.881  67.163  1.00  0.00    -0.208 A  
HETATM   23  C   UNL     1      -9.291  12.729  67.823  1.00  0.00    -0.199 A  
HETATM   24  C   UNL     1     -11.765  13.609  67.264  1.00  0.00    -0.380 A  
BRANCH  23  25
HETATM   25  C   UNL     1      -7.898  12.379  68.219  1.00  0.00    -0.150 A  
HETATM   26  C   UNL     1      -6.804  13.115  67.726  1.00  0.00    -0.149 A  
HETATM   27  C   UNL     1      -6.329  11.248  69.724  1.00  0.00    -0.137 A  
HETATM   28  C   UNL     1      -7.595  11.361  69.142  1.00  0.00    -0.038 A  
HETATM   29  C   UNL     1      -5.288  12.045  69.274  1.00  0.00    -0.056 A  
HETATM   30  C   UNL     1      -5.511  12.940  68.233  1.00  0.00    -0.075 A  
ENDBRANCH  23  25
BRANCH  22  31
HETATM   31  C   UNL     1      -9.973  10.452  66.768  1.00  0.00    -0.256 A  
HETATM   32  C   UNL     1     -10.433   8.055  67.084  1.00  0.00    -0.408 A  
HETATM   33  C   UNL     1      -8.963   8.743  65.318  1.00  0.00    -0.184 A  
HETATM   34  C   UNL     1      -9.062  10.068  65.763  1.00  0.00    -0.201 A  
HETATM   35  C   UNL     1     -10.619   9.395  67.449  1.00  0.00    -0.326 A  
HETATM   36  C   UNL     1      -9.655   7.736  65.976  1.00  0.00    -0.006 A  
ENDBRANCH  22  31
ENDBRANCH   4  19
ENDBRANCH   2   4
TORSDOF 12
ENDMDL
MODEL       70
REMARK 921   NORMALIZED FREE ENERGY PREDICTED BY IDOCK:   -5.81 KCAL/MOL
REMARK 922        TOTAL FREE ENERGY PREDICTED BY IDOCK:  -11.21 KCAL/MOL
REMARK 923 INTER-LIGAND FREE ENERGY PREDICTED BY IDOCK:   -9.30 KCAL/MOL
REMARK 924 INTRA-LIGAND FREE ENERGY PREDICTED BY IDOCK:   -1.91 KCAL/MOL
REMARK 927      BINDING AFFINITY PREDICTED BY RF-SCORE:    0.00 PKD
ROOT
HETATM    1  C   UNL     1     -10.899   9.656  68.808  1.00  0.00    -0.199 C  
HETATM    2  C   UNL     1      -9.814  10.730  68.910  1.00  0.00    -0.199 C  
HETATM    3  C   UNL     1      -8.526  10.110  69.456  1.00  0.00    -0.179 C  
ENDROOT
BRANCH   2   4
HETATM    4  N   UNL     1      -9.572  11.468  67.646  1.00  0.00    -0.169 NA 
BRANCH   4   5
HETATM    5  C   UNL     1      -9.137  10.788  66.414  1.00  0.00    -0.171 C  
BRANCH   5   6
HETATM    6  C   UNL     1     -10.264  10.650  65.382  1.00  0.00    -0.341 C  
BRANCH   6   7
HETATM    7  C   UNL     1      -9.957  11.317  64.029  1.00  0.00    -0.362 C  
BRANCH   7   8
HETATM    8  C   UNL     1      -9.488  10.362  62.930  1.00  0.00    -0.325 C  
BRANCH   8   9
HETATM    9  O   UNL     1      -8.208   9.838  63.274  1.00  0.00    -0.135 OA 
BRANCH   9  10
HETATM   10  C   UNL     1      -8.076   8.469  62.897  1.00  0.00    -0.176 C  
BRANCH  10  11
HETATM   11  C   UNL     1      -7.782   7.583  64.102  1.00  0.00    -0.132 C  
HETATM   12  O   UNL     1      -6.656   7.171  64.342  1.00  0.00    -0.039 OA 
HETATM   13  N   UNL     1      -8.886   7.341  64.935  1.00  0.00    -0.291 N  
HETATM   14  H   UNL     1      -9.768   7.813  64.738  1.00  0.00     0.000 HD 
BRANCH  13  15
HETATM   15  S   UNL     1      -8.793   6.307  66.232  1.00  0.00    -0.149 S  
HETATM   16  O   UNL     1      -8.532   4.972  65.762  1.00  0.00    -0.117 OA 
HETATM   17  C   UNL     1     -10.474   6.337  66.768  1.00  0.00    -0.244 C  
HETATM   18  O   UNL     1      -8.010   6.943  67.262  1.00  0.00    -0.111 OA 
ENDBRANCH  13  15
ENDBRANCH  10  11
ENDBRANCH   9  10
ENDBRANCH   8   9
ENDBRANCH   7   8
ENDBRANCH   6   7
ENDBRANCH   5   6
ENDBRANCH   4   5
BRANCH   4  19
HETATM   19  C   UNL     1      -9.705  12.859  67.714  1.00  0.00    -0.214 A  
HETATM   20  N   UNL     1      -9.146  15.100  66.911  1.00  0.00    -0.231 NA 
HETATM   21  N   UNL     1     -10.504  13.407  68.658  1.00  0.00    -0.243 NA 
HETATM   22  C   UNL     1      -9.940  15.633  67.891  1.00  0.00    -0.223 A  
HETATM   23  C   UNL     1     -10.649  14.773  68.755  1.00  0.00    -0.251 A  
HETATM   24  C   UNL     1      -9.064  13.740  66.852  1.00  0.00    -0.242 A  
BRANCH  23  25
HETATM   25  C   UNL     1     -11.545  15.194  69.869  1.00  0.00    -0.329 A  
HETATM   26  C   UNL     1     -12.845  14.665  69.984  1.00  0.00    -0.094 A  
HETATM   27  C   UNL     1     -11.874  16.216  72.071  1.00  0.00    -0.615 A  
HETATM   28  C   UNL     1     -11.139  16.072  70.891  1.00  0.00    -0.288 A  
HETATM   29  C   UNL     1     -13.118  15.615  72.190  1.00  0.00    -0.540 A  
HETATM   30  C   UNL     1     -13.630  14.886  71.122  1.00  0.00    -0.467 A  
ENDBRANCH  23  25
BRANCH  22  31
HETATM   31  C   UNL     1      -9.911  17.132  67.945  1.00  0.00    -0.292 A  
HETATM   32  C   UNL     1     -10.859  19.306  67.287  1.00  0.00    -0.554 A  
HETATM   33  C   UNL     1      -8.985  19.250  68.782  1.00  0.00    -0.399 A  
HETATM   34  C   UNL     1      -8.916  17.858  68.631  1.00  0.00    -0.262 A  
HETATM   35  C   UNL     1     -10.857  17.905  67.234  1.00  0.00    -0.188 A  
HETATM   36  C   UNL     1      -9.963  19.974  68.113  1.00  0.00    -0.533 A  
ENDBRANCH  22  31
ENDBRANCH   4  19
ENDBRANCH   2   4
TORSDOF 12
ENDMDL
MODEL       71
REMARK 921   NORMALIZED FREE ENERGY PREDICTED BY IDOCK:   -5.80 KCAL/MOL
REMARK 922        TOTAL FREE ENERGY PREDICTED BY IDOCK:  -11.19 KCAL/MOL
REMARK 923 INTER-LIGAND FREE ENERGY PREDICTED BY IDOCK:   -9.79 KCAL/MOL
REMARK 924 INTRA-LIGAND FREE ENERGY PREDICTED BY IDOCK:   -1.40 KCAL/MOL
REMARK 927      BINDING AFFINITY PREDICTED BY RF-SCORE:    0.00 PKD
ROOT
HETATM    1  C   UNL     1     -12.195  14.696  72.443  1.00  0.00    -0.312 C  
HETATM    2  C   UNL     1     -12.995  14.189  71.241  1.00  0.00    -0.356 C  
HETATM    3  C   UNL     1     -14.367  14.867  71.214  1.00  0.00    -0.460 C  
ENDROOT
BRANCH   2   4
HETATM    4  N   UNL     1     -12.292  14.328  69.943  1.00  0.00    -0.340 NA 
BRANCH   4   5
HETATM    5  C   UNL     1     -12.257  15.602  69.204  1.00  0.00    -0.124 C  
BRANCH   5   6
HETATM    6  C   UNL     1     -11.029  16.455  69.547  1.00  0.00    -0.317 C  
BRANCH   6   7
HETATM    7  C   UNL     1      -9.837  16.245  68.596  1.00  0.00    -0.230 C  
BRANCH   7   8
HETATM    8  C   UNL     1      -8.644  15.511  69.209  1.00  0.00    -0.263 C  
BRANCH   8   9
HETATM    9  O   UNL     1      -7.579  16.436  69.421  1.00  0.00    -0.229 OA 
BRANCH   9  10
HETATM   10  C   UNL     1      -6.660  16.447  68.330  1.00  0.00    -0.136 C  
BRANCH  10  11
HETATM   11  C   UNL     1      -6.524  17.842  67.730  1.00  0.00    -0.183 C  
HETATM   12  O   UNL     1      -5.474  18.469  67.784  1.00  0.00    -0.162 OA 
HETATM   13  N   UNL     1      -7.667  18.308  67.064  1.00  0.00    -0.213 N  
HETATM   14  H   UNL     1      -8.467  17.685  66.957  1.00  0.00     0.000 HD 
BRANCH  13  15
HETATM   15  S   UNL     1      -7.753  19.848  66.446  1.00  0.00    -0.309 S  
HETATM   16  O   UNL     1      -7.361  20.793  67.458  1.00  0.00    -0.336 OA 
HETATM   17  C   UNL     1      -9.501  20.005  66.255  1.00  0.00    -0.382 C  
HETATM   18  O   UNL     1      -7.184  19.835  65.122  1.00  0.00    -0.372 OA 
ENDBRANCH  13  15
ENDBRANCH  10  11
ENDBRANCH   9  10
ENDBRANCH   8   9
ENDBRANCH   7   8
ENDBRANCH   6   7
ENDBRANCH   5   6
ENDBRANCH   4   5
BRANCH   4  19
HETATM   19  C   UNL     1     -11.729  13.157  69.422  1.00  0.00    -0.327 A  
HETATM   20  N   UNL     1     -10.659  11.929  67.599  1.00  0.00    -0.206 NA 
HETATM   21  N   UNL     1     -11.692  12.040  70.185  1.00  0.00    -0.282 NA 
HETATM   22  C   UNL     1     -10.656  10.803  68.379  1.00  0.00    -0.197 A  
HETATM   23  C   UNL     1     -11.153  10.870  69.697  1.00  0.00    -0.266 A  
HETATM   24  C   UNL     1     -11.185  13.061  68.148  1.00  0.00    -0.272 A  
BRANCH  23  25
HETATM   25  C   UNL     1     -11.223   9.739  70.666  1.00  0.00    -0.402 A  
HETATM   26  C   UNL     1     -10.048   9.178  71.201  1.00  0.00    -0.384 A  
HETATM   27  C   UNL     1     -12.483   8.377  72.266  1.00  0.00    -0.417 A  
HETATM   28  C   UNL     1     -12.437   9.217  71.149  1.00  0.00    -0.315 A  
HETATM   29  C   UNL     1     -11.305   7.904  72.825  1.00  0.00    -0.453 A  
HETATM   30  C   UNL     1     -10.087   8.258  72.255  1.00  0.00    -0.370 A  
ENDBRANCH  23  25
BRANCH  22  31
HETATM   31  C   UNL     1     -10.141   9.581  67.677  1.00  0.00    -0.254 A  
HETATM   32  C   UNL     1     -10.417   7.224  67.026  1.00  0.00    -0.398 A  
HETATM   33  C   UNL     1      -8.489   8.431  66.267  1.00  0.00    -0.132 A  
HETATM   34  C   UNL     1      -8.889   9.535  67.031  1.00  0.00    -0.139 A  
HETATM   35  C   UNL     1     -10.871   8.371  67.692  1.00  0.00    -0.078 A  
HETATM   36  C   UNL     1      -9.259   7.275  66.260  1.00  0.00    -0.175 A  
ENDBRANCH  22  31
ENDBRANCH   4  19
ENDBRANCH   2   4
TORSDOF 12
ENDMDL
MODEL       72
REMARK 921   NORMALIZED FREE ENERGY PREDICTED BY IDOCK:   -5.80 KCAL/MOL
REMARK 922        TOTAL FREE ENERGY PREDICTED BY IDOCK:  -11.18 KCAL/MOL
REMARK 923 INTER-LIGAND FREE ENERGY PREDICTED BY IDOCK:   -9.38 KCAL/MOL
REMARK 924 INTRA-LIGAND FREE ENERGY PREDICTED BY IDOCK:   -1.80 KCAL/MOL
REMARK 927      BINDING AFFINITY PREDICTED BY RF-SCORE:    0.00 PKD
ROOT
HETATM    1  C   UNL     1     -11.940   7.602  71.658  1.00  0.00    -0.329 C  
HETATM    2  C   UNL     1     -11.286   8.985  71.707  1.00  0.00    -0.377 C  
HETATM    3  C   UNL     1      -9.766   8.833  71.792  1.00  0.00    -0.380 C  
ENDROOT
BRANCH   2   4
HETATM    4  N   UNL     1     -11.684   9.882  70.595  1.00  0.00    -0.303 NA 
BRANCH   4   5
HETATM    5  C   UNL     1     -12.883  10.735  70.668  1.00  0.00    -0.293 C  
BRANCH   5   6
HETATM    6  C   UNL     1     -12.990  11.496  71.996  1.00  0.00    -0.373 C  
BRANCH   6   7
HETATM    7  C   UNL     1     -13.497  12.942  71.849  1.00  0.00    -0.478 C  
BRANCH   7   8
HETATM    8  C   UNL     1     -12.431  13.962  71.446  1.00  0.00    -0.340 C  
BRANCH   8   9
HETATM    9  O   UNL     1     -12.577  14.276  70.063  1.00  0.00    -0.335 OA 
BRANCH   9  10
HETATM   10  C   UNL     1     -11.327  14.243  69.377  1.00  0.00    -0.282 C  
BRANCH  10  11
HETATM   11  C   UNL     1     -11.479  14.661  67.919  1.00  0.00    -0.329 C  
HETATM   12  O   UNL     1     -11.452  15.835  67.577  1.00  0.00    -0.216 OA 
HETATM   13  N   UNL     1     -11.584  13.596  67.011  1.00  0.00    -0.340 N  
HETATM   14  H   UNL     1     -11.481  12.641  67.353  1.00  0.00     0.000 HD 
BRANCH  13  15
HETATM   15  S   UNL     1     -11.871  13.849  65.394  1.00  0.00    -0.375 S  
HETATM   16  O   UNL     1     -13.235  14.271  65.211  1.00  0.00    -0.704 OA 
HETATM   17  C   UNL     1     -11.770  12.189  64.802  1.00  0.00    -0.327 C  
HETATM   18  O   UNL     1     -10.748  14.564  64.842  1.00  0.00    -0.396 OA 
ENDBRANCH  13  15
ENDBRANCH  10  11
ENDBRANCH   9  10
ENDBRANCH   8   9
ENDBRANCH   7   8
ENDBRANCH   6   7
ENDBRANCH   5   6
ENDBRANCH   4   5
BRANCH   4  19
HETATM   19  C   UNL     1     -10.897   9.813  69.440  1.00  0.00    -0.232 A  
HETATM   20  N   UNL     1      -9.596  10.892  67.674  1.00  0.00    -0.162 NA 
HETATM   21  N   UNL     1     -10.643   8.609  68.878  1.00  0.00    -0.185 NA 
HETATM   22  C   UNL     1      -9.372   9.665  67.108  1.00  0.00    -0.139 A  
HETATM   23  C   UNL     1      -9.880   8.509  67.736  1.00  0.00    -0.175 A  
HETATM   24  C   UNL     1     -10.338  10.922  68.817  1.00  0.00    -0.198 A  
BRANCH  23  25
HETATM   25  C   UNL     1      -9.729   7.109  67.247  1.00  0.00    -0.198 A  
HETATM   26  C   UNL     1      -8.536   6.394  67.471  1.00  0.00    -0.115 A  
HETATM   27  C   UNL     1     -10.711   5.018  66.432  1.00  0.00    -0.242 A  
HETATM   28  C   UNL     1     -10.765   6.403  66.608  1.00  0.00    -0.271 A  
HETATM   29  C   UNL     1      -9.549   4.326  66.739  1.00  0.00    -0.221 A  
HETATM   30  C   UNL     1      -8.440   5.024  67.204  1.00  0.00    -0.106 A  
ENDBRANCH  23  25
BRANCH  22  31
HETATM   31  C   UNL     1      -8.622   9.724  65.811  1.00  0.00    -0.147 A  
HETATM   32  C   UNL     1      -8.621   9.732  63.350  1.00  0.00    -0.205 A  
HETATM   33  C   UNL     1      -6.542   9.963  64.523  1.00  0.00    -0.124 A  
HETATM   34  C   UNL     1      -7.215   9.771  65.737  1.00  0.00    -0.104 A  
HETATM   35  C   UNL     1      -9.302   9.660  64.573  1.00  0.00    -0.247 A  
HETATM   36  C   UNL     1      -7.248   9.949  63.328  1.00  0.00    -0.130 A  
ENDBRANCH  22  31
ENDBRANCH   4  19
ENDBRANCH   2   4
TORSDOF 12
ENDMDL
MODEL       73
REMARK 921   NORMALIZED FREE ENERGY PREDICTED BY IDOCK:   -5.79 KCAL/MOL
REMARK 922        TOTAL FREE ENERGY PREDICTED BY IDOCK:  -11.16 KCAL/MOL
REMARK 923 INTER-LIGAND FREE ENERGY PREDICTED BY IDOCK:   -9.33 KCAL/MOL
REMARK 924 INTRA-LIGAND FREE ENERGY PREDICTED BY IDOCK:   -1.83 KCAL/MOL
REMARK 927      BINDING AFFINITY PREDICTED BY RF-SCORE:    0.00 PKD
ROOT
HETATM    1  C   UNL     1     -11.123   9.808  69.300  1.00  0.00    -0.184 C  
HETATM    2  C   UNL     1      -9.789  10.557  69.324  1.00  0.00    -0.205 C  
HETATM    3  C   UNL     1      -8.675   9.609  69.775  1.00  0.00    -0.221 C  
ENDROOT
BRANCH   2   4
HETATM    4  N   UNL     1      -9.449  11.231  68.048  1.00  0.00    -0.168 NA 
BRANCH   4   5
HETATM    5  C   UNL     1      -8.946  10.486  66.880  1.00  0.00    -0.140 C  
BRANCH   5   6
HETATM    6  C   UNL     1     -10.049  10.149  65.869  1.00  0.00    -0.325 C  
BRANCH   6   7
HETATM    7  C   UNL     1      -9.656  10.409  64.404  1.00  0.00    -0.375 C  
BRANCH   7   8
HETATM    8  C   UNL     1      -8.276   9.885  64.003  1.00  0.00    -0.159 C  
BRANCH   8   9
HETATM    9  O   UNL     1      -8.358   8.483  63.752  1.00  0.00    -0.155 OA 
BRANCH   9  10
HETATM   10  C   UNL     1      -7.544   7.735  64.654  1.00  0.00    -0.113 C  
BRANCH  10  11
HETATM   11  C   UNL     1      -8.373   6.742  65.460  1.00  0.00    -0.142 C  
HETATM   12  O   UNL     1      -8.543   6.869  66.665  1.00  0.00    -0.116 OA 
HETATM   13  N   UNL     1      -8.968   5.722  64.701  1.00  0.00    -0.353 N  
HETATM   14  H   UNL     1      -8.880   5.744  63.685  1.00  0.00     0.000 HD 
BRANCH  13  15
HETATM   15  S   UNL     1      -9.812   4.480  65.412  1.00  0.00    -0.174 S  
HETATM   16  O   UNL     1      -8.893   3.602  66.087  1.00  0.00    -0.116 OA 
HETATM   17  C   UNL     1     -10.368   3.624  63.973  1.00  0.00    -0.255 C  
HETATM   18  O   UNL     1     -10.979   5.035  66.051  1.00  0.00    -0.243 OA 
ENDBRANCH  13  15
ENDBRANCH  10  11
ENDBRANCH   9  10
ENDBRANCH   8   9
ENDBRANCH   7   8
ENDBRANCH   6   7
ENDBRANCH   5   6
ENDBRANCH   4   5
BRANCH   4  19
HETATM   19  C   UNL     1      -9.560  12.625  68.042  1.00  0.00    -0.213 A  
HETATM   20  N   UNL     1      -8.928  14.814  67.157  1.00  0.00    -0.211 NA 
HETATM   21  N   UNL     1     -10.388  13.231  68.924  1.00  0.00    -0.127 NA 
HETATM   22  C   UNL     1      -9.753  15.408  68.075  1.00  0.00    -0.207 A  
HETATM   23  C   UNL     1     -10.512  14.603  68.949  1.00  0.00    -0.248 A  
HETATM   24  C   UNL     1      -8.868  13.452  67.167  1.00  0.00    -0.222 A  
BRANCH  23  25
HETATM   25  C   UNL     1     -11.446  15.092  70.002  1.00  0.00    -0.310 A  
HETATM   26  C   UNL     1     -12.785  14.656  70.034  1.00  0.00    -0.197 A  
HETATM   27  C   UNL     1     -11.843  16.147  72.177  1.00  0.00    -0.626 A  
HETATM   28  C   UNL     1     -11.046  15.945  71.047  1.00  0.00    -0.283 A  
HETATM   29  C   UNL     1     -13.132  15.635  72.216  1.00  0.00    -0.538 A  
HETATM   30  C   UNL     1     -13.624  14.937  71.118  1.00  0.00    -0.467 A  
ENDBRANCH  23  25
BRANCH  22  31
HETATM   31  C   UNL     1      -9.699  16.907  68.058  1.00  0.00    -0.256 A  
HETATM   32  C   UNL     1      -8.517  19.002  68.577  1.00  0.00    -0.387 A  
HETATM   33  C   UNL     1     -10.629  19.098  67.444  1.00  0.00    -0.577 A  
HETATM   34  C   UNL     1     -10.755  17.709  67.577  1.00  0.00    -0.294 A  
HETATM   35  C   UNL     1      -8.595  17.602  68.601  1.00  0.00    -0.264 A  
HETATM   36  C   UNL     1      -9.505  19.745  67.940  1.00  0.00    -0.458 A  
ENDBRANCH  22  31
ENDBRANCH   4  19
ENDBRANCH   2   4
TORSDOF 12
ENDMDL
MODEL       74
REMARK 921   NORMALIZED FREE ENERGY PREDICTED BY IDOCK:   -5.78 KCAL/MOL
REMARK 922        TOTAL FREE ENERGY PREDICTED BY IDOCK:  -11.15 KCAL/MOL
REMARK 923 INTER-LIGAND FREE ENERGY PREDICTED BY IDOCK:   -9.51 KCAL/MOL
REMARK 924 INTRA-LIGAND FREE ENERGY PREDICTED BY IDOCK:   -1.64 KCAL/MOL
REMARK 927      BINDING AFFINITY PREDICTED BY RF-SCORE:    0.00 PKD
ROOT
HETATM    1  C   UNL     1     -13.793   8.113  71.659  1.00  0.00    -0.434 C  
HETATM    2  C   UNL     1     -12.411   7.456  71.700  1.00  0.00    -0.349 C  
HETATM    3  C   UNL     1     -12.265   6.493  70.520  1.00  0.00    -0.106 C  
ENDROOT
BRANCH   2   4
HETATM    4  N   UNL     1     -11.285   8.419  71.762  1.00  0.00    -0.273 NA 
BRANCH   4   5
HETATM    5  C   UNL     1     -10.226   8.319  72.781  1.00  0.00    -0.255 C  
BRANCH   5   6
HETATM    6  C   UNL     1      -8.984   7.573  72.276  1.00  0.00    -0.167 C  
BRANCH   6   7
HETATM    7  C   UNL     1      -7.691   8.407  72.322  1.00  0.00    -0.153 C  
BRANCH   7   8
HETATM    8  C   UNL     1      -7.379   9.184  71.043  1.00  0.00    -0.098 C  
BRANCH   8   9
HETATM    9  O   UNL     1      -7.152   8.266  69.976  1.00  0.00    -0.043 OA 
BRANCH   9  10
HETATM   10  C   UNL     1      -6.702   8.926  68.795  1.00  0.00    -0.054 C  
BRANCH  10  11
HETATM   11  C   UNL     1      -7.692   8.755  67.649  1.00  0.00    -0.101 C  
HETATM   12  O   UNL     1      -8.174   7.666  67.367  1.00  0.00    -0.114 OA 
HETATM   13  N   UNL     1      -8.049   9.947  66.999  1.00  0.00    -0.109 N  
HETATM   14  H   UNL     1      -7.699  10.833  67.362  1.00  0.00     0.000 HD 
BRANCH  13  15
HETATM   15  S   UNL     1      -9.025   9.953  65.654  1.00  0.00    -0.185 S  
HETATM   16  O   UNL     1     -10.007   8.907  65.771  1.00  0.00    -0.188 OA 
HETATM   17  C   UNL     1      -7.865   9.425  64.432  1.00  0.00    -0.123 C  
HETATM   18  O   UNL     1      -9.366  11.320  65.350  1.00  0.00    -0.216 OA 
ENDBRANCH  13  15
ENDBRANCH  10  11
ENDBRANCH   9  10
ENDBRANCH   8   9
ENDBRANCH   7   8
ENDBRANCH   6   7
ENDBRANCH   5   6
ENDBRANCH   4   5
BRANCH   4  19
HETATM   19  C   UNL     1     -11.329   9.475  70.845  1.00  0.00    -0.341 A  
HETATM   20  N   UNL     1     -10.839  10.412  68.640  1.00  0.00    -0.217 NA 
HETATM   21  N   UNL     1     -11.881  10.654  71.213  1.00  0.00    -0.251 NA 
HETATM   22  C   UNL     1     -11.379  11.604  69.043  1.00  0.00    -0.275 A  
HETATM   23  C   UNL     1     -11.931  11.715  70.336  1.00  0.00    -0.358 A  
HETATM   24  C   UNL     1     -10.841   9.393  69.547  1.00  0.00    -0.213 A  
BRANCH  23  25
HETATM   25  C   UNL     1     -12.548  12.938  70.924  1.00  0.00    -0.355 A  
HETATM   26  C   UNL     1     -12.255  14.212  70.401  1.00  0.00    -0.427 A  
HETATM   27  C   UNL     1     -14.274  14.008  72.293  1.00  0.00    -0.599 A  
HETATM   28  C   UNL     1     -13.492  12.897  71.966  1.00  0.00    -0.568 A  
HETATM   29  C   UNL     1     -14.016  15.235  71.701  1.00  0.00    -0.627 A  
HETATM   30  C   UNL     1     -12.966  15.351  70.796  1.00  0.00    -0.510 A  
ENDBRANCH  23  25
BRANCH  22  31
HETATM   31  C   UNL     1     -11.263  12.697  68.022  1.00  0.00    -0.308 A  
HETATM   32  C   UNL     1     -12.182  13.915  66.092  1.00  0.00    -0.498 A  
HETATM   33  C   UNL     1     -10.110  14.641  67.056  1.00  0.00    -0.249 A  
HETATM   34  C   UNL     1     -10.138  13.543  67.925  1.00  0.00    -0.248 A  
HETATM   35  C   UNL     1     -12.263  12.888  67.042  1.00  0.00    -0.155 A  
HETATM   36  C   UNL     1     -11.137  14.830  66.141  1.00  0.00    -0.339 A  
ENDBRANCH  22  31
ENDBRANCH   4  19
ENDBRANCH   2   4
TORSDOF 12
ENDMDL
MODEL       75
REMARK 921   NORMALIZED FREE ENERGY PREDICTED BY IDOCK:   -5.75 KCAL/MOL
REMARK 922        TOTAL FREE ENERGY PREDICTED BY IDOCK:  -11.11 KCAL/MOL
REMARK 923 INTER-LIGAND FREE ENERGY PREDICTED BY IDOCK:   -9.30 KCAL/MOL
REMARK 924 INTRA-LIGAND FREE ENERGY PREDICTED BY IDOCK:   -1.81 KCAL/MOL
REMARK 927      BINDING AFFINITY PREDICTED BY RF-SCORE:    0.00 PKD
ROOT
HETATM    1  C   UNL     1      -7.133   9.607  68.820  1.00  0.00    -0.067 C  
HETATM    2  C   UNL     1      -7.630  11.048  68.951  1.00  0.00    -0.134 C  
HETATM    3  C   UNL     1      -6.519  11.924  69.533  1.00  0.00    -0.113 C  
ENDROOT
BRANCH   2   4
HETATM    4  N   UNL     1      -8.173  11.617  67.694  1.00  0.00    -0.134 NA 
BRANCH   4   5
HETATM    5  C   UNL     1      -8.234  10.838  66.444  1.00  0.00    -0.155 C  
BRANCH   5   6
HETATM    6  C   UNL     1      -9.670  10.497  66.027  1.00  0.00    -0.257 C  
BRANCH   6   7
HETATM    7  C   UNL     1     -10.020   9.003  66.156  1.00  0.00    -0.311 C  
BRANCH   7   8
HETATM    8  C   UNL     1     -10.650   8.599  67.489  1.00  0.00    -0.222 C  
BRANCH   8   9
HETATM    9  O   UNL     1     -10.939   7.203  67.471  1.00  0.00    -0.244 OA 
BRANCH   9  10
HETATM   10  C   UNL     1     -10.262   6.508  68.517  1.00  0.00    -0.172 C  
BRANCH  10  11
HETATM   11  C   UNL     1     -10.891   6.794  69.875  1.00  0.00    -0.266 C  
HETATM   12  O   UNL     1     -12.089   6.646  70.077  1.00  0.00    -0.280 OA 
HETATM   13  N   UNL     1      -9.982   7.172  70.875  1.00  0.00    -0.189 N  
HETATM   14  H   UNL     1      -8.984   7.161  70.667  1.00  0.00     0.000 HD 
BRANCH  13  15
HETATM   15  S   UNL     1     -10.488   7.637  72.389  1.00  0.00    -0.273 S  
HETATM   16  O   UNL     1     -11.360   8.775  72.273  1.00  0.00    -0.355 OA 
HETATM   17  C   UNL     1      -8.963   8.230  73.052  1.00  0.00    -0.241 C  
HETATM   18  O   UNL     1     -10.839   6.452  73.131  1.00  0.00    -0.253 OA 
ENDBRANCH  13  15
ENDBRANCH  10  11
ENDBRANCH   9  10
ENDBRANCH   8   9
ENDBRANCH   7   8
ENDBRANCH   6   7
ENDBRANCH   5   6
ENDBRANCH   4   5
BRANCH   4  19
HETATM   19  C   UNL     1      -8.550  12.964  67.743  1.00  0.00    -0.185 A  
HETATM   20  N   UNL     1      -8.282  15.285  67.024  1.00  0.00    -0.218 NA 
HETATM   21  N   UNL     1      -9.550  13.345  68.571  1.00  0.00    -0.186 NA 
HETATM   22  C   UNL     1      -9.280  15.652  67.888  1.00  0.00    -0.190 A  
HETATM   23  C   UNL     1      -9.939  14.664  68.648  1.00  0.00    -0.234 A  
HETATM   24  C   UNL     1      -7.960  13.961  66.976  1.00  0.00     0.069 A  
BRANCH  23  25
HETATM   25  C   UNL     1     -11.034  14.900  69.631  1.00  0.00    -0.294 A  
HETATM   26  C   UNL     1     -12.123  14.011  69.720  1.00  0.00    -0.405 A  
HETATM   27  C   UNL     1     -11.888  15.989  71.652  1.00  0.00    -0.582 A  
HETATM   28  C   UNL     1     -11.021  15.959  70.556  1.00  0.00    -0.346 A  
HETATM   29  C   UNL     1     -12.902  15.050  71.758  1.00  0.00    -0.415 A  
HETATM   30  C   UNL     1     -13.056  14.094  70.760  1.00  0.00    -0.289 A  
ENDBRANCH  23  25
BRANCH  22  31
HETATM   31  C   UNL     1      -9.516  17.133  67.946  1.00  0.00    -0.257 A  
HETATM   32  C   UNL     1     -10.889  19.094  67.379  1.00  0.00    -0.533 A  
HETATM   33  C   UNL     1      -8.919  19.390  68.714  1.00  0.00    -0.396 A  
HETATM   34  C   UNL     1      -8.615  18.032  68.551  1.00  0.00    -0.306 A  
HETATM   35  C   UNL     1     -10.641  17.715  67.320  1.00  0.00    -0.297 A  
HETATM   36  C   UNL     1     -10.063  19.920  68.131  1.00  0.00    -0.569 A  
ENDBRANCH  22  31
ENDBRANCH   4  19
ENDBRANCH   2   4
TORSDOF 12
ENDMDL
MODEL       76
REMARK 921   NORMALIZED FREE ENERGY PREDICTED BY IDOCK:   -5.75 KCAL/MOL
REMARK 922        TOTAL FREE ENERGY PREDICTED BY IDOCK:  -11.10 KCAL/MOL
REMARK 923 INTER-LIGAND FREE ENERGY PREDICTED BY IDOCK:   -8.96 KCAL/MOL
REMARK 924 INTRA-LIGAND FREE ENERGY PREDICTED BY IDOCK:   -2.15 KCAL/MOL
REMARK 927      BINDING AFFINITY PREDICTED BY RF-SCORE:    0.00 PKD
ROOT
HETATM    1  C   UNL     1      -8.962   7.826  72.905  1.00  0.00    -0.243 C  
HETATM    2  C   UNL     1      -9.873   6.626  72.635  1.00  0.00    -0.168 C  
HETATM    3  C   UNL     1     -10.574   6.211  73.931  1.00  0.00    -0.230 C  
ENDROOT
BRANCH   2   4
HETATM    4  N   UNL     1     -10.842   6.838  71.533  1.00  0.00    -0.230 NA 
BRANCH   4   5
HETATM    5  C   UNL     1     -12.215   7.314  71.779  1.00  0.00    -0.334 C  
BRANCH   5   6
HETATM    6  C   UNL     1     -12.266   8.789  72.196  1.00  0.00    -0.448 C  
BRANCH   6   7
HETATM    7  C   UNL     1     -12.662   9.747  71.057  1.00  0.00    -0.392 C  
BRANCH   7   8
HETATM    8  C   UNL     1     -11.517  10.589  70.495  1.00  0.00    -0.345 C  
BRANCH   8   9
HETATM    9  O   UNL     1     -12.044  11.564  69.597  1.00  0.00    -0.309 OA 
BRANCH   9  10
HETATM   10  C   UNL     1     -11.624  11.330  68.254  1.00  0.00    -0.300 C  
BRANCH  10  11
HETATM   11  C   UNL     1     -11.751  12.588  67.403  1.00  0.00    -0.366 C  
HETATM   12  O   UNL     1     -11.751  13.707  67.898  1.00  0.00    -0.319 OA 
HETATM   13  N   UNL     1     -11.801  12.358  66.019  1.00  0.00    -0.417 N  
HETATM   14  H   UNL     1     -11.679  11.408  65.670  1.00  0.00     0.000 HD 
BRANCH  13  15
HETATM   15  S   UNL     1     -12.055  13.591  64.935  1.00  0.00    -0.421 S  
HETATM   16  O   UNL     1     -13.371  14.139  65.134  1.00  0.00    -0.684 OA 
HETATM   17  C   UNL     1     -12.111  12.670  63.431  1.00  0.00    -0.525 C  
HETATM   18  O   UNL     1     -10.866  14.404  64.889  1.00  0.00    -0.376 OA 
ENDBRANCH  13  15
ENDBRANCH  10  11
ENDBRANCH   9  10
ENDBRANCH   8   9
ENDBRANCH   7   8
ENDBRANCH   6   7
ENDBRANCH   5   6
ENDBRANCH   4   5
BRANCH   4  19
HETATM   19  C   UNL     1     -10.402   6.483  70.253  1.00  0.00    -0.201 A  
HETATM   20  N   UNL     1      -9.845   4.792  68.578  1.00  0.00    -0.151 NA 
HETATM   21  N   UNL     1     -10.055   7.453  69.375  1.00  0.00    -0.181 NA 
HETATM   22  C   UNL     1      -9.475   5.789  67.715  1.00  0.00    -0.112 A  
HETATM   23  C   UNL     1      -9.609   7.136  68.112  1.00  0.00    -0.131 A  
HETATM   24  C   UNL     1     -10.301   5.172  69.806  1.00  0.00    -0.262 A  
BRANCH  23  25
HETATM   25  C   UNL     1      -9.248   8.329  67.296  1.00  0.00    -0.165 A  
HETATM   26  C   UNL     1      -8.005   8.968  67.469  1.00  0.00    -0.101 A  
HETATM   27  C   UNL     1      -9.595   9.757  65.336  1.00  0.00    -0.359 A  
HETATM   28  C   UNL     1     -10.073   8.842  66.279  1.00  0.00    -0.284 A  
HETATM   29  C   UNL     1      -8.332  10.310  65.486  1.00  0.00    -0.165 A  
HETATM   30  C   UNL     1      -7.558   9.958  66.586  1.00  0.00    -0.103 A  
ENDBRANCH  23  25
BRANCH  22  31
HETATM   31  C   UNL     1      -8.906   5.289  66.420  1.00  0.00    -0.123 A  
HETATM   32  C   UNL     1      -6.967   4.893  64.958  1.00  0.00    -0.061 A  
HETATM   33  C   UNL     1      -9.144   4.195  64.232  1.00  0.00    -0.147 A  
HETATM   34  C   UNL     1      -9.704   4.781  65.374  1.00  0.00    -0.138 A  
HETATM   35  C   UNL     1      -7.521   5.372  66.153  1.00  0.00    -0.083 A  
HETATM   36  C   UNL     1      -7.771   4.246  64.027  1.00  0.00    -0.083 A  
ENDBRANCH  22  31
ENDBRANCH   4  19
ENDBRANCH   2   4
TORSDOF 12
ENDMDL
MODEL       77
REMARK 921   NORMALIZED FREE ENERGY PREDICTED BY IDOCK:   -5.75 KCAL/MOL
REMARK 922        TOTAL FREE ENERGY PREDICTED BY IDOCK:  -11.10 KCAL/MOL
REMARK 923 INTER-LIGAND FREE ENERGY PREDICTED BY IDOCK:   -9.55 KCAL/MOL
REMARK 924 INTRA-LIGAND FREE ENERGY PREDICTED BY IDOCK:   -1.55 KCAL/MOL
REMARK 927      BINDING AFFINITY PREDICTED BY RF-SCORE:    0.00 PKD
ROOT
HETATM    1  C   UNL     1     -10.601   7.547  73.448  1.00  0.00    -0.409 C  
HETATM    2  C   UNL     1     -10.254   8.448  72.261  1.00  0.00    -0.326 C  
HETATM    3  C   UNL     1      -8.772   8.292  71.913  1.00  0.00    -0.230 C  
ENDROOT
BRANCH   2   4
HETATM    4  N   UNL     1     -11.118   8.246  71.073  1.00  0.00    -0.245 NA 
BRANCH   4   5
HETATM    5  C   UNL     1     -11.776   6.956  70.795  1.00  0.00    -0.369 C  
BRANCH   5   6
HETATM    6  C   UNL     1     -10.816   5.916  70.203  1.00  0.00    -0.402 C  
BRANCH   6   7
HETATM    7  C   UNL     1     -10.378   4.830  71.202  1.00  0.00    -0.188 C  
BRANCH   7   8
HETATM    8  C   UNL     1      -8.866   4.653  71.341  1.00  0.00    -0.123 C  
BRANCH   8   9
HETATM    9  O   UNL     1      -8.232   5.026  70.119  1.00  0.00    -0.079 OA 
BRANCH   9  10
HETATM   10  C   UNL     1      -7.778   3.888  69.389  1.00  0.00    -0.052 C  
BRANCH  10  11
HETATM   11  C   UNL     1      -8.719   3.553  68.237  1.00  0.00    -0.105 C  
HETATM   12  O   UNL     1      -9.590   2.700  68.340  1.00  0.00    -0.185 OA 
HETATM   13  N   UNL     1      -8.545   4.342  67.089  1.00  0.00    -0.104 N  
HETATM   14  H   UNL     1      -7.878   5.114  67.114  1.00  0.00     0.000 HD 
BRANCH  13  15
HETATM   15  S   UNL     1      -9.395   4.054  65.691  1.00  0.00    -0.171 S  
HETATM   16  O   UNL     1      -9.168   2.698  65.264  1.00  0.00    -0.150 OA 
HETATM   17  C   UNL     1      -8.508   5.093  64.573  1.00  0.00    -0.141 C  
HETATM   18  O   UNL     1     -10.713   4.619  65.838  1.00  0.00    -0.307 OA 
ENDBRANCH  13  15
ENDBRANCH  10  11
ENDBRANCH   9  10
ENDBRANCH   8   9
ENDBRANCH   7   8
ENDBRANCH   6   7
ENDBRANCH   5   6
ENDBRANCH   4   5
BRANCH   4  19
HETATM   19  C   UNL     1     -11.210   9.326  70.190  1.00  0.00    -0.208 A  
HETATM   20  N   UNL     1     -10.916  10.298  67.966  1.00  0.00    -0.283 NA 
HETATM   21  N   UNL     1     -11.661  10.520  70.641  1.00  0.00    -0.339 NA 
HETATM   22  C   UNL     1     -11.351  11.503  68.451  1.00  0.00    -0.279 A  
HETATM   23  C   UNL     1     -11.754  11.605  69.798  1.00  0.00    -0.352 A  
HETATM   24  C   UNL     1     -10.869   9.257  68.845  1.00  0.00    -0.099 A  
BRANCH  23  25
HETATM   25  C   UNL     1     -12.243  12.839  70.476  1.00  0.00    -0.389 A  
HETATM   26  C   UNL     1     -13.077  12.754  71.608  1.00  0.00    -0.428 A  
HETATM   27  C   UNL     1     -12.080  15.245  70.901  1.00  0.00    -0.396 A  
HETATM   28  C   UNL     1     -11.860  14.134  70.083  1.00  0.00    -0.382 A  
HETATM   29  C   UNL     1     -12.837  15.116  72.055  1.00  0.00    -0.424 A  
HETATM   30  C   UNL     1     -13.386  13.880  72.379  1.00  0.00    -0.629 A  
ENDBRANCH  23  25
BRANCH  22  31
HETATM   31  C   UNL     1     -11.292  12.617  67.447  1.00  0.00    -0.367 A  
HETATM   32  C   UNL     1      -9.989  14.275  66.179  1.00  0.00    -0.330 A  
HETATM   33  C   UNL     1     -12.348  14.093  65.790  1.00  0.00    -0.481 A  
HETATM   34  C   UNL     1     -12.438  13.150  66.822  1.00  0.00     0.008 A  
HETATM   35  C   UNL     1     -10.068  13.246  67.128  1.00  0.00    -0.239 A  
HETATM   36  C   UNL     1     -11.119  14.652  65.464  1.00  0.00    -0.345 A  
ENDBRANCH  22  31
ENDBRANCH   4  19
ENDBRANCH   2   4
TORSDOF 12
ENDMDL
MODEL       78
REMARK 921   NORMALIZED FREE ENERGY PREDICTED BY IDOCK:   -5.73 KCAL/MOL
REMARK 922        TOTAL FREE ENERGY PREDICTED BY IDOCK:  -11.07 KCAL/MOL
REMARK 923 INTER-LIGAND FREE ENERGY PREDICTED BY IDOCK:   -9.39 KCAL/MOL
REMARK 924 INTRA-LIGAND FREE ENERGY PREDICTED BY IDOCK:   -1.68 KCAL/MOL
REMARK 927      BINDING AFFINITY PREDICTED BY RF-SCORE:    0.00 PKD
ROOT
HETATM    1  C   UNL     1      -9.665   9.990  64.550  1.00  0.00    -0.310 C  
HETATM    2  C   UNL     1      -9.239   9.148  65.754  1.00  0.00    -0.234 C  
HETATM    3  C   UNL     1      -8.248   8.072  65.305  1.00  0.00    -0.148 C  
ENDROOT
BRANCH   2   4
HETATM    4  N   UNL     1      -8.708   9.940  66.890  1.00  0.00    -0.128 NA 
BRANCH   4   5
HETATM    5  C   UNL     1      -8.049  11.243  66.694  1.00  0.00    -0.160 C  
BRANCH   5   6
HETATM    6  C   UNL     1      -7.683  11.928  68.017  1.00  0.00    -0.132 C  
BRANCH   6   7
HETATM    7  C   UNL     1      -7.083  13.336  67.847  1.00  0.00    -0.133 C  
BRANCH   7   8
HETATM    8  C   UNL     1      -8.101  14.476  67.849  1.00  0.00    -0.148 C  
BRANCH   8   9
HETATM    9  O   UNL     1      -8.251  14.979  66.523  1.00  0.00    -0.103 OA 
BRANCH   9  10
HETATM   10  C   UNL     1      -9.358  15.872  66.416  1.00  0.00    -0.297 C  
BRANCH  10  11
HETATM   11  C   UNL     1     -10.685  15.123  66.453  1.00  0.00    -0.317 C  
HETATM   12  O   UNL     1     -11.471  15.246  67.382  1.00  0.00    -0.324 OA 
HETATM   13  N   UNL     1     -10.951  14.344  65.316  1.00  0.00    -0.329 N  
HETATM   14  H   UNL     1     -10.305  14.380  64.528  1.00  0.00     0.000 HD 
BRANCH  13  15
HETATM   15  S   UNL     1     -12.290  13.365  65.219  1.00  0.00    -0.488 S  
HETATM   16  O   UNL     1     -12.089  12.197  66.035  1.00  0.00    -0.612 OA 
HETATM   17  C   UNL     1     -12.165  12.840  63.539  1.00  0.00    -0.525 C  
HETATM   18  O   UNL     1     -13.465  14.196  65.315  1.00  0.00    -0.606 OA 
ENDBRANCH  13  15
ENDBRANCH  10  11
ENDBRANCH   9  10
ENDBRANCH   8   9
ENDBRANCH   7   8
ENDBRANCH   6   7
ENDBRANCH   5   6
ENDBRANCH   4   5
BRANCH   4  19
HETATM   19  C   UNL     1      -8.799   9.341  68.151  1.00  0.00    -0.129 A  
HETATM   20  N   UNL     1      -7.827   8.018  69.963  1.00  0.00    -0.102 NA 
HETATM   21  N   UNL     1      -9.951   9.440  68.854  1.00  0.00    -0.174 NA 
HETATM   22  C   UNL     1      -9.011   8.109  70.645  1.00  0.00    -0.149 A  
HETATM   23  C   UNL     1     -10.075   8.854  70.094  1.00  0.00    -0.190 A  
HETATM   24  C   UNL     1      -7.760   8.641  68.752  1.00  0.00    -0.097 A  
BRANCH  23  25
HETATM   25  C   UNL     1     -11.420   9.043  70.705  1.00  0.00    -0.331 A  
HETATM   26  C   UNL     1     -12.211   7.933  71.061  1.00  0.00    -0.214 A  
HETATM   27  C   UNL     1     -13.059  10.452  71.858  1.00  0.00    -0.563 A  
HETATM   28  C   UNL     1     -11.948  10.308  71.023  1.00  0.00    -0.483 A  
HETATM   29  C   UNL     1     -13.772   9.333  72.261  1.00  0.00    -0.527 A  
HETATM   30  C   UNL     1     -13.382   8.075  71.814  1.00  0.00    -0.370 A  
ENDBRANCH  23  25
BRANCH  22  31
HETATM   31  C   UNL     1      -9.033   7.329  71.926  1.00  0.00    -0.138 A  
HETATM   32  C   UNL     1      -9.151   5.172  73.104  1.00  0.00    -0.127 A  
HETATM   33  C   UNL     1      -8.900   7.189  74.377  1.00  0.00    -0.238 A  
HETATM   34  C   UNL     1      -9.016   7.938  73.198  1.00  0.00    -0.304 A  
HETATM   35  C   UNL     1      -9.148   5.921  71.919  1.00  0.00    -0.142 A  
HETATM   36  C   UNL     1      -8.961   5.803  74.328  1.00  0.00    -0.123 A  
ENDBRANCH  22  31
ENDBRANCH   4  19
ENDBRANCH   2   4
TORSDOF 12
ENDMDL
MODEL       79
REMARK 921   NORMALIZED FREE ENERGY PREDICTED BY IDOCK:   -5.73 KCAL/MOL
REMARK 922        TOTAL FREE ENERGY PREDICTED BY IDOCK:  -11.07 KCAL/MOL
REMARK 923 INTER-LIGAND FREE ENERGY PREDICTED BY IDOCK:   -9.48 KCAL/MOL
REMARK 924 INTRA-LIGAND FREE ENERGY PREDICTED BY IDOCK:   -1.58 KCAL/MOL
REMARK 927      BINDING AFFINITY PREDICTED BY RF-SCORE:    0.00 PKD
ROOT
HETATM    1  C   UNL     1     -13.196  12.016  71.842  1.00  0.00    -0.469 C  
HETATM    2  C   UNL     1     -12.542  10.640  71.702  1.00  0.00    -0.377 C  
HETATM    3  C   UNL     1     -13.588   9.547  71.932  1.00  0.00    -0.468 C  
ENDROOT
BRANCH   2   4
HETATM    4  N   UNL     1     -11.816  10.441  70.424  1.00  0.00    -0.302 NA 
BRANCH   4   5
HETATM    5  C   UNL     1     -12.179  11.171  69.197  1.00  0.00    -0.175 C  
BRANCH   5   6
HETATM    6  C   UNL     1     -11.121  12.201  68.782  1.00  0.00    -0.297 C  
BRANCH   6   7
HETATM    7  C   UNL     1     -11.669  13.343  67.907  1.00  0.00    -0.396 C  
BRANCH   7   8
HETATM    8  C   UNL     1     -12.022  12.946  66.474  1.00  0.00    -0.377 C  
BRANCH   8   9
HETATM    9  O   UNL     1     -12.172  14.122  65.681  1.00  0.00    -0.401 OA 
BRANCH   9  10
HETATM   10  C   UNL     1     -10.930  14.553  65.131  1.00  0.00    -0.379 C  
BRANCH  10  11
HETATM   11  C   UNL     1     -10.747  16.059  65.278  1.00  0.00    -0.399 C  
HETATM   12  O   UNL     1     -11.117  16.843  64.414  1.00  0.00    -1.128 OA 
HETATM   13  N   UNL     1     -10.188  16.466  66.499  1.00  0.00    -0.294 N  
HETATM   14  H   UNL     1     -10.011  15.768  67.220  1.00  0.00     0.000 HD 
BRANCH  13  15
HETATM   15  S   UNL     1      -9.804  18.055  66.800  1.00  0.00    -0.353 S  
HETATM   16  O   UNL     1      -8.786  18.484  65.879  1.00  0.00    -0.490 OA 
HETATM   17  C   UNL     1      -9.026  17.889  68.375  1.00  0.00    -0.282 C  
HETATM   18  O   UNL     1     -11.031  18.783  67.009  1.00  0.00    -0.348 OA 
ENDBRANCH  13  15
ENDBRANCH  10  11
ENDBRANCH   9  10
ENDBRANCH   8   9
ENDBRANCH   7   8
ENDBRANCH   6   7
ENDBRANCH   5   6
ENDBRANCH   4   5
BRANCH   4  19
HETATM   19  C   UNL     1     -10.816   9.462  70.433  1.00  0.00    -0.269 A  
HETATM   20  N   UNL     1      -8.735   8.542  71.326  1.00  0.00    -0.164 NA 
HETATM   21  N   UNL     1     -10.878   8.440  69.548  1.00  0.00    -0.173 NA 
HETATM   22  C   UNL     1      -8.804   7.530  70.405  1.00  0.00    -0.145 A  
HETATM   23  C   UNL     1      -9.905   7.466  69.526  1.00  0.00    -0.165 A  
HETATM   24  C   UNL     1      -9.741   9.462  71.313  1.00  0.00    -0.139 A  
BRANCH  23  25
HETATM   25  C   UNL     1     -10.123   6.437  68.469  1.00  0.00    -0.173 A  
HETATM   26  C   UNL     1     -10.542   6.812  67.178  1.00  0.00    -0.401 A  
HETATM   27  C   UNL     1      -9.786   4.174  67.595  1.00  0.00    -0.176 A  
HETATM   28  C   UNL     1      -9.866   5.068  68.666  1.00  0.00    -0.227 A  
HETATM   29  C   UNL     1     -10.126   4.592  66.317  1.00  0.00    -0.292 A  
HETATM   30  C   UNL     1     -10.561   5.898  66.118  1.00  0.00     0.057 A  
ENDBRANCH  23  25
BRANCH  22  31
HETATM   31  C   UNL     1      -7.619   6.611  70.426  1.00  0.00    -0.096 A  
HETATM   32  C   UNL     1      -6.354   4.791  71.496  1.00  0.00    -0.022 A  
HETATM   33  C   UNL     1      -5.559   5.713  69.429  1.00  0.00    -0.008 A  
HETATM   34  C   UNL     1      -6.583   6.668  69.470  1.00  0.00    -0.048 A  
HETATM   35  C   UNL     1      -7.444   5.672  71.468  1.00  0.00    -0.096 A  
HETATM   36  C   UNL     1      -5.448   4.769  70.442  1.00  0.00    -0.011 A  
ENDBRANCH  22  31
ENDBRANCH   4  19
ENDBRANCH   2   4
TORSDOF 12
ENDMDL
MODEL       80
REMARK 921   NORMALIZED FREE ENERGY PREDICTED BY IDOCK:   -5.73 KCAL/MOL
REMARK 922        TOTAL FREE ENERGY PREDICTED BY IDOCK:  -11.06 KCAL/MOL
REMARK 923 INTER-LIGAND FREE ENERGY PREDICTED BY IDOCK:   -9.02 KCAL/MOL
REMARK 924 INTRA-LIGAND FREE ENERGY PREDICTED BY IDOCK:   -2.04 KCAL/MOL
REMARK 927      BINDING AFFINITY PREDICTED BY RF-SCORE:    0.00 PKD
ROOT
HETATM    1  C   UNL     1      -6.986  10.120  69.439  1.00  0.00    -0.076 C  
HETATM    2  C   UNL     1      -6.889  11.646  69.479  1.00  0.00    -0.051 C  
HETATM    3  C   UNL     1      -5.729  12.065  70.385  1.00  0.00    -0.168 C  
ENDROOT
BRANCH   2   4
HETATM    4  N   UNL     1      -6.797  12.283  68.143  1.00  0.00    -0.071 NA 
BRANCH   4   5
HETATM    5  C   UNL     1      -6.022  11.683  67.043  1.00  0.00    -0.138 C  
BRANCH   5   6
HETATM    6  C   UNL     1      -6.913  11.136  65.919  1.00  0.00     0.123 C  
BRANCH   6   7
HETATM    7  C   UNL     1      -6.965   9.599  65.855  1.00  0.00    -0.097 C  
BRANCH   7   8
HETATM    8  C   UNL     1      -8.371   8.999  65.882  1.00  0.00    -0.125 C  
BRANCH   8   9
HETATM    9  O   UNL     1      -9.162   9.604  64.861  1.00  0.00    -0.229 OA 
BRANCH   9  10
HETATM   10  C   UNL     1     -10.334  10.220  65.394  1.00  0.00    -0.163 C  
BRANCH  10  11
HETATM   11  C   UNL     1     -10.700  11.483  64.623  1.00  0.00    -0.319 C  
HETATM   12  O   UNL     1     -10.155  11.777  63.567  1.00  0.00    -0.365 OA 
HETATM   13  N   UNL     1     -11.745  12.232  65.186  1.00  0.00    -0.370 N  
HETATM   14  H   UNL     1     -12.232  11.866  66.003  1.00  0.00     0.000 HD 
BRANCH  13  15
HETATM   15  S   UNL     1     -12.209  13.698  64.556  1.00  0.00    -0.385 S  
HETATM   16  O   UNL     1     -12.378  13.575  63.132  1.00  0.00    -0.712 OA 
HETATM   17  C   UNL     1     -10.728  14.624  64.813  1.00  0.00    -0.377 C  
HETATM   18  O   UNL     1     -13.215  14.262  65.420  1.00  0.00    -0.688 OA 
ENDBRANCH  13  15
ENDBRANCH  10  11
ENDBRANCH   9  10
ENDBRANCH   8   9
ENDBRANCH   7   8
ENDBRANCH   6   7
ENDBRANCH   5   6
ENDBRANCH   4   5
BRANCH   4  19
HETATM   19  C   UNL     1      -7.422  13.528  68.012  1.00  0.00    -0.140 A  
HETATM   20  N   UNL     1      -7.484  15.804  67.123  1.00  0.00    -0.213 NA 
HETATM   21  N   UNL     1      -8.593  13.756  68.651  1.00  0.00    -0.111 NA 
HETATM   22  C   UNL     1      -8.655  16.021  67.799  1.00  0.00    -0.163 A  
HETATM   23  C   UNL     1      -9.228  14.973  68.549  1.00  0.00    -0.192 A  
HETATM   24  C   UNL     1      -6.917  14.570  67.245  1.00  0.00     0.087 A  
BRANCH  23  25
HETATM   25  C   UNL     1     -10.488  15.050  69.341  1.00  0.00    -0.254 A  
HETATM   26  C   UNL     1     -11.571  14.198  69.052  1.00  0.00    -0.342 A  
HETATM   27  C   UNL     1     -11.706  15.753  71.347  1.00  0.00    -0.508 A  
HETATM   28  C   UNL     1     -10.650  15.907  70.445  1.00  0.00    -0.193 A  
HETATM   29  C   UNL     1     -12.720  14.845  71.077  1.00  0.00    -0.412 A  
HETATM   30  C   UNL     1     -12.682  14.108  69.899  1.00  0.00    -0.077 A  
ENDBRANCH  23  25
BRANCH  22  31
HETATM   31  C   UNL     1      -9.169  17.426  67.684  1.00  0.00    -0.234 A  
HETATM   32  C   UNL     1     -10.711  19.052  66.667  1.00  0.00    -0.429 A  
HETATM   33  C   UNL     1      -9.202  19.782  68.383  1.00  0.00    -0.370 A  
HETATM   34  C   UNL     1      -8.620  18.508  68.402  1.00  0.00    -0.355 A  
HETATM   35  C   UNL     1     -10.203  17.750  66.777  1.00  0.00    -0.351 A  
HETATM   36  C   UNL     1     -10.254  20.052  67.517  1.00  0.00    -0.551 A  
ENDBRANCH  22  31
ENDBRANCH   4  19
ENDBRANCH   2   4
TORSDOF 12
ENDMDL
MODEL       81
REMARK 921   NORMALIZED FREE ENERGY PREDICTED BY IDOCK:   -5.72 KCAL/MOL
REMARK 922        TOTAL FREE ENERGY PREDICTED BY IDOCK:  -11.04 KCAL/MOL
REMARK 923 INTER-LIGAND FREE ENERGY PREDICTED BY IDOCK:  -10.09 KCAL/MOL
REMARK 924 INTRA-LIGAND FREE ENERGY PREDICTED BY IDOCK:   -0.95 KCAL/MOL
REMARK 927      BINDING AFFINITY PREDICTED BY RF-SCORE:    0.00 PKD
ROOT
HETATM    1  C   UNL     1     -13.962   8.936  72.033  1.00  0.00    -0.497 C  
HETATM    2  C   UNL     1     -12.795   7.947  71.987  1.00  0.00    -0.263 C  
HETATM    3  C   UNL     1     -13.078   6.865  70.943  1.00  0.00    -0.003 C  
ENDROOT
BRANCH   2   4
HETATM    4  N   UNL     1     -11.472   8.582  71.771  1.00  0.00    -0.288 NA 
BRANCH   4   5
HETATM    5  C   UNL     1     -10.279   8.187  72.541  1.00  0.00    -0.313 C  
BRANCH   5   6
HETATM    6  C   UNL     1     -10.596   7.170  73.646  1.00  0.00    -0.375 C  
BRANCH   6   7
HETATM    7  C   UNL     1      -9.365   6.400  74.158  1.00  0.00    -0.193 C  
BRANCH   7   8
HETATM    8  C   UNL     1      -9.468   4.878  74.057  1.00  0.00    -0.122 C  
BRANCH   8   9
HETATM    9  O   UNL     1     -10.491   4.535  73.124  1.00  0.00    -0.170 OA 
BRANCH   9  10
HETATM   10  C   UNL     1     -10.032   3.591  72.158  1.00  0.00    -0.164 C  
BRANCH  10  11
HETATM   11  C   UNL     1      -9.284   4.277  71.021  1.00  0.00    -0.140 C  
HETATM   12  O   UNL     1      -8.063   4.256  70.945  1.00  0.00    -0.069 OA 
HETATM   13  N   UNL     1     -10.107   4.867  70.049  1.00  0.00    -0.262 N  
HETATM   14  H   UNL     1     -11.117   4.745  70.114  1.00  0.00     0.000 HD 
BRANCH  13  15
HETATM   15  S   UNL     1      -9.480   5.759  68.795  1.00  0.00    -0.128 S  
HETATM   16  O   UNL     1      -8.936   6.988  69.308  1.00  0.00    -0.138 OA 
HETATM   17  C   UNL     1     -10.968   6.179  67.944  1.00  0.00    -0.304 C  
HETATM   18  O   UNL     1      -8.738   4.871  67.936  1.00  0.00    -0.103 OA 
ENDBRANCH  13  15
ENDBRANCH  10  11
ENDBRANCH   9  10
ENDBRANCH   8   9
ENDBRANCH   7   8
ENDBRANCH   6   7
ENDBRANCH   5   6
ENDBRANCH   4   5
BRANCH   4  19
HETATM   19  C   UNL     1     -11.439   9.633  70.848  1.00  0.00    -0.353 A  
HETATM   20  N   UNL     1     -10.842  10.531  68.654  1.00  0.00    -0.220 NA 
HETATM   21  N   UNL     1     -11.943  10.840  71.194  1.00  0.00    -0.305 NA 
HETATM   22  C   UNL     1     -11.335  11.751  69.035  1.00  0.00    -0.278 A  
HETATM   23  C   UNL     1     -11.917  11.896  70.311  1.00  0.00    -0.330 A  
HETATM   24  C   UNL     1     -10.919   9.519  69.565  1.00  0.00    -0.195 A  
BRANCH  23  25
HETATM   25  C   UNL     1     -12.491  13.151  70.875  1.00  0.00    -0.407 A  
HETATM   26  C   UNL     1     -12.221  14.396  70.275  1.00  0.00    -0.397 A  
HETATM   27  C   UNL     1     -14.126  14.300  72.292  1.00  0.00    -0.621 A  
HETATM   28  C   UNL     1     -13.371  13.168  71.972  1.00  0.00    -0.587 A  
HETATM   29  C   UNL     1     -13.896  15.495  71.627  1.00  0.00    -0.554 A  
HETATM   30  C   UNL     1     -12.901  15.559  70.657  1.00  0.00    -0.466 A  
ENDBRANCH  23  25
BRANCH  22  31
HETATM   31  C   UNL     1     -11.137  12.830  68.012  1.00  0.00    -0.284 A  
HETATM   32  C   UNL     1      -9.729  14.582  67.010  1.00  0.00    -0.247 A  
HETATM   33  C   UNL     1     -11.884  14.125  66.060  1.00  0.00    -0.409 A  
HETATM   34  C   UNL     1     -12.136  13.211  67.093  1.00  0.00    -0.343 A  
HETATM   35  C   UNL     1      -9.941  13.582  67.969  1.00  0.00    -0.248 A  
HETATM   36  C   UNL     1     -10.675  14.807  66.016  1.00  0.00    -0.314 A  
ENDBRANCH  22  31
ENDBRANCH   4  19
ENDBRANCH   2   4
TORSDOF 12
ENDMDL
MODEL       82
REMARK 921   NORMALIZED FREE ENERGY PREDICTED BY IDOCK:   -5.71 KCAL/MOL
REMARK 922        TOTAL FREE ENERGY PREDICTED BY IDOCK:  -11.03 KCAL/MOL
REMARK 923 INTER-LIGAND FREE ENERGY PREDICTED BY IDOCK:   -8.77 KCAL/MOL
REMARK 924 INTRA-LIGAND FREE ENERGY PREDICTED BY IDOCK:   -2.26 KCAL/MOL
REMARK 927      BINDING AFFINITY PREDICTED BY RF-SCORE:    0.00 PKD
ROOT
HETATM    1  C   UNL     1     -10.152   6.487  73.849  1.00  0.00    -0.329 C  
HETATM    2  C   UNL     1     -10.682   5.609  72.713  1.00  0.00    -0.242 C  
HETATM    3  C   UNL     1     -11.627   4.549  73.282  1.00  0.00    -0.254 C  
ENDROOT
BRANCH   2   4
HETATM    4  N   UNL     1     -11.313   6.367  71.606  1.00  0.00    -0.277 NA 
BRANCH   4   5
HETATM    5  C   UNL     1     -12.549   7.146  71.795  1.00  0.00    -0.346 C  
BRANCH   5   6
HETATM    6  C   UNL     1     -12.296   8.513  72.443  1.00  0.00    -0.424 C  
BRANCH   6   7
HETATM    7  C   UNL     1     -13.436   9.526  72.230  1.00  0.00    -0.521 C  
BRANCH   7   8
HETATM    8  C   UNL     1     -13.016  10.844  71.581  1.00  0.00    -0.464 C  
BRANCH   8   9
HETATM    9  O   UNL     1     -12.782  10.632  70.190  1.00  0.00    -0.308 OA 
BRANCH   9  10
HETATM   10  C   UNL     1     -11.455  10.997  69.814  1.00  0.00    -0.311 C  
BRANCH  10  11
HETATM   11  C   UNL     1     -11.456  12.120  68.784  1.00  0.00    -0.307 C  
HETATM   12  O   UNL     1     -12.098  12.044  67.745  1.00  0.00    -0.537 OA 
HETATM   13  N   UNL     1     -10.722  13.257  69.156  1.00  0.00    -0.436 N  
HETATM   14  H   UNL     1     -10.309  13.298  70.087  1.00  0.00     0.000 HD 
BRANCH  13  15
HETATM   15  S   UNL     1     -10.509  14.539  68.119  1.00  0.00    -0.243 S  
HETATM   16  O   UNL     1      -9.871  14.078  66.914  1.00  0.00    -0.252 OA 
HETATM   17  C   UNL     1      -9.298  15.458  69.015  1.00  0.00    -0.232 C  
HETATM   18  O   UNL     1     -11.718  15.323  68.116  1.00  0.00    -0.345 OA 
ENDBRANCH  13  15
ENDBRANCH  10  11
ENDBRANCH   9  10
ENDBRANCH   8   9
ENDBRANCH   7   8
ENDBRANCH   6   7
ENDBRANCH   5   6
ENDBRANCH   4   5
BRANCH   4  19
HETATM   19  C   UNL     1     -10.709   6.235  70.351  1.00  0.00    -0.271 A  
HETATM   20  N   UNL     1      -9.738   4.855  68.582  1.00  0.00    -0.154 NA 
HETATM   21  N   UNL     1     -10.448   7.342  69.617  1.00  0.00    -0.225 NA 
HETATM   22  C   UNL     1      -9.460   5.990  67.868  1.00  0.00    -0.112 A  
HETATM   23  C   UNL     1      -9.847   7.245  68.382  1.00  0.00    -0.155 A  
HETATM   24  C   UNL     1     -10.356   5.015  69.786  1.00  0.00    -0.216 A  
BRANCH  23  25
HETATM   25  C   UNL     1      -9.614   8.567  67.734  1.00  0.00    -0.185 A  
HETATM   26  C   UNL     1      -8.596   9.424  68.195  1.00  0.00    -0.120 A  
HETATM   27  C   UNL     1      -9.902  10.093  65.839  1.00  0.00    -0.308 A  
HETATM   28  C   UNL     1     -10.331   9.006  66.606  1.00  0.00    -0.289 A  
HETATM   29  C   UNL     1      -8.841  10.872  66.276  1.00  0.00    -0.187 A  
HETATM   30  C   UNL     1      -8.224  10.572  67.486  1.00  0.00    -0.114 A  
ENDBRANCH  23  25
BRANCH  22  31
HETATM   31  C   UNL     1      -8.704   5.737  66.597  1.00  0.00    -0.119 A  
HETATM   32  C   UNL     1      -8.582   4.723  64.358  1.00  0.00    -0.145 A  
HETATM   33  C   UNL     1      -6.750   6.059  65.141  1.00  0.00    -0.044 A  
HETATM   34  C   UNL     1      -7.386   6.188  66.383  1.00  0.00    -0.085 A  
HETATM   35  C   UNL     1      -9.263   4.955  65.561  1.00  0.00    -0.160 A  
HETATM   36  C   UNL     1      -7.353   5.330  64.125  1.00  0.00    -0.056 A  
ENDBRANCH  22  31
ENDBRANCH   4  19
ENDBRANCH   2   4
TORSDOF 12
ENDMDL
MODEL       83
REMARK 921   NORMALIZED FREE ENERGY PREDICTED BY IDOCK:   -5.71 KCAL/MOL
REMARK 922        TOTAL FREE ENERGY PREDICTED BY IDOCK:  -11.03 KCAL/MOL
REMARK 923 INTER-LIGAND FREE ENERGY PREDICTED BY IDOCK:  -10.20 KCAL/MOL
REMARK 924 INTRA-LIGAND FREE ENERGY PREDICTED BY IDOCK:   -0.83 KCAL/MOL
REMARK 927      BINDING AFFINITY PREDICTED BY RF-SCORE:    0.00 PKD
ROOT
HETATM    1  C   UNL     1      -9.410   9.067  65.637  1.00  0.00    -0.289 C  
HETATM    2  C   UNL     1      -9.262  10.568  65.379  1.00  0.00    -0.192 C  
HETATM    3  C   UNL     1     -10.606  11.149  64.935  1.00  0.00    -0.356 C  
ENDROOT
BRANCH   2   4
HETATM    4  N   UNL     1      -8.689  11.325  66.519  1.00  0.00    -0.173 NA 
BRANCH   4   5
HETATM    5  C   UNL     1      -7.236  11.478  66.705  1.00  0.00    -0.068 C  
BRANCH   5   6
HETATM    6  C   UNL     1      -6.853  11.801  68.155  1.00  0.00    -0.066 C  
BRANCH   6   7
HETATM    7  C   UNL     1      -6.141  13.156  68.326  1.00  0.00    -0.089 C  
BRANCH   7   8
HETATM    8  C   UNL     1      -6.483  13.906  69.614  1.00  0.00    -0.108 C  
BRANCH   8   9
HETATM    9  O   UNL     1      -7.519  14.850  69.350  1.00  0.00    -0.168 OA 
BRANCH   9  10
HETATM   10  C   UNL     1      -7.000  16.163  69.144  1.00  0.00    -0.201 C  
BRANCH  10  11
HETATM   11  C   UNL     1      -8.048  17.087  68.534  1.00  0.00    -0.251 C  
HETATM   12  O   UNL     1      -8.266  18.203  68.984  1.00  0.00    -0.188 OA 
HETATM   13  N   UNL     1      -8.683  16.579  67.390  1.00  0.00    -0.181 N  
HETATM   14  H   UNL     1      -8.369  15.690  67.002  1.00  0.00     0.000 HD 
BRANCH  13  15
HETATM   15  S   UNL     1      -9.934  17.387  66.652  1.00  0.00    -0.320 S  
HETATM   16  O   UNL     1     -11.010  17.563  67.590  1.00  0.00    -0.294 OA 
HETATM   17  C   UNL     1     -10.458  16.155  65.502  1.00  0.00    -0.386 C  
HETATM   18  O   UNL     1      -9.378  18.473  65.883  1.00  0.00    -0.486 OA 
ENDBRANCH  13  15
ENDBRANCH  10  11
ENDBRANCH   9  10
ENDBRANCH   8   9
ENDBRANCH   7   8
ENDBRANCH   6   7
ENDBRANCH   5   6
ENDBRANCH   4   5
BRANCH   4  19
HETATM   19  C   UNL     1      -9.609  11.818  67.451  1.00  0.00    -0.168 A  
HETATM   20  N   UNL     1     -10.871  13.666  68.435  1.00  0.00    -0.248 NA 
HETATM   21  N   UNL     1     -10.168  10.972  68.347  1.00  0.00    -0.177 NA 
HETATM   22  C   UNL     1     -11.405  12.797  69.348  1.00  0.00    -0.202 A  
HETATM   23  C   UNL     1     -11.069  11.428  69.283  1.00  0.00    -0.254 A  
HETATM   24  C   UNL     1     -10.003  13.148  67.519  1.00  0.00    -0.223 A  
BRANCH  23  25
HETATM   25  C   UNL     1     -11.559  10.361  70.201  1.00  0.00    -0.392 A  
HETATM   26  C   UNL     1     -10.661   9.658  71.028  1.00  0.00    -0.393 A  
HETATM   27  C   UNL     1     -13.381   9.265  71.416  1.00  0.00    -0.390 A  
HETATM   28  C   UNL     1     -12.920  10.042  70.350  1.00  0.00    -0.052 A  
HETATM   29  C   UNL     1     -12.475   8.649  72.266  1.00  0.00    -0.460 A  
HETATM   30  C   UNL     1     -11.111   8.799  72.037  1.00  0.00    -0.441 A  
ENDBRANCH  23  25
BRANCH  22  31
HETATM   31  C   UNL     1     -12.281  13.456  70.372  1.00  0.00    -0.415 A  
HETATM   32  C   UNL     1     -13.591  13.332  72.451  1.00  0.00    -0.694 A  
HETATM   33  C   UNL     1     -13.412  15.430  71.303  1.00  0.00    -0.598 A  
HETATM   34  C   UNL     1     -12.709  14.796  70.270  1.00  0.00    -0.324 A  
HETATM   35  C   UNL     1     -12.787  12.730  71.473  1.00  0.00    -0.369 A  
HETATM   36  C   UNL     1     -13.848  14.697  72.399  1.00  0.00    -0.580 A  
ENDBRANCH  22  31
ENDBRANCH   4  19
ENDBRANCH   2   4
TORSDOF 12
ENDMDL
MODEL       84
REMARK 921   NORMALIZED FREE ENERGY PREDICTED BY IDOCK:   -5.71 KCAL/MOL
REMARK 922        TOTAL FREE ENERGY PREDICTED BY IDOCK:  -11.03 KCAL/MOL
REMARK 923 INTER-LIGAND FREE ENERGY PREDICTED BY IDOCK:   -9.42 KCAL/MOL
REMARK 924 INTRA-LIGAND FREE ENERGY PREDICTED BY IDOCK:   -1.60 KCAL/MOL
REMARK 927      BINDING AFFINITY PREDICTED BY RF-SCORE:    0.00 PKD
ROOT
HETATM    1  C   UNL     1     -11.020   6.290  66.904  1.00  0.00    -0.404 C  
HETATM    2  C   UNL     1      -9.517   6.259  67.187  1.00  0.00    -0.124 C  
HETATM    3  C   UNL     1      -8.761   5.877  65.913  1.00  0.00    -0.152 C  
ENDROOT
BRANCH   2   4
HETATM    4  N   UNL     1      -8.987   7.510  67.783  1.00  0.00    -0.131 NA 
BRANCH   4   5
HETATM    5  C   UNL     1      -8.023   7.498  68.897  1.00  0.00    -0.126 C  
BRANCH   5   6
HETATM    6  C   UNL     1      -7.058   8.690  68.860  1.00  0.00    -0.066 C  
BRANCH   6   7
HETATM    7  C   UNL     1      -7.150   9.607  70.093  1.00  0.00    -0.116 C  
BRANCH   7   8
HETATM    8  C   UNL     1      -6.312   9.164  71.292  1.00  0.00    -0.078 C  
BRANCH   8   9
HETATM    9  O   UNL     1      -7.153   9.045  72.438  1.00  0.00    -0.326 OA 
BRANCH   9  10
HETATM   10  C   UNL     1      -7.412   7.681  72.767  1.00  0.00    -0.085 C  
BRANCH  10  11
HETATM   11  C   UNL     1      -8.885   7.455  73.088  1.00  0.00    -0.149 C  
HETATM   12  O   UNL     1      -9.305   7.464  74.237  1.00  0.00    -0.224 OA 
HETATM   13  N   UNL     1      -9.714   7.304  71.966  1.00  0.00    -0.157 N  
HETATM   14  H   UNL     1      -9.315   7.424  71.035  1.00  0.00     0.000 HD 
BRANCH  13  15
HETATM   15  S   UNL     1     -11.327   6.933  72.112  1.00  0.00    -0.275 S  
HETATM   16  O   UNL     1     -11.470   5.685  72.814  1.00  0.00    -0.299 OA 
HETATM   17  C   UNL     1     -11.722   6.614  70.422  1.00  0.00    -0.386 C  
HETATM   18  O   UNL     1     -12.033   8.132  72.492  1.00  0.00    -0.376 OA 
ENDBRANCH  13  15
ENDBRANCH  10  11
ENDBRANCH   9  10
ENDBRANCH   8   9
ENDBRANCH   7   8
ENDBRANCH   6   7
ENDBRANCH   5   6
ENDBRANCH   4   5
BRANCH   4  19
HETATM   19  C   UNL     1      -9.517   8.702  67.278  1.00  0.00    -0.156 A  
HETATM   20  N   UNL     1      -9.833  10.293  65.449  1.00  0.00    -0.276 NA 
HETATM   21  N   UNL     1     -10.236   9.509  68.092  1.00  0.00    -0.183 NA 
HETATM   22  C   UNL     1     -10.536  11.106  66.297  1.00  0.00    -0.253 A  
HETATM   23  C   UNL     1     -10.763  10.693  67.627  1.00  0.00    -0.267 A  
HETATM   24  C   UNL     1      -9.359   9.123  65.963  1.00  0.00    -0.238 A  
BRANCH  23  25
HETATM   25  C   UNL     1     -11.500  11.462  68.670  1.00  0.00    -0.359 A  
HETATM   26  C   UNL     1     -12.015  10.814  69.809  1.00  0.00    -0.397 A  
HETATM   27  C   UNL     1     -12.085  13.588  69.736  1.00  0.00    -0.381 A  
HETATM   28  C   UNL     1     -11.665  12.858  68.621  1.00  0.00    -0.359 A  
HETATM   29  C   UNL     1     -12.511  12.924  70.877  1.00  0.00    -0.383 A  
HETATM   30  C   UNL     1     -12.531  11.534  70.893  1.00  0.00    -0.464 A  
ENDBRANCH  23  25
BRANCH  22  31
HETATM   31  C   UNL     1     -10.950  12.410  65.682  1.00  0.00    -0.321 A  
HETATM   32  C   UNL     1     -12.630  13.773  64.508  1.00  0.00    -0.249 A  
HETATM   33  C   UNL     1     -10.547  14.776  65.150  1.00  0.00    -0.439 A  
HETATM   34  C   UNL     1     -10.096  13.530  65.604  1.00  0.00    -0.292 A  
HETATM   35  C   UNL     1     -12.217  12.558  65.072  1.00  0.00    -0.519 A  
HETATM   36  C   UNL     1     -11.820  14.899  64.606  1.00  0.00    -0.412 A  
ENDBRANCH  22  31
ENDBRANCH   4  19
ENDBRANCH   2   4
TORSDOF 12
ENDMDL
MODEL       85
REMARK 921   NORMALIZED FREE ENERGY PREDICTED BY IDOCK:   -5.70 KCAL/MOL
REMARK 922        TOTAL FREE ENERGY PREDICTED BY IDOCK:  -11.02 KCAL/MOL
REMARK 923 INTER-LIGAND FREE ENERGY PREDICTED BY IDOCK:   -9.21 KCAL/MOL
REMARK 924 INTRA-LIGAND FREE ENERGY PREDICTED BY IDOCK:   -1.81 KCAL/MOL
REMARK 927      BINDING AFFINITY PREDICTED BY RF-SCORE:    0.00 PKD
ROOT
HETATM    1  C   UNL     1      -7.968  11.234  69.130  1.00  0.00    -0.002 C  
HETATM    2  C   UNL     1      -7.929  10.621  67.728  1.00  0.00    -0.110 C  
HETATM    3  C   UNL     1      -6.490  10.240  67.373  1.00  0.00    -0.067 C  
ENDROOT
BRANCH   2   4
HETATM    4  N   UNL     1      -8.858   9.480  67.541  1.00  0.00    -0.125 NA 
BRANCH   4   5
HETATM    5  C   UNL     1      -9.555   9.240  66.264  1.00  0.00    -0.248 C  
BRANCH   5   6
HETATM    6  C   UNL     1     -10.316  10.474  65.762  1.00  0.00    -0.270 C  
BRANCH   6   7
HETATM    7  C   UNL     1      -9.730  11.089  64.477  1.00  0.00    -0.323 C  
BRANCH   7   8
HETATM    8  C   UNL     1     -10.746  11.797  63.580  1.00  0.00    -0.440 C  
BRANCH   8   9
HETATM    9  O   UNL     1     -11.959  11.994  64.304  1.00  0.00    -0.366 OA 
BRANCH   9  10
HETATM   10  C   UNL     1     -12.400  13.349  64.240  1.00  0.00    -0.335 C  
BRANCH  10  11
HETATM   11  C   UNL     1     -11.668  14.222  65.253  1.00  0.00    -0.357 C  
HETATM   12  O   UNL     1     -10.895  15.105  64.907  1.00  0.00    -0.404 OA 
HETATM   13  N   UNL     1     -12.003  13.972  66.593  1.00  0.00    -0.425 N  
HETATM   14  H   UNL     1     -12.742  13.302  66.803  1.00  0.00     0.000 HD 
BRANCH  13  15
HETATM   15  S   UNL     1     -11.228  14.740  67.847  1.00  0.00    -0.319 S  
HETATM   16  O   UNL     1      -9.820  14.451  67.787  1.00  0.00    -0.217 OA 
HETATM   17  C   UNL     1     -11.876  13.827  69.212  1.00  0.00    -0.344 C  
HETATM   18  O   UNL     1     -11.750  16.079  67.948  1.00  0.00    -0.145 OA 
ENDBRANCH  13  15
ENDBRANCH  10  11
ENDBRANCH   9  10
ENDBRANCH   8   9
ENDBRANCH   7   8
ENDBRANCH   6   7
ENDBRANCH   5   6
ENDBRANCH   4   5
BRANCH   4  19
HETATM   19  C   UNL     1      -9.097   8.691  68.671  1.00  0.00    -0.138 A  
HETATM   20  N   UNL     1      -8.440   6.905  70.206  1.00  0.00    -0.137 NA 
HETATM   21  N   UNL     1     -10.232   8.874  69.384  1.00  0.00    -0.203 NA 
HETATM   22  C   UNL     1      -9.608   7.090  70.898  1.00  0.00    -0.167 A  
HETATM   23  C   UNL     1     -10.499   8.106  70.496  1.00  0.00    -0.214 A  
HETATM   24  C   UNL     1      -8.223   7.712  69.129  1.00  0.00    -0.130 A  
BRANCH  23  25
HETATM   25  C   UNL     1     -11.805   8.430  71.137  1.00  0.00    -0.314 A  
HETATM   26  C   UNL     1     -12.073   9.731  71.604  1.00  0.00    -0.475 A  
HETATM   27  C   UNL     1     -14.156   7.897  71.573  1.00  0.00    -0.489 A  
HETATM   28  C   UNL     1     -12.855   7.500  71.252  1.00  0.00    -0.331 A  
HETATM   29  C   UNL     1     -14.407   9.207  71.952  1.00  0.00    -0.221 A  
HETATM   30  C   UNL     1     -13.353  10.112  72.024  1.00  0.00    -0.492 A  
ENDBRANCH  23  25
BRANCH  22  31
HETATM   31  C   UNL     1      -9.812   6.109  72.014  1.00  0.00    -0.174 A  
HETATM   32  C   UNL     1      -9.930   5.617  74.422  1.00  0.00    -0.262 A  
HETATM   33  C   UNL     1     -10.352   3.859  72.846  1.00  0.00    -0.241 A  
HETATM   34  C   UNL     1     -10.029   4.732  71.798  1.00  0.00    -0.255 A  
HETATM   35  C   UNL     1      -9.723   6.514  73.365  1.00  0.00    -0.186 A  
HETATM   36  C   UNL     1     -10.308   4.305  74.160  1.00  0.00    -0.284 A  
ENDBRANCH  22  31
ENDBRANCH   4  19
ENDBRANCH   2   4
TORSDOF 12
ENDMDL
MODEL       86
REMARK 921   NORMALIZED FREE ENERGY PREDICTED BY IDOCK:   -5.70 KCAL/MOL
REMARK 922        TOTAL FREE ENERGY PREDICTED BY IDOCK:  -11.01 KCAL/MOL
REMARK 923 INTER-LIGAND FREE ENERGY PREDICTED BY IDOCK:   -8.93 KCAL/MOL
REMARK 924 INTRA-LIGAND FREE ENERGY PREDICTED BY IDOCK:   -2.08 KCAL/MOL
REMARK 927      BINDING AFFINITY PREDICTED BY RF-SCORE:    0.00 PKD
ROOT
HETATM    1  C   UNL     1      -6.186  11.584  70.156  1.00  0.00    -0.132 C  
HETATM    2  C   UNL     1      -6.275  11.843  68.650  1.00  0.00    -0.055 C  
HETATM    3  C   UNL     1      -5.517  10.749  67.895  1.00  0.00    -0.039 C  
ENDROOT
BRANCH   2   4
HETATM    4  N   UNL     1      -7.660  11.997  68.144  1.00  0.00    -0.111 NA 
BRANCH   4   5
HETATM    5  C   UNL     1      -8.449  10.850  67.661  1.00  0.00    -0.123 C  
BRANCH   5   6
HETATM    6  C   UNL     1      -8.862   9.896  68.789  1.00  0.00    -0.136 C  
BRANCH   6   7
HETATM    7  C   UNL     1     -10.063  10.390  69.616  1.00  0.00    -0.226 C  
BRANCH   7   8
HETATM    8  C   UNL     1     -11.432   9.972  69.080  1.00  0.00    -0.012 C  
BRANCH   8   9
HETATM    9  O   UNL     1     -11.622  10.532  67.782  1.00  0.00    -0.462 OA 
BRANCH   9  10
HETATM   10  C   UNL     1     -12.007  11.904  67.847  1.00  0.00    -0.118 C  
BRANCH  10  11
HETATM   11  C   UNL     1     -11.810  12.603  66.507  1.00  0.00    -0.396 C  
HETATM   12  O   UNL     1     -12.096  13.782  66.344  1.00  0.00    -0.406 OA 
HETATM   13  N   UNL     1     -11.219  11.808  65.512  1.00  0.00    -0.292 N  
HETATM   14  H   UNL     1     -10.899  10.871  65.751  1.00  0.00     0.000 HD 
BRANCH  13  15
HETATM   15  S   UNL     1     -11.029  12.354  63.954  1.00  0.00    -0.454 S  
HETATM   16  O   UNL     1     -12.297  12.316  63.275  1.00  0.00    -0.522 OA 
HETATM   17  C   UNL     1     -10.056  11.042  63.287  1.00  0.00    -0.348 C  
HETATM   18  O   UNL     1     -10.191  13.527  63.986  1.00  0.00    -0.274 OA 
ENDBRANCH  13  15
ENDBRANCH  10  11
ENDBRANCH   9  10
ENDBRANCH   8   9
ENDBRANCH   7   8
ENDBRANCH   6   7
ENDBRANCH   5   6
ENDBRANCH   4   5
BRANCH   4  19
HETATM   19  C   UNL     1      -8.146  13.307  68.077  1.00  0.00    -0.157 A  
HETATM   20  N   UNL     1      -8.051  15.577  67.175  1.00  0.00    -0.197 NA 
HETATM   21  N   UNL     1      -9.192  13.670  68.854  1.00  0.00     0.073 NA 
HETATM   22  C   UNL     1      -9.094  15.929  67.990  1.00  0.00    -0.184 A  
HETATM   23  C   UNL     1      -9.688  14.955  68.818  1.00  0.00    -0.225 A  
HETATM   24  C   UNL     1      -7.622  14.285  67.240  1.00  0.00    -0.092 A  
BRANCH  23  25
HETATM   25  C   UNL     1     -10.820  15.178  69.760  1.00  0.00    -0.298 A  
HETATM   26  C   UNL     1     -12.069  14.565  69.540  1.00  0.00    -0.348 A  
HETATM   27  C   UNL     1     -11.667  15.888  71.946  1.00  0.00    -0.590 A  
HETATM   28  C   UNL     1     -10.701  15.939  70.937  1.00  0.00     0.045 A  
HETATM   29  C   UNL     1     -12.856  15.207  71.733  1.00  0.00    -0.432 A  
HETATM   30  C   UNL     1     -13.082  14.593  70.506  1.00  0.00    -0.252 A  
ENDBRANCH  23  25
BRANCH  22  31
HETATM   31  C   UNL     1      -9.450  17.385  67.922  1.00  0.00    -0.265 A  
HETATM   32  C   UNL     1     -10.876  19.191  67.049  1.00  0.00    -0.479 A  
HETATM   33  C   UNL     1      -9.147  19.721  68.625  1.00  0.00    -0.274 A  
HETATM   34  C   UNL     1      -8.718  18.388  68.590  1.00  0.00    -0.306 A  
HETATM   35  C   UNL     1     -10.515  17.837  67.111  1.00  0.00    -0.338 A  
HETATM   36  C   UNL     1     -10.233  20.122  67.856  1.00  0.00    -0.501 A  
ENDBRANCH  22  31
ENDBRANCH   4  19
ENDBRANCH   2   4
TORSDOF 12
ENDMDL
MODEL       87
REMARK 921   NORMALIZED FREE ENERGY PREDICTED BY IDOCK:   -5.69 KCAL/MOL
REMARK 922        TOTAL FREE ENERGY PREDICTED BY IDOCK:  -11.00 KCAL/MOL
REMARK 923 INTER-LIGAND FREE ENERGY PREDICTED BY IDOCK:  -10.05 KCAL/MOL
REMARK 924 INTRA-LIGAND FREE ENERGY PREDICTED BY IDOCK:   -0.95 KCAL/MOL
REMARK 927      BINDING AFFINITY PREDICTED BY RF-SCORE:    0.00 PKD
ROOT
HETATM    1  C   UNL     1      -7.403  10.349  66.049  1.00  0.00    -0.134 C  
HETATM    2  C   UNL     1      -8.805  10.869  65.722  1.00  0.00    -0.191 C  
HETATM    3  C   UNL     1      -9.067  10.732  64.221  1.00  0.00    -0.216 C  
ENDROOT
BRANCH   2   4
HETATM    4  N   UNL     1      -9.885  10.246  66.525  1.00  0.00    -0.203 NA 
BRANCH   4   5
HETATM    5  C   UNL     1     -10.398   8.896  66.231  1.00  0.00    -0.008 C  
BRANCH   5   6
HETATM    6  C   UNL     1      -9.804   7.821  67.150  1.00  0.00    -0.270 C  
BRANCH   6   7
HETATM    7  C   UNL     1     -10.695   6.577  67.315  1.00  0.00    -0.427 C  
BRANCH   7   8
HETATM    8  C   UNL     1      -9.957   5.304  67.729  1.00  0.00    -0.162 C  
BRANCH   8   9
HETATM    9  O   UNL     1      -9.404   5.481  69.031  1.00  0.00    -0.116 OA 
BRANCH   9  10
HETATM   10  C   UNL     1     -10.214   4.876  70.038  1.00  0.00    -0.243 C  
BRANCH  10  11
HETATM   11  C   UNL     1     -10.442   5.821  71.212  1.00  0.00    -0.235 C  
HETATM   12  O   UNL     1     -11.457   5.773  71.894  1.00  0.00    -0.253 OA 
HETATM   13  N   UNL     1      -9.375   6.693  71.479  1.00  0.00    -0.154 N  
HETATM   14  H   UNL     1      -8.512   6.599  70.945  1.00  0.00     0.000 HD 
BRANCH  13  15
HETATM   15  S   UNL     1      -9.480   7.874  72.644  1.00  0.00    -0.251 S  
HETATM   16  O   UNL     1     -10.091   7.328  73.826  1.00  0.00    -0.326 OA 
HETATM   17  C   UNL     1     -10.678   8.934  71.897  1.00  0.00    -0.356 C  
HETATM   18  O   UNL     1      -8.233   8.597  72.668  1.00  0.00    -0.372 OA 
ENDBRANCH  13  15
ENDBRANCH  10  11
ENDBRANCH   9  10
ENDBRANCH   8   9
ENDBRANCH   7   8
ENDBRANCH   6   7
ENDBRANCH   5   6
ENDBRANCH   4   5
BRANCH   4  19
HETATM   19  C   UNL     1     -10.442  11.045  67.529  1.00  0.00    -0.209 A  
HETATM   20  N   UNL     1     -11.872  11.320  69.492  1.00  0.00    -0.326 NA 
HETATM   21  N   UNL     1     -10.154  12.367  67.565  1.00  0.00    -0.201 NA 
HETATM   22  C   UNL     1     -11.587  12.660  69.495  1.00  0.00    -0.281 A  
HETATM   23  C   UNL     1     -10.694  13.181  68.535  1.00  0.00    -0.259 A  
HETATM   24  C   UNL     1     -11.287  10.563  68.521  1.00  0.00    -0.257 A  
BRANCH  23  25
HETATM   25  C   UNL     1     -10.287  14.609  68.401  1.00  0.00    -0.237 A  
HETATM   26  C   UNL     1      -9.198  15.116  69.135  1.00  0.00    -0.215 A  
HETATM   27  C   UNL     1     -10.324  16.731  67.178  1.00  0.00    -0.297 A  
HETATM   28  C   UNL     1     -10.904  15.502  67.507  1.00  0.00    -0.306 A  
HETATM   29  C   UNL     1      -9.200  17.170  67.862  1.00  0.00    -0.241 A  
HETATM   30  C   UNL     1      -8.670  16.388  68.882  1.00  0.00    -0.253 A  
ENDBRANCH  23  25
BRANCH  22  31
HETATM   31  C   UNL     1     -12.334  13.437  70.538  1.00  0.00    -0.401 A  
HETATM   32  C   UNL     1     -13.129  15.588  71.429  1.00  0.00    -0.580 A  
HETATM   33  C   UNL     1     -13.733  13.559  72.556  1.00  0.00    -0.664 A  
HETATM   34  C   UNL     1     -12.926  12.835  71.668  1.00  0.00    -0.402 A  
HETATM   35  C   UNL     1     -12.419  14.846  70.475  1.00  0.00    -0.419 A  
HETATM   36  C   UNL     1     -13.839  14.938  72.432  1.00  0.00    -0.587 A  
ENDBRANCH  22  31
ENDBRANCH   4  19
ENDBRANCH   2   4
TORSDOF 12
ENDMDL
MODEL       88
REMARK 921   NORMALIZED FREE ENERGY PREDICTED BY IDOCK:   -5.68 KCAL/MOL
REMARK 922        TOTAL FREE ENERGY PREDICTED BY IDOCK:  -10.98 KCAL/MOL
REMARK 923 INTER-LIGAND FREE ENERGY PREDICTED BY IDOCK:   -9.22 KCAL/MOL
REMARK 924 INTRA-LIGAND FREE ENERGY PREDICTED BY IDOCK:   -1.76 KCAL/MOL
REMARK 927      BINDING AFFINITY PREDICTED BY RF-SCORE:    0.00 PKD
ROOT
HETATM    1  C   UNL     1      -7.117   7.550  68.746  1.00  0.00    -0.080 C  
HETATM    2  C   UNL     1      -8.645   7.579  68.821  1.00  0.00    -0.129 C  
HETATM    3  C   UNL     1      -9.156   6.267  69.420  1.00  0.00    -0.139 C  
ENDROOT
BRANCH   2   4
HETATM    4  N   UNL     1      -9.194   8.757  69.537  1.00  0.00    -0.148 NA 
BRANCH   4   5
HETATM    5  C   UNL     1      -9.285   8.806  71.006  1.00  0.00    -0.222 C  
BRANCH   5   6
HETATM    6  C   UNL     1      -7.910   8.801  71.687  1.00  0.00    -0.124 C  
BRANCH   6   7
HETATM    7  C   UNL     1      -7.847   7.939  72.961  1.00  0.00    -0.174 C  
BRANCH   7   8
HETATM    8  C   UNL     1      -8.163   6.458  72.755  1.00  0.00    -0.107 C  
BRANCH   8   9
HETATM    9  O   UNL     1      -8.871   5.963  73.890  1.00  0.00    -0.126 OA 
BRANCH   9  10
HETATM   10  C   UNL     1     -10.065   6.705  74.136  1.00  0.00    -0.364 C  
BRANCH  10  11
HETATM   11  C   UNL     1     -11.122   6.429  73.073  1.00  0.00    -0.200 C  
HETATM   12  O   UNL     1     -11.253   5.324  72.563  1.00  0.00    -0.250 OA 
HETATM   13  N   UNL     1     -11.960   7.516  72.782  1.00  0.00    -0.575 N  
HETATM   14  H   UNL     1     -11.870   8.372  73.329  1.00  0.00     0.000 HD 
BRANCH  13  15
HETATM   15  S   UNL     1     -13.097   7.446  71.572  1.00  0.00    -0.345 S  
HETATM   16  O   UNL     1     -12.453   7.106  70.331  1.00  0.00    -0.102 OA 
HETATM   17  C   UNL     1     -13.535   9.153  71.465  1.00  0.00    -0.356 C  
HETATM   18  O   UNL     1     -14.251   6.745  72.076  1.00  0.00    -0.241 OA 
ENDBRANCH  13  15
ENDBRANCH  10  11
ENDBRANCH   9  10
ENDBRANCH   8   9
ENDBRANCH   7   8
ENDBRANCH   6   7
ENDBRANCH   5   6
ENDBRANCH   4   5
BRANCH   4  19
HETATM   19  C   UNL     1      -9.693   9.786  68.731  1.00  0.00    -0.161 A  
HETATM   20  N   UNL     1     -10.039  10.803  66.535  1.00  0.00    -0.220 NA 
HETATM   21  N   UNL     1     -10.322  10.837  69.306  1.00  0.00    -0.218 NA 
HETATM   22  C   UNL     1     -10.650  11.869  67.141  1.00  0.00    -0.231 A  
HETATM   23  C   UNL     1     -10.817  11.869  68.541  1.00  0.00    -0.221 A  
HETATM   24  C   UNL     1      -9.593   9.801  67.345  1.00  0.00    -0.155 A  
BRANCH  23  25
HETATM   25  C   UNL     1     -11.452  12.950  69.348  1.00  0.00    -0.323 A  
HETATM   26  C   UNL     1     -12.346  12.638  70.389  1.00  0.00    -0.315 A  
HETATM   27  C   UNL     1     -11.521  15.274  70.120  1.00  0.00    -0.319 A  
HETATM   28  C   UNL     1     -11.155  14.314  69.172  1.00  0.00    -0.291 A  
HETATM   29  C   UNL     1     -12.337  14.920  71.184  1.00  0.00    -0.387 A  
HETATM   30  C   UNL     1     -12.799  13.612  71.286  1.00  0.00    -0.424 A  
ENDBRANCH  23  25
BRANCH  22  31
HETATM   31  C   UNL     1     -11.035  12.965  66.192  1.00  0.00    -0.304 A  
HETATM   32  C   UNL     1     -12.647  13.947  64.614  1.00  0.00    -0.287 A  
HETATM   33  C   UNL     1     -10.620  15.132  65.106  1.00  0.00    -0.447 A  
HETATM   34  C   UNL     1     -10.188  14.051  65.887  1.00  0.00    -0.332 A  
HETATM   35  C   UNL     1     -12.260  12.923  65.490  1.00  0.00    -0.527 A  
HETATM   36  C   UNL     1     -11.855  15.081  64.474  1.00  0.00    -0.377 A  
ENDBRANCH  22  31
ENDBRANCH   4  19
ENDBRANCH   2   4
TORSDOF 12
ENDMDL
MODEL       89
REMARK 921   NORMALIZED FREE ENERGY PREDICTED BY IDOCK:   -5.67 KCAL/MOL
REMARK 922        TOTAL FREE ENERGY PREDICTED BY IDOCK:  -10.97 KCAL/MOL
REMARK 923 INTER-LIGAND FREE ENERGY PREDICTED BY IDOCK:  -10.04 KCAL/MOL
REMARK 924 INTRA-LIGAND FREE ENERGY PREDICTED BY IDOCK:   -0.93 KCAL/MOL
REMARK 927      BINDING AFFINITY PREDICTED BY RF-SCORE:    0.00 PKD
ROOT
HETATM    1  C   UNL     1     -12.054  15.151  70.007  1.00  0.00    -0.384 C  
HETATM    2  C   UNL     1     -11.656  13.683  69.837  1.00  0.00    -0.211 C  
HETATM    3  C   UNL     1     -12.593  12.797  70.661  1.00  0.00    -0.248 C  
ENDROOT
BRANCH   2   4
HETATM    4  N   UNL     1     -11.582  13.236  68.425  1.00  0.00    -0.314 NA 
BRANCH   4   5
HETATM    5  C   UNL     1     -12.017  14.094  67.309  1.00  0.00    -0.414 C  
BRANCH   5   6
HETATM    6  C   UNL     1     -10.992  15.182  66.962  1.00  0.00    -0.322 C  
BRANCH   6   7
HETATM    7  C   UNL     1      -9.765  14.661  66.191  1.00  0.00    -0.344 C  
BRANCH   7   8
HETATM    8  C   UNL     1      -8.483  14.549  67.018  1.00  0.00    -0.196 C  
BRANCH   8   9
HETATM    9  O   UNL     1      -7.702  15.729  66.840  1.00  0.00    -0.220 OA 
BRANCH   9  10
HETATM   10  C   UNL     1      -7.296  16.289  68.087  1.00  0.00    -0.139 C  
BRANCH  10  11
HETATM   11  C   UNL     1      -7.758  17.735  68.225  1.00  0.00    -0.266 C  
HETATM   12  O   UNL     1      -7.265  18.495  69.048  1.00  0.00    -0.287 OA 
HETATM   13  N   UNL     1      -8.735  18.130  67.299  1.00  0.00    -0.241 N  
HETATM   14  H   UNL     1      -9.016  17.479  66.566  1.00  0.00     0.000 HD 
BRANCH  13  15
HETATM   15  S   UNL     1      -9.447  19.630  67.364  1.00  0.00    -0.347 S  
HETATM   16  O   UNL     1     -10.346  19.685  68.486  1.00  0.00    -0.431 OA 
HETATM   17  C   UNL     1     -10.451  19.555  65.913  1.00  0.00    -0.491 C  
HETATM   18  O   UNL     1      -8.431  20.624  67.123  1.00  0.00    -0.311 OA 
ENDBRANCH  13  15
ENDBRANCH  10  11
ENDBRANCH   9  10
ENDBRANCH   8   9
ENDBRANCH   7   8
ENDBRANCH   6   7
ENDBRANCH   5   6
ENDBRANCH   4   5
BRANCH   4  19
HETATM   19  C   UNL     1     -11.149  11.921  68.220  1.00  0.00    -0.239 A  
HETATM   20  N   UNL     1     -10.450  10.110  66.735  1.00  0.00    -0.224 NA 
HETATM   21  N   UNL     1     -11.005  11.094  69.282  1.00  0.00    -0.237 NA 
HETATM   22  C   UNL     1     -10.335   9.283  67.821  1.00  0.00    -0.237 A  
HETATM   23  C   UNL     1     -10.590   9.792  69.112  1.00  0.00    -0.218 A  
HETATM   24  C   UNL     1     -10.842  11.394  66.972  1.00  0.00    -0.282 A  
BRANCH  23  25
HETATM   25  C   UNL     1     -10.515   9.025  70.387  1.00  0.00    -0.254 A  
HETATM   26  C   UNL     1      -9.302   8.926  71.096  1.00  0.00    -0.326 A  
HETATM   27  C   UNL     1     -11.609   7.975  72.311  1.00  0.00    -0.424 A  
HETATM   28  C   UNL     1     -11.635   8.422  70.987  1.00  0.00    -0.307 A  
HETATM   29  C   UNL     1     -10.414   7.966  73.015  1.00  0.00    -0.410 A  
HETATM   30  C   UNL     1      -9.247   8.388  72.387  1.00  0.00    -0.345 A  
ENDBRANCH  23  25
BRANCH  22  31
HETATM   31  C   UNL     1      -9.983   7.867  67.470  1.00  0.00    -0.250 A  
HETATM   32  C   UNL     1      -8.304   6.082  67.253  1.00  0.00    -0.105 A  
HETATM   33  C   UNL     1     -10.604   5.592  66.778  1.00  0.00    -0.360 A  
HETATM   34  C   UNL     1     -10.923   6.943  66.970  1.00  0.00    -0.404 A  
HETATM   35  C   UNL     1      -8.651   7.405  67.558  1.00  0.00    -0.122 A  
HETATM   36  C   UNL     1      -9.292   5.160  66.926  1.00  0.00    -0.129 A  
ENDBRANCH  22  31
ENDBRANCH   4  19
ENDBRANCH   2   4
TORSDOF 12
ENDMDL
MODEL       90
REMARK 921   NORMALIZED FREE ENERGY PREDICTED BY IDOCK:   -5.66 KCAL/MOL
REMARK 922        TOTAL FREE ENERGY PREDICTED BY IDOCK:  -10.95 KCAL/MOL
REMARK 923 INTER-LIGAND FREE ENERGY PREDICTED BY IDOCK:   -9.46 KCAL/MOL
REMARK 924 INTRA-LIGAND FREE ENERGY PREDICTED BY IDOCK:   -1.49 KCAL/MOL
REMARK 927      BINDING AFFINITY PREDICTED BY RF-SCORE:    0.00 PKD
ROOT
HETATM    1  C   UNL     1     -12.241   6.750  71.170  1.00  0.00    -0.413 C  
HETATM    2  C   UNL     1     -12.262   8.266  70.960  1.00  0.00    -0.174 C  
HETATM    3  C   UNL     1     -12.699   8.959  72.252  1.00  0.00    -0.464 C  
ENDROOT
BRANCH   2   4
HETATM    4  N   UNL     1     -10.987   8.823  70.445  1.00  0.00    -0.234 NA 
BRANCH   4   5
HETATM    5  C   UNL     1      -9.676   8.348  70.922  1.00  0.00    -0.174 C  
BRANCH   5   6
HETATM    6  C   UNL     1      -9.436   8.658  72.405  1.00  0.00    -0.295 C  
BRANCH   6   7
HETATM    7  C   UNL     1      -8.957   7.448  73.228  1.00  0.00    -0.210 C  
BRANCH   7   8
HETATM    8  C   UNL     1     -10.051   6.732  74.020  1.00  0.00    -0.359 C  
BRANCH   8   9
HETATM    9  O   UNL     1     -10.135   5.375  73.589  1.00  0.00    -0.170 OA 
BRANCH   9  10
HETATM   10  C   UNL     1      -9.021   5.006  72.779  1.00  0.00    -0.120 C  
BRANCH  10  11
HETATM   11  C   UNL     1      -9.469   4.324  71.491  1.00  0.00    -0.155 C  
HETATM   12  O   UNL     1     -10.264   3.393  71.495  1.00  0.00    -0.071 OA 
HETATM   13  N   UNL     1      -8.950   4.890  70.316  1.00  0.00    -0.105 N  
HETATM   14  H   UNL     1      -8.387   5.737  70.381  1.00  0.00     0.000 HD 
BRANCH  13  15
HETATM   15  S   UNL     1      -9.230   4.217  68.823  1.00  0.00    -0.158 S  
HETATM   16  O   UNL     1      -8.961   2.804  68.877  1.00  0.00    -0.096 OA 
HETATM   17  C   UNL     1      -7.912   4.949  67.906  1.00  0.00    -0.093 C  
HETATM   18  O   UNL     1     -10.459   4.762  68.305  1.00  0.00     0.027 OA 
ENDBRANCH  13  15
ENDBRANCH  10  11
ENDBRANCH   9  10
ENDBRANCH   8   9
ENDBRANCH   7   8
ENDBRANCH   6   7
ENDBRANCH   5   6
ENDBRANCH   4   5
BRANCH   4  19
HETATM   19  C   UNL     1     -11.103   9.881  69.538  1.00  0.00    -0.217 A  
HETATM   20  N   UNL     1     -10.934  10.779  67.270  1.00  0.00    -0.303 NA 
HETATM   21  N   UNL     1     -11.476  11.103  69.984  1.00  0.00    -0.298 NA 
HETATM   22  C   UNL     1     -11.289  12.013  67.748  1.00  0.00    -0.303 A  
HETATM   23  C   UNL     1     -11.590  12.167  69.117  1.00  0.00    -0.319 A  
HETATM   24  C   UNL     1     -10.863   9.761  68.175  1.00  0.00    -0.214 A  
BRANCH  23  25
HETATM   25  C   UNL     1     -11.984  13.437  69.789  1.00  0.00    -0.396 A  
HETATM   26  C   UNL     1     -12.891  13.428  70.866  1.00  0.00    -0.279 A  
HETATM   27  C   UNL     1     -11.587  15.805  70.274  1.00  0.00    -0.377 A  
HETATM   28  C   UNL     1     -11.438  14.688  69.448  1.00  0.00    -0.330 A  
HETATM   29  C   UNL     1     -12.425  15.744  71.378  1.00  0.00    -0.513 A  
HETATM   30  C   UNL     1     -13.124  14.571  71.641  1.00  0.00    -0.416 A  
ENDBRANCH  23  25
BRANCH  22  31
HETATM   31  C   UNL     1     -11.262  13.094  66.709  1.00  0.00    -0.330 A  
HETATM   32  C   UNL     1     -12.420  14.438  65.003  1.00  0.00    -0.366 A  
HETATM   33  C   UNL     1     -10.115  14.893  65.487  1.00  0.00    -0.400 A  
HETATM   34  C   UNL     1     -10.090  13.797  66.359  1.00  0.00    -0.297 A  
HETATM   35  C   UNL     1     -12.419  13.418  65.964  1.00  0.00    -0.431 A  
HETATM   36  C   UNL     1     -11.285  15.217  64.812  1.00  0.00    -0.405 A  
ENDBRANCH  22  31
ENDBRANCH   4  19
ENDBRANCH   2   4
TORSDOF 12
ENDMDL
MODEL       91
REMARK 921   NORMALIZED FREE ENERGY PREDICTED BY IDOCK:   -5.65 KCAL/MOL
REMARK 922        TOTAL FREE ENERGY PREDICTED BY IDOCK:  -10.92 KCAL/MOL
REMARK 923 INTER-LIGAND FREE ENERGY PREDICTED BY IDOCK:   -9.39 KCAL/MOL
REMARK 924 INTRA-LIGAND FREE ENERGY PREDICTED BY IDOCK:   -1.54 KCAL/MOL
REMARK 927      BINDING AFFINITY PREDICTED BY RF-SCORE:    0.00 PKD
ROOT
HETATM    1  C   UNL     1      -6.033  11.040  66.220  1.00  0.00    -0.143 C  
HETATM    2  C   UNL     1      -6.390   9.557  66.099  1.00  0.00    -0.069 C  
HETATM    3  C   UNL     1      -5.785   8.785  67.272  1.00  0.00    -0.039 C  
ENDROOT
BRANCH   2   4
HETATM    4  N   UNL     1      -7.843   9.293  65.962  1.00  0.00    -0.101 NA 
BRANCH   4   5
HETATM    5  C   UNL     1      -8.380   8.378  64.939  1.00  0.00    -0.149 C  
BRANCH   5   6
HETATM    6  C   UNL     1      -8.017   6.912  65.206  1.00  0.00    -0.127 C  
BRANCH   6   7
HETATM    7  C   UNL     1      -8.735   6.301  66.423  1.00  0.00    -0.137 C  
BRANCH   7   8
HETATM    8  C   UNL     1      -9.897   5.367  66.086  1.00  0.00    -0.136 C  
BRANCH   8   9
HETATM    9  O   UNL     1     -10.997   5.651  66.948  1.00  0.00    -0.249 OA 
BRANCH   9  10
HETATM   10  C   UNL     1     -10.763   6.813  67.742  1.00  0.00    -0.268 C  
BRANCH  10  11
HETATM   11  C   UNL     1     -11.034   6.543  69.217  1.00  0.00    -0.331 C  
HETATM   12  O   UNL     1     -10.750   5.475  69.743  1.00  0.00    -0.322 OA 
HETATM   13  N   UNL     1     -11.568   7.632  69.924  1.00  0.00    -0.468 N  
HETATM   14  H   UNL     1     -11.671   8.528  69.450  1.00  0.00     0.000 HD 
BRANCH  13  15
HETATM   15  S   UNL     1     -12.039   7.499  71.512  1.00  0.00    -0.330 S  
HETATM   16  O   UNL     1     -13.210   8.305  71.733  1.00  0.00    -0.333 OA 
HETATM   17  C   UNL     1     -10.696   8.329  72.300  1.00  0.00    -0.329 C  
HETATM   18  O   UNL     1     -11.959   6.111  71.892  1.00  0.00    -0.312 OA 
ENDBRANCH  13  15
ENDBRANCH  10  11
ENDBRANCH   9  10
ENDBRANCH   8   9
ENDBRANCH   7   8
ENDBRANCH   6   7
ENDBRANCH   5   6
ENDBRANCH   4   5
BRANCH   4  19
HETATM   19  C   UNL     1      -8.682  10.025  66.810  1.00  0.00    -0.129 A  
HETATM   20  N   UNL     1      -9.695  10.408  69.002  1.00  0.00    -0.197 NA 
HETATM   21  N   UNL     1      -9.364  11.086  66.320  1.00  0.00    -0.178 NA 
HETATM   22  C   UNL     1     -10.395  11.462  68.478  1.00  0.00    -0.205 A  
HETATM   23  C   UNL     1     -10.204  11.820  67.127  1.00  0.00    -0.212 A  
HETATM   24  C   UNL     1      -8.862   9.736  68.157  1.00  0.00    -0.119 A  
BRANCH  23  25
HETATM   25  C   UNL     1     -10.890  12.932  66.410  1.00  0.00    -0.293 A  
HETATM   26  C   UNL     1     -10.224  14.150  66.168  1.00  0.00    -0.313 A  
HETATM   27  C   UNL     1     -12.691  13.744  64.962  1.00  0.00    -0.379 A  
HETATM   28  C   UNL     1     -12.187  12.818  65.879  1.00  0.00    -0.422 A  
HETATM   29  C   UNL     1     -11.975  14.898  64.680  1.00  0.00    -0.407 A  
HETATM   30  C   UNL     1     -10.767  15.129  65.329  1.00  0.00    -0.422 A  
ENDBRANCH  23  25
BRANCH  22  31
HETATM   31  C   UNL     1     -11.352  12.095  69.445  1.00  0.00    -0.311 A  
HETATM   32  C   UNL     1     -12.989  11.880  71.269  1.00  0.00    -0.334 A  
HETATM   33  C   UNL     1     -12.406  14.065  70.470  1.00  0.00    -0.437 A  
HETATM   34  C   UNL     1     -11.615  13.480  69.472  1.00  0.00    -0.355 A  
HETATM   35  C   UNL     1     -12.104  11.307  70.345  1.00  0.00    -0.474 A  
HETATM   36  C   UNL     1     -13.090  13.262  71.374  1.00  0.00    -0.361 A  
ENDBRANCH  22  31
ENDBRANCH   4  19
ENDBRANCH   2   4
TORSDOF 12
ENDMDL
MODEL       92
REMARK 921   NORMALIZED FREE ENERGY PREDICTED BY IDOCK:   -5.64 KCAL/MOL
REMARK 922        TOTAL FREE ENERGY PREDICTED BY IDOCK:  -10.91 KCAL/MOL
REMARK 923 INTER-LIGAND FREE ENERGY PREDICTED BY IDOCK:   -9.21 KCAL/MOL
REMARK 924 INTRA-LIGAND FREE ENERGY PREDICTED BY IDOCK:   -1.70 KCAL/MOL
REMARK 927      BINDING AFFINITY PREDICTED BY RF-SCORE:    0.00 PKD
ROOT
HETATM    1  C   UNL     1     -12.153  15.115  68.804  1.00  0.00    -0.199 C  
HETATM    2  C   UNL     1     -11.792  14.054  67.761  1.00  0.00    -0.384 C  
HETATM    3  C   UNL     1     -12.203  14.540  66.370  1.00  0.00    -0.274 C  
ENDROOT
BRANCH   2   4
HETATM    4  N   UNL     1     -10.372  13.631  67.795  1.00  0.00    -0.238 NA 
BRANCH   4   5
HETATM    5  C   UNL     1      -9.265  14.597  67.682  1.00  0.00    -0.193 C  
BRANCH   5   6
HETATM    6  C   UNL     1      -8.668  14.979  69.042  1.00  0.00    -0.203 C  
BRANCH   6   7
HETATM    7  C   UNL     1      -7.175  14.633  69.189  1.00  0.00    -0.142 C  
BRANCH   7   8
HETATM    8  C   UNL     1      -6.219  15.574  68.456  1.00  0.00    -0.098 C  
BRANCH   8   9
HETATM    9  O   UNL     1      -6.311  16.879  69.025  1.00  0.00    -0.171 OA 
BRANCH   9  10
HETATM   10  C   UNL     1      -6.181  17.899  68.036  1.00  0.00    -0.169 C  
BRANCH  10  11
HETATM   11  C   UNL     1      -7.508  18.605  67.785  1.00  0.00    -0.227 C  
HETATM   12  O   UNL     1      -7.817  19.631  68.376  1.00  0.00    -0.326 OA 
HETATM   13  N   UNL     1      -8.303  18.022  66.786  1.00  0.00    -0.244 N  
HETATM   14  H   UNL     1      -7.931  17.237  66.253  1.00  0.00     0.000 HD 
BRANCH  13  15
HETATM   15  S   UNL     1      -9.832  18.578  66.448  1.00  0.00    -0.352 S  
HETATM   16  O   UNL     1      -9.790  20.001  66.245  1.00  0.00    -0.422 OA 
HETATM   17  C   UNL     1     -10.606  18.311  68.012  1.00  0.00    -0.325 C  
HETATM   18  O   UNL     1     -10.446  17.670  65.512  1.00  0.00    -0.636 OA 
ENDBRANCH  13  15
ENDBRANCH  10  11
ENDBRANCH   9  10
ENDBRANCH   8   9
ENDBRANCH   7   8
ENDBRANCH   6   7
ENDBRANCH   5   6
ENDBRANCH   4   5
BRANCH   4  19
HETATM   19  C   UNL     1     -10.144  12.252  67.862  1.00  0.00    -0.200 A  
HETATM   20  N   UNL     1      -9.412  10.156  66.838  1.00  0.00    -0.165 NA 
HETATM   21  N   UNL     1     -10.439  11.582  69.000  1.00  0.00    -0.183 NA 
HETATM   22  C   UNL     1      -9.742   9.495  67.991  1.00  0.00    -0.147 A  
HETATM   23  C   UNL     1     -10.235  10.224  69.093  1.00  0.00    -0.218 A  
HETATM   24  C   UNL     1      -9.615  11.505  66.817  1.00  0.00    -0.186 A  
BRANCH  23  25
HETATM   25  C   UNL     1     -10.642   9.654  70.409  1.00  0.00    -0.354 A  
HETATM   26  C   UNL     1     -11.981   9.728  70.840  1.00  0.00    -0.413 A  
HETATM   27  C   UNL     1     -10.212   8.185  72.321  1.00  0.00    -0.348 A  
HETATM   28  C   UNL     1      -9.755   8.963  71.253  1.00  0.00    -0.359 A  
HETATM   29  C   UNL     1     -11.553   8.213  72.673  1.00  0.00    -0.441 A  
HETATM   30  C   UNL     1     -12.429   9.031  71.968  1.00  0.00    -0.460 A  
ENDBRANCH  23  25
BRANCH  22  31
HETATM   31  C   UNL     1      -9.570   8.007  67.905  1.00  0.00    -0.178 A  
HETATM   32  C   UNL     1     -10.549   5.757  67.716  1.00  0.00    -0.310 A  
HETATM   33  C   UNL     1      -8.163   5.996  67.764  1.00  0.00    -0.112 A  
HETATM   34  C   UNL     1      -8.313   7.372  67.982  1.00  0.00    -0.124 A  
HETATM   35  C   UNL     1     -10.689   7.149  67.816  1.00  0.00    -0.282 A  
HETATM   36  C   UNL     1      -9.284   5.188  67.624  1.00  0.00    -0.127 A  
ENDBRANCH  22  31
ENDBRANCH   4  19
ENDBRANCH   2   4
TORSDOF 12
ENDMDL
MODEL       93
REMARK 921   NORMALIZED FREE ENERGY PREDICTED BY IDOCK:   -5.61 KCAL/MOL
REMARK 922        TOTAL FREE ENERGY PREDICTED BY IDOCK:  -10.87 KCAL/MOL
REMARK 923 INTER-LIGAND FREE ENERGY PREDICTED BY IDOCK:   -8.57 KCAL/MOL
REMARK 924 INTRA-LIGAND FREE ENERGY PREDICTED BY IDOCK:   -2.30 KCAL/MOL
REMARK 927      BINDING AFFINITY PREDICTED BY RF-SCORE:    0.00 PKD
ROOT
HETATM    1  C   UNL     1     -12.906  14.215  65.253  1.00  0.00    -0.370 C  
HETATM    2  C   UNL     1     -12.299  12.811  65.312  1.00  0.00    -0.488 C  
HETATM    3  C   UNL     1     -12.042  12.302  63.892  1.00  0.00    -0.598 C  
ENDROOT
BRANCH   2   4
HETATM    4  N   UNL     1     -11.084  12.712  66.156  1.00  0.00    -0.282 NA 
BRANCH   4   5
HETATM    5  C   UNL     1     -10.363  13.905  66.632  1.00  0.00    -0.278 C  
BRANCH   5   6
HETATM    6  C   UNL     1     -10.386  14.043  68.160  1.00  0.00    -0.241 C  
BRANCH   6   7
HETATM    7  C   UNL     1     -11.802  14.102  68.761  1.00  0.00    -0.384 C  
BRANCH   7   8
HETATM    8  C   UNL     1     -11.929  13.527  70.171  1.00  0.00    -0.329 C  
BRANCH   8   9
HETATM    9  O   UNL     1     -12.357  12.169  70.091  1.00  0.00    -0.237 OA 
BRANCH   9  10
HETATM   10  C   UNL     1     -12.878  11.702  71.334  1.00  0.00    -0.356 C  
BRANCH  10  11
HETATM   11  C   UNL     1     -12.717  10.193  71.475  1.00  0.00    -0.436 C  
HETATM   12  O   UNL     1     -13.682   9.445  71.564  1.00  0.00    -0.367 OA 
HETATM   13  N   UNL     1     -11.391   9.737  71.426  1.00  0.00    -0.367 N  
HETATM   14  H   UNL     1     -10.644  10.404  71.232  1.00  0.00     0.000 HD 
BRANCH  13  15
HETATM   15  S   UNL     1     -11.004   8.140  71.677  1.00  0.00    -0.265 S  
HETATM   16  O   UNL     1     -11.490   7.727  72.967  1.00  0.00    -0.372 OA 
HETATM   17  C   UNL     1      -9.249   8.269  71.814  1.00  0.00    -0.198 C  
HETATM   18  O   UNL     1     -11.281   7.412  70.464  1.00  0.00    -0.267 OA 
ENDBRANCH  13  15
ENDBRANCH  10  11
ENDBRANCH   9  10
ENDBRANCH   8   9
ENDBRANCH   7   8
ENDBRANCH   6   7
ENDBRANCH   5   6
ENDBRANCH   4   5
BRANCH   4  19
HETATM   19  C   UNL     1     -10.617  11.417  66.409  1.00  0.00    -0.263 A  
HETATM   20  N   UNL     1     -10.680   9.337  67.691  1.00  0.00    -0.255 NA 
HETATM   21  N   UNL     1      -9.611  10.913  65.658  1.00  0.00    -0.212 NA 
HETATM   22  C   UNL     1      -9.643   8.857  66.935  1.00  0.00    -0.190 A  
HETATM   23  C   UNL     1      -9.123   9.646  65.888  1.00  0.00    -0.178 A  
HETATM   24  C   UNL     1     -11.133  10.589  67.398  1.00  0.00    -0.252 A  
BRANCH  23  25
HETATM   25  C   UNL     1      -8.000   9.272  64.984  1.00  0.00    -0.118 A  
HETATM   26  C   UNL     1      -8.181   8.305  63.976  1.00  0.00    -0.098 A  
HETATM   27  C   UNL     1      -5.809   9.747  63.995  1.00  0.00    -0.108 A  
HETATM   28  C   UNL     1      -6.738   9.892  65.030  1.00  0.00    -0.121 A  
HETATM   29  C   UNL     1      -6.051   8.846  62.970  1.00  0.00    -0.090 A  
HETATM   30  C   UNL     1      -7.212   8.081  62.990  1.00  0.00    -0.091 A  
ENDBRANCH  23  25
BRANCH  22  31
HETATM   31  C   UNL     1      -9.146   7.511  67.374  1.00  0.00    -0.135 A  
HETATM   32  C   UNL     1      -9.220   5.057  67.211  1.00  0.00    -0.127 A  
HETATM   33  C   UNL     1      -7.634   6.086  68.688  1.00  0.00    -0.091 A  
HETATM   34  C   UNL     1      -8.183   7.340  68.389  1.00  0.00    -0.125 A  
HETATM   35  C   UNL     1      -9.684   6.323  66.829  1.00  0.00    -0.193 A  
HETATM   36  C   UNL     1      -8.151   4.942  68.092  1.00  0.00    -0.086 A  
ENDBRANCH  22  31
ENDBRANCH   4  19
ENDBRANCH   2   4
TORSDOF 12
ENDMDL
MODEL       94
REMARK 921   NORMALIZED FREE ENERGY PREDICTED BY IDOCK:   -5.60 KCAL/MOL
REMARK 922        TOTAL FREE ENERGY PREDICTED BY IDOCK:  -10.84 KCAL/MOL
REMARK 923 INTER-LIGAND FREE ENERGY PREDICTED BY IDOCK:  -10.18 KCAL/MOL
REMARK 924 INTRA-LIGAND FREE ENERGY PREDICTED BY IDOCK:   -0.65 KCAL/MOL
REMARK 927      BINDING AFFINITY PREDICTED BY RF-SCORE:    0.00 PKD
ROOT
HETATM    1  C   UNL     1     -12.575  12.192  63.702  1.00  0.00    -0.616 C  
HETATM    2  C   UNL     1     -11.537  13.199  64.202  1.00  0.00    -0.410 C  
HETATM    3  C   UNL     1     -12.222  14.529  64.520  1.00  0.00    -0.483 C  
ENDROOT
BRANCH   2   4
HETATM    4  N   UNL     1     -10.725  12.715  65.345  1.00  0.00    -0.274 NA 
BRANCH   4   5
HETATM    5  C   UNL     1      -9.695  11.673  65.187  1.00  0.00    -0.219 C  
BRANCH   5   6
HETATM    6  C   UNL     1     -10.156  10.301  65.697  1.00  0.00    -0.341 C  
BRANCH   6   7
HETATM    7  C   UNL     1      -9.040   9.240  65.731  1.00  0.00    -0.260 C  
BRANCH   7   8
HETATM    8  C   UNL     1      -7.841   9.594  66.610  1.00  0.00    -0.105 C  
BRANCH   8   9
HETATM    9  O   UNL     1      -8.177   9.376  67.979  1.00  0.00    -0.113 OA 
BRANCH   9  10
HETATM   10  C   UNL     1      -8.435   7.999  68.249  1.00  0.00    -0.123 C  
BRANCH  10  11
HETATM   11  C   UNL     1      -9.269   7.826  69.513  1.00  0.00    -0.149 C  
HETATM   12  O   UNL     1     -10.239   8.533  69.750  1.00  0.00    -0.196 OA 
HETATM   13  N   UNL     1      -8.874   6.759  70.335  1.00  0.00    -0.151 N  
HETATM   14  H   UNL     1      -8.131   6.138  70.018  1.00  0.00     0.000 HD 
BRANCH  13  15
HETATM   15  S   UNL     1      -9.586   6.480  71.811  1.00  0.00    -0.150 S  
HETATM   16  O   UNL     1      -8.887   5.419  72.486  1.00  0.00    -0.130 OA 
HETATM   17  C   UNL     1     -11.133   5.815  71.284  1.00  0.00    -0.197 C  
HETATM   18  O   UNL     1      -9.861   7.754  72.427  1.00  0.00    -0.177 OA 
ENDBRANCH  13  15
ENDBRANCH  10  11
ENDBRANCH   9  10
ENDBRANCH   8   9
ENDBRANCH   7   8
ENDBRANCH   6   7
ENDBRANCH   5   6
ENDBRANCH   4   5
BRANCH   4  19
HETATM   19  C   UNL     1     -11.049  13.249  66.597  1.00  0.00    -0.291 A  
HETATM   20  N   UNL     1     -12.212  13.110  68.743  1.00  0.00    -0.171 NA 
HETATM   21  N   UNL     1     -10.561  14.461  66.951  1.00  0.00    -0.276 NA 
HETATM   22  C   UNL     1     -11.727  14.349  69.069  1.00  0.00    -0.310 A  
HETATM   23  C   UNL     1     -10.869  15.017  68.172  1.00  0.00    -0.263 A  
HETATM   24  C   UNL     1     -11.851  12.603  67.529  1.00  0.00    -0.334 A  
BRANCH  23  25
HETATM   25  C   UNL     1     -10.265  16.364  68.376  1.00  0.00    -0.259 A  
HETATM   26  C   UNL     1      -8.911  16.497  68.738  1.00  0.00    -0.255 A  
HETATM   27  C   UNL     1     -10.316  18.793  68.062  1.00  0.00    -0.442 A  
HETATM   28  C   UNL     1     -10.970  17.562  68.160  1.00  0.00    -0.128 A  
HETATM   29  C   UNL     1      -8.961  18.881  68.344  1.00  0.00    -0.377 A  
HETATM   30  C   UNL     1      -8.269  17.741  68.740  1.00  0.00    -0.229 A  
ENDBRANCH  23  25
BRANCH  22  31
HETATM   31  C   UNL     1     -12.237  14.872  70.380  1.00  0.00    -0.393 A  
HETATM   32  C   UNL     1     -11.818  15.963  72.545  1.00  0.00    -0.613 A  
HETATM   33  C   UNL     1     -14.064  15.373  71.946  1.00  0.00    -0.636 A  
HETATM   34  C   UNL     1     -13.583  14.758  70.782  1.00  0.00    -0.167 A  
HETATM   35  C   UNL     1     -11.359  15.451  71.323  1.00  0.00    -0.441 A  
HETATM   36  C   UNL     1     -13.179  15.982  72.826  1.00  0.00    -0.507 A  
ENDBRANCH  22  31
ENDBRANCH   4  19
ENDBRANCH   2   4
TORSDOF 12
ENDMDL
MODEL       95
REMARK 921   NORMALIZED FREE ENERGY PREDICTED BY IDOCK:   -5.59 KCAL/MOL
REMARK 922        TOTAL FREE ENERGY PREDICTED BY IDOCK:  -10.82 KCAL/MOL
REMARK 923 INTER-LIGAND FREE ENERGY PREDICTED BY IDOCK:   -9.26 KCAL/MOL
REMARK 924 INTRA-LIGAND FREE ENERGY PREDICTED BY IDOCK:   -1.57 KCAL/MOL
REMARK 927      BINDING AFFINITY PREDICTED BY RF-SCORE:    0.00 PKD
ROOT
HETATM    1  C   UNL     1      -5.877  13.384  69.439  1.00  0.00    -0.093 C  
HETATM    2  C   UNL     1      -6.385  12.044  68.901  1.00  0.00    -0.081 C  
HETATM    3  C   UNL     1      -6.426  11.017  70.034  1.00  0.00    -0.144 C  
ENDROOT
BRANCH   2   4
HETATM    4  N   UNL     1      -7.685  12.130  68.192  1.00  0.00    -0.120 NA 
BRANCH   4   5
HETATM    5  C   UNL     1      -8.334  10.945  67.605  1.00  0.00    -0.116 C  
BRANCH   5   6
HETATM    6  C   UNL     1      -9.510  10.433  68.447  1.00  0.00    -0.151 C  
BRANCH   6   7
HETATM    7  C   UNL     1     -10.881  10.585  67.763  1.00  0.00    -0.347 C  
BRANCH   7   8
HETATM    8  C   UNL     1     -11.978  11.185  68.643  1.00  0.00    -0.219 C  
BRANCH   8   9
HETATM    9  O   UNL     1     -11.557  11.161  70.006  1.00  0.00    -0.296 OA 
BRANCH   9  10
HETATM   10  C   UNL     1     -12.363  10.288  70.795  1.00  0.00    -0.350 C  
BRANCH  10  11
HETATM   11  C   UNL     1     -11.595   9.035  71.200  1.00  0.00    -0.306 C  
HETATM   12  O   UNL     1     -11.141   8.891  72.327  1.00  0.00    -0.339 OA 
HETATM   13  N   UNL     1     -11.513   8.049  70.204  1.00  0.00    -0.466 N  
HETATM   14  H   UNL     1     -12.015   8.187  69.328  1.00  0.00     0.000 HD 
BRANCH  13  15
HETATM   15  S   UNL     1     -10.620   6.664  70.416  1.00  0.00    -0.237 S  
HETATM   16  O   UNL     1      -9.240   7.012  70.626  1.00  0.00    -0.158 OA 
HETATM   17  C   UNL     1     -10.729   5.979  68.792  1.00  0.00    -0.308 C  
HETATM   18  O   UNL     1     -11.351   5.785  71.294  1.00  0.00    -0.217 OA 
ENDBRANCH  13  15
ENDBRANCH  10  11
ENDBRANCH   9  10
ENDBRANCH   8   9
ENDBRANCH   7   8
ENDBRANCH   6   7
ENDBRANCH   5   6
ENDBRANCH   4   5
BRANCH   4  19
HETATM   19  C   UNL     1      -8.220  13.414  68.045  1.00  0.00    -0.161 A  
HETATM   20  N   UNL     1      -8.228  15.616  66.984  1.00  0.00    -0.212 NA 
HETATM   21  N   UNL     1      -9.261  13.794  68.821  1.00  0.00    -0.058 NA 
HETATM   22  C   UNL     1      -9.265  15.988  67.797  1.00  0.00    -0.205 A  
HETATM   23  C   UNL     1      -9.804  15.054  68.707  1.00  0.00    -0.233 A  
HETATM   24  C   UNL     1      -7.751  14.347  67.129  1.00  0.00    -0.034 A  
BRANCH  23  25
HETATM   25  C   UNL     1     -10.923  15.304  69.659  1.00  0.00    -0.291 A  
HETATM   26  C   UNL     1     -12.164  14.659  69.494  1.00  0.00    -0.297 A  
HETATM   27  C   UNL     1     -11.742  16.108  71.823  1.00  0.00    -0.568 A  
HETATM   28  C   UNL     1     -10.797  16.126  70.794  1.00  0.00    -0.040 A  
HETATM   29  C   UNL     1     -12.922  15.396  71.667  1.00  0.00    -0.513 A  
HETATM   30  C   UNL     1     -13.159  14.717  70.477  1.00  0.00    -0.275 A  
ENDBRANCH  23  25
BRANCH  22  31
HETATM   31  C   UNL     1      -9.676  17.422  67.637  1.00  0.00    -0.270 A  
HETATM   32  C   UNL     1     -10.649  19.218  66.263  1.00  0.00    -0.545 A  
HETATM   33  C   UNL     1      -9.978  19.698  68.515  1.00  0.00    -0.542 A  
HETATM   34  C   UNL     1      -9.465  18.399  68.631  1.00  0.00    -0.356 A  
HETATM   35  C   UNL     1     -10.241  17.886  66.427  1.00  0.00    -0.372 A  
HETATM   36  C   UNL     1     -10.576  20.105  67.331  1.00  0.00    -0.338 A  
ENDBRANCH  22  31
ENDBRANCH   4  19
ENDBRANCH   2   4
TORSDOF 12
ENDMDL
MODEL       96
REMARK 921   NORMALIZED FREE ENERGY PREDICTED BY IDOCK:   -5.57 KCAL/MOL
REMARK 922        TOTAL FREE ENERGY PREDICTED BY IDOCK:  -10.79 KCAL/MOL
REMARK 923 INTER-LIGAND FREE ENERGY PREDICTED BY IDOCK:   -9.42 KCAL/MOL
REMARK 924 INTRA-LIGAND FREE ENERGY PREDICTED BY IDOCK:   -1.38 KCAL/MOL
REMARK 927      BINDING AFFINITY PREDICTED BY RF-SCORE:    0.00 PKD
ROOT
HETATM    1  C   UNL     1      -5.642  11.425  67.994  1.00  0.00    -0.043 C  
HETATM    2  C   UNL     1      -6.232  10.806  69.262  1.00  0.00    -0.052 C  
HETATM    3  C   UNL     1      -5.880  11.675  70.471  1.00  0.00    -0.128 C  
ENDROOT
BRANCH   2   4
HETATM    4  N   UNL     1      -7.690  10.541  69.186  1.00  0.00    -0.120 NA 
BRANCH   4   5
HETATM    5  C   UNL     1      -8.593  11.370  68.368  1.00  0.00    -0.156 C  
BRANCH   5   6
HETATM    6  C   UNL     1      -9.099  10.640  67.117  1.00  0.00    -0.154 C  
BRANCH   6   7
HETATM    7  C   UNL     1     -10.627  10.691  66.938  1.00  0.00    -0.311 C  
BRANCH   7   8
HETATM    8  C   UNL     1     -11.108  11.490  65.727  1.00  0.00    -0.210 C  
BRANCH   8   9
HETATM    9  O   UNL     1     -12.273  12.233  66.083  1.00  0.00    -0.647 OA 
BRANCH   9  10
HETATM   10  C   UNL     1     -12.025  13.637  66.090  1.00  0.00    -0.416 C  
BRANCH  10  11
HETATM   11  C   UNL     1     -11.826  14.161  67.508  1.00  0.00    -0.401 C  
HETATM   12  O   UNL     1     -12.118  13.494  68.491  1.00  0.00    -0.359 OA 
HETATM   13  N   UNL     1     -11.226  15.427  67.586  1.00  0.00    -0.324 N  
HETATM   14  H   UNL     1     -10.901  15.876  66.730  1.00  0.00     0.000 HD 
BRANCH  13  15
HETATM   15  S   UNL     1     -11.031  16.216  69.036  1.00  0.00    -0.332 S  
HETATM   16  O   UNL     1     -10.646  17.580  68.791  1.00  0.00    -0.330 OA 
HETATM   17  C   UNL     1      -9.598  15.385  69.646  1.00  0.00    -0.229 C  
HETATM   18  O   UNL     1     -12.129  15.853  69.898  1.00  0.00    -0.326 OA 
ENDBRANCH  13  15
ENDBRANCH  10  11
ENDBRANCH   9  10
ENDBRANCH   8   9
ENDBRANCH   7   8
ENDBRANCH   6   7
ENDBRANCH   5   6
ENDBRANCH   4   5
BRANCH   4  19
HETATM   19  C   UNL     1      -8.169   9.508  69.998  1.00  0.00    -0.170 A  
HETATM   20  N   UNL     1      -7.797   7.499  71.341  1.00  0.00    -0.092 NA 
HETATM   21  N   UNL     1      -9.494   9.429  70.263  1.00  0.00    -0.233 NA 
HETATM   22  C   UNL     1      -9.145   7.424  71.574  1.00  0.00    -0.139 A  
HETATM   23  C   UNL     1      -9.997   8.418  71.051  1.00  0.00    -0.190 A  
HETATM   24  C   UNL     1      -7.359   8.537  70.573  1.00  0.00    -0.060 A  
BRANCH  23  25
HETATM   25  C   UNL     1     -11.478   8.475  71.210  1.00  0.00    -0.329 A  
HETATM   26  C   UNL     1     -12.261   7.313  71.069  1.00  0.00    -0.350 A  
HETATM   27  C   UNL     1     -13.494   9.616  72.006  1.00  0.00    -0.514 A  
HETATM   28  C   UNL     1     -12.166   9.648  71.570  1.00  0.00    -0.483 A  
HETATM   29  C   UNL     1     -14.219   8.436  71.932  1.00  0.00    -0.541 A  
HETATM   30  C   UNL     1     -13.619   7.296  71.408  1.00  0.00    -0.399 A  
ENDBRANCH  23  25
BRANCH  22  31
HETATM   31  C   UNL     1      -9.557   6.210  72.354  1.00  0.00    -0.159 A  
HETATM   32  C   UNL     1     -10.386   5.197  74.438  1.00  0.00    -0.313 A  
HETATM   33  C   UNL     1     -10.000   3.798  72.528  1.00  0.00    -0.228 A  
HETATM   34  C   UNL     1      -9.484   4.901  71.835  1.00  0.00    -0.194 A  
HETATM   35  C   UNL     1      -9.978   6.317  73.698  1.00  0.00    -0.218 A  
HETATM   36  C   UNL     1     -10.458   3.949  73.831  1.00  0.00    -0.267 A  
ENDBRANCH  22  31
ENDBRANCH   4  19
ENDBRANCH   2   4
TORSDOF 12
ENDMDL
MODEL       97
REMARK 921   NORMALIZED FREE ENERGY PREDICTED BY IDOCK:   -5.56 KCAL/MOL
REMARK 922        TOTAL FREE ENERGY PREDICTED BY IDOCK:  -10.78 KCAL/MOL
REMARK 923 INTER-LIGAND FREE ENERGY PREDICTED BY IDOCK:   -9.76 KCAL/MOL
REMARK 924 INTRA-LIGAND FREE ENERGY PREDICTED BY IDOCK:   -1.02 KCAL/MOL
REMARK 927      BINDING AFFINITY PREDICTED BY RF-SCORE:    0.00 PKD
ROOT
HETATM    1  C   UNL     1     -12.063  12.972  63.735  1.00  0.00    -0.574 C  
HETATM    2  C   UNL     1     -11.275  12.090  64.706  1.00  0.00    -0.318 C  
HETATM    3  C   UNL     1     -10.154  11.371  63.953  1.00  0.00    -0.393 C  
ENDROOT
BRANCH   2   4
HETATM    4  N   UNL     1     -10.759  12.811  65.895  1.00  0.00    -0.267 NA 
BRANCH   4   5
HETATM    5  C   UNL     1     -10.913  14.268  66.054  1.00  0.00    -0.312 C  
BRANCH   5   6
HETATM    6  C   UNL     1      -9.569  14.996  66.185  1.00  0.00    -0.345 C  
BRANCH   6   7
HETATM    7  C   UNL     1      -9.461  15.890  67.433  1.00  0.00    -0.220 C  
BRANCH   7   8
HETATM    8  C   UNL     1      -8.807  15.228  68.647  1.00  0.00    -0.188 C  
BRANCH   8   9
HETATM    9  O   UNL     1      -9.490  15.635  69.831  1.00  0.00    -0.241 OA 
BRANCH   9  10
HETATM   10  C   UNL     1     -10.853  15.964  69.571  1.00  0.00    -0.305 C  
BRANCH  10  11
HETATM   11  C   UNL     1     -11.796  15.217  70.507  1.00  0.00    -0.324 C  
HETATM   12  O   UNL     1     -12.652  14.451  70.086  1.00  0.00    -0.345 OA 
HETATM   13  N   UNL     1     -11.556  15.430  71.874  1.00  0.00    -0.415 N  
HETATM   14  H   UNL     1     -10.751  15.989  72.155  1.00  0.00     0.000 HD 
BRANCH  13  15
HETATM   15  S   UNL     1     -12.549  14.795  73.046  1.00  0.00    -0.392 S  
HETATM   16  O   UNL     1     -12.974  13.479  72.651  1.00  0.00    -0.349 OA 
HETATM   17  C   UNL     1     -13.949  15.855  72.867  1.00  0.00    -0.358 C  
HETATM   18  O   UNL     1     -11.966  15.079  74.333  1.00  0.00    -0.485 OA 
ENDBRANCH  13  15
ENDBRANCH  10  11
ENDBRANCH   9  10
ENDBRANCH   8   9
ENDBRANCH   7   8
ENDBRANCH   6   7
ENDBRANCH   5   6
ENDBRANCH   4   5
BRANCH   4  19
HETATM   19  C   UNL     1     -10.049  12.038  66.820  1.00  0.00    -0.203 A  
HETATM   20  N   UNL     1      -7.985  10.961  67.566  1.00  0.00    -0.114 NA 
HETATM   21  N   UNL     1     -10.687  11.549  67.909  1.00  0.00    -0.191 NA 
HETATM   22  C   UNL     1      -8.657  10.455  68.647  1.00  0.00    -0.133 A  
HETATM   23  C   UNL     1     -10.017  10.778  68.833  1.00  0.00    -0.202 A  
HETATM   24  C   UNL     1      -8.698  11.737  66.701  1.00  0.00    -0.186 A  
BRANCH  23  25
HETATM   25  C   UNL     1     -10.886  10.306  69.948  1.00  0.00    -0.355 A  
HETATM   26  C   UNL     1     -11.996  11.066  70.364  1.00  0.00    -0.459 A  
HETATM   27  C   UNL     1     -11.685   8.517  71.418  1.00  0.00    -0.346 A  
HETATM   28  C   UNL     1     -10.700   9.072  70.596  1.00  0.00    -0.292 A  
HETATM   29  C   UNL     1     -12.810   9.258  71.746  1.00  0.00    -0.461 A  
HETATM   30  C   UNL     1     -12.939  10.556  71.265  1.00  0.00    -0.532 A  
ENDBRANCH  23  25
BRANCH  22  31
HETATM   31  C   UNL     1      -7.828   9.544  69.503  1.00  0.00    -0.103 A  
HETATM   32  C   UNL     1      -6.297   9.214  71.401  1.00  0.00    -0.077 A  
HETATM   33  C   UNL     1      -7.032   7.308  70.144  1.00  0.00    -0.060 A  
HETATM   34  C   UNL     1      -7.699   8.161  69.255  1.00  0.00    -0.104 A  
HETATM   35  C   UNL     1      -7.063  10.051  70.577  1.00  0.00    -0.080 A  
HETATM   36  C   UNL     1      -6.334   7.836  71.223  1.00  0.00    -0.034 A  
ENDBRANCH  22  31
ENDBRANCH   4  19
ENDBRANCH   2   4
TORSDOF 12
ENDMDL
MODEL       98
REMARK 921   NORMALIZED FREE ENERGY PREDICTED BY IDOCK:   -5.55 KCAL/MOL
REMARK 922        TOTAL FREE ENERGY PREDICTED BY IDOCK:  -10.77 KCAL/MOL
REMARK 923 INTER-LIGAND FREE ENERGY PREDICTED BY IDOCK:   -9.05 KCAL/MOL
REMARK 924 INTRA-LIGAND FREE ENERGY PREDICTED BY IDOCK:   -1.72 KCAL/MOL
REMARK 927      BINDING AFFINITY PREDICTED BY RF-SCORE:    0.00 PKD
ROOT
HETATM    1  C   UNL     1     -10.186  11.315  64.513  1.00  0.00    -0.370 C  
HETATM    2  C   UNL     1     -10.715  12.736  64.306  1.00  0.00    -0.394 C  
HETATM    3  C   UNL     1     -11.899  12.708  63.337  1.00  0.00    -0.594 C  
ENDROOT
BRANCH   2   4
HETATM    4  N   UNL     1     -11.055  13.445  65.563  1.00  0.00    -0.281 NA 
BRANCH   4   5
HETATM    5  C   UNL     1     -12.137  12.986  66.452  1.00  0.00    -0.358 C  
BRANCH   5   6
HETATM    6  C   UNL     1     -12.001  13.527  67.881  1.00  0.00    -0.372 C  
BRANCH   6   7
HETATM    7  C   UNL     1     -11.554  12.471  68.909  1.00  0.00    -0.364 C  
BRANCH   7   8
HETATM    8  C   UNL     1     -11.550  11.031  68.395  1.00  0.00    -0.302 C  
BRANCH   8   9
HETATM    9  O   UNL     1     -10.258  10.462  68.594  1.00  0.00    -0.166 OA 
BRANCH   9  10
HETATM   10  C   UNL     1      -9.229  11.448  68.539  1.00  0.00    -0.174 C  
BRANCH  10  11
HETATM   11  C   UNL     1      -7.865  10.851  68.864  1.00  0.00    -0.142 C  
HETATM   12  O   UNL     1      -6.953  10.841  68.049  1.00  0.00    -0.071 OA 
HETATM   13  N   UNL     1      -7.729  10.382  70.180  1.00  0.00    -0.305 N  
HETATM   14  H   UNL     1      -8.492  10.529  70.840  1.00  0.00     0.000 HD 
BRANCH  13  15
HETATM   15  S   UNL     1      -6.358   9.593  70.691  1.00  0.00    -0.105 S  
HETATM   16  O   UNL     1      -6.551   9.122  72.037  1.00  0.00    -0.267 OA 
HETATM   17  C   UNL     1      -5.239  10.955  70.786  1.00  0.00    -0.102 C  
HETATM   18  O   UNL     1      -5.901   8.744  69.620  1.00  0.00    -0.029 OA 
ENDBRANCH  13  15
ENDBRANCH  10  11
ENDBRANCH   9  10
ENDBRANCH   8   9
ENDBRANCH   7   8
ENDBRANCH   6   7
ENDBRANCH   5   6
ENDBRANCH   4   5
BRANCH   4  19
HETATM   19  C   UNL     1     -10.340  14.621  65.817  1.00  0.00    -0.332 A  
HETATM   20  N   UNL     1     -10.000  17.022  65.509  1.00  0.00    -0.572 NA 
HETATM   21  N   UNL     1      -9.242  14.576  66.606  1.00  0.00    -0.265 NA 
HETATM   22  C   UNL     1      -8.877  16.948  66.290  1.00  0.00    -0.279 A  
HETATM   23  C   UNL     1      -8.512  15.714  66.867  1.00  0.00    -0.251 A  
HETATM   24  C   UNL     1     -10.692  15.865  65.308  1.00  0.00    -0.424 A  
BRANCH  23  25
HETATM   25  C   UNL     1      -7.323  15.468  67.731  1.00  0.00    -0.174 A  
HETATM   26  C   UNL     1      -7.133  16.203  68.917  1.00  0.00    -0.166 A  
HETATM   27  C   UNL     1      -5.449  14.052  68.427  1.00  0.00    -0.106 A  
HETATM   28  C   UNL     1      -6.374  14.465  67.463  1.00  0.00    -0.029 A  
HETATM   29  C   UNL     1      -5.339  14.746  69.622  1.00  0.00    -0.092 A  
HETATM   30  C   UNL     1      -6.142  15.859  69.844  1.00  0.00    -0.166 A  
ENDBRANCH  23  25
BRANCH  22  31
HETATM   31  C   UNL     1      -8.125  18.242  66.393  1.00  0.00    -0.285 A  
HETATM   32  C   UNL     1      -6.147  19.604  65.857  1.00  0.00    -0.198 A  
HETATM   33  C   UNL     1      -7.937  20.584  67.117  1.00  0.00    -0.361 A  
HETATM   34  C   UNL     1      -8.586  19.342  67.145  1.00  0.00    -0.325 A  
HETATM   35  C   UNL     1      -6.857  18.397  65.789  1.00  0.00    -0.310 A  
HETATM   36  C   UNL     1      -6.718  20.716  66.466  1.00  0.00    -0.317 A  
ENDBRANCH  22  31
ENDBRANCH   4  19
ENDBRANCH   2   4
TORSDOF 12
ENDMDL
MODEL       99
REMARK 921   NORMALIZED FREE ENERGY PREDICTED BY IDOCK:   -5.54 KCAL/MOL
REMARK 922        TOTAL FREE ENERGY PREDICTED BY IDOCK:  -10.75 KCAL/MOL
REMARK 923 INTER-LIGAND FREE ENERGY PREDICTED BY IDOCK:   -8.45 KCAL/MOL
REMARK 924 INTRA-LIGAND FREE ENERGY PREDICTED BY IDOCK:   -2.30 KCAL/MOL
REMARK 927      BINDING AFFINITY PREDICTED BY RF-SCORE:    0.00 PKD
ROOT
HETATM    1  C   UNL     1      -7.946   7.875  74.062  1.00  0.00    -0.262 C  
HETATM    2  C   UNL     1      -7.784   7.792  72.542  1.00  0.00    -0.106 C  
HETATM    3  C   UNL     1      -6.758   6.712  72.193  1.00  0.00    -0.059 C  
ENDROOT
BRANCH   2   4
HETATM    4  N   UNL     1      -9.057   7.595  71.807  1.00  0.00    -0.131 NA 
BRANCH   4   5
HETATM    5  C   UNL     1     -10.208   6.900  72.410  1.00  0.00    -0.187 C  
BRANCH   5   6
HETATM    6  C   UNL     1     -11.301   7.865  72.887  1.00  0.00    -0.399 C  
BRANCH   6   7
HETATM    7  C   UNL     1     -12.562   7.868  72.003  1.00  0.00    -0.327 C  
BRANCH   7   8
HETATM    8  C   UNL     1     -13.506   9.048  72.229  1.00  0.00    -0.475 C  
BRANCH   8   9
HETATM    9  O   UNL     1     -13.410   9.948  71.126  1.00  0.00    -0.380 OA 
BRANCH   9  10
HETATM   10  C   UNL     1     -12.293  10.826  71.255  1.00  0.00    -0.365 C  
BRANCH  10  11
HETATM   11  C   UNL     1     -11.997  11.547  69.945  1.00  0.00    -0.351 C  
HETATM   12  O   UNL     1     -12.205  11.025  68.858  1.00  0.00    -0.519 OA 
HETATM   13  N   UNL     1     -11.535  12.864  70.091  1.00  0.00    -0.519 N  
HETATM   14  H   UNL     1     -11.496  13.275  71.023  1.00  0.00     0.000 HD 
BRANCH  13  15
HETATM   15  S   UNL     1     -11.048  13.772  68.787  1.00  0.00    -0.276 S  
HETATM   16  O   UNL     1      -9.940  13.122  68.139  1.00  0.00    -0.223 OA 
HETATM   17  C   UNL     1     -10.393  15.182  69.622  1.00  0.00    -0.227 C  
HETATM   18  O   UNL     1     -12.224  14.209  68.077  1.00  0.00    -0.310 OA 
ENDBRANCH  13  15
ENDBRANCH  10  11
ENDBRANCH   9  10
ENDBRANCH   8   9
ENDBRANCH   7   8
ENDBRANCH   6   7
ENDBRANCH   5   6
ENDBRANCH   4   5
BRANCH   4  19
HETATM   19  C   UNL     1      -9.074   8.037  70.480  1.00  0.00    -0.153 A  
HETATM   20  N   UNL     1      -9.095   9.841  68.830  1.00  0.00    -0.142 NA 
HETATM   21  N   UNL     1      -9.111   7.131  69.476  1.00  0.00    -0.146 NA 
HETATM   22  C   UNL     1      -9.158   8.906  67.831  1.00  0.00    -0.139 A  
HETATM   23  C   UNL     1      -9.137   7.535  68.160  1.00  0.00    -0.128 A  
HETATM   24  C   UNL     1      -9.046   9.376  70.111  1.00  0.00    -0.231 A  
BRANCH  23  25
HETATM   25  C   UNL     1      -9.204   6.401  67.195  1.00  0.00    -0.128 A  
HETATM   26  C   UNL     1      -8.051   5.658  66.880  1.00  0.00    -0.102 A  
HETATM   27  C   UNL     1     -10.497   4.734  65.951  1.00  0.00    -0.313 A  
HETATM   28  C   UNL     1     -10.404   5.966  66.605  1.00  0.00    -0.283 A  
HETATM   29  C   UNL     1      -9.354   3.982  65.726  1.00  0.00    -0.160 A  
HETATM   30  C   UNL     1      -8.120   4.472  66.139  1.00  0.00    -0.103 A  
ENDBRANCH  23  25
BRANCH  22  31
HETATM   31  C   UNL     1      -9.294   9.496  66.458  1.00  0.00    -0.220 A  
HETATM   32  C   UNL     1     -10.598  10.778  64.811  1.00  0.00    -0.264 A  
HETATM   33  C   UNL     1      -8.408   9.997  64.221  1.00  0.00    -0.169 A  
HETATM   34  C   UNL     1      -8.325   9.326  65.448  1.00  0.00    -0.143 A  
HETATM   35  C   UNL     1     -10.459  10.203  66.082  1.00  0.00    -0.173 A  
HETATM   36  C   UNL     1      -9.545  10.729  63.905  1.00  0.00    -0.339 A  
ENDBRANCH  22  31
ENDBRANCH   4  19
ENDBRANCH   2   4
TORSDOF 12
ENDMDL
MODEL      100
REMARK 921   NORMALIZED FREE ENERGY PREDICTED BY IDOCK:   -5.54 KCAL/MOL
REMARK 922        TOTAL FREE ENERGY PREDICTED BY IDOCK:  -10.75 KCAL/MOL
REMARK 923 INTER-LIGAND FREE ENERGY PREDICTED BY IDOCK:   -8.89 KCAL/MOL
REMARK 924 INTRA-LIGAND FREE ENERGY PREDICTED BY IDOCK:   -1.86 KCAL/MOL
REMARK 927      BINDING AFFINITY PREDICTED BY RF-SCORE:    0.00 PKD
ROOT
HETATM    1  C   UNL     1      -5.972   8.959  68.804  1.00  0.00    -0.044 C  
HETATM    2  C   UNL     1      -6.498   9.509  70.132  1.00  0.00    -0.067 C  
HETATM    3  C   UNL     1      -5.972  10.930  70.344  1.00  0.00    -0.134 C  
ENDROOT
BRANCH   2   4
HETATM    4  N   UNL     1      -7.973   9.445  70.272  1.00  0.00    -0.144 NA 
BRANCH   4   5
HETATM    5  C   UNL     1      -8.621   8.786  71.420  1.00  0.00    -0.194 C  
BRANCH   5   6
HETATM    6  C   UNL     1      -7.617   8.108  72.361  1.00  0.00    -0.153 C  
BRANCH   6   7
HETATM    7  C   UNL     1      -8.064   8.077  73.834  1.00  0.00    -0.288 C  
BRANCH   7   8
HETATM    8  C   UNL     1      -7.811   6.754  74.557  1.00  0.00    -0.122 C  
BRANCH   8   9
HETATM    9  O   UNL     1      -8.765   5.787  74.121  1.00  0.00    -0.122 OA 
BRANCH   9  10
HETATM   10  C   UNL     1     -10.100   6.189  74.419  1.00  0.00    -0.323 C  
BRANCH  10  11
HETATM   11  C   UNL     1     -10.997   6.097  73.190  1.00  0.00    -0.231 C  
HETATM   12  O   UNL     1     -11.286   5.023  72.679  1.00  0.00    -0.226 OA 
HETATM   13  N   UNL     1     -11.509   7.325  72.743  1.00  0.00    -0.505 N  
HETATM   14  H   UNL     1     -11.322   8.167  73.287  1.00  0.00     0.000 HD 
BRANCH  13  15
HETATM   15  S   UNL     1     -12.411   7.444  71.353  1.00  0.00    -0.370 S  
HETATM   16  O   UNL     1     -11.663   6.901  70.250  1.00  0.00    -0.330 OA 
HETATM   17  C   UNL     1     -12.421   9.197  71.144  1.00  0.00    -0.254 C  
HETATM   18  O   UNL     1     -13.763   7.047  71.655  1.00  0.00    -0.351 OA 
ENDBRANCH  13  15
ENDBRANCH  10  11
ENDBRANCH   9  10
ENDBRANCH   8   9
ENDBRANCH   7   8
ENDBRANCH   6   7
ENDBRANCH   5   6
ENDBRANCH   4   5
BRANCH   4  19
HETATM   19  C   UNL     1      -8.713   9.979  69.212  1.00  0.00    -0.177 A  
HETATM   20  N   UNL     1     -10.091   9.694  67.213  1.00  0.00    -0.197 NA 
HETATM   21  N   UNL     1      -8.802  11.322  69.071  1.00  0.00    -0.037 NA 
HETATM   22  C   UNL     1     -10.146  11.056  67.075  1.00  0.00    -0.196 A  
HETATM   23  C   UNL     1      -9.517  11.877  68.033  1.00  0.00    -0.197 A  
HETATM   24  C   UNL     1      -9.388   9.207  68.275  1.00  0.00    -0.135 A  
BRANCH  23  25
HETATM   25  C   UNL     1      -9.480  13.367  68.022  1.00  0.00    -0.218 A  
HETATM   26  C   UNL     1      -8.608  14.058  67.159  1.00  0.00    -0.220 A  
HETATM   27  C   UNL     1     -10.500  15.528  68.558  1.00  0.00    -0.238 A  
HETATM   28  C   UNL     1     -10.340  14.161  68.801  1.00  0.00    -0.230 A  
HETATM   29  C   UNL     1      -9.681  16.169  67.641  1.00  0.00    -0.233 A  
HETATM   30  C   UNL     1      -8.694  15.444  66.982  1.00  0.00    -0.256 A  
ENDBRANCH  23  25
BRANCH  22  31
HETATM   31  C   UNL     1     -10.863  11.510  65.838  1.00  0.00    -0.316 A  
HETATM   32  C   UNL     1     -12.673  12.796  64.776  1.00  0.00    -0.469 A  
HETATM   33  C   UNL     1     -11.099  11.628  63.394  1.00  0.00    -0.422 A  
HETATM   34  C   UNL     1     -10.505  11.086  64.541  1.00  0.00    -0.411 A  
HETATM   35  C   UNL     1     -12.001  12.344  65.921  1.00  0.00    -0.434 A  
HETATM   36  C   UNL     1     -12.182  12.489  63.513  1.00  0.00    -0.652 A  
ENDBRANCH  22  31
ENDBRANCH   4  19
ENDBRANCH   2   4
TORSDOF 12
ENDMDL
MODEL      101
REMARK 921   NORMALIZED FREE ENERGY PREDICTED BY IDOCK:   -5.54 KCAL/MOL
REMARK 922        TOTAL FREE ENERGY PREDICTED BY IDOCK:  -10.74 KCAL/MOL
REMARK 923 INTER-LIGAND FREE ENERGY PREDICTED BY IDOCK:   -9.01 KCAL/MOL
REMARK 924 INTRA-LIGAND FREE ENERGY PREDICTED BY IDOCK:   -1.73 KCAL/MOL
REMARK 927      BINDING AFFINITY PREDICTED BY RF-SCORE:    0.00 PKD
ROOT
HETATM    1  C   UNL     1     -12.496  14.060  66.370  1.00  0.00    -0.395 C  
HETATM    2  C   UNL     1     -12.123  12.618  66.019  1.00  0.00    -0.364 C  
HETATM    3  C   UNL     1     -12.195  12.423  64.503  1.00  0.00    -0.509 C  
ENDROOT
BRANCH   2   4
HETATM    4  N   UNL     1     -10.815  12.181  66.565  1.00  0.00    -0.258 NA 
BRANCH   4   5
HETATM    5  C   UNL     1      -9.537  12.698  66.044  1.00  0.00    -0.188 C  
BRANCH   5   6
HETATM    6  C   UNL     1      -9.125  14.026  66.692  1.00  0.00    -0.221 C  
BRANCH   6   7
HETATM    7  C   UNL     1      -8.576  13.879  68.123  1.00  0.00    -0.180 C  
BRANCH   7   8
HETATM    8  C   UNL     1      -7.232  14.562  68.372  1.00  0.00    -0.116 C  
BRANCH   8   9
HETATM    9  O   UNL     1      -6.665  14.959  67.125  1.00  0.00    -0.265 OA 
BRANCH   9  10
HETATM   10  C   UNL     1      -5.832  16.109  67.263  1.00  0.00    -0.087 C  
BRANCH  10  11
HETATM   11  C   UNL     1      -6.658  17.381  67.419  1.00  0.00    -0.149 C  
HETATM   12  O   UNL     1      -7.579  17.651  66.660  1.00  0.00    -0.201 OA 
HETATM   13  N   UNL     1      -6.319  18.168  68.530  1.00  0.00    -0.200 N  
HETATM   14  H   UNL     1      -5.620  17.823  69.187  1.00  0.00     0.000 HD 
BRANCH  13  15
HETATM   15  S   UNL     1      -7.026  19.647  68.804  1.00  0.00    -0.344 S  
HETATM   16  O   UNL     1      -6.523  20.601  67.852  1.00  0.00    -0.272 OA 
HETATM   17  C   UNL     1      -6.297  20.050  70.360  1.00  0.00    -0.288 C  
HETATM   18  O   UNL     1      -8.433  19.438  69.038  1.00  0.00    -0.345 OA 
ENDBRANCH  13  15
ENDBRANCH  10  11
ENDBRANCH   9  10
ENDBRANCH   8   9
ENDBRANCH   7   8
ENDBRANCH   6   7
ENDBRANCH   5   6
ENDBRANCH   4   5
BRANCH   4  19
HETATM   19  C   UNL     1     -10.863  11.189  67.551  1.00  0.00    -0.254 A  
HETATM   20  N   UNL     1     -11.299  10.483  69.850  1.00  0.00    -0.286 NA 
HETATM   21  N   UNL     1     -10.502   9.923  67.240  1.00  0.00    -0.248 NA 
HETATM   22  C   UNL     1     -10.905   9.213  69.519  1.00  0.00    -0.180 A  
HETATM   23  C   UNL     1     -10.530   8.927  68.190  1.00  0.00    -0.202 A  
HETATM   24  C   UNL     1     -11.272  11.418  68.859  1.00  0.00    -0.248 A  
BRANCH  23  25
HETATM   25  C   UNL     1     -10.075   7.605  67.674  1.00  0.00    -0.249 A  
HETATM   26  C   UNL     1     -11.007   6.653  67.215  1.00  0.00    -0.456 A  
HETATM   27  C   UNL     1      -8.310   6.153  66.793  1.00  0.00    -0.110 A  
HETATM   28  C   UNL     1      -8.718   7.255  67.549  1.00  0.00    -0.121 A  
HETATM   29  C   UNL     1      -9.254   5.275  66.283  1.00  0.00    -0.152 A  
HETATM   30  C   UNL     1     -10.603   5.494  66.544  1.00  0.00    -0.343 A  
ENDBRANCH  23  25
BRANCH  22  31
HETATM   31  C   UNL     1     -10.881   8.264  70.681  1.00  0.00    -0.254 A  
HETATM   32  C   UNL     1      -9.805   7.440  72.735  1.00  0.00    -0.237 A  
HETATM   33  C   UNL     1     -11.873   6.457  72.020  1.00  0.00    -0.382 A  
HETATM   34  C   UNL     1     -11.835   7.242  70.860  1.00  0.00    -0.351 A  
HETATM   35  C   UNL     1      -9.836   8.305  71.632  1.00  0.00    -0.263 A  
HETATM   36  C   UNL     1     -10.858   6.561  72.962  1.00  0.00    -0.291 A  
ENDBRANCH  22  31
ENDBRANCH   4  19
ENDBRANCH   2   4
TORSDOF 12
ENDMDL
MODEL      102
REMARK 921   NORMALIZED FREE ENERGY PREDICTED BY IDOCK:   -5.54 KCAL/MOL
REMARK 922        TOTAL FREE ENERGY PREDICTED BY IDOCK:  -10.74 KCAL/MOL
REMARK 923 INTER-LIGAND FREE ENERGY PREDICTED BY IDOCK:   -9.36 KCAL/MOL
REMARK 924 INTRA-LIGAND FREE ENERGY PREDICTED BY IDOCK:   -1.38 KCAL/MOL
REMARK 927      BINDING AFFINITY PREDICTED BY RF-SCORE:    0.00 PKD
ROOT
HETATM    1  C   UNL     1     -12.005  14.403  66.976  1.00  0.00    -0.424 C  
HETATM    2  C   UNL     1     -11.778  12.904  66.770  1.00  0.00    -0.383 C  
HETATM    3  C   UNL     1     -11.840  12.575  65.277  1.00  0.00    -0.461 C  
ENDROOT
BRANCH   2   4
HETATM    4  N   UNL     1     -10.535  12.389  67.393  1.00  0.00    -0.214 NA 
BRANCH   4   5
HETATM    5  C   UNL     1      -9.206  12.921  67.043  1.00  0.00    -0.226 C  
BRANCH   5   6
HETATM    6  C   UNL     1      -8.278  13.046  68.258  1.00  0.00    -0.150 C  
BRANCH   6   7
HETATM    7  C   UNL     1      -6.853  13.514  67.911  1.00  0.00    -0.151 C  
BRANCH   7   8
HETATM    8  C   UNL     1      -6.557  14.978  68.234  1.00  0.00    -0.113 C  
BRANCH   8   9
HETATM    9  O   UNL     1      -7.761  15.624  68.643  1.00  0.00    -0.135 OA 
BRANCH   9  10
HETATM   10  C   UNL     1      -7.514  16.935  69.149  1.00  0.00    -0.180 C  
BRANCH  10  11
HETATM   11  C   UNL     1      -7.711  17.995  68.071  1.00  0.00    -0.250 C  
HETATM   12  O   UNL     1      -6.836  18.803  67.792  1.00  0.00    -0.211 OA 
HETATM   13  N   UNL     1      -8.937  17.921  67.392  1.00  0.00    -0.243 N  
HETATM   14  H   UNL     1      -9.571  17.149  67.597  1.00  0.00     0.000 HD 
BRANCH  13  15
HETATM   15  S   UNL     1      -9.384  19.058  66.265  1.00  0.00    -0.234 S  
HETATM   16  O   UNL     1      -8.225  19.473  65.520  1.00  0.00    -0.326 OA 
HETATM   17  C   UNL     1      -9.807  20.397  67.334  1.00  0.00    -0.446 C  
HETATM   18  O   UNL     1     -10.603  18.616  65.637  1.00  0.00    -0.610 OA 
ENDBRANCH  13  15
ENDBRANCH  10  11
ENDBRANCH   9  10
ENDBRANCH   8   9
ENDBRANCH   7   8
ENDBRANCH   6   7
ENDBRANCH   5   6
ENDBRANCH   4   5
BRANCH   4  19
HETATM   19  C   UNL     1     -10.691  11.313  68.273  1.00  0.00    -0.194 A  
HETATM   20  N   UNL     1     -11.317  10.415  70.459  1.00  0.00    -0.329 NA 
HETATM   21  N   UNL     1     -10.357  10.066  67.867  1.00  0.00    -0.192 NA 
HETATM   22  C   UNL     1     -10.949   9.166  70.035  1.00  0.00    -0.220 A  
HETATM   23  C   UNL     1     -10.490   8.988  68.714  1.00  0.00    -0.206 A  
HETATM   24  C   UNL     1     -11.184  11.437  69.566  1.00  0.00    -0.256 A  
BRANCH  23  25
HETATM   25  C   UNL     1     -10.049   7.701  68.105  1.00  0.00    -0.220 A  
HETATM   26  C   UNL     1      -8.816   7.123  68.463  1.00  0.00    -0.125 A  
HETATM   27  C   UNL     1     -10.551   5.635  66.889  1.00  0.00    -0.367 A  
HETATM   28  C   UNL     1     -10.844   6.964  67.209  1.00  0.00    -0.426 A  
HETATM   29  C   UNL     1      -9.365   5.063  67.325  1.00  0.00    -0.135 A  
HETATM   30  C   UNL     1      -8.469   5.827  68.064  1.00  0.00    -0.106 A  
ENDBRANCH  23  25
BRANCH  22  31
HETATM   31  C   UNL     1     -11.044   8.113  71.100  1.00  0.00    -0.279 A  
HETATM   32  C   UNL     1     -11.990   5.995  71.923  1.00  0.00    -0.185 A  
HETATM   33  C   UNL     1     -10.351   7.140  73.249  1.00  0.00    -0.369 A  
HETATM   34  C   UNL     1     -10.356   8.197  72.329  1.00  0.00    -0.361 A  
HETATM   35  C   UNL     1     -11.901   7.000  70.949  1.00  0.00    -0.401 A  
HETATM   36  C   UNL     1     -11.166   6.035  73.042  1.00  0.00    -0.232 A  
ENDBRANCH  22  31
ENDBRANCH   4  19
ENDBRANCH   2   4
TORSDOF 12
ENDMDL
MODEL      103
REMARK 921   NORMALIZED FREE ENERGY PREDICTED BY IDOCK:   -5.53 KCAL/MOL
REMARK 922        TOTAL FREE ENERGY PREDICTED BY IDOCK:  -10.73 KCAL/MOL
REMARK 923 INTER-LIGAND FREE ENERGY PREDICTED BY IDOCK:   -9.56 KCAL/MOL
REMARK 924 INTRA-LIGAND FREE ENERGY PREDICTED BY IDOCK:   -1.17 KCAL/MOL
REMARK 927      BINDING AFFINITY PREDICTED BY RF-SCORE:    0.00 PKD
ROOT
HETATM    1  C   UNL     1     -13.559   7.716  71.460  1.00  0.00    -0.422 C  
HETATM    2  C   UNL     1     -12.108   7.233  71.408  1.00  0.00    -0.335 C  
HETATM    3  C   UNL     1     -11.862   6.484  70.097  1.00  0.00    -0.331 C  
ENDROOT
BRANCH   2   4
HETATM    4  N   UNL     1     -11.105   8.305  71.621  1.00  0.00    -0.251 NA 
BRANCH   4   5
HETATM    5  C   UNL     1     -10.162   8.280  72.753  1.00  0.00    -0.255 C  
BRANCH   5   6
HETATM    6  C   UNL     1     -10.328   7.037  73.637  1.00  0.00    -0.412 C  
BRANCH   6   7
HETATM    7  C   UNL     1      -9.160   6.039  73.538  1.00  0.00    -0.131 C  
BRANCH   7   8
HETATM    8  C   UNL     1      -9.475   4.751  72.775  1.00  0.00    -0.132 C  
BRANCH   8   9
HETATM    9  O   UNL     1      -9.248   4.960  71.383  1.00  0.00    -0.138 OA 
BRANCH   9  10
HETATM   10  C   UNL     1      -7.865   5.151  71.093  1.00  0.00    -0.101 C  
BRANCH  10  11
HETATM   11  C   UNL     1      -7.653   6.304  70.120  1.00  0.00    -0.096 C  
HETATM   12  O   UNL     1      -7.796   6.166  68.912  1.00  0.00    -0.097 OA 
HETATM   13  N   UNL     1      -7.350   7.534  70.725  1.00  0.00    -0.067 N  
HETATM   14  H   UNL     1      -7.362   7.602  71.742  1.00  0.00     0.000 HD 
BRANCH  13  15
HETATM   15  S   UNL     1      -6.971   8.881  69.828  1.00  0.00    -0.052 S  
HETATM   16  O   UNL     1      -7.408   8.690  68.470  1.00  0.00    -0.082 OA 
HETATM   17  C   UNL     1      -5.210   8.756  69.817  1.00  0.00    -0.030 C  
HETATM   18  O   UNL     1      -7.307  10.049  70.604  1.00  0.00    -0.308 OA 
ENDBRANCH  13  15
ENDBRANCH  10  11
ENDBRANCH   9  10
ENDBRANCH   8   9
ENDBRANCH   7   8
ENDBRANCH   6   7
ENDBRANCH   5   6
ENDBRANCH   4   5
BRANCH   4  19
HETATM   19  C   UNL     1     -11.159   9.382  70.730  1.00  0.00    -0.300 A  
HETATM   20  N   UNL     1     -10.674  10.377  68.550  1.00  0.00    -0.206 NA 
HETATM   21  N   UNL     1     -11.727  10.545  71.124  1.00  0.00    -0.298 NA 
HETATM   22  C   UNL     1     -11.230  11.553  68.979  1.00  0.00    -0.262 A  
HETATM   23  C   UNL     1     -11.787  11.626  70.273  1.00  0.00    -0.326 A  
HETATM   24  C   UNL     1     -10.666   9.337  69.431  1.00  0.00    -0.208 A  
BRANCH  23  25
HETATM   25  C   UNL     1     -12.421  12.827  70.887  1.00  0.00    -0.373 A  
HETATM   26  C   UNL     1     -12.076  14.122  70.453  1.00  0.00    -0.417 A  
HETATM   27  C   UNL     1     -14.211  13.854  72.206  1.00  0.00    -0.584 A  
HETATM   28  C   UNL     1     -13.427  12.748  71.867  1.00  0.00    -0.452 A  
HETATM   29  C   UNL     1     -13.899  15.106  71.698  1.00  0.00    -0.597 A  
HETATM   30  C   UNL     1     -12.794  15.251  70.866  1.00  0.00    -0.511 A  
ENDBRANCH  23  25
BRANCH  22  31
HETATM   31  C   UNL     1     -11.124  12.672  67.985  1.00  0.00    -0.288 A  
HETATM   32  C   UNL     1     -12.157  14.099  66.267  1.00  0.00    -0.463 A  
HETATM   33  C   UNL     1      -9.876  14.490  66.900  1.00  0.00    -0.265 A  
HETATM   34  C   UNL     1      -9.921  13.362  67.730  1.00  0.00    -0.233 A  
HETATM   35  C   UNL     1     -12.230  13.045  67.188  1.00  0.00    -0.200 A  
HETATM   36  C   UNL     1     -10.999  14.862  66.172  1.00  0.00    -0.334 A  
ENDBRANCH  22  31
ENDBRANCH   4  19
ENDBRANCH   2   4
TORSDOF 12
ENDMDL
MODEL      104
REMARK 921   NORMALIZED FREE ENERGY PREDICTED BY IDOCK:   -5.52 KCAL/MOL
REMARK 922        TOTAL FREE ENERGY PREDICTED BY IDOCK:  -10.70 KCAL/MOL
REMARK 923 INTER-LIGAND FREE ENERGY PREDICTED BY IDOCK:   -9.40 KCAL/MOL
REMARK 924 INTRA-LIGAND FREE ENERGY PREDICTED BY IDOCK:   -1.30 KCAL/MOL
REMARK 927      BINDING AFFINITY PREDICTED BY RF-SCORE:    0.00 PKD
ROOT
HETATM    1  C   UNL     1     -11.810   7.576  71.958  1.00  0.00    -0.331 C  
HETATM    2  C   UNL     1     -11.186   8.963  71.792  1.00  0.00    -0.362 C  
HETATM    3  C   UNL     1      -9.664   8.835  71.706  1.00  0.00    -0.380 C  
ENDROOT
BRANCH   2   4
HETATM    4  N   UNL     1     -11.735   9.742  70.656  1.00  0.00    -0.286 NA 
BRANCH   4   5
HETATM    5  C   UNL     1     -13.029  10.442  70.740  1.00  0.00    -0.341 C  
BRANCH   5   6
HETATM    6  C   UNL     1     -13.216  11.187  72.068  1.00  0.00    -0.428 C  
BRANCH   6   7
HETATM    7  C   UNL     1     -13.305  12.717  71.919  1.00  0.00    -0.485 C  
BRANCH   7   8
HETATM    8  C   UNL     1     -12.370  13.319  70.870  1.00  0.00    -0.329 C  
BRANCH   8   9
HETATM    9  O   UNL     1     -12.912  14.554  70.408  1.00  0.00    -0.326 OA 
BRANCH   9  10
HETATM   10  C   UNL     1     -12.014  15.641  70.623  1.00  0.00    -0.402 C  
BRANCH  10  11
HETATM   11  C   UNL     1     -11.320  16.056  69.331  1.00  0.00    -0.355 C  
HETATM   12  O   UNL     1     -11.389  15.379  68.314  1.00  0.00    -0.319 OA 
HETATM   13  N   UNL     1     -10.660  17.293  69.390  1.00  0.00    -0.359 N  
HETATM   14  H   UNL     1     -10.741  17.858  70.235  1.00  0.00     0.000 HD 
BRANCH  13  15
HETATM   15  S   UNL     1      -9.749  17.861  68.121  1.00  0.00    -0.338 S  
HETATM   16  O   UNL     1      -8.543  17.084  68.012  1.00  0.00    -0.207 OA 
HETATM   17  C   UNL     1      -9.282  19.438  68.762  1.00  0.00    -0.369 C  
HETATM   18  O   UNL     1     -10.630  18.103  67.006  1.00  0.00    -0.378 OA 
ENDBRANCH  13  15
ENDBRANCH  10  11
ENDBRANCH   9  10
ENDBRANCH   8   9
ENDBRANCH   7   8
ENDBRANCH   6   7
ENDBRANCH   5   6
ENDBRANCH   4   5
BRANCH   4  19
HETATM   19  C   UNL     1     -10.989   9.709  69.473  1.00  0.00    -0.208 A  
HETATM   20  N   UNL     1      -9.828  10.847  67.648  1.00  0.00    -0.169 NA 
HETATM   21  N   UNL     1     -10.678   8.516  68.915  1.00  0.00    -0.136 NA 
HETATM   22  C   UNL     1      -9.546   9.629  67.087  1.00  0.00    -0.166 A  
HETATM   23  C   UNL     1      -9.953   8.451  67.746  1.00  0.00    -0.186 A  
HETATM   24  C   UNL     1     -10.527  10.844  68.818  1.00  0.00    -0.200 A  
BRANCH  23  25
HETATM   25  C   UNL     1      -9.730   7.057  67.267  1.00  0.00    -0.189 A  
HETATM   26  C   UNL     1     -10.810   6.265  66.832  1.00  0.00    -0.428 A  
HETATM   27  C   UNL     1      -8.238   5.303  66.431  1.00  0.00    -0.109 A  
HETATM   28  C   UNL     1      -8.452   6.480  67.155  1.00  0.00    -0.112 A  
HETATM   29  C   UNL     1      -9.319   4.585  65.942  1.00  0.00    -0.159 A  
HETATM   30  C   UNL     1     -10.610   5.036  66.194  1.00  0.00    -0.321 A  
ENDBRANCH  23  25
BRANCH  22  31
HETATM   31  C   UNL     1      -8.850   9.719  65.761  1.00  0.00    -0.180 A  
HETATM   32  C   UNL     1      -8.954   9.872  63.307  1.00  0.00    -0.276 A  
HETATM   33  C   UNL     1      -6.816   9.910  64.394  1.00  0.00    -0.125 A  
HETATM   34  C   UNL     1      -7.447   9.688  65.625  1.00  0.00    -0.101 A  
HETATM   35  C   UNL     1      -9.585   9.768  64.555  1.00  0.00    -0.201 A  
HETATM   36  C   UNL     1      -7.573  10.008  63.233  1.00  0.00    -0.140 A  
ENDBRANCH  22  31
ENDBRANCH   4  19
ENDBRANCH   2   4
TORSDOF 12
ENDMDL
MODEL      105
REMARK 921   NORMALIZED FREE ENERGY PREDICTED BY IDOCK:   -5.50 KCAL/MOL
REMARK 922        TOTAL FREE ENERGY PREDICTED BY IDOCK:  -10.67 KCAL/MOL
REMARK 923 INTER-LIGAND FREE ENERGY PREDICTED BY IDOCK:   -8.42 KCAL/MOL
REMARK 924 INTRA-LIGAND FREE ENERGY PREDICTED BY IDOCK:   -2.25 KCAL/MOL
REMARK 927      BINDING AFFINITY PREDICTED BY RF-SCORE:    0.00 PKD
ROOT
HETATM    1  C   UNL     1     -10.080   4.503  71.856  1.00  0.00    -0.258 C  
HETATM    2  C   UNL     1      -9.379   5.849  71.658  1.00  0.00    -0.149 C  
HETATM    3  C   UNL     1      -8.275   5.705  70.608  1.00  0.00    -0.118 C  
ENDROOT
BRANCH   2   4
HETATM    4  N   UNL     1     -10.297   6.968  71.335  1.00  0.00    -0.198 NA 
BRANCH   4   5
HETATM    5  C   UNL     1     -11.394   7.365  72.236  1.00  0.00    -0.281 C  
BRANCH   5   6
HETATM    6  C   UNL     1     -12.779   7.036  71.665  1.00  0.00    -0.417 C  
BRANCH   6   7
HETATM    7  C   UNL     1     -13.734   8.242  71.608  1.00  0.00    -0.404 C  
BRANCH   7   8
HETATM    8  C   UNL     1     -13.094   9.589  71.947  1.00  0.00    -0.428 C  
BRANCH   8   9
HETATM    9  O   UNL     1     -13.050  10.400  70.775  1.00  0.00    -0.385 OA 
BRANCH   9  10
HETATM   10  C   UNL     1     -11.735  10.888  70.518  1.00  0.00    -0.342 C  
BRANCH  10  11
HETATM   11  C   UNL     1     -11.705  11.790  69.289  1.00  0.00    -0.335 C  
HETATM   12  O   UNL     1     -12.254  11.475  68.242  1.00  0.00    -0.561 OA 
HETATM   13  N   UNL     1     -11.061  13.022  69.481  1.00  0.00    -0.456 N  
HETATM   14  H   UNL     1     -10.729  13.267  70.414  1.00  0.00     0.000 HD 
BRANCH  13  15
HETATM   15  S   UNL     1     -10.825  14.091  68.231  1.00  0.00    -0.264 S  
HETATM   16  O   UNL     1     -10.240  13.399  67.114  1.00  0.00    -0.243 OA 
HETATM   17  C   UNL     1      -9.554  15.099  68.927  1.00  0.00    -0.223 C  
HETATM   18  O   UNL     1     -12.001  14.916  68.114  1.00  0.00    -0.304 OA 
ENDBRANCH  13  15
ENDBRANCH  10  11
ENDBRANCH   9  10
ENDBRANCH   8   9
ENDBRANCH   7   8
ENDBRANCH   6   7
ENDBRANCH   5   6
ENDBRANCH   4   5
BRANCH   4  19
HETATM   19  C   UNL     1     -10.110   7.575  70.088  1.00  0.00    -0.195 A  
HETATM   20  N   UNL     1     -10.713   7.851  67.735  1.00  0.00    -0.170 NA 
HETATM   21  N   UNL     1      -9.125   8.490  69.934  1.00  0.00    -0.148 NA 
HETATM   22  C   UNL     1      -9.694   8.755  67.596  1.00  0.00    -0.169 A  
HETATM   23  C   UNL     1      -8.910   9.098  68.717  1.00  0.00    -0.132 A  
HETATM   24  C   UNL     1     -10.890   7.302  68.971  1.00  0.00    -0.113 A  
BRANCH  23  25
HETATM   25  C   UNL     1      -7.768  10.055  68.729  1.00  0.00    -0.085 A  
HETATM   26  C   UNL     1      -6.440   9.588  68.745  1.00  0.00    -0.047 A  
HETATM   27  C   UNL     1      -6.867  12.303  68.366  1.00  0.00    -0.075 A  
HETATM   28  C   UNL     1      -7.935  11.450  68.656  1.00  0.00    -0.141 A  
HETATM   29  C   UNL     1      -5.575  11.801  68.307  1.00  0.00    -0.046 A  
HETATM   30  C   UNL     1      -5.354  10.451  68.554  1.00  0.00    -0.037 A  
ENDBRANCH  23  25
BRANCH  22  31
HETATM   31  C   UNL     1      -9.510   9.248  66.190  1.00  0.00    -0.298 A  
HETATM   32  C   UNL     1      -8.356   9.117  64.021  1.00  0.00    -0.183 A  
HETATM   33  C   UNL     1     -10.146  10.688  64.302  1.00  0.00    -0.411 A  
HETATM   34  C   UNL     1     -10.235  10.333  65.655  1.00  0.00    -0.301 A  
HETATM   35  C   UNL     1      -8.530   8.684  65.343  1.00  0.00    -0.189 A  
HETATM   36  C   UNL     1      -9.208  10.073  63.483  1.00  0.00    -0.315 A  
ENDBRANCH  22  31
ENDBRANCH   4  19
ENDBRANCH   2   4
TORSDOF 12
ENDMDL
MODEL      106
REMARK 921   NORMALIZED FREE ENERGY PREDICTED BY IDOCK:   -5.48 KCAL/MOL
REMARK 922        TOTAL FREE ENERGY PREDICTED BY IDOCK:  -10.65 KCAL/MOL
REMARK 923 INTER-LIGAND FREE ENERGY PREDICTED BY IDOCK:   -9.44 KCAL/MOL
REMARK 924 INTRA-LIGAND FREE ENERGY PREDICTED BY IDOCK:   -1.21 KCAL/MOL
REMARK 927      BINDING AFFINITY PREDICTED BY RF-SCORE:    0.00 PKD
ROOT
HETATM    1  C   UNL     1     -11.996  15.996  71.093  1.00  0.00    -0.443 C  
HETATM    2  C   UNL     1     -11.981  15.352  69.705  1.00  0.00    -0.358 C  
HETATM    3  C   UNL     1     -10.829  15.932  68.882  1.00  0.00    -0.274 C  
ENDROOT
BRANCH   2   4
HETATM    4  N   UNL     1     -11.945  13.870  69.726  1.00  0.00    -0.319 NA 
BRANCH   4   5
HETATM    5  C   UNL     1     -12.402  13.092  70.892  1.00  0.00    -0.307 C  
BRANCH   5   6
HETATM    6  C   UNL     1     -12.512  11.591  70.598  1.00  0.00    -0.405 C  
BRANCH   6   7
HETATM    7  C   UNL     1     -12.989  10.753  71.799  1.00  0.00    -0.568 C  
BRANCH   7   8
HETATM    8  C   UNL     1     -13.369   9.309  71.468  1.00  0.00    -0.369 C  
BRANCH   8   9
HETATM    9  O   UNL     1     -12.221   8.474  71.610  1.00  0.00    -0.292 OA 
BRANCH   9  10
HETATM   10  C   UNL     1     -12.527   7.104  71.358  1.00  0.00    -0.388 C  
BRANCH  10  11
HETATM   11  C   UNL     1     -11.428   6.427  70.549  1.00  0.00    -0.379 C  
HETATM   12  O   UNL     1     -10.594   5.699  71.072  1.00  0.00    -0.237 OA 
HETATM   13  N   UNL     1     -11.494   6.653  69.165  1.00  0.00    -0.618 N  
HETATM   14  H   UNL     1     -12.283   7.173  68.785  1.00  0.00     0.000 HD 
BRANCH  13  15
HETATM   15  S   UNL     1     -10.319   6.095  68.130  1.00  0.00    -0.225 S  
HETATM   16  O   UNL     1      -9.959   4.751  68.495  1.00  0.00    -0.148 OA 
HETATM   17  C   UNL     1      -8.972   7.130  68.610  1.00  0.00    -0.131 C  
HETATM   18  O   UNL     1     -10.684   6.472  66.788  1.00  0.00    -0.291 OA 
ENDBRANCH  13  15
ENDBRANCH  10  11
ENDBRANCH   9  10
ENDBRANCH   8   9
ENDBRANCH   7   8
ENDBRANCH   6   7
ENDBRANCH   5   6
ENDBRANCH   4   5
BRANCH   4  19
HETATM   19  C   UNL     1     -11.379  13.254  68.605  1.00  0.00    -0.288 A  
HETATM   20  N   UNL     1     -11.534  12.460  66.297  1.00  0.00    -0.351 NA 
HETATM   21  N   UNL     1     -10.108  12.794  68.668  1.00  0.00    -0.175 NA 
HETATM   22  C   UNL     1     -10.254  11.980  66.392  1.00  0.00    -0.216 A  
HETATM   23  C   UNL     1      -9.525  12.176  67.584  1.00  0.00    -0.187 A  
HETATM   24  C   UNL     1     -12.044  13.084  67.397  1.00  0.00    -0.233 A  
BRANCH  23  25
HETATM   25  C   UNL     1      -8.134  11.712  67.846  1.00  0.00    -0.138 A  
HETATM   26  C   UNL     1      -7.035  12.365  67.255  1.00  0.00    -0.129 A  
HETATM   27  C   UNL     1      -6.527  10.444  69.191  1.00  0.00    -0.048 A  
HETATM   28  C   UNL     1      -7.828  10.662  68.731  1.00  0.00    -0.125 A  
HETATM   29  C   UNL     1      -5.471  11.161  68.649  1.00  0.00    -0.043 A  
HETATM   30  C   UNL     1      -5.719  12.083  67.637  1.00  0.00    -0.091 A  
ENDBRANCH  23  25
BRANCH  22  31
HETATM   31  C   UNL     1      -9.796  11.234  65.174  1.00  0.00    -0.298 A  
HETATM   32  C   UNL     1      -8.797   9.228  64.156  1.00  0.00    -0.178 A  
HETATM   33  C   UNL     1      -9.539  11.016  62.739  1.00  0.00    -0.337 A  
HETATM   34  C   UNL     1      -9.844  11.778  63.875  1.00  0.00    -0.298 A  
HETATM   35  C   UNL     1      -9.214   9.950  65.283  1.00  0.00    -0.280 A  
HETATM   36  C   UNL     1      -9.020   9.736  62.881  1.00  0.00    -0.270 A  
ENDBRANCH  22  31
ENDBRANCH   4  19
ENDBRANCH   2   4
TORSDOF 12
ENDMDL
MODEL      107
REMARK 921   NORMALIZED FREE ENERGY PREDICTED BY IDOCK:   -5.48 KCAL/MOL
REMARK 922        TOTAL FREE ENERGY PREDICTED BY IDOCK:  -10.65 KCAL/MOL
REMARK 923 INTER-LIGAND FREE ENERGY PREDICTED BY IDOCK:   -9.25 KCAL/MOL
REMARK 924 INTRA-LIGAND FREE ENERGY PREDICTED BY IDOCK:   -1.40 KCAL/MOL
REMARK 927      BINDING AFFINITY PREDICTED BY RF-SCORE:    0.00 PKD
ROOT
HETATM    1  C   UNL     1      -9.246  12.064  67.554  1.00  0.00    -0.180 C  
HETATM    2  C   UNL     1      -8.169  11.410  66.686  1.00  0.00    -0.163 C  
HETATM    3  C   UNL     1      -6.949  11.074  67.546  1.00  0.00    -0.086 C  
ENDROOT
BRANCH   2   4
HETATM    4  N   UNL     1      -8.641  10.230  65.923  1.00  0.00    -0.146 NA 
BRANCH   4   5
HETATM    5  C   UNL     1      -9.140  10.340  64.540  1.00  0.00    -0.234 C  
BRANCH   5   6
HETATM    6  C   UNL     1     -10.551  10.937  64.464  1.00  0.00    -0.335 C  
BRANCH   6   7
HETATM    7  C   UNL     1     -10.635  12.241  63.650  1.00  0.00    -0.501 C  
BRANCH   7   8
HETATM    8  C   UNL     1     -12.054  12.726  63.353  1.00  0.00    -0.534 C  
BRANCH   8   9
HETATM    9  O   UNL     1     -12.329  13.889  64.132  1.00  0.00    -0.614 OA 
BRANCH   9  10
HETATM   10  C   UNL     1     -12.572  13.565  65.500  1.00  0.00    -0.481 C  
BRANCH  10  11
HETATM   11  C   UNL     1     -11.761  14.453  66.436  1.00  0.00    -0.386 C  
HETATM   12  O   UNL     1     -10.780  15.075  66.049  1.00  0.00    -0.306 OA 
HETATM   13  N   UNL     1     -12.267  14.547  67.741  1.00  0.00    -0.623 N  
HETATM   14  H   UNL     1     -13.154  14.096  67.963  1.00  0.00     0.000 HD 
BRANCH  13  15
HETATM   15  S   UNL     1     -11.460  15.374  68.936  1.00  0.00    -0.362 S  
HETATM   16  O   UNL     1     -10.309  14.615  69.349  1.00  0.00    -0.206 OA 
HETATM   17  C   UNL     1     -12.641  15.254  70.242  1.00  0.00    -0.347 C  
HETATM   18  O   UNL     1     -11.390  16.762  68.556  1.00  0.00    -0.268 OA 
ENDBRANCH  13  15
ENDBRANCH  10  11
ENDBRANCH   9  10
ENDBRANCH   8   9
ENDBRANCH   7   8
ENDBRANCH   6   7
ENDBRANCH   5   6
ENDBRANCH   4   5
BRANCH   4  19
HETATM   19  C   UNL     1      -8.660   9.016  66.619  1.00  0.00    -0.127 A  
HETATM   20  N   UNL     1      -7.945   6.693  66.881  1.00  0.00    -0.107 NA 
HETATM   21  N   UNL     1      -9.423   8.897  67.729  1.00  0.00    -0.140 NA 
HETATM   22  C   UNL     1      -8.744   6.587  67.988  1.00  0.00    -0.116 A  
HETATM   23  C   UNL     1      -9.469   7.713  68.431  1.00  0.00    -0.150 A  
HETATM   24  C   UNL     1      -7.924   7.899  66.244  1.00  0.00    -0.103 A  
BRANCH  23  25
HETATM   25  C   UNL     1     -10.383   7.759  69.608  1.00  0.00    -0.212 A  
HETATM   26  C   UNL     1     -11.385   6.785  69.778  1.00  0.00    -0.350 A  
HETATM   27  C   UNL     1     -10.920   8.560  71.860  1.00  0.00    -0.394 A  
HETATM   28  C   UNL     1     -10.263   8.712  70.635  1.00  0.00    -0.237 A  
HETATM   29  C   UNL     1     -11.844   7.540  72.027  1.00  0.00    -0.331 A  
HETATM   30  C   UNL     1     -12.120   6.686  70.965  1.00  0.00    -0.384 A  
ENDBRANCH  23  25
BRANCH  22  31
HETATM   31  C   UNL     1      -8.779   5.209  68.580  1.00  0.00    -0.098 A  
HETATM   32  C   UNL     1      -8.210   3.661  70.407  1.00  0.00    -0.074 A  
HETATM   33  C   UNL     1      -9.485   2.855  68.542  1.00  0.00    -0.200 A  
HETATM   34  C   UNL     1      -9.341   4.100  67.915  1.00  0.00    -0.210 A  
HETATM   35  C   UNL     1      -8.173   4.937  69.827  1.00  0.00    -0.073 A  
HETATM   36  C   UNL     1      -8.923   2.638  69.793  1.00  0.00    -0.167 A  
ENDBRANCH  22  31
ENDBRANCH   4  19
ENDBRANCH   2   4
TORSDOF 12
ENDMDL
MODEL      108
REMARK 921   NORMALIZED FREE ENERGY PREDICTED BY IDOCK:   -5.47 KCAL/MOL
REMARK 922        TOTAL FREE ENERGY PREDICTED BY IDOCK:  -10.63 KCAL/MOL
REMARK 923 INTER-LIGAND FREE ENERGY PREDICTED BY IDOCK:   -9.32 KCAL/MOL
REMARK 924 INTRA-LIGAND FREE ENERGY PREDICTED BY IDOCK:   -1.31 KCAL/MOL
REMARK 927      BINDING AFFINITY PREDICTED BY RF-SCORE:    0.00 PKD
ROOT
HETATM    1  C   UNL     1      -6.406  13.296  67.948  1.00  0.00    -0.144 C  
HETATM    2  C   UNL     1      -6.721  12.085  68.828  1.00  0.00    -0.087 C  
HETATM    3  C   UNL     1      -6.372  12.403  70.284  1.00  0.00     0.141 C  
ENDROOT
BRANCH   2   4
HETATM    4  N   UNL     1      -8.111  11.585  68.695  1.00  0.00    -0.147 NA 
BRANCH   4   5
HETATM    5  C   UNL     1      -9.199  12.430  68.173  1.00  0.00    -0.205 C  
BRANCH   5   6
HETATM    6  C   UNL     1      -9.957  11.772  67.013  1.00  0.00    -0.224 C  
BRANCH   6   7
HETATM    7  C   UNL     1     -11.485  11.949  67.085  1.00  0.00    -0.386 C  
BRANCH   7   8
HETATM    8  C   UNL     1     -12.097  12.750  65.936  1.00  0.00    -0.426 C  
BRANCH   8   9
HETATM    9  O   UNL     1     -11.916  14.143  66.183  1.00  0.00    -0.387 OA 
BRANCH   9  10
HETATM   10  C   UNL     1     -11.132  14.764  65.166  1.00  0.00    -0.384 C  
BRANCH  10  11
HETATM   11  C   UNL     1     -10.116  15.734  65.759  1.00  0.00    -0.371 C  
HETATM   12  O   UNL     1      -8.997  15.372  66.096  1.00  0.00    -0.312 OA 
HETATM   13  N   UNL     1     -10.546  17.068  65.822  1.00  0.00    -0.287 N  
HETATM   14  H   UNL     1     -11.447  17.318  65.416  1.00  0.00     0.000 HD 
BRANCH  13  15
HETATM   15  S   UNL     1      -9.627  18.251  66.542  1.00  0.00    -0.313 S  
HETATM   16  O   UNL     1      -9.717  18.123  67.973  1.00  0.00    -0.287 OA 
HETATM   17  C   UNL     1     -10.566  19.679  66.100  1.00  0.00    -0.483 C  
HETATM   18  O   UNL     1      -8.371  18.337  65.840  1.00  0.00    -0.506 OA 
ENDBRANCH  13  15
ENDBRANCH  10  11
ENDBRANCH   9  10
ENDBRANCH   8   9
ENDBRANCH   7   8
ENDBRANCH   6   7
ENDBRANCH   5   6
ENDBRANCH   4   5
BRANCH   4  19
HETATM   19  C   UNL     1      -8.344  10.290  69.169  1.00  0.00    -0.154 A  
HETATM   20  N   UNL     1      -7.669   7.954  69.421  1.00  0.00    -0.103 NA 
HETATM   21  N   UNL     1      -9.488  10.022  69.840  1.00  0.00    -0.215 NA 
HETATM   22  C   UNL     1      -8.846   7.700  70.076  1.00  0.00    -0.143 A  
HETATM   23  C   UNL     1      -9.751   8.755  70.311  1.00  0.00    -0.176 A  
HETATM   24  C   UNL     1      -7.457   9.234  69.002  1.00  0.00    -0.073 A  
BRANCH  23  25
HETATM   25  C   UNL     1     -11.068   8.642  70.999  1.00  0.00    -0.316 A  
HETATM   26  C   UNL     1     -11.801   9.795  71.341  1.00  0.00    -0.488 A  
HETATM   27  C   UNL     1     -13.030   7.326  71.648  1.00  0.00    -0.417 A  
HETATM   28  C   UNL     1     -11.683   7.409  71.284  1.00  0.00    -0.316 A  
HETATM   29  C   UNL     1     -13.752   8.483  71.899  1.00  0.00    -0.455 A  
HETATM   30  C   UNL     1     -13.120   9.718  71.802  1.00  0.00    -0.528 A  
ENDBRANCH  23  25
BRANCH  22  31
HETATM   31  C   UNL     1      -9.042   6.255  70.429  1.00  0.00    -0.157 A  
HETATM   32  C   UNL     1      -8.922   4.430  72.075  1.00  0.00    -0.147 A  
HETATM   33  C   UNL     1      -9.781   3.975  69.883  1.00  0.00    -0.263 A  
HETATM   34  C   UNL     1      -9.474   5.287  69.499  1.00  0.00    -0.192 A  
HETATM   35  C   UNL     1      -8.727   5.772  71.719  1.00  0.00    -0.136 A  
HETATM   36  C   UNL     1      -9.510   3.548  71.176  1.00  0.00    -0.229 A  
ENDBRANCH  22  31
ENDBRANCH   4  19
ENDBRANCH   2   4
TORSDOF 12
ENDMDL
MODEL      109
REMARK 921   NORMALIZED FREE ENERGY PREDICTED BY IDOCK:   -5.46 KCAL/MOL
REMARK 922        TOTAL FREE ENERGY PREDICTED BY IDOCK:  -10.61 KCAL/MOL
REMARK 923 INTER-LIGAND FREE ENERGY PREDICTED BY IDOCK:   -9.58 KCAL/MOL
REMARK 924 INTRA-LIGAND FREE ENERGY PREDICTED BY IDOCK:   -1.03 KCAL/MOL
REMARK 927      BINDING AFFINITY PREDICTED BY RF-SCORE:    0.00 PKD
ROOT
HETATM    1  C   UNL     1      -8.039  10.113  65.213  1.00  0.00    -0.151 C  
HETATM    2  C   UNL     1      -8.142   9.039  66.298  1.00  0.00    -0.110 C  
HETATM    3  C   UNL     1      -7.130   9.331  67.408  1.00  0.00    -0.079 C  
ENDROOT
BRANCH   2   4
HETATM    4  N   UNL     1      -9.510   8.853  66.839  1.00  0.00    -0.165 NA 
BRANCH   4   5
HETATM    5  C   UNL     1     -10.289   7.627  66.593  1.00  0.00    -0.187 C  
BRANCH   5   6
HETATM    6  C   UNL     1      -9.507   6.349  66.926  1.00  0.00    -0.166 C  
BRANCH   6   7
HETATM    7  C   UNL     1     -10.036   5.597  68.160  1.00  0.00    -0.186 C  
BRANCH   7   8
HETATM    8  C   UNL     1     -11.211   6.269  68.872  1.00  0.00    -0.309 C  
BRANCH   8   9
HETATM    9  O   UNL     1     -11.217   5.880  70.244  1.00  0.00    -0.332 OA 
BRANCH   9  10
HETATM   10  C   UNL     1     -11.775   6.892  71.079  1.00  0.00    -0.345 C  
BRANCH  10  11
HETATM   11  C   UNL     1     -10.700   7.586  71.908  1.00  0.00    -0.217 C  
HETATM   12  O   UNL     1     -10.886   8.682  72.421  1.00  0.00    -0.343 OA 
HETATM   13  N   UNL     1      -9.523   6.843  72.084  1.00  0.00    -0.140 N  
HETATM   14  H   UNL     1      -9.482   5.888  71.728  1.00  0.00     0.000 HD 
BRANCH  13  15
HETATM   15  S   UNL     1      -8.195   7.475  72.858  1.00  0.00    -0.127 S  
HETATM   16  O   UNL     1      -7.050   6.643  72.599  1.00  0.00    -0.078 OA 
HETATM   17  C   UNL     1      -8.658   7.194  74.538  1.00  0.00    -0.196 C  
HETATM   18  O   UNL     1      -8.191   8.902  72.654  1.00  0.00    -0.387 OA 
ENDBRANCH  13  15
ENDBRANCH  10  11
ENDBRANCH   9  10
ENDBRANCH   8   9
ENDBRANCH   7   8
ENDBRANCH   6   7
ENDBRANCH   5   6
ENDBRANCH   4   5
BRANCH   4  19
HETATM   19  C   UNL     1     -10.048   9.943  67.531  1.00  0.00    -0.197 A  
HETATM   20  N   UNL     1     -10.855  10.975  69.596  1.00  0.00    -0.221 NA 
HETATM   21  N   UNL     1     -10.343  11.079  66.859  1.00  0.00    -0.225 NA 
HETATM   22  C   UNL     1     -11.169  12.106  68.890  1.00  0.00    -0.269 A  
HETATM   23  C   UNL     1     -10.883  12.166  67.511  1.00  0.00    -0.243 A  
HETATM   24  C   UNL     1     -10.301   9.943  68.898  1.00  0.00    -0.205 A  
BRANCH  23  25
HETATM   25  C   UNL     1     -11.167  13.316  66.606  1.00  0.00    -0.332 A  
HETATM   26  C   UNL     1     -10.194  14.309  66.380  1.00  0.00    -0.295 A  
HETATM   27  C   UNL     1     -12.494  14.352  64.827  1.00  0.00    -0.371 A  
HETATM   28  C   UNL     1     -12.367  13.446  65.884  1.00  0.00    -0.493 A  
HETATM   29  C   UNL     1     -11.483  15.267  64.574  1.00  0.00    -0.318 A  
HETATM   30  C   UNL     1     -10.356  15.284  65.388  1.00  0.00    -0.421 A  
ENDBRANCH  23  25
BRANCH  22  31
HETATM   31  C   UNL     1     -11.851  13.161  69.710  1.00  0.00    -0.386 A  
HETATM   32  C   UNL     1     -13.254  13.789  71.632  1.00  0.00    -0.450 A  
HETATM   33  C   UNL     1     -12.356  15.511  70.225  1.00  0.00    -0.431 A  
HETATM   34  C   UNL     1     -11.829  14.530  69.374  1.00  0.00    -0.367 A  
HETATM   35  C   UNL     1     -12.625  12.817  70.842  1.00  0.00    -0.342 A  
HETATM   36  C   UNL     1     -13.064  15.139  71.360  1.00  0.00    -0.499 A  
ENDBRANCH  22  31
ENDBRANCH   4  19
ENDBRANCH   2   4
TORSDOF 12
ENDMDL
MODEL      110
REMARK 921   NORMALIZED FREE ENERGY PREDICTED BY IDOCK:   -5.45 KCAL/MOL
REMARK 922        TOTAL FREE ENERGY PREDICTED BY IDOCK:  -10.59 KCAL/MOL
REMARK 923 INTER-LIGAND FREE ENERGY PREDICTED BY IDOCK:   -9.20 KCAL/MOL
REMARK 924 INTRA-LIGAND FREE ENERGY PREDICTED BY IDOCK:   -1.39 KCAL/MOL
REMARK 927      BINDING AFFINITY PREDICTED BY RF-SCORE:    0.00 PKD
ROOT
HETATM    1  C   UNL     1     -11.114   6.452  67.035  1.00  0.00    -0.405 C  
HETATM    2  C   UNL     1     -11.116   7.110  68.416  1.00  0.00     0.068 C  
HETATM    3  C   UNL     1     -10.932   6.041  69.496  1.00  0.00    -0.467 C  
ENDROOT
BRANCH   2   4
HETATM    4  N   UNL     1     -10.133   8.210  68.564  1.00  0.00    -0.195 NA 
BRANCH   4   5
HETATM    5  C   UNL     1      -8.701   8.025  68.267  1.00  0.00    -0.130 C  
BRANCH   5   6
HETATM    6  C   UNL     1      -7.794   8.439  69.432  1.00  0.00    -0.103 C  
BRANCH   6   7
HETATM    7  C   UNL     1      -6.914   9.666  69.135  1.00  0.00    -0.050 C  
BRANCH   7   8
HETATM    8  C   UNL     1      -6.166  10.232  70.342  1.00  0.00    -0.120 C  
BRANCH   8   9
HETATM    9  O   UNL     1      -5.273  11.256  69.907  1.00  0.00    -0.052 OA 
BRANCH   9  10
HETATM   10  C   UNL     1      -5.459  12.467  70.637  1.00  0.00    -0.169 C  
BRANCH  10  11
HETATM   11  C   UNL     1      -6.183  13.517  69.801  1.00  0.00    -0.116 C  
HETATM   12  O   UNL     1      -6.880  13.212  68.843  1.00  0.00    -0.098 OA 
HETATM   13  N   UNL     1      -6.036  14.835  70.259  1.00  0.00    -0.151 N  
HETATM   14  H   UNL     1      -5.537  15.004  71.132  1.00  0.00     0.000 HD 
BRANCH  13  15
HETATM   15  S   UNL     1      -6.653  16.128  69.417  1.00  0.00    -0.201 S  
HETATM   16  O   UNL     1      -8.072  15.960  69.254  1.00  0.00    -0.224 OA 
HETATM   17  C   UNL     1      -5.923  15.841  67.836  1.00  0.00    -0.140 C  
HETATM   18  O   UNL     1      -6.061  17.333  69.943  1.00  0.00    -0.244 OA 
ENDBRANCH  13  15
ENDBRANCH  10  11
ENDBRANCH   9  10
ENDBRANCH   8   9
ENDBRANCH   7   8
ENDBRANCH   6   7
ENDBRANCH   5   6
ENDBRANCH   4   5
BRANCH   4  19
HETATM   19  C   UNL     1     -10.630   9.412  69.079  1.00  0.00    -0.213 A  
HETATM   20  N   UNL     1     -11.607  10.712  70.905  1.00  0.00    -0.293 NA 
HETATM   21  N   UNL     1     -10.674  10.508  68.287  1.00  0.00    -0.212 NA 
HETATM   22  C   UNL     1     -11.666  11.802  70.077  1.00  0.00    -0.305 A  
HETATM   23  C   UNL     1     -11.167  11.704  68.762  1.00  0.00    -0.245 A  
HETATM   24  C   UNL     1     -11.086   9.565  70.382  1.00  0.00    -0.277 A  
BRANCH  23  25
HETATM   25  C   UNL     1     -11.163  12.791  67.742  1.00  0.00    -0.317 A  
HETATM   26  C   UNL     1     -10.038  13.623  67.584  1.00  0.00    -0.242 A  
HETATM   27  C   UNL     1     -12.084  13.819  65.719  1.00  0.00    -0.458 A  
HETATM   28  C   UNL     1     -12.226  13.008  66.848  1.00  0.00    -0.233 A  
HETATM   29  C   UNL     1     -10.929  14.567  65.545  1.00  0.00    -0.337 A  
HETATM   30  C   UNL     1      -9.928  14.513  66.510  1.00  0.00    -0.290 A  
ENDBRANCH  23  25
BRANCH  22  31
HETATM   31  C   UNL     1     -12.328  12.998  70.697  1.00  0.00    -0.391 A  
HETATM   32  C   UNL     1     -12.589  15.439  70.866  1.00  0.00    -0.496 A  
HETATM   33  C   UNL     1     -13.982  14.016  72.203  1.00  0.00    -0.633 A  
HETATM   34  C   UNL     1     -13.278  12.899  71.734  1.00  0.00    -0.479 A  
HETATM   35  C   UNL     1     -11.969  14.309  70.313  1.00  0.00    -0.398 A  
HETATM   36  C   UNL     1     -13.640  15.288  71.762  1.00  0.00    -0.581 A  
ENDBRANCH  22  31
ENDBRANCH   4  19
ENDBRANCH   2   4
TORSDOF 12
ENDMDL
MODEL      111
REMARK 921   NORMALIZED FREE ENERGY PREDICTED BY IDOCK:   -5.42 KCAL/MOL
REMARK 922        TOTAL FREE ENERGY PREDICTED BY IDOCK:  -10.54 KCAL/MOL
REMARK 923 INTER-LIGAND FREE ENERGY PREDICTED BY IDOCK:   -9.54 KCAL/MOL
REMARK 924 INTRA-LIGAND FREE ENERGY PREDICTED BY IDOCK:   -1.00 KCAL/MOL
REMARK 927      BINDING AFFINITY PREDICTED BY RF-SCORE:    0.00 PKD
ROOT
HETATM    1  C   UNL     1      -8.490  12.404  67.288  1.00  0.00    -0.183 C  
HETATM    2  C   UNL     1      -9.611  12.175  66.271  1.00  0.00    -0.237 C  
HETATM    3  C   UNL     1      -9.228  11.029  65.333  1.00  0.00    -0.232 C  
ENDROOT
BRANCH   2   4
HETATM    4  N   UNL     1     -10.946  11.960  66.880  1.00  0.00    -0.273 NA 
BRANCH   4   5
HETATM    5  C   UNL     1     -12.112  12.786  66.520  1.00  0.00    -0.268 C  
BRANCH   5   6
HETATM    6  C   UNL     1     -11.982  13.423  65.130  1.00  0.00    -0.406 C  
BRANCH   6   7
HETATM    7  C   UNL     1     -12.021  14.962  65.142  1.00  0.00    -0.210 C  
BRANCH   7   8
HETATM    8  C   UNL     1     -10.682  15.639  65.434  1.00  0.00    -0.408 C  
BRANCH   8   9
HETATM    9  O   UNL     1     -10.430  15.603  66.837  1.00  0.00    -0.295 OA 
BRANCH   9  10
HETATM   10  C   UNL     1     -10.889  16.786  67.489  1.00  0.00    -0.216 C  
BRANCH  10  11
HETATM   11  C   UNL     1     -11.099  16.554  68.981  1.00  0.00    -0.284 C  
HETATM   12  O   UNL     1     -10.444  17.148  69.826  1.00  0.00    -0.172 OA 
HETATM   13  N   UNL     1     -12.138  15.664  69.296  1.00  0.00    -0.539 N  
HETATM   14  H   UNL     1     -12.720  15.295  68.545  1.00  0.00     0.000 HD 
BRANCH  13  15
HETATM   15  S   UNL     1     -12.444  15.195  70.861  1.00  0.00    -0.402 S  
HETATM   16  O   UNL     1     -12.080  13.813  71.026  1.00  0.00    -0.340 OA 
HETATM   17  C   UNL     1     -14.208  15.258  70.859  1.00  0.00    -0.021 C  
HETATM   18  O   UNL     1     -11.985  16.238  71.743  1.00  0.00    -0.478 OA 
ENDBRANCH  13  15
ENDBRANCH  10  11
ENDBRANCH   9  10
ENDBRANCH   8   9
ENDBRANCH   7   8
ENDBRANCH   6   7
ENDBRANCH   5   6
ENDBRANCH   4   5
BRANCH   4  19
HETATM   19  C   UNL     1     -11.015  10.979  67.876  1.00  0.00    -0.264 A  
HETATM   20  N   UNL     1     -11.554  10.286  70.157  1.00  0.00    -0.280 NA 
HETATM   21  N   UNL     1     -10.596   9.722  67.602  1.00  0.00    -0.259 NA 
HETATM   22  C   UNL     1     -11.101   9.026  69.866  1.00  0.00    -0.142 A  
HETATM   23  C   UNL     1     -10.644   8.737  68.563  1.00  0.00    -0.129 A  
HETATM   24  C   UNL     1     -11.504  11.210  69.155  1.00  0.00    -0.298 A  
BRANCH  23  25
HETATM   25  C   UNL     1     -10.117   7.425  68.091  1.00  0.00    -0.210 A  
HETATM   26  C   UNL     1     -10.844   6.650  67.167  1.00  0.00    -0.471 A  
HETATM   27  C   UNL     1      -8.261   5.854  67.797  1.00  0.00    -0.105 A  
HETATM   28  C   UNL     1      -8.861   6.920  68.473  1.00  0.00    -0.124 A  
HETATM   29  C   UNL     1      -8.972   5.159  66.831  1.00  0.00    -0.109 A  
HETATM   30  C   UNL     1     -10.287   5.520  66.557  1.00  0.00    -0.309 A  
ENDBRANCH  23  25
BRANCH  22  31
HETATM   31  C   UNL     1     -11.110   8.093  71.040  1.00  0.00    -0.281 A  
HETATM   32  C   UNL     1     -11.994   6.089  72.161  1.00  0.00    -0.261 A  
HETATM   33  C   UNL     1     -10.240   7.342  73.213  1.00  0.00    -0.365 A  
HETATM   34  C   UNL     1     -10.318   8.295  72.189  1.00  0.00    -0.370 A  
HETATM   35  C   UNL     1     -11.984   6.983  71.082  1.00  0.00    -0.398 A  
HETATM   36  C   UNL     1     -11.076   6.233  73.195  1.00  0.00    -0.201 A  
ENDBRANCH  22  31
ENDBRANCH   4  19
ENDBRANCH   2   4
TORSDOF 12
ENDMDL
MODEL      112
REMARK 921   NORMALIZED FREE ENERGY PREDICTED BY IDOCK:   -5.42 KCAL/MOL
REMARK 922        TOTAL FREE ENERGY PREDICTED BY IDOCK:  -10.53 KCAL/MOL
REMARK 923 INTER-LIGAND FREE ENERGY PREDICTED BY IDOCK:   -9.11 KCAL/MOL
REMARK 924 INTRA-LIGAND FREE ENERGY PREDICTED BY IDOCK:   -1.43 KCAL/MOL
REMARK 927      BINDING AFFINITY PREDICTED BY RF-SCORE:    0.00 PKD
ROOT
HETATM    1  C   UNL     1      -8.407   8.518  65.070  1.00  0.00    -0.175 C  
HETATM    2  C   UNL     1      -8.534   8.105  66.537  1.00  0.00    -0.130 C  
HETATM    3  C   UNL     1      -7.499   8.858  67.375  1.00  0.00    -0.085 C  
ENDROOT
BRANCH   2   4
HETATM    4  N   UNL     1      -9.901   8.256  67.093  1.00  0.00    -0.195 NA 
BRANCH   4   5
HETATM    5  C   UNL     1     -10.898   7.173  67.023  1.00  0.00    -0.312 C  
BRANCH   5   6
HETATM    6  C   UNL     1     -11.196   6.551  68.393  1.00  0.00    -0.274 C  
BRANCH   6   7
HETATM    7  C   UNL     1     -10.334   5.317  68.719  1.00  0.00    -0.206 C  
BRANCH   7   8
HETATM    8  C   UNL     1      -9.521   5.421  70.010  1.00  0.00    -0.160 C  
BRANCH   8   9
HETATM    9  O   UNL     1      -9.431   6.789  70.403  1.00  0.00    -0.165 OA 
BRANCH   9  10
HETATM   10  C   UNL     1      -9.389   6.932  71.821  1.00  0.00    -0.145 C  
BRANCH  10  11
HETATM   11  C   UNL     1     -10.747   7.336  72.382  1.00  0.00    -0.246 C  
HETATM   12  O   UNL     1     -11.052   7.132  73.549  1.00  0.00    -0.260 OA 
HETATM   13  N   UNL     1     -11.579   8.012  71.475  1.00  0.00    -0.266 N  
HETATM   14  H   UNL     1     -11.215   8.252  70.553  1.00  0.00     0.000 HD 
BRANCH  13  15
HETATM   15  S   UNL     1     -13.139   8.430  71.863  1.00  0.00    -0.361 S  
HETATM   16  O   UNL     1     -14.026   7.355  71.505  1.00  0.00    -0.410 OA 
HETATM   17  C   UNL     1     -13.410   9.722  70.691  1.00  0.00     0.027 C  
HETATM   18  O   UNL     1     -13.132   9.039  73.169  1.00  0.00    -0.176 OA 
ENDBRANCH  13  15
ENDBRANCH  10  11
ENDBRANCH   9  10
ENDBRANCH   8   9
ENDBRANCH   7   8
ENDBRANCH   6   7
ENDBRANCH   5   6
ENDBRANCH   4   5
BRANCH   4  19
HETATM   19  C   UNL     1     -10.215   9.515  67.616  1.00  0.00    -0.220 A  
HETATM   20  N   UNL     1     -10.596  11.002  69.518  1.00  0.00    -0.186 NA 
HETATM   21  N   UNL     1     -10.484  10.539  66.773  1.00  0.00    -0.247 NA 
HETATM   22  C   UNL     1     -10.890  12.018  68.647  1.00  0.00    -0.237 A  
HETATM   23  C   UNL     1     -10.805  11.787  67.258  1.00  0.00    -0.253 A  
HETATM   24  C   UNL     1     -10.262   9.797  68.976  1.00  0.00    -0.203 A  
BRANCH  23  25
HETATM   25  C   UNL     1     -11.096  12.780  66.186  1.00  0.00    -0.322 A  
HETATM   26  C   UNL     1     -12.401  12.922  65.674  1.00  0.00    -0.482 A  
HETATM   27  C   UNL     1     -10.483  14.775  64.903  1.00  0.00    -0.398 A  
HETATM   28  C   UNL     1     -10.129  13.665  65.676  1.00  0.00    -0.299 A  
HETATM   29  C   UNL     1     -11.794  14.934  64.480  1.00  0.00    -0.404 A  
HETATM   30  C   UNL     1     -12.743  13.975  64.818  1.00  0.00    -0.236 A  
ENDBRANCH  23  25
BRANCH  22  31
HETATM   31  C   UNL     1     -11.330  13.285  69.319  1.00  0.00    -0.311 A  
HETATM   32  C   UNL     1     -12.795  14.451  70.915  1.00  0.00    -0.419 A  
HETATM   33  C   UNL     1     -11.113  15.696  69.745  1.00  0.00    -0.315 A  
HETATM   34  C   UNL     1     -10.786  14.548  69.010  1.00  0.00    -0.258 A  
HETATM   35  C   UNL     1     -12.383  13.281  70.262  1.00  0.00    -0.334 A  
HETATM   36  C   UNL     1     -12.116  15.645  70.703  1.00  0.00    -0.443 A  
ENDBRANCH  22  31
ENDBRANCH   4  19
ENDBRANCH   2   4
TORSDOF 12
ENDMDL
MODEL      113
REMARK 921   NORMALIZED FREE ENERGY PREDICTED BY IDOCK:   -5.40 KCAL/MOL
REMARK 922        TOTAL FREE ENERGY PREDICTED BY IDOCK:  -10.50 KCAL/MOL
REMARK 923 INTER-LIGAND FREE ENERGY PREDICTED BY IDOCK:   -9.00 KCAL/MOL
REMARK 924 INTRA-LIGAND FREE ENERGY PREDICTED BY IDOCK:   -1.50 KCAL/MOL
REMARK 927      BINDING AFFINITY PREDICTED BY RF-SCORE:    0.00 PKD
ROOT
HETATM    1  C   UNL     1      -6.243  10.173  69.492  1.00  0.00    -0.048 C  
HETATM    2  C   UNL     1      -6.644  11.639  69.316  1.00  0.00    -0.111 C  
HETATM    3  C   UNL     1      -5.845  12.511  70.288  1.00  0.00    -0.159 C  
ENDROOT
BRANCH   2   4
HETATM    4  N   UNL     1      -6.534  12.134  67.922  1.00  0.00    -0.069 NA 
BRANCH   4   5
HETATM    5  C   UNL     1      -5.788  11.396  66.887  1.00  0.00    -0.121 C  
BRANCH   5   6
HETATM    6  C   UNL     1      -6.702  10.786  65.817  1.00  0.00    -0.053 C  
BRANCH   6   7
HETATM    7  C   UNL     1      -7.878   9.973  66.390  1.00  0.00    -0.113 C  
BRANCH   7   8
HETATM    8  C   UNL     1      -9.252  10.342  65.829  1.00  0.00    -0.174 C  
BRANCH   8   9
HETATM    9  O   UNL     1     -10.192  10.423  66.899  1.00  0.00    -0.209 OA 
BRANCH   9  10
HETATM   10  C   UNL     1     -10.275   9.199  67.626  1.00  0.00    -0.236 C  
BRANCH  10  11
HETATM   11  C   UNL     1     -10.541   9.447  69.106  1.00  0.00    -0.218 C  
HETATM   12  O   UNL     1      -9.988  10.349  69.721  1.00  0.00    -0.213 OA 
HETATM   13  N   UNL     1     -11.509   8.607  69.677  1.00  0.00    -0.384 N  
HETATM   14  H   UNL     1     -12.015   7.955  69.078  1.00  0.00     0.000 HD 
BRANCH  13  15
HETATM   15  S   UNL     1     -11.854   8.645  71.302  1.00  0.00    -0.301 S  
HETATM   16  O   UNL     1     -10.665   8.991  72.035  1.00  0.00    -0.349 OA 
HETATM   17  C   UNL     1     -12.149   6.930  71.593  1.00  0.00    -0.353 C  
HETATM   18  O   UNL     1     -13.111   9.327  71.481  1.00  0.00    -0.337 OA 
ENDBRANCH  13  15
ENDBRANCH  10  11
ENDBRANCH   9  10
ENDBRANCH   8   9
ENDBRANCH   7   8
ENDBRANCH   6   7
ENDBRANCH   5   6
ENDBRANCH   4   5
BRANCH   4  19
HETATM   19  C   UNL     1      -7.114  13.381  67.666  1.00  0.00    -0.162 A  
HETATM   20  N   UNL     1      -7.014  15.824  67.669  1.00  0.00    -0.152 NA 
HETATM   21  N   UNL     1      -8.374  13.442  67.178  1.00  0.00    -0.172 NA 
HETATM   22  C   UNL     1      -8.300  15.862  67.199  1.00  0.00    -0.202 A  
HETATM   23  C   UNL     1      -8.975  14.655  66.925  1.00  0.00    -0.253 A  
HETATM   24  C   UNL     1      -6.466  14.592  67.876  1.00  0.00    -0.164 A  
BRANCH  23  25
HETATM   25  C   UNL     1     -10.371  14.528  66.418  1.00  0.00    -0.296 A  
HETATM   26  C   UNL     1     -10.691  14.892  65.096  1.00  0.00    -0.429 A  
HETATM   27  C   UNL     1     -12.630  13.598  66.602  1.00  0.00    -0.156 A  
HETATM   28  C   UNL     1     -11.419  13.985  67.183  1.00  0.00    -0.373 A  
HETATM   29  C   UNL     1     -12.886  13.897  65.272  1.00  0.00    -0.437 A  
HETATM   30  C   UNL     1     -11.939  14.598  64.534  1.00  0.00    -0.473 A  
ENDBRANCH  23  25
BRANCH  22  31
HETATM   31  C   UNL     1      -8.859  17.249  67.078  1.00  0.00    -0.243 A  
HETATM   32  C   UNL     1      -8.693  19.543  66.204  1.00  0.00    -0.332 A  
HETATM   33  C   UNL     1     -10.613  18.919  67.498  1.00  0.00    -0.524 A  
HETATM   34  C   UNL     1     -10.036  17.664  67.733  1.00  0.00    -0.338 A  
HETATM   35  C   UNL     1      -8.178  18.247  66.345  1.00  0.00    -0.276 A  
HETATM   36  C   UNL     1      -9.942  19.858  66.727  1.00  0.00    -0.569 A  
ENDBRANCH  22  31
ENDBRANCH   4  19
ENDBRANCH   2   4
TORSDOF 12
ENDMDL
MODEL      114
REMARK 921   NORMALIZED FREE ENERGY PREDICTED BY IDOCK:   -5.40 KCAL/MOL
REMARK 922        TOTAL FREE ENERGY PREDICTED BY IDOCK:  -10.50 KCAL/MOL
REMARK 923 INTER-LIGAND FREE ENERGY PREDICTED BY IDOCK:   -8.44 KCAL/MOL
REMARK 924 INTRA-LIGAND FREE ENERGY PREDICTED BY IDOCK:   -2.06 KCAL/MOL
REMARK 927      BINDING AFFINITY PREDICTED BY RF-SCORE:    0.00 PKD
ROOT
HETATM    1  C   UNL     1      -5.684  10.610  70.396  1.00  0.00    -0.094 C  
HETATM    2  C   UNL     1      -6.183   9.697  69.274  1.00  0.00    -0.040 C  
HETATM    3  C   UNL     1      -5.351   8.412  69.249  1.00  0.00    -0.031 C  
ENDROOT
BRANCH   2   4
HETATM    4  N   UNL     1      -7.636   9.406  69.331  1.00  0.00    -0.078 NA 
BRANCH   4   5
HETATM    5  C   UNL     1      -8.175   8.259  70.083  1.00  0.00    -0.118 C  
BRANCH   5   6
HETATM    6  C   UNL     1      -8.504   8.606  71.541  1.00  0.00    -0.238 C  
BRANCH   6   7
HETATM    7  C   UNL     1     -10.004   8.824  71.809  1.00  0.00    -0.396 C  
BRANCH   7   8
HETATM    8  C   UNL     1     -10.703   7.678  72.540  1.00  0.00    -0.296 C  
BRANCH   8   9
HETATM    9  O   UNL     1     -11.601   7.025  71.645  1.00  0.00    -0.260 OA 
BRANCH   9  10
HETATM   10  C   UNL     1     -11.123   5.738  71.259  1.00  0.00    -0.197 C  
BRANCH  10  11
HETATM   11  C   UNL     1     -10.772   5.696  69.776  1.00  0.00    -0.331 C  
HETATM   12  O   UNL     1     -11.494   6.199  68.926  1.00  0.00    -0.305 OA 
HETATM   13  N   UNL     1      -9.536   5.100  69.483  1.00  0.00    -0.135 N  
HETATM   14  H   UNL     1      -8.932   4.808  70.251  1.00  0.00     0.000 HD 
BRANCH  13  15
HETATM   15  S   UNL     1      -9.030   4.856  67.919  1.00  0.00    -0.113 S  
HETATM   16  O   UNL     1      -9.957   3.984  67.247  1.00  0.00    -0.149 OA 
HETATM   17  C   UNL     1      -7.568   3.913  68.213  1.00  0.00    -0.066 C  
HETATM   18  O   UNL     1      -8.613   6.125  67.377  1.00  0.00    -0.108 OA 
ENDBRANCH  13  15
ENDBRANCH  10  11
ENDBRANCH   9  10
ENDBRANCH   8   9
ENDBRANCH   7   8
ENDBRANCH   6   7
ENDBRANCH   5   6
ENDBRANCH   4   5
BRANCH   4  19
HETATM   19  C   UNL     1      -8.458  10.238  68.564  1.00  0.00    -0.121 A  
HETATM   20  N   UNL     1      -9.059  11.268  66.430  1.00  0.00    -0.186 NA 
HETATM   21  N   UNL     1      -9.484  10.891  69.157  1.00  0.00    -0.142 NA 
HETATM   22  C   UNL     1     -10.075  11.939  67.056  1.00  0.00    -0.205 A  
HETATM   23  C   UNL     1     -10.306  11.724  68.431  1.00  0.00    -0.214 A  
HETATM   24  C   UNL     1      -8.296  10.440  67.199  1.00  0.00    -0.126 A  
BRANCH  23  25
HETATM   25  C   UNL     1     -11.361  12.378  69.255  1.00  0.00    -0.315 A  
HETATM   26  C   UNL     1     -12.016  11.666  70.280  1.00  0.00    -0.445 A  
HETATM   27  C   UNL     1     -12.477  14.396  70.081  1.00  0.00    -0.395 A  
HETATM   28  C   UNL     1     -11.717  13.731  69.115  1.00  0.00    -0.379 A  
HETATM   29  C   UNL     1     -13.043  13.683  71.127  1.00  0.00    -0.306 A  
HETATM   30  C   UNL     1     -12.860  12.306  71.194  1.00  0.00    -0.302 A  
ENDBRANCH  23  25
BRANCH  22  31
HETATM   31  C   UNL     1     -10.812  12.893  66.163  1.00  0.00    -0.300 A  
HETATM   32  C   UNL     1     -10.923  15.046  64.977  1.00  0.00    -0.436 A  
HETATM   33  C   UNL     1     -12.722  13.478  64.730  1.00  0.00    -0.284 A  
HETATM   34  C   UNL     1     -12.109  12.639  65.670  1.00  0.00    -0.502 A  
HETATM   35  C   UNL     1     -10.260  14.148  65.825  1.00  0.00    -0.347 A  
HETATM   36  C   UNL     1     -12.124  14.682  64.379  1.00  0.00    -0.481 A  
ENDBRANCH  22  31
ENDBRANCH   4  19
ENDBRANCH   2   4
TORSDOF 12
ENDMDL
MODEL      115
REMARK 921   NORMALIZED FREE ENERGY PREDICTED BY IDOCK:   -5.40 KCAL/MOL
REMARK 922        TOTAL FREE ENERGY PREDICTED BY IDOCK:  -10.50 KCAL/MOL
REMARK 923 INTER-LIGAND FREE ENERGY PREDICTED BY IDOCK:   -9.01 KCAL/MOL
REMARK 924 INTRA-LIGAND FREE ENERGY PREDICTED BY IDOCK:   -1.49 KCAL/MOL
REMARK 927      BINDING AFFINITY PREDICTED BY RF-SCORE:    0.00 PKD
ROOT
HETATM    1  C   UNL     1     -11.441   6.442  68.973  1.00  0.00    -0.203 C  
HETATM    2  C   UNL     1     -10.227   6.175  68.081  1.00  0.00    -0.175 C  
HETATM    3  C   UNL     1     -10.696   5.816  66.669  1.00  0.00    -0.333 C  
ENDROOT
BRANCH   2   4
HETATM    4  N   UNL     1      -9.234   7.275  68.064  1.00  0.00    -0.132 NA 
BRANCH   4   5
HETATM    5  C   UNL     1      -7.872   7.109  68.603  1.00  0.00    -0.122 C  
BRANCH   5   6
HETATM    6  C   UNL     1      -7.848   7.004  70.133  1.00  0.00    -0.109 C  
BRANCH   6   7
HETATM    7  C   UNL     1      -7.531   8.332  70.845  1.00  0.00    -0.064 C  
BRANCH   7   8
HETATM    8  C   UNL     1      -8.459   8.678  72.010  1.00  0.00    -0.122 C  
BRANCH   8   9
HETATM    9  O   UNL     1      -9.804   8.367  71.651  1.00  0.00    -0.181 OA 
BRANCH   9  10
HETATM   10  C   UNL     1     -10.554   7.891  72.766  1.00  0.00    -0.353 C  
BRANCH  10  11
HETATM   11  C   UNL     1     -10.904   6.415  72.614  1.00  0.00    -0.240 C  
HETATM   12  O   UNL     1     -12.030   6.046  72.308  1.00  0.00    -0.318 OA 
HETATM   13  N   UNL     1      -9.825   5.535  72.786  1.00  0.00    -0.163 N  
HETATM   14  H   UNL     1      -8.890   5.918  72.923  1.00  0.00     0.000 HD 
BRANCH  13  15
HETATM   15  S   UNL     1     -10.030   3.886  72.773  1.00  0.00    -0.157 S  
HETATM   16  O   UNL     1     -11.066   3.525  73.704  1.00  0.00    -0.226 OA 
HETATM   17  C   UNL     1      -8.500   3.382  73.496  1.00  0.00    -0.075 C  
HETATM   18  O   UNL     1     -10.016   3.440  71.403  1.00  0.00    -0.169 OA 
ENDBRANCH  13  15
ENDBRANCH  10  11
ENDBRANCH   9  10
ENDBRANCH   8   9
ENDBRANCH   7   8
ENDBRANCH   6   7
ENDBRANCH   5   6
ENDBRANCH   4   5
BRANCH   4  19
HETATM   19  C   UNL     1      -9.690   8.506  67.579  1.00  0.00    -0.162 A  
HETATM   20  N   UNL     1     -10.026  10.086  65.744  1.00  0.00    -0.275 NA 
HETATM   21  N   UNL     1     -10.241   9.397  68.435  1.00  0.00    -0.190 NA 
HETATM   22  C   UNL     1     -10.557  10.983  66.633  1.00  0.00    -0.262 A  
HETATM   23  C   UNL     1     -10.691  10.619  67.989  1.00  0.00    -0.233 A  
HETATM   24  C   UNL     1      -9.621   8.884  66.243  1.00  0.00    -0.260 A  
BRANCH  23  25
HETATM   25  C   UNL     1     -11.242  11.478  69.076  1.00  0.00    -0.324 A  
HETATM   26  C   UNL     1     -11.197  12.882  68.974  1.00  0.00    -0.320 A  
HETATM   27  C   UNL     1     -12.653  11.767  71.057  1.00  0.00    -0.409 A  
HETATM   28  C   UNL     1     -11.888  10.958  70.212  1.00  0.00    -0.450 A  
HETATM   29  C   UNL     1     -12.656  13.142  70.883  1.00  0.00    -0.377 A  
HETATM   30  C   UNL     1     -11.880  13.706  69.876  1.00  0.00    -0.389 A  
ENDBRANCH  23  25
BRANCH  22  31
HETATM   31  C   UNL     1     -10.899  12.310  66.023  1.00  0.00    -0.310 A  
HETATM   32  C   UNL     1     -12.534  13.803  64.949  1.00  0.00    -0.420 A  
HETATM   33  C   UNL     1     -10.328  14.623  65.415  1.00  0.00    -0.406 A  
HETATM   34  C   UNL     1      -9.957  13.347  65.860  1.00  0.00    -0.287 A  
HETATM   35  C   UNL     1     -12.189  12.563  65.506  1.00  0.00    -0.442 A  
HETATM   36  C   UNL     1     -11.621  14.852  64.964  1.00  0.00    -0.357 A  
ENDBRANCH  22  31
ENDBRANCH   4  19
ENDBRANCH   2   4
TORSDOF 12
ENDMDL
MODEL      116
REMARK 921   NORMALIZED FREE ENERGY PREDICTED BY IDOCK:   -5.39 KCAL/MOL
REMARK 922        TOTAL FREE ENERGY PREDICTED BY IDOCK:  -10.49 KCAL/MOL
REMARK 923 INTER-LIGAND FREE ENERGY PREDICTED BY IDOCK:   -8.90 KCAL/MOL
REMARK 924 INTRA-LIGAND FREE ENERGY PREDICTED BY IDOCK:   -1.58 KCAL/MOL
REMARK 927      BINDING AFFINITY PREDICTED BY RF-SCORE:    0.00 PKD
ROOT
HETATM    1  C   UNL     1     -11.096   6.117  66.954  1.00  0.00    -0.301 C  
HETATM    2  C   UNL     1      -9.639   6.117  67.420  1.00  0.00    -0.115 C  
HETATM    3  C   UNL     1      -8.722   5.779  66.243  1.00  0.00    -0.134 C  
ENDROOT
BRANCH   2   4
HETATM    4  N   UNL     1      -9.220   7.368  68.097  1.00  0.00    -0.134 NA 
BRANCH   4   5
HETATM    5  C   UNL     1      -8.391   7.359  69.315  1.00  0.00    -0.132 C  
BRANCH   5   6
HETATM    6  C   UNL     1      -9.212   7.566  70.594  1.00  0.00    -0.159 C  
BRANCH   6   7
HETATM    7  C   UNL     1      -8.496   8.405  71.668  1.00  0.00    -0.213 C  
BRANCH   7   8
HETATM    8  C   UNL     1      -7.209   9.087  71.203  1.00  0.00    -0.097 C  
BRANCH   8   9
HETATM    9  O   UNL     1      -7.534  10.309  70.544  1.00  0.00    -0.250 OA 
BRANCH   9  10
HETATM   10  C   UNL     1      -6.593  10.625  69.520  1.00  0.00    -0.091 C  
BRANCH  10  11
HETATM   11  C   UNL     1      -7.063  11.803  68.675  1.00  0.00    -0.101 C  
HETATM   12  O   UNL     1      -7.539  11.648  67.558  1.00  0.00    -0.112 OA 
HETATM   13  N   UNL     1      -6.966  13.054  69.304  1.00  0.00    -0.292 N  
HETATM   14  H   UNL     1      -6.669  13.096  70.279  1.00  0.00     0.000 HD 
BRANCH  13  15
HETATM   15  S   UNL     1      -7.320  14.467  68.505  1.00  0.00    -0.132 S  
HETATM   16  O   UNL     1      -6.488  14.576  67.336  1.00  0.00    -0.309 OA 
HETATM   17  C   UNL     1      -6.712  15.640  69.674  1.00  0.00    -0.178 C  
HETATM   18  O   UNL     1      -8.754  14.615  68.464  1.00  0.00    -0.166 OA 
ENDBRANCH  13  15
ENDBRANCH  10  11
ENDBRANCH   9  10
ENDBRANCH   8   9
ENDBRANCH   7   8
ENDBRANCH   6   7
ENDBRANCH   5   6
ENDBRANCH   4   5
BRANCH   4  19
HETATM   19  C   UNL     1      -9.724   8.556  67.557  1.00  0.00    -0.162 A  
HETATM   20  N   UNL     1     -10.031  10.085  65.674  1.00  0.00    -0.288 NA 
HETATM   21  N   UNL     1     -10.402   9.415  68.352  1.00  0.00    -0.198 NA 
HETATM   22  C   UNL     1     -10.691  10.951  66.503  1.00  0.00    -0.209 A  
HETATM   23  C   UNL     1     -10.902  10.597  67.852  1.00  0.00    -0.277 A  
HETATM   24  C   UNL     1      -9.581   8.921  66.224  1.00  0.00    -0.260 A  
BRANCH  23  25
HETATM   25  C   UNL     1     -11.594  11.427  68.878  1.00  0.00    -0.388 A  
HETATM   26  C   UNL     1     -12.211  10.825  69.992  1.00  0.00    -0.409 A  
HETATM   27  C   UNL     1     -12.001  13.592  69.949  1.00  0.00    -0.416 A  
HETATM   28  C   UNL     1     -11.618  12.833  68.840  1.00  0.00    -0.362 A  
HETATM   29  C   UNL     1     -12.530  12.965  71.068  1.00  0.00    -0.374 A  
HETATM   30  C   UNL     1     -12.689  11.584  71.067  1.00  0.00    -0.426 A  
ENDBRANCH  23  25
BRANCH  22  31
HETATM   31  C   UNL     1     -11.079  12.243  65.846  1.00  0.00    -0.360 A  
HETATM   32  C   UNL     1     -12.795  13.685  64.830  1.00  0.00    -0.256 A  
HETATM   33  C   UNL     1     -10.553  14.508  65.049  1.00  0.00    -0.458 A  
HETATM   34  C   UNL     1     -10.150  13.258  65.538  1.00  0.00    -0.274 A  
HETATM   35  C   UNL     1     -12.409  12.478  65.429  1.00  0.00    -0.426 A  
HETATM   36  C   UNL     1     -11.880  14.723  64.701  1.00  0.00    -0.442 A  
ENDBRANCH  22  31
ENDBRANCH   4  19
ENDBRANCH   2   4
TORSDOF 12
ENDMDL
MODEL      117
REMARK 921   NORMALIZED FREE ENERGY PREDICTED BY IDOCK:   -5.38 KCAL/MOL
REMARK 922        TOTAL FREE ENERGY PREDICTED BY IDOCK:  -10.48 KCAL/MOL
REMARK 923 INTER-LIGAND FREE ENERGY PREDICTED BY IDOCK:   -8.74 KCAL/MOL
REMARK 924 INTRA-LIGAND FREE ENERGY PREDICTED BY IDOCK:   -1.74 KCAL/MOL
REMARK 927      BINDING AFFINITY PREDICTED BY RF-SCORE:    0.00 PKD
ROOT
HETATM    1  C   UNL     1      -5.370   9.379  68.012  1.00  0.00    -0.037 C  
HETATM    2  C   UNL     1      -6.292  10.469  67.463  1.00  0.00    -0.057 C  
HETATM    3  C   UNL     1      -7.290   9.852  66.480  1.00  0.00    -0.099 C  
ENDROOT
BRANCH   2   4
HETATM    4  N   UNL     1      -6.978  11.266  68.509  1.00  0.00    -0.073 NA 
BRANCH   4   5
HETATM    5  C   UNL     1      -6.442  12.551  68.990  1.00  0.00    -0.097 C  
BRANCH   5   6
HETATM    6  C   UNL     1      -6.286  13.587  67.870  1.00  0.00    -0.155 C  
BRANCH   6   7
HETATM    7  C   UNL     1      -7.446  14.597  67.787  1.00  0.00    -0.180 C  
BRANCH   7   8
HETATM    8  C   UNL     1      -8.647  14.135  66.962  1.00  0.00    -0.184 C  
BRANCH   8   9
HETATM    9  O   UNL     1      -9.846  14.628  67.556  1.00  0.00    -0.217 OA 
BRANCH   9  10
HETATM   10  C   UNL     1      -9.731  14.733  68.974  1.00  0.00    -0.190 C  
BRANCH  10  11
HETATM   11  C   UNL     1     -10.994  15.319  69.594  1.00  0.00    -0.284 C  
HETATM   12  O   UNL     1     -11.602  16.243  69.072  1.00  0.00    -0.323 OA 
HETATM   13  N   UNL     1     -11.428  14.674  70.763  1.00  0.00    -0.463 N  
HETATM   14  H   UNL     1     -10.938  13.836  71.078  1.00  0.00     0.000 HD 
BRANCH  13  15
HETATM   15  S   UNL     1     -12.717  15.237  71.647  1.00  0.00    -0.423 S  
HETATM   16  O   UNL     1     -12.240  16.129  72.671  1.00  0.00    -0.473 OA 
HETATM   17  C   UNL     1     -13.206  13.748  72.459  1.00  0.00    -0.498 C  
HETATM   18  O   UNL     1     -13.774  15.587  70.732  1.00  0.00    -0.475 OA 
ENDBRANCH  13  15
ENDBRANCH  10  11
ENDBRANCH   9  10
ENDBRANCH   8   9
ENDBRANCH   7   8
ENDBRANCH   6   7
ENDBRANCH   5   6
ENDBRANCH   4   5
BRANCH   4  19
HETATM   19  C   UNL     1      -8.122  10.687  69.069  1.00  0.00    -0.148 A  
HETATM   20  N   UNL     1     -10.553  10.486  69.232  1.00  0.00    -0.222 NA 
HETATM   21  N   UNL     1      -7.989   9.754  70.040  1.00  0.00    -0.171 NA 
HETATM   22  C   UNL     1     -10.395   9.562  70.230  1.00  0.00    -0.269 A  
HETATM   23  C   UNL     1      -9.096   9.172  70.617  1.00  0.00    -0.257 A  
HETATM   24  C   UNL     1      -9.418  11.007  68.684  1.00  0.00    -0.195 A  
BRANCH  23  25
HETATM   25  C   UNL     1      -8.758   8.189  71.684  1.00  0.00    -0.188 A  
HETATM   26  C   UNL     1      -8.750   8.573  73.039  1.00  0.00    -0.122 A  
HETATM   27  C   UNL     1      -8.483   5.876  72.443  1.00  0.00    -0.117 A  
HETATM   28  C   UNL     1      -8.498   6.831  71.423  1.00  0.00    -0.120 A  
HETATM   29  C   UNL     1      -8.559   6.277  73.768  1.00  0.00    -0.126 A  
HETATM   30  C   UNL     1      -8.634   7.633  74.069  1.00  0.00    -0.297 A  
ENDBRANCH  23  25
BRANCH  22  31
HETATM   31  C   UNL     1     -11.687   9.101  70.839  1.00  0.00    -0.341 A  
HETATM   32  C   UNL     1     -13.278   7.293  71.343  1.00  0.00    -0.404 A  
HETATM   33  C   UNL     1     -13.740   9.513  72.127  1.00  0.00    -0.447 A  
HETATM   34  C   UNL     1     -12.607   9.980  71.446  1.00  0.00    -0.518 A  
HETATM   35  C   UNL     1     -12.084   7.747  70.765  1.00  0.00    -0.120 A  
HETATM   36  C   UNL     1     -14.072   8.165  72.080  1.00  0.00    -0.446 A  
ENDBRANCH  22  31
ENDBRANCH   4  19
ENDBRANCH   2   4
TORSDOF 12
ENDMDL
MODEL      118
REMARK 921   NORMALIZED FREE ENERGY PREDICTED BY IDOCK:   -5.37 KCAL/MOL
REMARK 922        TOTAL FREE ENERGY PREDICTED BY IDOCK:  -10.46 KCAL/MOL
REMARK 923 INTER-LIGAND FREE ENERGY PREDICTED BY IDOCK:   -9.03 KCAL/MOL
REMARK 924 INTRA-LIGAND FREE ENERGY PREDICTED BY IDOCK:   -1.43 KCAL/MOL
REMARK 927      BINDING AFFINITY PREDICTED BY RF-SCORE:    0.00 PKD
ROOT
HETATM    1  C   UNL     1      -8.212  10.851  65.787  1.00  0.00    -0.113 C  
HETATM    2  C   UNL     1      -9.681  10.719  66.193  1.00  0.00    -0.207 C  
HETATM    3  C   UNL     1     -10.112   9.254  66.093  1.00  0.00    -0.304 C  
ENDROOT
BRANCH   2   4
HETATM    4  N   UNL     1      -9.995  11.292  67.524  1.00  0.00    -0.180 NA 
BRANCH   4   5
HETATM    5  C   UNL     1     -10.370  10.446  68.671  1.00  0.00    -0.184 C  
BRANCH   5   6
HETATM    6  C   UNL     1      -9.320  10.462  69.789  1.00  0.00    -0.019 C  
BRANCH   6   7
HETATM    7  C   UNL     1      -7.961   9.868  69.378  1.00  0.00    -0.135 C  
BRANCH   7   8
HETATM    8  C   UNL     1      -6.996   9.603  70.534  1.00  0.00    -0.130 C  
BRANCH   8   9
HETATM    9  O   UNL     1      -7.166   8.263  70.994  1.00  0.00    -0.053 OA 
BRANCH   9  10
HETATM   10  C   UNL     1      -7.518   8.217  72.375  1.00  0.00    -0.116 C  
BRANCH  10  11
HETATM   11  C   UNL     1      -8.968   7.789  72.567  1.00  0.00    -0.159 C  
HETATM   12  O   UNL     1      -9.532   7.883  73.649  1.00  0.00    -0.286 OA 
HETATM   13  N   UNL     1      -9.609   7.348  71.399  1.00  0.00    -0.160 N  
HETATM   14  H   UNL     1      -9.115   7.407  70.510  1.00  0.00     0.000 HD 
BRANCH  13  15
HETATM   15  S   UNL     1     -11.153   6.732  71.427  1.00  0.00    -0.266 S  
HETATM   16  O   UNL     1     -11.149   5.465  72.108  1.00  0.00    -0.231 OA 
HETATM   17  C   UNL     1     -11.375   6.386  69.711  1.00  0.00    -0.427 C  
HETATM   18  O   UNL     1     -12.059   7.801  71.764  1.00  0.00    -0.278 OA 
ENDBRANCH  13  15
ENDBRANCH  10  11
ENDBRANCH   9  10
ENDBRANCH   8   9
ENDBRANCH   7   8
ENDBRANCH   6   7
ENDBRANCH   5   6
ENDBRANCH   4   5
BRANCH   4  19
HETATM   19  C   UNL     1      -9.992  12.688  67.607  1.00  0.00    -0.216 A  
HETATM   20  N   UNL     1      -9.230  14.873  66.819  1.00  0.00    -0.244 NA 
HETATM   21  N   UNL     1     -10.722  13.300  68.569  1.00  0.00    -0.257 NA 
HETATM   22  C   UNL     1      -9.956  15.470  67.815  1.00  0.00    -0.222 A  
HETATM   23  C   UNL     1     -10.732  14.673  68.682  1.00  0.00    -0.250 A  
HETATM   24  C   UNL     1      -9.281  13.513  66.745  1.00  0.00    -0.240 A  
BRANCH  23  25
HETATM   25  C   UNL     1     -11.568  15.166  69.813  1.00  0.00    -0.338 A  
HETATM   26  C   UNL     1     -12.930  14.819  69.904  1.00  0.00     0.122 A  
HETATM   27  C   UNL     1     -11.766  16.125  72.058  1.00  0.00    -0.574 A  
HETATM   28  C   UNL     1     -11.051  15.932  70.873  1.00  0.00    -0.317 A  
HETATM   29  C   UNL     1     -13.082  15.700  72.149  1.00  0.00    -0.540 A  
HETATM   30  C   UNL     1     -13.684  15.097  71.049  1.00  0.00    -0.450 A  
ENDBRANCH  23  25
BRANCH  22  31
HETATM   31  C   UNL     1      -9.781  16.958  67.884  1.00  0.00    -0.254 A  
HETATM   32  C   UNL     1     -10.638  19.225  67.455  1.00  0.00    -0.581 A  
HETATM   33  C   UNL     1      -8.522  18.961  68.553  1.00  0.00    -0.384 A  
HETATM   34  C   UNL     1      -8.610  17.574  68.372  1.00  0.00    -0.275 A  
HETATM   35  C   UNL     1     -10.774  17.831  67.384  1.00  0.00    -0.287 A  
HETATM   36  C   UNL     1      -9.542  19.787  68.099  1.00  0.00    -0.483 A  
ENDBRANCH  22  31
ENDBRANCH   4  19
ENDBRANCH   2   4
TORSDOF 12
ENDMDL
MODEL      119
REMARK 921   NORMALIZED FREE ENERGY PREDICTED BY IDOCK:   -5.35 KCAL/MOL
REMARK 922        TOTAL FREE ENERGY PREDICTED BY IDOCK:  -10.43 KCAL/MOL
REMARK 923 INTER-LIGAND FREE ENERGY PREDICTED BY IDOCK:   -8.58 KCAL/MOL
REMARK 924 INTRA-LIGAND FREE ENERGY PREDICTED BY IDOCK:   -1.85 KCAL/MOL
REMARK 927      BINDING AFFINITY PREDICTED BY RF-SCORE:    0.00 PKD
ROOT
HETATM    1  C   UNL     1      -5.943  10.172  70.621  1.00  0.00    -0.104 C  
HETATM    2  C   UNL     1      -6.504   9.083  69.704  1.00  0.00    -0.042 C  
HETATM    3  C   UNL     1      -5.763   7.768  69.953  1.00  0.00    -0.023 C  
ENDROOT
BRANCH   2   4
HETATM    4  N   UNL     1      -7.974   8.909  69.800  1.00  0.00    -0.095 NA 
BRANCH   4   5
HETATM    5  C   UNL     1      -8.592   8.016  70.795  1.00  0.00    -0.129 C  
BRANCH   5   6
HETATM    6  C   UNL     1      -9.365   8.778  71.879  1.00  0.00    -0.343 C  
BRANCH   6   7
HETATM    7  C   UNL     1     -10.895   8.715  71.718  1.00  0.00    -0.395 C  
BRANCH   7   8
HETATM    8  C   UNL     1     -11.612   7.809  72.720  1.00  0.00    -0.314 C  
BRANCH   8   9
HETATM    9  O   UNL     1     -11.937   6.572  72.090  1.00  0.00    -0.316 OA 
BRANCH   9  10
HETATM   10  C   UNL     1     -11.419   5.457  72.813  1.00  0.00    -0.268 C  
BRANCH  10  11
HETATM   11  C   UNL     1     -10.279   4.783  72.058  1.00  0.00    -0.195 C  
HETATM   12  O   UNL     1      -9.416   4.134  72.635  1.00  0.00    -0.122 OA 
HETATM   13  N   UNL     1     -10.340   4.916  70.663  1.00  0.00    -0.205 N  
HETATM   14  H   UNL     1     -11.150   5.370  70.243  1.00  0.00     0.000 HD 
BRANCH  13  15
HETATM   15  S   UNL     1      -9.128   4.351  69.676  1.00  0.00    -0.128 S  
HETATM   16  O   UNL     1      -7.863   4.865  70.130  1.00  0.00    -0.064 OA 
HETATM   17  C   UNL     1      -9.520   5.213  68.186  1.00  0.00    -0.127 C  
HETATM   18  O   UNL     1      -9.362   2.951  69.428  1.00  0.00    -0.135 OA 
ENDBRANCH  13  15
ENDBRANCH  10  11
ENDBRANCH   9  10
ENDBRANCH   8   9
ENDBRANCH   7   8
ENDBRANCH   6   7
ENDBRANCH   5   6
ENDBRANCH   4   5
BRANCH   4  19
HETATM   19  C   UNL     1      -8.736   9.582  68.838  1.00  0.00    -0.133 A  
HETATM   20  N   UNL     1      -9.743   9.705  66.614  1.00  0.00    -0.194 NA 
HETATM   21  N   UNL     1      -9.231  10.809  69.121  1.00  0.00    -0.159 NA 
HETATM   22  C   UNL     1     -10.214  10.956  66.912  1.00  0.00    -0.228 A  
HETATM   23  C   UNL     1      -9.977  11.501  68.192  1.00  0.00    -0.192 A  
HETATM   24  C   UNL     1      -9.033   9.062  67.585  1.00  0.00    -0.123 A  
BRANCH  23  25
HETATM   25  C   UNL     1     -10.415  12.843  68.667  1.00  0.00    -0.231 A  
HETATM   26  C   UNL     1      -9.721  14.005  68.276  1.00  0.00    -0.225 A  
HETATM   27  C   UNL     1     -12.118  14.310  69.641  1.00  0.00    -0.396 A  
HETATM   28  C   UNL     1     -11.559  13.041  69.461  1.00  0.00    -0.342 A  
HETATM   29  C   UNL     1     -11.453  15.432  69.172  1.00  0.00    -0.344 A  
HETATM   30  C   UNL     1     -10.223  15.285  68.540  1.00  0.00    -0.224 A  
ENDBRANCH  23  25
BRANCH  22  31
HETATM   31  C   UNL     1     -10.910  11.630  65.767  1.00  0.00    -0.334 A  
HETATM   32  C   UNL     1     -11.181  11.975  63.346  1.00  0.00    -0.481 A  
HETATM   33  C   UNL     1     -12.647  13.116  64.863  1.00  0.00    -0.468 A  
HETATM   34  C   UNL     1     -11.917  12.601  65.943  1.00  0.00    -0.497 A  
HETATM   35  C   UNL     1     -10.531  11.371  64.431  1.00  0.00    -0.388 A  
HETATM   36  C   UNL     1     -12.281  12.797  63.562  1.00  0.00    -0.613 A  
ENDBRANCH  22  31
ENDBRANCH   4  19
ENDBRANCH   2   4
TORSDOF 12
ENDMDL
MODEL      120
REMARK 921   NORMALIZED FREE ENERGY PREDICTED BY IDOCK:   -5.34 KCAL/MOL
REMARK 922        TOTAL FREE ENERGY PREDICTED BY IDOCK:  -10.41 KCAL/MOL
REMARK 923 INTER-LIGAND FREE ENERGY PREDICTED BY IDOCK:   -9.22 KCAL/MOL
REMARK 924 INTRA-LIGAND FREE ENERGY PREDICTED BY IDOCK:   -1.19 KCAL/MOL
REMARK 927      BINDING AFFINITY PREDICTED BY RF-SCORE:    0.00 PKD
ROOT
HETATM    1  C   UNL     1     -11.691  12.045  64.309  1.00  0.00    -0.425 C  
HETATM    2  C   UNL     1     -11.540  13.370  65.059  1.00  0.00    -0.317 C  
HETATM    3  C   UNL     1     -12.909  13.837  65.558  1.00  0.00    -0.464 C  
ENDROOT
BRANCH   2   4
HETATM    4  N   UNL     1     -10.541  13.336  66.154  1.00  0.00    -0.284 NA 
BRANCH   4   5
HETATM    5  C   UNL     1      -9.233  14.005  66.041  1.00  0.00     0.059 C  
BRANCH   5   6
HETATM    6  C   UNL     1      -8.575  14.258  67.403  1.00  0.00    -0.223 C  
BRANCH   6   7
HETATM    7  C   UNL     1      -7.350  13.368  67.681  1.00  0.00    -0.173 C  
BRANCH   7   8
HETATM    8  C   UNL     1      -7.277  12.090  66.844  1.00  0.00    -0.040 C  
BRANCH   8   9
HETATM    9  O   UNL     1      -6.676  11.053  67.617  1.00  0.00    -0.069 OA 
BRANCH   9  10
HETATM   10  C   UNL     1      -7.471  10.708  68.750  1.00  0.00    -0.104 C  
BRANCH  10  11
HETATM   11  C   UNL     1      -7.506   9.199  68.968  1.00  0.00    -0.074 C  
HETATM   12  O   UNL     1      -7.253   8.410  68.068  1.00  0.00    -0.087 OA 
HETATM   13  N   UNL     1      -7.782   8.803  70.286  1.00  0.00    -0.077 N  
HETATM   14  H   UNL     1      -7.866   9.515  71.010  1.00  0.00     0.000 HD 
BRANCH  13  15
HETATM   15  S   UNL     1      -7.977   7.205  70.697  1.00  0.00    -0.101 S  
HETATM   16  O   UNL     1      -9.225   6.723  70.167  1.00  0.00    -0.155 OA 
HETATM   17  C   UNL     1      -8.192   7.362  72.442  1.00  0.00    -0.101 C  
HETATM   18  O   UNL     1      -6.722   6.528  70.485  1.00  0.00    -0.053 OA 
ENDBRANCH  13  15
ENDBRANCH  10  11
ENDBRANCH   9  10
ENDBRANCH   8   9
ENDBRANCH   7   8
ENDBRANCH   6   7
ENDBRANCH   5   6
ENDBRANCH   4   5
BRANCH   4  19
HETATM   19  C   UNL     1     -10.882  12.566  67.271  1.00  0.00    -0.245 A  
HETATM   20  N   UNL     1     -11.078  10.404  68.395  1.00  0.00    -0.266 NA 
HETATM   21  N   UNL     1     -11.388  13.172  68.370  1.00  0.00    -0.268 NA 
HETATM   22  C   UNL     1     -11.612  11.036  69.487  1.00  0.00    -0.313 A  
HETATM   23  C   UNL     1     -11.741  12.440  69.481  1.00  0.00    -0.322 A  
HETATM   24  C   UNL     1     -10.726  11.187  67.336  1.00  0.00    -0.250 A  
BRANCH  23  25
HETATM   25  C   UNL     1     -12.304  13.272  70.582  1.00  0.00    -0.416 A  
HETATM   26  C   UNL     1     -12.130  14.670  70.587  1.00  0.00    -0.385 A  
HETATM   27  C   UNL     1     -13.846  13.558  72.464  1.00  0.00    -0.624 A  
HETATM   28  C   UNL     1     -13.085  12.740  71.624  1.00  0.00    -0.428 A  
HETATM   29  C   UNL     1     -13.715  14.937  72.391  1.00  0.00    -0.576 A  
HETATM   30  C   UNL     1     -12.813  15.492  71.491  1.00  0.00    -0.519 A  
ENDBRANCH  23  25
BRANCH  22  31
HETATM   31  C   UNL     1     -12.052  10.100  70.573  1.00  0.00    -0.380 A  
HETATM   32  C   UNL     1     -13.838   8.849  71.713  1.00  0.00    -0.465 A  
HETATM   33  C   UNL     1     -11.575   8.611  72.471  1.00  0.00    -0.310 A  
HETATM   34  C   UNL     1     -11.173   9.588  71.550  1.00  0.00    -0.437 A  
HETATM   35  C   UNL     1     -13.410   9.737  70.716  1.00  0.00    -0.135 A  
HETATM   36  C   UNL     1     -12.910   8.237  72.548  1.00  0.00    -0.191 A  
ENDBRANCH  22  31
ENDBRANCH   4  19
ENDBRANCH   2   4
TORSDOF 12
ENDMDL
MODEL      121
REMARK 921   NORMALIZED FREE ENERGY PREDICTED BY IDOCK:   -5.34 KCAL/MOL
REMARK 922        TOTAL FREE ENERGY PREDICTED BY IDOCK:  -10.41 KCAL/MOL
REMARK 923 INTER-LIGAND FREE ENERGY PREDICTED BY IDOCK:   -9.02 KCAL/MOL
REMARK 924 INTRA-LIGAND FREE ENERGY PREDICTED BY IDOCK:   -1.39 KCAL/MOL
REMARK 927      BINDING AFFINITY PREDICTED BY RF-SCORE:    0.00 PKD
ROOT
HETATM    1  C   UNL     1     -12.792  11.276  71.693  1.00  0.00    -0.510 C  
HETATM    2  C   UNL     1     -12.398   9.815  71.923  1.00  0.00    -0.335 C  
HETATM    3  C   UNL     1     -13.545   8.899  71.489  1.00  0.00    -0.384 C  
ENDROOT
BRANCH   2   4
HETATM    4  N   UNL     1     -11.117   9.426  71.285  1.00  0.00    -0.348 NA 
BRANCH   4   5
HETATM    5  C   UNL     1     -10.038   8.763  72.039  1.00  0.00    -0.327 C  
BRANCH   5   6
HETATM    6  C   UNL     1     -10.564   7.726  73.040  1.00  0.00    -0.441 C  
BRANCH   6   7
HETATM    7  C   UNL     1     -10.577   6.285  72.498  1.00  0.00    -0.239 C  
BRANCH   7   8
HETATM    8  C   UNL     1     -11.295   6.105  71.160  1.00  0.00    -0.275 C  
BRANCH   8   9
HETATM    9  O   UNL     1     -10.536   5.226  70.332  1.00  0.00    -0.271 OA 
BRANCH   9  10
HETATM   10  C   UNL     1      -9.197   5.686  70.158  1.00  0.00    -0.142 C  
BRANCH  10  11
HETATM   11  C   UNL     1      -8.849   5.846  68.682  1.00  0.00    -0.111 C  
HETATM   12  O   UNL     1      -7.915   6.542  68.310  1.00  0.00    -0.107 OA 
HETATM   13  N   UNL     1      -9.640   5.085  67.807  1.00  0.00    -0.139 N  
HETATM   14  H   UNL     1     -10.324   4.436  68.195  1.00  0.00     0.000 HD 
BRANCH  13  15
HETATM   15  S   UNL     1      -9.491   5.212  66.157  1.00  0.00    -0.165 S  
HETATM   16  O   UNL     1     -10.523   4.436  65.522  1.00  0.00    -0.265 OA 
HETATM   17  C   UNL     1      -7.977   4.337  65.918  1.00  0.00    -0.095 C  
HETATM   18  O   UNL     1      -9.237   6.593  65.832  1.00  0.00    -0.099 OA 
ENDBRANCH  13  15
ENDBRANCH  10  11
ENDBRANCH   9  10
ENDBRANCH   8   9
ENDBRANCH   7   8
ENDBRANCH   6   7
ENDBRANCH   5   6
ENDBRANCH   4   5
BRANCH   4  19
HETATM   19  C   UNL     1     -10.961   9.796  69.945  1.00  0.00    -0.264 A  
HETATM   20  N   UNL     1     -10.734   9.216  67.581  1.00  0.00    -0.242 NA 
HETATM   21  N   UNL     1     -10.852  11.106  69.624  1.00  0.00    -0.192 NA 
HETATM   22  C   UNL     1     -10.601  10.546  67.282  1.00  0.00    -0.264 A  
HETATM   23  C   UNL     1     -10.689  11.502  68.316  1.00  0.00    -0.211 A  
HETATM   24  C   UNL     1     -10.918   8.891  68.892  1.00  0.00     0.080 A  
BRANCH  23  25
HETATM   25  C   UNL     1     -10.560  12.978  68.157  1.00  0.00    -0.257 A  
HETATM   26  C   UNL     1      -9.310  13.564  67.878  1.00  0.00    -0.215 A  
HETATM   27  C   UNL     1     -11.566  15.176  67.759  1.00  0.00    -0.303 A  
HETATM   28  C   UNL     1     -11.659  13.855  68.205  1.00  0.00    -0.370 A  
HETATM   29  C   UNL     1     -10.331  15.704  67.412  1.00  0.00    -0.275 A  
HETATM   30  C   UNL     1      -9.193  14.914  67.527  1.00  0.00    -0.194 A  
ENDBRANCH  23  25
BRANCH  22  31
HETATM   31  C   UNL     1     -10.318  10.816  65.834  1.00  0.00    -0.302 A  
HETATM   32  C   UNL     1     -10.830  12.026  63.753  1.00  0.00    -0.481 A  
HETATM   33  C   UNL     1      -8.992  10.485  63.790  1.00  0.00    -0.229 A  
HETATM   34  C   UNL     1      -9.332  10.123  65.101  1.00  0.00    -0.290 A  
HETATM   35  C   UNL     1     -11.090  11.746  65.102  1.00  0.00    -0.341 A  
HETATM   36  C   UNL     1      -9.740  11.443  63.118  1.00  0.00    -0.413 A  
ENDBRANCH  22  31
ENDBRANCH   4  19
ENDBRANCH   2   4
TORSDOF 12
ENDMDL
MODEL      122
REMARK 921   NORMALIZED FREE ENERGY PREDICTED BY IDOCK:   -5.33 KCAL/MOL
REMARK 922        TOTAL FREE ENERGY PREDICTED BY IDOCK:  -10.39 KCAL/MOL
REMARK 923 INTER-LIGAND FREE ENERGY PREDICTED BY IDOCK:   -8.20 KCAL/MOL
REMARK 924 INTRA-LIGAND FREE ENERGY PREDICTED BY IDOCK:   -2.18 KCAL/MOL
REMARK 927      BINDING AFFINITY PREDICTED BY RF-SCORE:    0.00 PKD
ROOT
HETATM    1  C   UNL     1     -10.119   6.135  73.585  1.00  0.00    -0.227 C  
HETATM    2  C   UNL     1      -9.973   7.648  73.410  1.00  0.00    -0.314 C  
HETATM    3  C   UNL     1      -8.509   7.996  73.132  1.00  0.00    -0.267 C  
ENDROOT
BRANCH   2   4
HETATM    4  N   UNL     1     -10.876   8.229  72.387  1.00  0.00    -0.330 NA 
BRANCH   4   5
HETATM    5  C   UNL     1     -12.282   8.559  72.681  1.00  0.00    -0.228 C  
BRANCH   5   6
HETATM    6  C   UNL     1     -13.172   8.534  71.432  1.00  0.00    -0.246 C  
BRANCH   6   7
HETATM    7  C   UNL     1     -13.496   9.929  70.867  1.00  0.00    -0.181 C  
BRANCH   7   8
HETATM    8  C   UNL     1     -13.122  11.098  71.779  1.00  0.00    -0.431 C  
BRANCH   8   9
HETATM    9  O   UNL     1     -12.422  12.083  71.022  1.00  0.00    -0.368 OA 
BRANCH   9  10
HETATM   10  C   UNL     1     -12.232  11.676  69.668  1.00  0.00    -0.206 C  
BRANCH  10  11
HETATM   11  C   UNL     1     -11.540  12.760  68.851  1.00  0.00    -0.316 C  
HETATM   12  O   UNL     1     -12.160  13.692  68.357  1.00  0.00    -0.361 OA 
HETATM   13  N   UNL     1     -10.144  12.636  68.773  1.00  0.00    -0.417 N  
HETATM   14  H   UNL     1      -9.681  11.900  69.306  1.00  0.00     0.000 HD 
BRANCH  13  15
HETATM   15  S   UNL     1      -9.226  13.653  67.833  1.00  0.00    -0.211 S  
HETATM   16  O   UNL     1      -9.571  13.468  66.449  1.00  0.00    -0.270 OA 
HETATM   17  C   UNL     1      -7.634  12.926  68.061  1.00  0.00    -0.137 C  
HETATM   18  O   UNL     1      -9.193  14.947  68.467  1.00  0.00    -0.179 OA 
ENDBRANCH  13  15
ENDBRANCH  10  11
ENDBRANCH   9  10
ENDBRANCH   8   9
ENDBRANCH   7   8
ENDBRANCH   6   7
ENDBRANCH   5   6
ENDBRANCH   4   5
BRANCH   4  19
HETATM   19  C   UNL     1     -10.338   8.372  71.103  1.00  0.00    -0.212 A  
HETATM   20  N   UNL     1      -9.242   9.721  69.384  1.00  0.00    -0.191 NA 
HETATM   21  N   UNL     1     -10.374   7.325  70.246  1.00  0.00    -0.207 NA 
HETATM   22  C   UNL     1      -9.313   8.657  68.525  1.00  0.00    -0.138 A  
HETATM   23  C   UNL     1      -9.860   7.437  68.973  1.00  0.00    -0.168 A  
HETATM   24  C   UNL     1      -9.746   9.539  70.638  1.00  0.00    -0.245 A  
BRANCH  23  25
HETATM   25  C   UNL     1     -10.012   6.195  68.163  1.00  0.00    -0.158 A  
HETATM   26  C   UNL     1     -10.784   6.196  66.985  1.00  0.00    -0.423 A  
HETATM   27  C   UNL     1      -9.269   3.942  67.556  1.00  0.00    -0.203 A  
HETATM   28  C   UNL     1      -9.357   4.991  68.476  1.00  0.00    -0.167 A  
HETATM   29  C   UNL     1      -9.976   4.005  66.365  1.00  0.00    -0.114 A  
HETATM   30  C   UNL     1     -10.781   5.108  66.104  1.00  0.00    -0.247 A  
ENDBRANCH  23  25
BRANCH  22  31
HETATM   31  C   UNL     1      -8.817   8.962  67.142  1.00  0.00    -0.133 A  
HETATM   32  C   UNL     1      -9.206   9.890  64.896  1.00  0.00    -0.301 A  
HETATM   33  C   UNL     1      -7.043   9.010  65.441  1.00  0.00    -0.081 A  
HETATM   34  C   UNL     1      -7.534   8.596  66.686  1.00  0.00    -0.089 A  
HETATM   35  C   UNL     1      -9.656   9.579  66.187  1.00  0.00    -0.302 A  
HETATM   36  C   UNL     1      -7.880   9.664  64.547  1.00  0.00    -0.134 A  
ENDBRANCH  22  31
ENDBRANCH   4  19
ENDBRANCH   2   4
TORSDOF 12
ENDMDL
MODEL      123
REMARK 921   NORMALIZED FREE ENERGY PREDICTED BY IDOCK:   -5.33 KCAL/MOL
REMARK 922        TOTAL FREE ENERGY PREDICTED BY IDOCK:  -10.38 KCAL/MOL
REMARK 923 INTER-LIGAND FREE ENERGY PREDICTED BY IDOCK:   -9.31 KCAL/MOL
REMARK 924 INTRA-LIGAND FREE ENERGY PREDICTED BY IDOCK:   -1.07 KCAL/MOL
REMARK 927      BINDING AFFINITY PREDICTED BY RF-SCORE:    0.00 PKD
ROOT
HETATM    1  C   UNL     1      -7.880  17.412  68.531  1.00  0.00    -0.268 C  
HETATM    2  C   UNL     1      -9.334  17.326  68.063  1.00  0.00    -0.264 C  
HETATM    3  C   UNL     1      -9.385  17.344  66.534  1.00  0.00    -0.288 C  
ENDROOT
BRANCH   2   4
HETATM    4  N   UNL     1     -10.082  16.173  68.621  1.00  0.00    -0.223 NA 
BRANCH   4   5
HETATM    5  C   UNL     1     -11.161  16.345  69.611  1.00  0.00    -0.306 C  
BRANCH   5   6
HETATM    6  C   UNL     1     -11.168  15.245  70.680  1.00  0.00    -0.353 C  
BRANCH   6   7
HETATM    7  C   UNL     1     -12.472  14.428  70.728  1.00  0.00    -0.423 C  
BRANCH   7   8
HETATM    8  C   UNL     1     -12.813  13.837  72.096  1.00  0.00    -0.271 C  
BRANCH   8   9
HETATM    9  O   UNL     1     -13.124  12.452  71.947  1.00  0.00    -0.424 OA 
BRANCH   9  10
HETATM   10  C   UNL     1     -12.457  11.876  70.826  1.00  0.00    -0.291 C  
BRANCH  10  11
HETATM   11  C   UNL     1     -12.226  10.382  71.022  1.00  0.00    -0.393 C  
HETATM   12  O   UNL     1     -13.092   9.649  71.479  1.00  0.00    -0.353 OA 
HETATM   13  N   UNL     1     -10.979   9.918  70.577  1.00  0.00    -0.305 N  
HETATM   14  H   UNL     1     -10.351  10.564  70.098  1.00  0.00     0.000 HD 
BRANCH  13  15
HETATM   15  S   UNL     1     -10.496   8.345  70.809  1.00  0.00    -0.203 S  
HETATM   16  O   UNL     1     -11.465   7.456  70.224  1.00  0.00    -0.261 OA 
HETATM   17  C   UNL     1     -10.687   8.222  72.559  1.00  0.00    -0.341 C  
HETATM   18  O   UNL     1      -9.085   8.259  70.531  1.00  0.00    -0.143 OA 
ENDBRANCH  13  15
ENDBRANCH  10  11
ENDBRANCH   9  10
ENDBRANCH   8   9
ENDBRANCH   7   8
ENDBRANCH   6   7
ENDBRANCH   5   6
ENDBRANCH   4   5
BRANCH   4  19
HETATM   19  C   UNL     1      -9.651  14.906  68.213  1.00  0.00    -0.214 A  
HETATM   20  N   UNL     1      -8.116  13.012  68.394  1.00  0.00    -0.148 NA 
HETATM   21  N   UNL     1     -10.298  14.274  67.207  1.00  0.00    -0.259 NA 
HETATM   22  C   UNL     1      -8.770  12.402  67.356  1.00  0.00    -0.183 A  
HETATM   23  C   UNL     1      -9.891  13.031  66.777  1.00  0.00    -0.243 A  
HETATM   24  C   UNL     1      -8.582  14.231  68.789  1.00  0.00    -0.101 A  
BRANCH  23  25
HETATM   25  C   UNL     1     -10.704  12.503  65.644  1.00  0.00    -0.297 A  
HETATM   26  C   UNL     1     -12.091  12.738  65.584  1.00  0.00    -0.514 A  
HETATM   27  C   UNL     1     -10.861  11.597  63.374  1.00  0.00    -0.453 A  
HETATM   28  C   UNL     1     -10.144  11.814  64.553  1.00  0.00    -0.312 A  
HETATM   29  C   UNL     1     -12.210  11.914  63.316  1.00  0.00    -0.487 A  
HETATM   30  C   UNL     1     -12.840  12.432  64.442  1.00  0.00    -0.344 A  
ENDBRANCH  23  25
BRANCH  22  31
HETATM   31  C   UNL     1      -8.146  11.107  66.925  1.00  0.00    -0.150 A  
HETATM   32  C   UNL     1      -8.170   8.647  66.867  1.00  0.00    -0.105 A  
HETATM   33  C   UNL     1      -6.434   9.830  65.709  1.00  0.00    -0.083 A  
HETATM   34  C   UNL     1      -6.928  11.038  66.219  1.00  0.00    -0.095 A  
HETATM   35  C   UNL     1      -8.726   9.868  67.276  1.00  0.00    -0.131 A  
HETATM   36  C   UNL     1      -7.061   8.633  66.029  1.00  0.00    -0.083 A  
ENDBRANCH  22  31
ENDBRANCH   4  19
ENDBRANCH   2   4
TORSDOF 12
ENDMDL
MODEL      124
REMARK 921   NORMALIZED FREE ENERGY PREDICTED BY IDOCK:   -5.32 KCAL/MOL
REMARK 922        TOTAL FREE ENERGY PREDICTED BY IDOCK:  -10.37 KCAL/MOL
REMARK 923 INTER-LIGAND FREE ENERGY PREDICTED BY IDOCK:   -8.49 KCAL/MOL
REMARK 924 INTRA-LIGAND FREE ENERGY PREDICTED BY IDOCK:   -1.88 KCAL/MOL
REMARK 927      BINDING AFFINITY PREDICTED BY RF-SCORE:    0.00 PKD
ROOT
HETATM    1  C   UNL     1     -12.615   7.016  71.274  1.00  0.00    -0.418 C  
HETATM    2  C   UNL     1     -12.707   8.540  71.169  1.00  0.00    -0.110 C  
HETATM    3  C   UNL     1     -13.550   9.085  72.324  1.00  0.00    -0.540 C  
ENDROOT
BRANCH   2   4
HETATM    4  N   UNL     1     -11.393   9.222  71.082  1.00  0.00    -0.311 NA 
BRANCH   4   5
HETATM    5  C   UNL     1     -10.325   8.990  72.070  1.00  0.00    -0.217 C  
BRANCH   5   6
HETATM    6  C   UNL     1      -9.033   8.459  71.434  1.00  0.00    -0.237 C  
BRANCH   6   7
HETATM    7  C   UNL     1      -9.158   7.037  70.860  1.00  0.00    -0.153 C  
BRANCH   7   8
HETATM    8  C   UNL     1      -8.247   6.740  69.668  1.00  0.00    -0.131 C  
BRANCH   8   9
HETATM    9  O   UNL     1      -8.875   5.779  68.822  1.00  0.00    -0.110 OA 
BRANCH   9  10
HETATM   10  C   UNL     1      -8.034   5.400  67.734  1.00  0.00    -0.100 C  
BRANCH  10  11
HETATM   11  C   UNL     1      -8.785   5.438  66.408  1.00  0.00    -0.121 C  
HETATM   12  O   UNL     1      -9.283   6.469  65.976  1.00  0.00    -0.136 OA 
HETATM   13  N   UNL     1      -8.799   4.223  65.706  1.00  0.00    -0.118 N  
HETATM   14  H   UNL     1      -8.264   3.434  66.070  1.00  0.00     0.000 HD 
BRANCH  13  15
HETATM   15  S   UNL     1      -9.664   4.033  64.300  1.00  0.00    -0.158 S  
HETATM   16  O   UNL     1     -11.071   4.120  64.588  1.00  0.00    -0.298 OA 
HETATM   17  C   UNL     1      -9.319   2.337  63.955  1.00  0.00    -0.114 C  
HETATM   18  O   UNL     1      -9.025   4.812  63.269  1.00  0.00    -0.140 OA 
ENDBRANCH  13  15
ENDBRANCH  10  11
ENDBRANCH   9  10
ENDBRANCH   8   9
ENDBRANCH   7   8
ENDBRANCH   6   7
ENDBRANCH   5   6
ENDBRANCH   4   5
BRANCH   4  19
HETATM   19  C   UNL     1     -11.255  10.159  70.052  1.00  0.00    -0.299 A  
HETATM   20  N   UNL     1     -11.830  12.299  69.021  1.00  0.00    -0.315 NA 
HETATM   21  N   UNL     1     -10.430   9.890  69.014  1.00  0.00    -0.200 NA 
HETATM   22  C   UNL     1     -11.009  11.995  67.968  1.00  0.00    -0.223 A  
HETATM   23  C   UNL     1     -10.280  10.788  67.981  1.00  0.00    -0.178 A  
HETATM   24  C   UNL     1     -11.917  11.380  70.024  1.00  0.00    -0.363 A  
BRANCH  23  25
HETATM   25  C   UNL     1      -9.354  10.311  66.914  1.00  0.00    -0.183 A  
HETATM   26  C   UNL     1      -9.852   9.897  65.664  1.00  0.00    -0.368 A  
HETATM   27  C   UNL     1      -7.104  10.150  65.960  1.00  0.00    -0.118 A  
HETATM   28  C   UNL     1      -7.955  10.309  67.057  1.00  0.00    -0.111 A  
HETATM   29  C   UNL     1      -7.629   9.822  64.719  1.00  0.00    -0.129 A  
HETATM   30  C   UNL     1      -9.001   9.638  64.583  1.00  0.00    -0.274 A  
ENDBRANCH  23  25
BRANCH  22  31
HETATM   31  C   UNL     1     -11.033  13.015  66.868  1.00  0.00    -0.289 A  
HETATM   32  C   UNL     1     -12.178  14.060  64.957  1.00  0.00    -0.448 A  
HETATM   33  C   UNL     1     -10.054  14.921  65.662  1.00  0.00    -0.387 A  
HETATM   34  C   UNL     1      -9.957  13.888  66.604  1.00  0.00    -0.279 A  
HETATM   35  C   UNL     1     -12.128  13.102  65.979  1.00  0.00    -0.495 A  
HETATM   36  C   UNL     1     -11.170  15.010  64.841  1.00  0.00    -0.423 A  
ENDBRANCH  22  31
ENDBRANCH   4  19
ENDBRANCH   2   4
TORSDOF 12
ENDMDL
MODEL      125
REMARK 921   NORMALIZED FREE ENERGY PREDICTED BY IDOCK:   -5.31 KCAL/MOL
REMARK 922        TOTAL FREE ENERGY PREDICTED BY IDOCK:  -10.35 KCAL/MOL
REMARK 923 INTER-LIGAND FREE ENERGY PREDICTED BY IDOCK:   -8.48 KCAL/MOL
REMARK 924 INTRA-LIGAND FREE ENERGY PREDICTED BY IDOCK:   -1.87 KCAL/MOL
REMARK 927      BINDING AFFINITY PREDICTED BY RF-SCORE:    0.00 PKD
ROOT
HETATM    1  C   UNL     1      -5.141  12.015  67.741  1.00  0.00    -0.067 C  
HETATM    2  C   UNL     1      -5.459  11.179  68.982  1.00  0.00    -0.040 C  
HETATM    3  C   UNL     1      -5.530  12.089  70.210  1.00  0.00    -0.133 C  
ENDROOT
BRANCH   2   4
HETATM    4  N   UNL     1      -6.675  10.340  68.852  1.00  0.00    -0.056 NA 
BRANCH   4   5
HETATM    5  C   UNL     1      -6.788   9.022  69.500  1.00  0.00    -0.048 C  
BRANCH   5   6
HETATM    6  C   UNL     1      -6.407   7.866  68.565  1.00  0.00    -0.048 C  
BRANCH   6   7
HETATM    7  C   UNL     1      -7.491   6.781  68.439  1.00  0.00    -0.095 C  
BRANCH   7   8
HETATM    8  C   UNL     1      -8.365   6.884  67.188  1.00  0.00    -0.121 C  
BRANCH   8   9
HETATM    9  O   UNL     1      -9.559   7.596  67.504  1.00  0.00    -0.136 OA 
BRANCH   9  10
HETATM   10  C   UNL     1     -10.316   6.940  68.519  1.00  0.00    -0.186 C  
BRANCH  10  11
HETATM   11  C   UNL     1     -10.662   7.891  69.659  1.00  0.00    -0.218 C  
HETATM   12  O   UNL     1      -9.898   8.778  70.015  1.00  0.00    -0.171 OA 
HETATM   13  N   UNL     1     -11.939   7.706  70.210  1.00  0.00    -0.481 N  
HETATM   14  H   UNL     1     -12.568   7.025  69.786  1.00  0.00     0.000 HD 
BRANCH  13  15
HETATM   15  S   UNL     1     -12.454   8.567  71.536  1.00  0.00    -0.313 S  
HETATM   16  O   UNL     1     -11.735   8.125  72.701  1.00  0.00    -0.399 OA 
HETATM   17  C   UNL     1     -14.098   7.943  71.686  1.00  0.00    -0.434 C  
HETATM   18  O   UNL     1     -12.561   9.954  71.159  1.00  0.00    -0.322 OA 
ENDBRANCH  13  15
ENDBRANCH  10  11
ENDBRANCH   9  10
ENDBRANCH   8   9
ENDBRANCH   7   8
ENDBRANCH   6   7
ENDBRANCH   5   6
ENDBRANCH   4   5
BRANCH   4  19
HETATM   19  C   UNL     1      -7.677  10.839  68.014  1.00  0.00    -0.101 A  
HETATM   20  N   UNL     1      -8.738  11.007  65.818  1.00  0.00    -0.187 NA 
HETATM   21  N   UNL     1      -8.606  11.685  68.517  1.00  0.00    -0.156 NA 
HETATM   22  C   UNL     1      -9.653  11.881  66.342  1.00  0.00    -0.225 A  
HETATM   23  C   UNL     1      -9.600  12.200  67.715  1.00  0.00    -0.195 A  
HETATM   24  C   UNL     1      -7.794  10.513  66.669  1.00  0.00    -0.125 A  
BRANCH  23  25
HETATM   25  C   UNL     1     -10.514  13.133  68.433  1.00  0.00    -0.261 A  
HETATM   26  C   UNL     1     -11.622  12.643  69.150  1.00  0.00    -0.374 A  
HETATM   27  C   UNL     1     -10.980  15.330  69.412  1.00  0.00    -0.271 A  
HETATM   28  C   UNL     1     -10.298  14.522  68.498  1.00  0.00    -0.242 A  
HETATM   29  C   UNL     1     -12.015  14.800  70.167  1.00  0.00    -0.367 A  
HETATM   30  C   UNL     1     -12.376  13.468  69.994  1.00  0.00    -0.315 A  
ENDBRANCH  23  25
BRANCH  22  31
HETATM   31  C   UNL     1     -10.603  12.445  65.327  1.00  0.00    -0.322 A  
HETATM   32  C   UNL     1     -12.186  12.106  63.474  1.00  0.00    -0.670 A  
HETATM   33  C   UNL     1     -11.815  14.324  64.308  1.00  0.00    -0.401 A  
HETATM   34  C   UNL     1     -10.825  13.828  65.166  1.00  0.00    -0.349 A  
HETATM   35  C   UNL     1     -11.280  11.602  64.417  1.00  0.00    -0.360 A  
HETATM   36  C   UNL     1     -12.501  13.460  63.464  1.00  0.00    -0.287 A  
ENDBRANCH  22  31
ENDBRANCH   4  19
ENDBRANCH   2   4
TORSDOF 12
ENDMDL
MODEL      126
REMARK 921   NORMALIZED FREE ENERGY PREDICTED BY IDOCK:   -5.27 KCAL/MOL
REMARK 922        TOTAL FREE ENERGY PREDICTED BY IDOCK:  -10.28 KCAL/MOL
REMARK 923 INTER-LIGAND FREE ENERGY PREDICTED BY IDOCK:   -8.15 KCAL/MOL
REMARK 924 INTRA-LIGAND FREE ENERGY PREDICTED BY IDOCK:   -2.14 KCAL/MOL
REMARK 927      BINDING AFFINITY PREDICTED BY RF-SCORE:    0.00 PKD
ROOT
HETATM    1  C   UNL     1     -13.341   7.142  71.409  1.00  0.00    -0.380 C  
HETATM    2  C   UNL     1     -11.847   6.829  71.310  1.00  0.00    -0.348 C  
HETATM    3  C   UNL     1     -11.525   6.293  69.914  1.00  0.00    -0.459 C  
ENDROOT
BRANCH   2   4
HETATM    4  N   UNL     1     -10.965   7.963  71.677  1.00  0.00    -0.233 NA 
BRANCH   4   5
HETATM    5  C   UNL     1     -10.123   7.940  72.886  1.00  0.00    -0.310 C  
BRANCH   5   6
HETATM    6  C   UNL     1     -10.411   6.732  73.787  1.00  0.00    -0.397 C  
BRANCH   6   7
HETATM    7  C   UNL     1      -9.191   5.822  74.021  1.00  0.00    -0.127 C  
BRANCH   7   8
HETATM    8  C   UNL     1      -9.041   4.674  73.023  1.00  0.00    -0.120 C  
BRANCH   8   9
HETATM    9  O   UNL     1      -7.819   4.829  72.304  1.00  0.00    -0.094 OA 
BRANCH   9  10
HETATM   10  C   UNL     1      -7.909   4.298  70.984  1.00  0.00    -0.067 C  
BRANCH  10  11
HETATM   11  C   UNL     1      -7.964   5.406  69.939  1.00  0.00    -0.081 C  
HETATM   12  O   UNL     1      -8.059   6.585  70.252  1.00  0.00    -0.116 OA 
HETATM   13  N   UNL     1      -7.833   4.969  68.612  1.00  0.00    -0.078 N  
HETATM   14  H   UNL     1      -7.640   3.984  68.431  1.00  0.00     0.000 HD 
BRANCH  13  15
HETATM   15  S   UNL     1      -7.984   6.012  67.327  1.00  0.00    -0.102 S  
HETATM   16  O   UNL     1      -9.379   6.225  67.045  1.00  0.00    -0.120 OA 
HETATM   17  C   UNL     1      -7.353   4.993  66.031  1.00  0.00    -0.078 C  
HETATM   18  O   UNL     1      -7.047   7.091  67.510  1.00  0.00    -0.079 OA 
ENDBRANCH  13  15
ENDBRANCH  10  11
ENDBRANCH   9  10
ENDBRANCH   8   9
ENDBRANCH   7   8
ENDBRANCH   6   7
ENDBRANCH   5   6
ENDBRANCH   4   5
BRANCH   4  19
HETATM   19  C   UNL     1     -11.038   9.089  70.850  1.00  0.00    -0.280 A  
HETATM   20  N   UNL     1     -11.920  11.312  70.341  1.00  0.00    -0.360 NA 
HETATM   21  N   UNL     1     -10.327   9.118  69.699  1.00  0.00    -0.211 NA 
HETATM   22  C   UNL     1     -11.213  11.308  69.168  1.00  0.00    -0.273 A  
HETATM   23  C   UNL     1     -10.385  10.208  68.860  1.00  0.00    -0.206 A  
HETATM   24  C   UNL     1     -11.801  10.213  71.140  1.00  0.00    -0.381 A  
BRANCH  23  25
HETATM   25  C   UNL     1      -9.561  10.050  67.628  1.00  0.00    -0.171 A  
HETATM   26  C   UNL     1     -10.130   9.547  66.443  1.00  0.00    -0.328 A  
HETATM   27  C   UNL     1      -7.554  10.571  66.325  1.00  0.00    -0.133 A  
HETATM   28  C   UNL     1      -8.214  10.446  67.550  1.00  0.00    -0.114 A  
HETATM   29  C   UNL     1      -8.171  10.143  65.159  1.00  0.00    -0.151 A  
HETATM   30  C   UNL     1      -9.439   9.575  65.226  1.00  0.00    -0.326 A  
ENDBRANCH  23  25
BRANCH  22  31
HETATM   31  C   UNL     1     -11.462  12.511  68.307  1.00  0.00    -0.355 A  
HETATM   32  C   UNL     1     -11.503  14.954  68.022  1.00  0.00    -0.355 A  
HETATM   33  C   UNL     1     -12.036  13.548  66.154  1.00  0.00    -0.482 A  
HETATM   34  C   UNL     1     -11.941  12.423  66.984  1.00  0.00    -0.257 A  
HETATM   35  C   UNL     1     -11.294  13.818  68.816  1.00  0.00    -0.318 A  
HETATM   36  C   UNL     1     -11.811  14.816  66.674  1.00  0.00    -0.255 A  
ENDBRANCH  22  31
ENDBRANCH   4  19
ENDBRANCH   2   4
TORSDOF 12
ENDMDL
MODEL      127
REMARK 921   NORMALIZED FREE ENERGY PREDICTED BY IDOCK:   -5.25 KCAL/MOL
REMARK 922        TOTAL FREE ENERGY PREDICTED BY IDOCK:  -10.25 KCAL/MOL
REMARK 923 INTER-LIGAND FREE ENERGY PREDICTED BY IDOCK:   -8.90 KCAL/MOL
REMARK 924 INTRA-LIGAND FREE ENERGY PREDICTED BY IDOCK:   -1.35 KCAL/MOL
REMARK 927      BINDING AFFINITY PREDICTED BY RF-SCORE:    0.00 PKD
ROOT
HETATM    1  C   UNL     1      -6.217  10.386  67.346  1.00  0.00    -0.057 C  
HETATM    2  C   UNL     1      -7.379  11.317  66.994  1.00  0.00    -0.136 C  
HETATM    3  C   UNL     1      -8.400  10.566  66.137  1.00  0.00    -0.155 C  
ENDROOT
BRANCH   2   4
HETATM    4  N   UNL     1      -8.018  11.959  68.169  1.00  0.00    -0.142 NA 
BRANCH   4   5
HETATM    5  C   UNL     1      -7.569  13.262  68.689  1.00  0.00    -0.094 C  
BRANCH   5   6
HETATM    6  C   UNL     1      -7.150  14.233  67.578  1.00  0.00    -0.189 C  
BRANCH   6   7
HETATM    7  C   UNL     1      -7.862  15.596  67.639  1.00  0.00    -0.173 C  
BRANCH   7   8
HETATM    8  C   UNL     1      -8.234  16.191  66.280  1.00  0.00    -0.240 C  
BRANCH   8   9
HETATM    9  O   UNL     1      -9.614  16.552  66.284  1.00  0.00    -0.272 OA 
BRANCH   9  10
HETATM   10  C   UNL     1     -10.314  15.960  67.378  1.00  0.00    -0.288 C  
BRANCH  10  11
HETATM   11  C   UNL     1     -11.356  14.957  66.896  1.00  0.00    -0.337 C  
HETATM   12  O   UNL     1     -12.023  14.293  67.678  1.00  0.00    -0.383 OA 
HETATM   13  N   UNL     1     -11.527  14.911  65.504  1.00  0.00    -0.335 N  
HETATM   14  H   UNL     1     -11.020  15.577  64.920  1.00  0.00     0.000 HD 
BRANCH  13  15
HETATM   15  S   UNL     1     -12.531  13.802  64.781  1.00  0.00    -0.313 S  
HETATM   16  O   UNL     1     -13.761  13.717  65.522  1.00  0.00    -0.321 OA 
HETATM   17  C   UNL     1     -11.636  12.318  65.112  1.00  0.00    -0.351 C  
HETATM   18  O   UNL     1     -12.486  14.014  63.356  1.00  0.00    -0.826 OA 
ENDBRANCH  13  15
ENDBRANCH  10  11
ENDBRANCH   9  10
ENDBRANCH   8   9
ENDBRANCH   7   8
ENDBRANCH   6   7
ENDBRANCH   5   6
ENDBRANCH   4   5
BRANCH   4  19
HETATM   19  C   UNL     1      -9.021  11.217  68.802  1.00  0.00    -0.131 A  
HETATM   20  N   UNL     1     -11.379  10.792  69.287  1.00  0.00    -0.263 NA 
HETATM   21  N   UNL     1      -8.679  10.179  69.600  1.00  0.00    -0.182 NA 
HETATM   22  C   UNL     1     -11.009   9.761  70.110  1.00  0.00    -0.291 A  
HETATM   23  C   UNL     1      -9.643   9.435  70.244  1.00  0.00    -0.249 A  
HETATM   24  C   UNL     1     -10.379  11.473  68.659  1.00  0.00    -0.210 A  
BRANCH  23  25
HETATM   25  C   UNL     1      -9.080   8.352  71.099  1.00  0.00    -0.217 A  
HETATM   26  C   UNL     1      -9.097   8.464  72.503  1.00  0.00    -0.326 A  
HETATM   27  C   UNL     1      -8.331   6.039  71.392  1.00  0.00    -0.127 A  
HETATM   28  C   UNL     1      -8.571   7.149  70.578  1.00  0.00    -0.144 A  
HETATM   29  C   UNL     1      -8.436   6.155  72.770  1.00  0.00    -0.123 A  
HETATM   30  C   UNL     1      -8.762   7.385  73.330  1.00  0.00    -0.193 A  
ENDBRANCH  23  25
BRANCH  22  31
HETATM   31  C   UNL     1     -12.158   9.117  70.829  1.00  0.00    -0.200 A  
HETATM   32  C   UNL     1     -13.397   7.094  71.481  1.00  0.00    -0.413 A  
HETATM   33  C   UNL     1     -14.137   9.230  72.283  1.00  0.00    -0.374 A  
HETATM   34  C   UNL     1     -13.152   9.854  71.505  1.00  0.00    -0.516 A  
HETATM   35  C   UNL     1     -12.341   7.716  70.800  1.00  0.00    -0.068 A  
HETATM   36  C   UNL     1     -14.255   7.846  72.274  1.00  0.00    -0.264 A  
ENDBRANCH  22  31
ENDBRANCH   4  19
ENDBRANCH   2   4
TORSDOF 12
ENDMDL
MODEL      128
REMARK 921   NORMALIZED FREE ENERGY PREDICTED BY IDOCK:   -5.25 KCAL/MOL
REMARK 922        TOTAL FREE ENERGY PREDICTED BY IDOCK:  -10.24 KCAL/MOL
REMARK 923 INTER-LIGAND FREE ENERGY PREDICTED BY IDOCK:   -9.02 KCAL/MOL
REMARK 924 INTRA-LIGAND FREE ENERGY PREDICTED BY IDOCK:   -1.22 KCAL/MOL
REMARK 927      BINDING AFFINITY PREDICTED BY RF-SCORE:    0.00 PKD
ROOT
HETATM    1  C   UNL     1     -12.031  16.180  71.812  1.00  0.00    -0.560 C  
HETATM    2  C   UNL     1     -11.939  15.793  70.334  1.00  0.00    -0.359 C  
HETATM    3  C   UNL     1     -10.498  15.956  69.848  1.00  0.00    -0.311 C  
ENDROOT
BRANCH   2   4
HETATM    4  N   UNL     1     -12.470  14.443  70.028  1.00  0.00    -0.330 NA 
BRANCH   4   5
HETATM    5  C   UNL     1     -13.493  13.795  70.868  1.00  0.00     0.072 C  
BRANCH   5   6
HETATM    6  C   UNL     1     -12.887  12.894  71.952  1.00  0.00    -0.315 C  
BRANCH   6   7
HETATM    7  C   UNL     1     -13.440  11.457  71.951  1.00  0.00    -0.280 C  
BRANCH   7   8
HETATM    8  C   UNL     1     -12.564  10.428  71.236  1.00  0.00    -0.419 C  
BRANCH   8   9
HETATM    9  O   UNL     1     -12.294   9.342  72.120  1.00  0.00    -0.363 OA 
BRANCH   9  10
HETATM   10  C   UNL     1     -12.484   8.080  71.483  1.00  0.00    -0.310 C  
BRANCH  10  11
HETATM   11  C   UNL     1     -11.455   7.058  71.951  1.00  0.00    -0.268 C  
HETATM   12  O   UNL     1     -11.091   6.995  73.118  1.00  0.00    -0.279 OA 
HETATM   13  N   UNL     1     -11.017   6.168  70.958  1.00  0.00    -0.280 N  
HETATM   14  H   UNL     1     -11.450   6.204  70.035  1.00  0.00     0.000 HD 
BRANCH  13  15
HETATM   15  S   UNL     1      -9.814   5.059  71.244  1.00  0.00    -0.190 S  
HETATM   16  O   UNL     1      -8.571   5.749  71.468  1.00  0.00    -0.130 OA 
HETATM   17  C   UNL     1      -9.700   4.312  69.649  1.00  0.00    -0.214 C  
HETATM   18  O   UNL     1     -10.328   4.058  72.144  1.00  0.00    -0.166 OA 
ENDBRANCH  13  15
ENDBRANCH  10  11
ENDBRANCH   9  10
ENDBRANCH   8   9
ENDBRANCH   7   8
ENDBRANCH   6   7
ENDBRANCH   5   6
ENDBRANCH   4   5
BRANCH   4  19
HETATM   19  C   UNL     1     -11.886  13.787  68.939  1.00  0.00    -0.360 A  
HETATM   20  N   UNL     1     -11.649  13.442  66.530  1.00  0.00    -0.341 NA 
HETATM   21  N   UNL     1     -10.978  12.809  69.159  1.00  0.00    -0.182 NA 
HETATM   22  C   UNL     1     -10.751  12.437  66.777  1.00  0.00    -0.234 A  
HETATM   23  C   UNL     1     -10.392  12.139  68.108  1.00  0.00    -0.207 A  
HETATM   24  C   UNL     1     -12.175  14.083  67.612  1.00  0.00    -0.200 A  
BRANCH  23  25
HETATM   25  C   UNL     1      -9.440  11.078  68.542  1.00  0.00    -0.188 A  
HETATM   26  C   UNL     1      -9.907   9.804  68.921  1.00  0.00    -0.177 A  
HETATM   27  C   UNL     1      -7.168  10.167  68.651  1.00  0.00    -0.080 A  
HETATM   28  C   UNL     1      -8.044  11.251  68.535  1.00  0.00    -0.148 A  
HETATM   29  C   UNL     1      -7.663   8.906  68.945  1.00  0.00    -0.095 A  
HETATM   30  C   UNL     1      -9.030   8.735  69.137  1.00  0.00    -0.137 A  
ENDBRANCH  23  25
BRANCH  22  31
HETATM   31  C   UNL     1     -10.284  11.725  65.542  1.00  0.00    -0.291 A  
HETATM   32  C   UNL     1      -9.405   9.700  64.455  1.00  0.00    -0.247 A  
HETATM   33  C   UNL     1      -9.891  11.630  63.117  1.00  0.00    -0.407 A  
HETATM   34  C   UNL     1     -10.199  12.349  64.280  1.00  0.00    -0.358 A  
HETATM   35  C   UNL     1      -9.828  10.389  65.601  1.00  0.00    -0.321 A  
HETATM   36  C   UNL     1      -9.500  10.301  63.205  1.00  0.00    -0.342 A  
ENDBRANCH  22  31
ENDBRANCH   4  19
ENDBRANCH   2   4
TORSDOF 12
ENDMDL
MODEL      129
REMARK 921   NORMALIZED FREE ENERGY PREDICTED BY IDOCK:   -5.24 KCAL/MOL
REMARK 922        TOTAL FREE ENERGY PREDICTED BY IDOCK:  -10.24 KCAL/MOL
REMARK 923 INTER-LIGAND FREE ENERGY PREDICTED BY IDOCK:   -9.26 KCAL/MOL
REMARK 924 INTRA-LIGAND FREE ENERGY PREDICTED BY IDOCK:   -0.98 KCAL/MOL
REMARK 927      BINDING AFFINITY PREDICTED BY RF-SCORE:    0.00 PKD
ROOT
HETATM    1  C   UNL     1     -10.640  11.225  66.100  1.00  0.00    -0.312 C  
HETATM    2  C   UNL     1     -10.163  12.272  67.109  1.00  0.00    -0.211 C  
HETATM    3  C   UNL     1     -11.321  12.663  68.029  1.00  0.00    -0.337 C  
ENDROOT
BRANCH   2   4
HETATM    4  N   UNL     1      -8.964  11.866  67.881  1.00  0.00    -0.172 NA 
BRANCH   4   5
HETATM    5  C   UNL     1      -7.750  12.700  67.936  1.00  0.00    -0.141 C  
BRANCH   5   6
HETATM    6  C   UNL     1      -7.970  14.107  67.366  1.00  0.00    -0.201 C  
BRANCH   6   7
HETATM    7  C   UNL     1      -7.400  15.235  68.246  1.00  0.00    -0.113 C  
BRANCH   7   8
HETATM    8  C   UNL     1      -8.231  15.569  69.485  1.00  0.00    -0.209 C  
BRANCH   8   9
HETATM    9  O   UNL     1      -9.617  15.475  69.163  1.00  0.00    -0.217 OA 
BRANCH   9  10
HETATM   10  C   UNL     1     -10.302  16.703  69.404  1.00  0.00    -0.294 C  
BRANCH  10  11
HETATM   11  C   UNL     1     -10.193  17.645  68.210  1.00  0.00    -0.374 C  
HETATM   12  O   UNL     1     -11.008  17.629  67.297  1.00  0.00    -0.206 OA 
HETATM   13  N   UNL     1      -9.133  18.562  68.281  1.00  0.00    -0.308 N  
HETATM   14  H   UNL     1      -8.563  18.596  69.126  1.00  0.00     0.000 HD 
BRANCH  13  15
HETATM   15  S   UNL     1      -8.780  19.592  67.025  1.00  0.00    -0.321 S  
HETATM   16  O   UNL     1      -8.394  18.824  65.872  1.00  0.00    -0.490 OA 
HETATM   17  C   UNL     1      -7.311  20.344  67.650  1.00  0.00    -0.302 C  
HETATM   18  O   UNL     1      -9.794  20.615  66.983  1.00  0.00    -0.450 OA 
ENDBRANCH  13  15
ENDBRANCH  10  11
ENDBRANCH   9  10
ENDBRANCH   8   9
ENDBRANCH   7   8
ENDBRANCH   6   7
ENDBRANCH   5   6
ENDBRANCH   4   5
BRANCH   4  19
HETATM   19  C   UNL     1      -9.023  10.608  68.491  1.00  0.00    -0.156 A  
HETATM   20  N   UNL     1      -8.113   8.370  68.862  1.00  0.00    -0.112 NA 
HETATM   21  N   UNL     1     -10.055  10.315  69.315  1.00  0.00    -0.215 NA 
HETATM   22  C   UNL     1      -9.180   8.087  69.673  1.00  0.00    -0.152 A  
HETATM   23  C   UNL     1     -10.147   9.083  69.922  1.00  0.00    -0.201 A  
HETATM   24  C   UNL     1      -8.068   9.616  68.310  1.00  0.00    -0.105 A  
BRANCH  23  25
HETATM   25  C   UNL     1     -11.362   8.931  70.771  1.00  0.00    -0.325 A  
HETATM   26  C   UNL     1     -12.005  10.061  71.314  1.00  0.00    -0.483 A  
HETATM   27  C   UNL     1     -13.260   7.598  71.559  1.00  0.00    -0.380 A  
HETATM   28  C   UNL     1     -11.972   7.689  71.024  1.00  0.00    -0.296 A  
HETATM   29  C   UNL     1     -13.904   8.740  72.011  1.00  0.00    -0.504 A  
HETATM   30  C   UNL     1     -13.252   9.966  71.942  1.00  0.00    -0.558 A  
ENDBRANCH  23  25
BRANCH  22  31
HETATM   31  C   UNL     1      -9.202   6.672  70.172  1.00  0.00    -0.155 A  
HETATM   32  C   UNL     1      -8.650   5.017  71.907  1.00  0.00    -0.131 A  
HETATM   33  C   UNL     1      -9.860   4.313  69.959  1.00  0.00    -0.275 A  
HETATM   34  C   UNL     1      -9.725   5.599  69.420  1.00  0.00    -0.208 A  
HETATM   35  C   UNL     1      -8.623   6.329  71.414  1.00  0.00    -0.131 A  
HETATM   36  C   UNL     1      -9.326   4.023  71.208  1.00  0.00    -0.212 A  
ENDBRANCH  22  31
ENDBRANCH   4  19
ENDBRANCH   2   4
TORSDOF 12
ENDMDL
MODEL      130
REMARK 921   NORMALIZED FREE ENERGY PREDICTED BY IDOCK:   -5.24 KCAL/MOL
REMARK 922        TOTAL FREE ENERGY PREDICTED BY IDOCK:  -10.23 KCAL/MOL
REMARK 923 INTER-LIGAND FREE ENERGY PREDICTED BY IDOCK:   -9.07 KCAL/MOL
REMARK 924 INTRA-LIGAND FREE ENERGY PREDICTED BY IDOCK:   -1.17 KCAL/MOL
REMARK 927      BINDING AFFINITY PREDICTED BY RF-SCORE:    0.00 PKD
ROOT
HETATM    1  C   UNL     1     -10.424  10.895  64.282  1.00  0.00    -0.405 C  
HETATM    2  C   UNL     1     -10.310  11.898  65.433  1.00  0.00    -0.267 C  
HETATM    3  C   UNL     1     -11.666  12.040  66.127  1.00  0.00    -0.313 C  
ENDROOT
BRANCH   2   4
HETATM    4  N   UNL     1      -9.231  11.588  66.401  1.00  0.00    -0.203 NA 
BRANCH   4   5
HETATM    5  C   UNL     1      -7.856  12.091  66.227  1.00  0.00     0.375 C  
BRANCH   5   6
HETATM    6  C   UNL     1      -7.283  12.707  67.510  1.00  0.00    -0.155 C  
BRANCH   6   7
HETATM    7  C   UNL     1      -7.537  14.219  67.645  1.00  0.00    -0.191 C  
BRANCH   7   8
HETATM    8  C   UNL     1      -8.863  14.595  68.306  1.00  0.00    -0.176 C  
BRANCH   8   9
HETATM    9  O   UNL     1      -9.881  14.675  67.311  1.00  0.00    -0.227 OA 
BRANCH   9  10
HETATM   10  C   UNL     1     -10.726  15.807  67.506  1.00  0.00    -0.317 C  
BRANCH  10  11
HETATM   11  C   UNL     1     -10.390  16.929  66.530  1.00  0.00    -0.299 C  
HETATM   12  O   UNL     1     -10.294  16.731  65.326  1.00  0.00    -0.622 OA 
HETATM   13  N   UNL     1     -10.268  18.199  67.115  1.00  0.00    -0.350 N  
HETATM   14  H   UNL     1     -10.477  18.309  68.107  1.00  0.00     0.000 HD 
BRANCH  13  15
HETATM   15  S   UNL     1      -9.792  19.526  66.235  1.00  0.00    -0.441 S  
HETATM   16  O   UNL     1      -8.431  19.350  65.804  1.00  0.00    -0.419 OA 
HETATM   17  C   UNL     1      -9.767  20.745  67.511  1.00  0.00    -0.304 C  
HETATM   18  O   UNL     1     -10.861  19.878  65.335  1.00  0.00    -0.398 OA 
ENDBRANCH  13  15
ENDBRANCH  10  11
ENDBRANCH   9  10
ENDBRANCH   8   9
ENDBRANCH   7   8
ENDBRANCH   6   7
ENDBRANCH   5   6
ENDBRANCH   4   5
BRANCH   4  19
HETATM   19  C   UNL     1      -9.574  10.725  67.447  1.00  0.00    -0.159 A  
HETATM   20  N   UNL     1     -10.238  10.340  69.768  1.00  0.00    -0.238 NA 
HETATM   21  N   UNL     1      -9.575   9.388  67.235  1.00  0.00    -0.146 NA 
HETATM   22  C   UNL     1     -10.207   8.990  69.537  1.00  0.00    -0.203 A  
HETATM   23  C   UNL     1      -9.899   8.513  68.247  1.00  0.00    -0.169 A  
HETATM   24  C   UNL     1      -9.930  11.155  68.719  1.00  0.00    -0.198 A  
BRANCH  23  25
HETATM   25  C   UNL     1      -9.821   7.082  67.837  1.00  0.00    -0.161 A  
HETATM   26  C   UNL     1     -10.814   6.514  67.016  1.00  0.00    -0.465 A  
HETATM   27  C   UNL     1      -8.538   5.016  67.543  1.00  0.00    -0.104 A  
HETATM   28  C   UNL     1      -8.743   6.244  68.177  1.00  0.00    -0.115 A  
HETATM   29  C   UNL     1      -9.497   4.517  66.674  1.00  0.00    -0.183 A  
HETATM   30  C   UNL     1     -10.664   5.241  66.454  1.00  0.00    -0.290 A  
ENDBRANCH  23  25
BRANCH  22  31
HETATM   31  C   UNL     1     -10.473   8.161  70.759  1.00  0.00    -0.223 A  
HETATM   32  C   UNL     1     -10.067   7.684  73.139  1.00  0.00    -0.382 A  
HETATM   33  C   UNL     1     -11.658   6.355  71.933  1.00  0.00    -0.367 A  
HETATM   34  C   UNL     1     -11.318   7.032  70.754  1.00  0.00    -0.339 A  
HETATM   35  C   UNL     1      -9.818   8.435  71.981  1.00  0.00    -0.354 A  
HETATM   36  C   UNL     1     -11.035   6.687  73.129  1.00  0.00    -0.263 A  
ENDBRANCH  22  31
ENDBRANCH   4  19
ENDBRANCH   2   4
TORSDOF 12
ENDMDL
MODEL      131
REMARK 921   NORMALIZED FREE ENERGY PREDICTED BY IDOCK:   -5.24 KCAL/MOL
REMARK 922        TOTAL FREE ENERGY PREDICTED BY IDOCK:  -10.23 KCAL/MOL
REMARK 923 INTER-LIGAND FREE ENERGY PREDICTED BY IDOCK:   -9.16 KCAL/MOL
REMARK 924 INTRA-LIGAND FREE ENERGY PREDICTED BY IDOCK:   -1.07 KCAL/MOL
REMARK 927      BINDING AFFINITY PREDICTED BY RF-SCORE:    0.00 PKD
ROOT
HETATM    1  C   UNL     1      -7.854   4.492  66.065  1.00  0.00    -0.095 C  
HETATM    2  C   UNL     1      -7.279   5.267  67.253  1.00  0.00    -0.075 C  
HETATM    3  C   UNL     1      -5.808   4.893  67.447  1.00  0.00    -0.022 C  
ENDROOT
BRANCH   2   4
HETATM    4  N   UNL     1      -7.462   6.736  67.163  1.00  0.00    -0.089 NA 
BRANCH   4   5
HETATM    5  C   UNL     1      -6.590   7.583  66.330  1.00  0.00    -0.053 C  
BRANCH   5   6
HETATM    6  C   UNL     1      -7.208   7.912  64.965  1.00  0.00    -0.062 C  
BRANCH   6   7
HETATM    7  C   UNL     1      -6.555   9.112  64.256  1.00  0.00    -0.084 C  
BRANCH   7   8
HETATM    8  C   UNL     1      -7.256   9.565  62.975  1.00  0.00    -0.106 C  
BRANCH   8   9
HETATM    9  O   UNL     1      -8.667   9.550  63.178  1.00  0.00    -0.205 OA 
BRANCH   9  10
HETATM   10  C   UNL     1      -9.283  10.750  62.715  1.00  0.00    -0.327 C  
BRANCH  10  11
HETATM   11  C   UNL     1     -10.395  11.204  63.653  1.00  0.00    -0.389 C  
HETATM   12  O   UNL     1     -10.646  10.611  64.694  1.00  0.00    -0.296 OA 
HETATM   13  N   UNL     1     -11.052  12.380  63.258  1.00  0.00    -0.666 N  
HETATM   14  H   UNL     1     -10.714  12.886  62.441  1.00  0.00     0.000 HD 
BRANCH  13  15
HETATM   15  S   UNL     1     -12.367  12.968  64.087  1.00  0.00    -0.338 S  
HETATM   16  O   UNL     1     -12.661  14.302  63.633  1.00  0.00    -0.831 OA 
HETATM   17  C   UNL     1     -11.668  13.124  65.700  1.00  0.00    -0.364 C  
HETATM   18  O   UNL     1     -13.361  11.926  64.156  1.00  0.00    -0.652 OA 
ENDBRANCH  13  15
ENDBRANCH  10  11
ENDBRANCH   9  10
ENDBRANCH   8   9
ENDBRANCH   7   8
ENDBRANCH   6   7
ENDBRANCH   5   6
ENDBRANCH   4   5
BRANCH   4  19
HETATM   19  C   UNL     1      -8.462   7.281  67.976  1.00  0.00    -0.123 A  
HETATM   20  N   UNL     1     -10.461   8.657  68.272  1.00  0.00    -0.209 NA 
HETATM   21  N   UNL     1      -8.456   7.020  69.304  1.00  0.00    -0.132 NA 
HETATM   22  C   UNL     1     -10.420   8.400  69.617  1.00  0.00    -0.221 A  
HETATM   23  C   UNL     1      -9.421   7.549  70.132  1.00  0.00    -0.161 A  
HETATM   24  C   UNL     1      -9.491   8.084  67.503  1.00  0.00    -0.146 A  
BRANCH  23  25
HETATM   25  C   UNL     1      -9.238   7.177  71.564  1.00  0.00    -0.148 A  
HETATM   26  C   UNL     1      -9.241   5.826  71.961  1.00  0.00    -0.156 A  
HETATM   27  C   UNL     1      -8.526   7.740  73.839  1.00  0.00    -0.298 A  
HETATM   28  C   UNL     1      -8.989   8.121  72.576  1.00  0.00    -0.286 A  
HETATM   29  C   UNL     1      -8.461   6.397  74.176  1.00  0.00    -0.129 A  
HETATM   30  C   UNL     1      -8.875   5.440  73.255  1.00  0.00    -0.118 A  
ENDBRANCH  23  25
BRANCH  22  31
HETATM   31  C   UNL     1     -11.466   9.133  70.405  1.00  0.00    -0.228 A  
HETATM   32  C   UNL     1     -13.323   9.107  72.020  1.00  0.00    -0.507 A  
HETATM   33  C   UNL     1     -12.568  11.205  71.135  1.00  0.00    -0.513 A  
HETATM   34  C   UNL     1     -11.681  10.522  70.293  1.00  0.00    -0.420 A  
HETATM   35  C   UNL     1     -12.351   8.439  71.260  1.00  0.00    -0.289 A  
HETATM   36  C   UNL     1     -13.386  10.495  72.005  1.00  0.00    -0.420 A  
ENDBRANCH  22  31
ENDBRANCH   4  19
ENDBRANCH   2   4
TORSDOF 12
ENDMDL
MODEL      132
REMARK 921   NORMALIZED FREE ENERGY PREDICTED BY IDOCK:   -5.23 KCAL/MOL
REMARK 922        TOTAL FREE ENERGY PREDICTED BY IDOCK:  -10.22 KCAL/MOL
REMARK 923 INTER-LIGAND FREE ENERGY PREDICTED BY IDOCK:   -8.86 KCAL/MOL
REMARK 924 INTRA-LIGAND FREE ENERGY PREDICTED BY IDOCK:   -1.36 KCAL/MOL
REMARK 927      BINDING AFFINITY PREDICTED BY RF-SCORE:    0.00 PKD
ROOT
HETATM    1  C   UNL     1     -12.449  12.395  64.160  1.00  0.00    -0.534 C  
HETATM    2  C   UNL     1     -11.630  13.575  64.689  1.00  0.00    -0.368 C  
HETATM    3  C   UNL     1     -12.248  14.888  64.206  1.00  0.00    -0.365 C  
ENDROOT
BRANCH   2   4
HETATM    4  N   UNL     1     -11.440  13.568  66.160  1.00  0.00    -0.317 NA 
BRANCH   4   5
HETATM    5  C   UNL     1     -11.496  14.803  66.962  1.00  0.00    -0.353 C  
BRANCH   5   6
HETATM    6  C   UNL     1     -10.108  15.310  67.371  1.00  0.00    -0.232 C  
BRANCH   6   7
HETATM    7  C   UNL     1      -9.536  16.391  66.436  1.00  0.00    -0.320 C  
BRANCH   7   8
HETATM    8  C   UNL     1     -10.443  17.602  66.217  1.00  0.00    -0.292 C  
BRANCH   8   9
HETATM    9  O   UNL     1      -9.644  18.743  65.913  1.00  0.00    -0.476 OA 
BRANCH   9  10
HETATM   10  C   UNL     1      -9.717  19.731  66.939  1.00  0.00    -0.385 C  
BRANCH  10  11
HETATM   11  C   UNL     1      -8.362  19.949  67.601  1.00  0.00    -0.321 C  
HETATM   12  O   UNL     1      -7.717  20.975  67.430  1.00  0.00    -0.312 OA 
HETATM   13  N   UNL     1      -7.957  18.918  68.462  1.00  0.00    -0.336 N  
HETATM   14  H   UNL     1      -8.598  18.147  68.648  1.00  0.00     0.000 HD 
BRANCH  13  15
HETATM   15  S   UNL     1      -6.461  18.918  69.186  1.00  0.00    -0.293 S  
HETATM   16  O   UNL     1      -6.183  20.230  69.709  1.00  0.00    -0.340 OA 
HETATM   17  C   UNL     1      -5.434  18.710  67.766  1.00  0.00    -0.168 C  
HETATM   18  O   UNL     1      -6.340  17.718  69.974  1.00  0.00    -0.139 OA 
ENDBRANCH  13  15
ENDBRANCH  10  11
ENDBRANCH   9  10
ENDBRANCH   8   9
ENDBRANCH   7   8
ENDBRANCH   6   7
ENDBRANCH   5   6
ENDBRANCH   4   5
BRANCH   4  19
HETATM   19  C   UNL     1     -11.124  12.331  66.732  1.00  0.00    -0.296 A  
HETATM   20  N   UNL     1     -11.580  10.539  68.332  1.00  0.00    -0.353 NA 
HETATM   21  N   UNL     1     -10.032  11.657  66.303  1.00  0.00    -0.211 NA 
HETATM   22  C   UNL     1     -10.456   9.887  67.899  1.00  0.00    -0.236 A  
HETATM   23  C   UNL     1      -9.691  10.442  66.853  1.00  0.00    -0.181 A  
HETATM   24  C   UNL     1     -11.878  11.727  67.731  1.00  0.00    -0.196 A  
BRANCH  23  25
HETATM   25  C   UNL     1      -8.445   9.862  66.275  1.00  0.00    -0.133 A  
HETATM   26  C   UNL     1      -8.505   8.764  65.394  1.00  0.00    -0.186 A  
HETATM   27  C   UNL     1      -6.063  10.038  65.733  1.00  0.00    -0.086 A  
HETATM   28  C   UNL     1      -7.167  10.400  66.510  1.00  0.00    -0.118 A  
HETATM   29  C   UNL     1      -6.172   9.006  64.813  1.00  0.00    -0.066 A  
HETATM   30  C   UNL     1      -7.380   8.329  64.685  1.00  0.00    -0.090 A  
ENDBRANCH  23  25
BRANCH  22  31
HETATM   31  C   UNL     1     -10.150   8.634  68.666  1.00  0.00    -0.207 A  
HETATM   32  C   UNL     1     -10.307   6.189  68.901  1.00  0.00    -0.258 A  
HETATM   33  C   UNL     1      -9.080   7.447  70.534  1.00  0.00    -0.157 A  
HETATM   34  C   UNL     1      -9.475   8.635  69.904  1.00  0.00    -0.168 A  
HETATM   35  C   UNL     1     -10.598   7.374  68.209  1.00  0.00    -0.204 A  
HETATM   36  C   UNL     1      -9.493   6.222  70.027  1.00  0.00    -0.167 A  
ENDBRANCH  22  31
ENDBRANCH   4  19
ENDBRANCH   2   4
TORSDOF 12
ENDMDL
MODEL      133
REMARK 921   NORMALIZED FREE ENERGY PREDICTED BY IDOCK:   -5.21 KCAL/MOL
REMARK 922        TOTAL FREE ENERGY PREDICTED BY IDOCK:  -10.19 KCAL/MOL
REMARK 923 INTER-LIGAND FREE ENERGY PREDICTED BY IDOCK:   -9.10 KCAL/MOL
REMARK 924 INTRA-LIGAND FREE ENERGY PREDICTED BY IDOCK:   -1.09 KCAL/MOL
REMARK 927      BINDING AFFINITY PREDICTED BY RF-SCORE:    0.00 PKD
ROOT
HETATM    1  C   UNL     1      -7.294  11.448  66.938  1.00  0.00    -0.147 C  
HETATM    2  C   UNL     1      -7.977  10.994  65.646  1.00  0.00     0.034 C  
HETATM    3  C   UNL     1      -7.106   9.950  64.944  1.00  0.00    -0.132 C  
ENDROOT
BRANCH   2   4
HETATM    4  N   UNL     1      -9.366  10.511  65.833  1.00  0.00    -0.173 NA 
BRANCH   4   5
HETATM    5  C   UNL     1     -10.403  10.691  64.801  1.00  0.00    -0.283 C  
BRANCH   5   6
HETATM    6  C   UNL     1     -10.053  11.795  63.794  1.00  0.00    -0.421 C  
BRANCH   6   7
HETATM    7  C   UNL     1     -11.263  12.628  63.335  1.00  0.00    -0.404 C  
BRANCH   7   8
HETATM    8  C   UNL     1     -12.625  12.069  63.747  1.00  0.00    -0.454 C  
BRANCH   8   9
HETATM    9  O   UNL     1     -13.184  12.892  64.769  1.00  0.00    -0.764 OA 
BRANCH   9  10
HETATM   10  C   UNL     1     -12.367  14.030  65.039  1.00  0.00    -0.441 C  
BRANCH  10  11
HETATM   11  C   UNL     1     -11.855  14.021  66.475  1.00  0.00    -0.417 C  
HETATM   12  O   UNL     1     -12.190  13.158  67.275  1.00  0.00    -0.317 OA 
HETATM   13  N   UNL     1     -10.931  15.034  66.775  1.00  0.00    -0.320 N  
HETATM   14  H   UNL     1     -10.609  15.648  66.027  1.00  0.00     0.000 HD 
BRANCH  13  15
HETATM   15  S   UNL     1     -10.349  15.260  68.314  1.00  0.00    -0.238 S  
HETATM   16  O   UNL     1     -11.438  15.589  69.194  1.00  0.00    -0.300 OA 
HETATM   17  C   UNL     1      -9.422  16.743  68.076  1.00  0.00    -0.233 C  
HETATM   18  O   UNL     1      -9.402  14.211  68.597  1.00  0.00    -0.201 OA 
ENDBRANCH  13  15
ENDBRANCH  10  11
ENDBRANCH   9  10
ENDBRANCH   8   9
ENDBRANCH   7   8
ENDBRANCH   6   7
ENDBRANCH   5   6
ENDBRANCH   4   5
BRANCH   4  19
HETATM   19  C   UNL     1      -9.656   9.944  67.079  1.00  0.00    -0.175 A  
HETATM   20  N   UNL     1     -10.111  10.162  69.471  1.00  0.00    -0.224 NA 
HETATM   21  N   UNL     1      -9.759   8.600  67.191  1.00  0.00    -0.174 NA 
HETATM   22  C   UNL     1     -10.185   8.798  69.566  1.00  0.00    -0.208 A  
HETATM   23  C   UNL     1     -10.035   8.011  68.406  1.00  0.00    -0.185 A  
HETATM   24  C   UNL     1      -9.859  10.684  68.237  1.00  0.00    -0.163 A  
BRANCH  23  25
HETATM   25  C   UNL     1     -10.083   6.523  68.343  1.00  0.00    -0.169 A  
HETATM   26  C   UNL     1     -10.287   5.862  67.117  1.00  0.00    -0.286 A  
HETATM   27  C   UNL     1      -9.617   4.331  69.333  1.00  0.00    -0.267 A  
HETATM   28  C   UNL     1      -9.866   5.700  69.463  1.00  0.00    -0.238 A  
HETATM   29  C   UNL     1      -9.745   3.720  68.095  1.00  0.00    -0.113 A  
HETATM   30  C   UNL     1     -10.138   4.475  66.995  1.00  0.00    -0.180 A  
ENDBRANCH  23  25
BRANCH  22  31
HETATM   31  C   UNL     1     -10.378   8.299  70.968  1.00  0.00    -0.230 A  
HETATM   32  C   UNL     1     -11.855   7.430  72.734  1.00  0.00    -0.107 A  
HETATM   33  C   UNL     1      -9.508   7.652  73.174  1.00  0.00    -0.300 A  
HETATM   34  C   UNL     1      -9.337   8.247  71.917  1.00  0.00    -0.282 A  
HETATM   35  C   UNL     1     -11.656   7.917  71.435  1.00  0.00    -0.304 A  
HETATM   36  C   UNL     1     -10.769   7.237  73.580  1.00  0.00    -0.282 A  
ENDBRANCH  22  31
ENDBRANCH   4  19
ENDBRANCH   2   4
TORSDOF 12
ENDMDL
MODEL      134
REMARK 921   NORMALIZED FREE ENERGY PREDICTED BY IDOCK:   -5.21 KCAL/MOL
REMARK 922        TOTAL FREE ENERGY PREDICTED BY IDOCK:  -10.19 KCAL/MOL
REMARK 923 INTER-LIGAND FREE ENERGY PREDICTED BY IDOCK:   -9.26 KCAL/MOL
REMARK 924 INTRA-LIGAND FREE ENERGY PREDICTED BY IDOCK:   -0.93 KCAL/MOL
REMARK 927      BINDING AFFINITY PREDICTED BY RF-SCORE:    0.00 PKD
ROOT
HETATM    1  C   UNL     1      -9.407  12.349  68.246  1.00  0.00    -0.199 C  
HETATM    2  C   UNL     1      -8.891  11.976  66.854  1.00  0.00    -0.197 C  
HETATM    3  C   UNL     1      -7.399  11.649  66.930  1.00  0.00    -0.125 C  
ENDROOT
BRANCH   2   4
HETATM    4  N   UNL     1      -9.656  10.889  66.196  1.00  0.00    -0.195 NA 
BRANCH   4   5
HETATM    5  C   UNL     1     -10.599  11.153  65.095  1.00  0.00    -0.253 C  
BRANCH   5   6
HETATM    6  C   UNL     1     -11.817  11.974  65.539  1.00  0.00    -0.250 C  
BRANCH   6   7
HETATM    7  C   UNL     1     -12.368  12.913  64.450  1.00  0.00    -0.468 C  
BRANCH   7   8
HETATM    8  C   UNL     1     -12.111  14.401  64.690  1.00  0.00    -0.471 C  
BRANCH   8   9
HETATM    9  O   UNL     1     -10.916  14.557  65.453  1.00  0.00    -0.309 OA 
BRANCH   9  10
HETATM   10  C   UNL     1     -11.131  15.348  66.620  1.00  0.00    -0.236 C  
BRANCH  10  11
HETATM   11  C   UNL     1     -10.381  16.672  66.542  1.00  0.00    -0.299 C  
HETATM   12  O   UNL     1      -9.660  16.953  65.594  1.00  0.00    -0.534 OA 
HETATM   13  N   UNL     1     -10.637  17.555  67.603  1.00  0.00    -0.370 N  
HETATM   14  H   UNL     1     -11.339  17.304  68.298  1.00  0.00     0.000 HD 
BRANCH  13  15
HETATM   15  S   UNL     1      -9.827  18.998  67.756  1.00  0.00    -0.355 S  
HETATM   16  O   UNL     1     -10.281  19.678  68.940  1.00  0.00    -0.438 OA 
HETATM   17  C   UNL     1     -10.500  19.874  66.379  1.00  0.00    -0.475 C  
HETATM   18  O   UNL     1      -8.434  18.767  67.469  1.00  0.00    -0.266 OA 
ENDBRANCH  13  15
ENDBRANCH  10  11
ENDBRANCH   9  10
ENDBRANCH   8   9
ENDBRANCH   7   8
ENDBRANCH   6   7
ENDBRANCH   5   6
ENDBRANCH   4   5
BRANCH   4  19
HETATM   19  C   UNL     1      -9.490   9.609  66.735  1.00  0.00    -0.161 A  
HETATM   20  N   UNL     1      -8.642   7.321  66.582  1.00  0.00    -0.122 NA 
HETATM   21  N   UNL     1     -10.020   9.322  67.946  1.00  0.00    -0.178 NA 
HETATM   22  C   UNL     1      -9.208   7.045  67.799  1.00  0.00    -0.124 A  
HETATM   23  C   UNL     1      -9.881   8.068  68.499  1.00  0.00    -0.174 A  
HETATM   24  C   UNL     1      -8.794   8.587  66.100  1.00  0.00    -0.167 A  
BRANCH  23  25
HETATM   25  C   UNL     1     -10.552   7.929  69.823  1.00  0.00    -0.242 A  
HETATM   26  C   UNL     1     -10.269   8.828  70.869  1.00  0.00    -0.284 A  
HETATM   27  C   UNL     1     -12.358   7.034  71.214  1.00  0.00    -0.426 A  
HETATM   28  C   UNL     1     -11.536   6.959  70.086  1.00  0.00    -0.354 A  
HETATM   29  C   UNL     1     -12.107   7.984  72.192  1.00  0.00    -0.391 A  
HETATM   30  C   UNL     1     -11.025   8.845  72.047  1.00  0.00    -0.412 A  
ENDBRANCH  23  25
BRANCH  22  31
HETATM   31  C   UNL     1      -9.071   5.612  68.220  1.00  0.00    -0.112 A  
HETATM   32  C   UNL     1      -8.168   3.924  69.766  1.00  0.00    -0.067 A  
HETATM   33  C   UNL     1      -9.609   3.225  67.980  1.00  0.00    -0.148 A  
HETATM   34  C   UNL     1      -9.633   4.540  67.496  1.00  0.00    -0.211 A  
HETATM   35  C   UNL     1      -8.294   5.255  69.345  1.00  0.00    -0.095 A  
HETATM   36  C   UNL     1      -8.879   2.918  69.121  1.00  0.00    -0.152 A  
ENDBRANCH  22  31
ENDBRANCH   4  19
ENDBRANCH   2   4
TORSDOF 12
ENDMDL
MODEL      135
REMARK 921   NORMALIZED FREE ENERGY PREDICTED BY IDOCK:   -5.20 KCAL/MOL
REMARK 922        TOTAL FREE ENERGY PREDICTED BY IDOCK:  -10.16 KCAL/MOL
REMARK 923 INTER-LIGAND FREE ENERGY PREDICTED BY IDOCK:   -9.23 KCAL/MOL
REMARK 924 INTRA-LIGAND FREE ENERGY PREDICTED BY IDOCK:   -0.93 KCAL/MOL
REMARK 927      BINDING AFFINITY PREDICTED BY RF-SCORE:    0.00 PKD
ROOT
HETATM    1  C   UNL     1     -10.399   7.763  73.113  1.00  0.00    -0.403 C  
HETATM    2  C   UNL     1     -10.152   8.704  71.932  1.00  0.00    -0.328 C  
HETATM    3  C   UNL     1      -8.685   8.619  71.505  1.00  0.00    -0.266 C  
ENDROOT
BRANCH   2   4
HETATM    4  N   UNL     1     -11.068   8.492  70.786  1.00  0.00    -0.250 NA 
BRANCH   4   5
HETATM    5  C   UNL     1     -11.797   7.226  70.592  1.00  0.00    -0.252 C  
BRANCH   5   6
HETATM    6  C   UNL     1     -10.887   6.081  70.130  1.00  0.00    -0.409 C  
BRANCH   6   7
HETATM    7  C   UNL     1     -10.745   5.973  68.601  1.00  0.00    -0.363 C  
BRANCH   7   8
HETATM    8  C   UNL     1      -9.313   5.789  68.097  1.00  0.00    -0.109 C  
BRANCH   8   9
HETATM    9  O   UNL     1      -8.992   4.400  68.084  1.00  0.00    -0.108 OA 
BRANCH   9  10
HETATM   10  C   UNL     1      -7.961   4.103  67.143  1.00  0.00    -0.096 C  
BRANCH  10  11
HETATM   11  C   UNL     1      -8.540   3.677  65.799  1.00  0.00    -0.114 C  
HETATM   12  O   UNL     1      -9.227   2.671  65.680  1.00  0.00    -0.146 OA 
HETATM   13  N   UNL     1      -8.275   4.559  64.740  1.00  0.00    -0.104 N  
HETATM   14  H   UNL     1      -7.796   5.438  64.935  1.00  0.00     0.000 HD 
BRANCH  13  15
HETATM   15  S   UNL     1      -8.722   4.211  63.178  1.00  0.00    -0.116 S  
HETATM   16  O   UNL     1     -10.049   3.654  63.172  1.00  0.00    -0.148 OA 
HETATM   17  C   UNL     1      -7.612   2.883  62.831  1.00  0.00    -0.058 C  
HETATM   18  O   UNL     1      -8.332   5.317  62.339  1.00  0.00    -0.097 OA 
ENDBRANCH  13  15
ENDBRANCH  10  11
ENDBRANCH   9  10
ENDBRANCH   8   9
ENDBRANCH   7   8
ENDBRANCH   6   7
ENDBRANCH   5   6
ENDBRANCH   4   5
BRANCH   4  19
HETATM   19  C   UNL     1     -11.140   9.535  69.857  1.00  0.00    -0.216 A  
HETATM   20  N   UNL     1     -10.933  10.377  67.571  1.00  0.00    -0.304 NA 
HETATM   21  N   UNL     1     -11.463  10.780  70.276  1.00  0.00    -0.313 NA 
HETATM   22  C   UNL     1     -11.237  11.634  68.022  1.00  0.00    -0.263 A  
HETATM   23  C   UNL     1     -11.533  11.829  69.387  1.00  0.00    -0.307 A  
HETATM   24  C   UNL     1     -10.903   9.376  68.497  1.00  0.00    -0.105 A  
BRANCH  23  25
HETATM   25  C   UNL     1     -11.876  13.128  70.032  1.00  0.00    -0.360 A  
HETATM   26  C   UNL     1     -11.286  14.328  69.588  1.00  0.00    -0.292 A  
HETATM   27  C   UNL     1     -13.357  14.490  71.429  1.00  0.00    -0.427 A  
HETATM   28  C   UNL     1     -12.836  13.249  71.053  1.00  0.00    -0.311 A  
HETATM   29  C   UNL     1     -12.811  15.655  70.913  1.00  0.00    -0.498 A  
HETATM   30  C   UNL     1     -11.735  15.576  70.035  1.00  0.00    -0.363 A  
ENDBRANCH  23  25
BRANCH  22  31
HETATM   31  C   UNL     1     -11.165  12.692  66.960  1.00  0.00    -0.348 A  
HETATM   32  C   UNL     1     -12.292  14.174  65.352  1.00  0.00    -0.475 A  
HETATM   33  C   UNL     1      -9.908  14.295  65.585  1.00  0.00    -0.301 A  
HETATM   34  C   UNL     1      -9.949  13.214  66.475  1.00  0.00    -0.268 A  
HETATM   35  C   UNL     1     -12.336  13.173  66.332  1.00  0.00    -0.300 A  
HETATM   36  C   UNL     1     -11.084  14.779  65.027  1.00  0.00    -0.412 A  
ENDBRANCH  22  31
ENDBRANCH   4  19
ENDBRANCH   2   4
TORSDOF 12
ENDMDL
MODEL      136
REMARK 921   NORMALIZED FREE ENERGY PREDICTED BY IDOCK:   -5.19 KCAL/MOL
REMARK 922        TOTAL FREE ENERGY PREDICTED BY IDOCK:  -10.14 KCAL/MOL
REMARK 923 INTER-LIGAND FREE ENERGY PREDICTED BY IDOCK:   -8.16 KCAL/MOL
REMARK 924 INTRA-LIGAND FREE ENERGY PREDICTED BY IDOCK:   -1.98 KCAL/MOL
REMARK 927      BINDING AFFINITY PREDICTED BY RF-SCORE:    0.00 PKD
ROOT
HETATM    1  C   UNL     1     -12.852   7.629  71.006  1.00  0.00    -0.132 C  
HETATM    2  C   UNL     1     -11.382   7.364  70.673  1.00  0.00    -0.281 C  
HETATM    3  C   UNL     1     -11.285   6.562  69.373  1.00  0.00    -0.418 C  
ENDROOT
BRANCH   2   4
HETATM    4  N   UNL     1     -10.542   8.586  70.625  1.00  0.00    -0.204 NA 
BRANCH   4   5
HETATM    5  C   UNL     1      -9.651   8.965  71.735  1.00  0.00    -0.282 C  
BRANCH   5   6
HETATM    6  C   UNL     1      -8.314   8.213  71.707  1.00  0.00    -0.181 C  
BRANCH   6   7
HETATM    7  C   UNL     1      -7.087   9.125  71.521  1.00  0.00     0.018 C  
BRANCH   7   8
HETATM    8  C   UNL     1      -6.924   9.708  70.117  1.00  0.00    -0.105 C  
BRANCH   8   9
HETATM    9  O   UNL     1      -6.959  11.132  70.190  1.00  0.00    -0.131 OA 
BRANCH   9  10
HETATM   10  C   UNL     1      -6.081  11.733  69.241  1.00  0.00    -0.084 C  
BRANCH  10  11
HETATM   11  C   UNL     1      -6.640  13.052  68.720  1.00  0.00    -0.096 C  
HETATM   12  O   UNL     1      -5.924  13.900  68.205  1.00  0.00    -0.095 OA 
HETATM   13  N   UNL     1      -8.034  13.178  68.822  1.00  0.00    -0.327 N  
HETATM   14  H   UNL     1      -8.581  12.385  69.154  1.00  0.00     0.000 HD 
BRANCH  13  15
HETATM   15  S   UNL     1      -8.818  14.587  68.415  1.00  0.00    -0.183 S  
HETATM   16  O   UNL     1      -8.274  15.675  69.183  1.00  0.00    -0.212 OA 
HETATM   17  C   UNL     1     -10.419  14.248  69.076  1.00  0.00    -0.204 C  
HETATM   18  O   UNL     1      -8.954  14.629  66.980  1.00  0.00    -0.215 OA 
ENDBRANCH  13  15
ENDBRANCH  10  11
ENDBRANCH   9  10
ENDBRANCH   8   9
ENDBRANCH   7   8
ENDBRANCH   6   7
ENDBRANCH   5   6
ENDBRANCH   4   5
BRANCH   4  19
HETATM   19  C   UNL     1     -10.705   9.399  69.499  1.00  0.00    -0.222 A  
HETATM   20  N   UNL     1     -11.937  11.108  68.258  1.00  0.00    -0.619 NA 
HETATM   21  N   UNL     1      -9.824   9.305  68.476  1.00  0.00    -0.154 NA 
HETATM   22  C   UNL     1     -11.047  10.978  67.225  1.00  0.00    -0.294 A  
HETATM   23  C   UNL     1      -9.963  10.085  67.350  1.00  0.00    -0.197 A  
HETATM   24  C   UNL     1     -11.731  10.325  69.355  1.00  0.00    -0.095 A  
BRANCH  23  25
HETATM   25  C   UNL     1      -8.917   9.827  66.320  1.00  0.00    -0.180 A  
HETATM   26  C   UNL     1      -9.055   8.762  65.409  1.00  0.00    -0.194 A  
HETATM   27  C   UNL     1      -6.990  10.571  65.005  1.00  0.00     0.004 A  
HETATM   28  C   UNL     1      -7.788  10.648  66.149  1.00  0.00    -0.152 A  
HETATM   29  C   UNL     1      -7.201   9.559  64.080  1.00  0.00    -0.115 A  
HETATM   30  C   UNL     1      -8.198   8.618  64.312  1.00  0.00    -0.160 A  
ENDBRANCH  23  25
BRANCH  22  31
HETATM   31  C   UNL     1     -11.390  11.808  66.023  1.00  0.00    -0.335 A  
HETATM   32  C   UNL     1     -11.324  12.160  63.589  1.00  0.00    -0.545 A  
HETATM   33  C   UNL     1     -12.478  13.745  64.970  1.00  0.00    -0.449 A  
HETATM   34  C   UNL     1     -12.047  13.053  66.110  1.00  0.00    -0.473 A  
HETATM   35  C   UNL     1     -10.997  11.409  64.726  1.00  0.00    -0.303 A  
HETATM   36  C   UNL     1     -12.120  13.294  63.707  1.00  0.00    -0.546 A  
ENDBRANCH  22  31
ENDBRANCH   4  19
ENDBRANCH   2   4
TORSDOF 12
ENDMDL
MODEL      137
REMARK 921   NORMALIZED FREE ENERGY PREDICTED BY IDOCK:   -5.19 KCAL/MOL
REMARK 922        TOTAL FREE ENERGY PREDICTED BY IDOCK:  -10.14 KCAL/MOL
REMARK 923 INTER-LIGAND FREE ENERGY PREDICTED BY IDOCK:   -8.63 KCAL/MOL
REMARK 924 INTRA-LIGAND FREE ENERGY PREDICTED BY IDOCK:   -1.52 KCAL/MOL
REMARK 927      BINDING AFFINITY PREDICTED BY RF-SCORE:    0.00 PKD
ROOT
HETATM    1  C   UNL     1     -13.660   9.617  70.636  1.00  0.00     0.162 C  
HETATM    2  C   UNL     1     -12.411   9.735  71.513  1.00  0.00    -0.403 C  
HETATM    3  C   UNL     1     -12.367   8.571  72.504  1.00  0.00    -0.372 C  
ENDROOT
BRANCH   2   4
HETATM    4  N   UNL     1     -11.145   9.853  70.750  1.00  0.00    -0.327 NA 
BRANCH   4   5
HETATM    5  C   UNL     1      -9.931   9.109  71.130  1.00  0.00    -0.307 C  
BRANCH   5   6
HETATM    6  C   UNL     1      -9.453   8.151  70.032  1.00  0.00    -0.167 C  
BRANCH   6   7
HETATM    7  C   UNL     1      -8.026   8.438  69.530  1.00  0.00    -0.111 C  
BRANCH   7   8
HETATM    8  C   UNL     1      -7.387   9.707  70.092  1.00  0.00    -0.139 C  
BRANCH   8   9
HETATM    9  O   UNL     1      -6.419  10.199  69.167  1.00  0.00    -0.047 OA 
BRANCH   9  10
HETATM   10  C   UNL     1      -7.032  10.776  68.016  1.00  0.00    -0.073 C  
BRANCH  10  11
HETATM   11  C   UNL     1      -6.574  12.214  67.802  1.00  0.00    -0.100 C  
HETATM   12  O   UNL     1      -5.629  12.491  67.075  1.00  0.00    -0.322 OA 
HETATM   13  N   UNL     1      -7.358  13.182  68.449  1.00  0.00    -0.108 N  
HETATM   14  H   UNL     1      -8.200  12.888  68.943  1.00  0.00     0.000 HD 
BRANCH  13  15
HETATM   15  S   UNL     1      -6.951  14.793  68.431  1.00  0.00    -0.125 S  
HETATM   16  O   UNL     1      -5.805  15.006  69.274  1.00  0.00    -0.100 OA 
HETATM   17  C   UNL     1      -8.341  15.469  69.283  1.00  0.00    -0.257 C  
HETATM   18  O   UNL     1      -7.021  15.262  67.070  1.00  0.00    -0.228 OA 
ENDBRANCH  13  15
ENDBRANCH  10  11
ENDBRANCH   9  10
ENDBRANCH   8   9
ENDBRANCH   7   8
ENDBRANCH   6   7
ENDBRANCH   5   6
ENDBRANCH   4   5
BRANCH   4  19
HETATM   19  C   UNL     1     -11.147  10.771  69.695  1.00  0.00    -0.279 A  
HETATM   20  N   UNL     1     -11.601  13.003  68.807  1.00  0.00    -0.288 NA 
HETATM   21  N   UNL     1     -10.725  10.380  68.470  1.00  0.00    -0.206 NA 
HETATM   22  C   UNL     1     -11.193  12.579  67.570  1.00  0.00    -0.291 A  
HETATM   23  C   UNL     1     -10.724  11.258  67.409  1.00  0.00    -0.242 A  
HETATM   24  C   UNL     1     -11.556  12.093  69.821  1.00  0.00    -0.262 A  
BRANCH  23  25
HETATM   25  C   UNL     1     -10.253  10.645  66.135  1.00  0.00    -0.308 A  
HETATM   26  C   UNL     1     -10.382  11.336  64.915  1.00  0.00    -0.362 A  
HETATM   27  C   UNL     1      -8.909   8.984  64.938  1.00  0.00    -0.190 A  
HETATM   28  C   UNL     1      -9.604   9.399  66.077  1.00  0.00    -0.328 A  
HETATM   29  C   UNL     1      -8.987   9.729  63.770  1.00  0.00    -0.272 A  
HETATM   30  C   UNL     1      -9.772  10.876  63.742  1.00  0.00    -0.354 A  
ENDBRANCH  23  25
BRANCH  22  31
HETATM   31  C   UNL     1     -11.353  13.610  66.493  1.00  0.00    -0.335 A  
HETATM   32  C   UNL     1     -10.536  15.619  65.329  1.00  0.00    -0.448 A  
HETATM   33  C   UNL     1     -12.526  14.536  64.540  1.00  0.00    -0.346 A  
HETATM   34  C   UNL     1     -12.463  13.649  65.624  1.00  0.00    -0.540 A  
HETATM   35  C   UNL     1     -10.415  14.656  66.342  1.00  0.00    -0.296 A  
HETATM   36  C   UNL     1     -11.556  15.518  64.390  1.00  0.00    -0.258 A  
ENDBRANCH  22  31
ENDBRANCH   4  19
ENDBRANCH   2   4
TORSDOF 12
ENDMDL
MODEL      138
REMARK 921   NORMALIZED FREE ENERGY PREDICTED BY IDOCK:   -5.19 KCAL/MOL
REMARK 922        TOTAL FREE ENERGY PREDICTED BY IDOCK:  -10.14 KCAL/MOL
REMARK 923 INTER-LIGAND FREE ENERGY PREDICTED BY IDOCK:   -8.95 KCAL/MOL
REMARK 924 INTRA-LIGAND FREE ENERGY PREDICTED BY IDOCK:   -1.19 KCAL/MOL
REMARK 927      BINDING AFFINITY PREDICTED BY RF-SCORE:    0.00 PKD
ROOT
HETATM    1  C   UNL     1      -8.488   6.135  65.009  1.00  0.00    -0.071 C  
HETATM    2  C   UNL     1      -7.450   6.867  65.862  1.00  0.00    -0.084 C  
HETATM    3  C   UNL     1      -6.286   7.322  64.978  1.00  0.00    -0.037 C  
ENDROOT
BRANCH   2   4
HETATM    4  N   UNL     1      -8.003   7.989  66.658  1.00  0.00    -0.101 NA 
BRANCH   4   5
HETATM    5  C   UNL     1      -8.069   9.364  66.131  1.00  0.00    -0.111 C  
BRANCH   5   6
HETATM    6  C   UNL     1      -9.221   9.564  65.138  1.00  0.00    -0.305 C  
BRANCH   6   7
HETATM    7  C   UNL     1     -10.375  10.424  65.684  1.00  0.00    -0.260 C  
BRANCH   7   8
HETATM    8  C   UNL     1     -10.719  11.654  64.843  1.00  0.00    -0.296 C  
BRANCH   8   9
HETATM    9  O   UNL     1     -10.872  12.784  65.699  1.00  0.00    -0.267 OA 
BRANCH   9  10
HETATM   10  C   UNL     1     -10.719  14.012  64.989  1.00  0.00    -0.396 C  
BRANCH  10  11
HETATM   11  C   UNL     1      -9.993  15.055  65.830  1.00  0.00    -0.346 C  
HETATM   12  O   UNL     1      -9.087  14.753  66.595  1.00  0.00    -0.254 OA 
HETATM   13  N   UNL     1     -10.403  16.379  65.605  1.00  0.00    -0.366 N  
HETATM   14  H   UNL     1     -11.081  16.569  64.868  1.00  0.00     0.000 HD 
BRANCH  13  15
HETATM   15  S   UNL     1      -9.812  17.643  66.507  1.00  0.00    -0.327 S  
HETATM   16  O   UNL     1     -10.408  17.616  67.816  1.00  0.00    -0.333 OA 
HETATM   17  C   UNL     1     -10.541  19.000  65.645  1.00  0.00    -0.207 C  
HETATM   18  O   UNL     1      -8.389  17.724  66.294  1.00  0.00    -0.364 OA 
ENDBRANCH  13  15
ENDBRANCH  10  11
ENDBRANCH   9  10
ENDBRANCH   8   9
ENDBRANCH   7   8
ENDBRANCH   6   7
ENDBRANCH   5   6
ENDBRANCH   4   5
BRANCH   4  19
HETATM   19  C   UNL     1      -8.386   7.682  67.968  1.00  0.00    -0.124 A  
HETATM   20  N   UNL     1      -8.280   6.244  69.942  1.00  0.00    -0.119 NA 
HETATM   21  N   UNL     1      -9.270   8.481  68.609  1.00  0.00    -0.142 NA 
HETATM   22  C   UNL     1      -9.195   7.053  70.562  1.00  0.00    -0.159 A  
HETATM   23  C   UNL     1      -9.672   8.200  69.895  1.00  0.00    -0.176 A  
HETATM   24  C   UNL     1      -7.903   6.590  68.678  1.00  0.00    -0.110 A  
BRANCH  23  25
HETATM   25  C   UNL     1     -10.668   9.173  70.428  1.00  0.00    -0.282 A  
HETATM   26  C   UNL     1     -10.840  10.431  69.819  1.00  0.00    -0.342 A  
HETATM   27  C   UNL     1     -12.644   9.673  71.788  1.00  0.00    -0.497 A  
HETATM   28  C   UNL     1     -11.528   8.880  71.502  1.00  0.00    -0.391 A  
HETATM   29  C   UNL     1     -12.833  10.870  71.114  1.00  0.00    -0.508 A  
HETATM   30  C   UNL     1     -11.897  11.278  70.169  1.00  0.00    -0.449 A  
ENDBRANCH  23  25
BRANCH  22  31
HETATM   31  C   UNL     1      -9.621   6.560  71.914  1.00  0.00    -0.156 A  
HETATM   32  C   UNL     1     -11.030   5.092  73.298  1.00  0.00    -0.375 A  
HETATM   33  C   UNL     1      -9.419   6.515  74.363  1.00  0.00    -0.270 A  
HETATM   34  C   UNL     1      -9.109   7.081  73.120  1.00  0.00    -0.161 A  
HETATM   35  C   UNL     1     -10.631   5.580  72.046  1.00  0.00    -0.284 A  
HETATM   36  C   UNL     1     -10.378   5.514  74.451  1.00  0.00    -0.282 A  
ENDBRANCH  22  31
ENDBRANCH   4  19
ENDBRANCH   2   4
TORSDOF 12
ENDMDL
MODEL      139
REMARK 921   NORMALIZED FREE ENERGY PREDICTED BY IDOCK:   -5.17 KCAL/MOL
REMARK 922        TOTAL FREE ENERGY PREDICTED BY IDOCK:  -10.12 KCAL/MOL
REMARK 923 INTER-LIGAND FREE ENERGY PREDICTED BY IDOCK:   -8.32 KCAL/MOL
REMARK 924 INTRA-LIGAND FREE ENERGY PREDICTED BY IDOCK:   -1.79 KCAL/MOL
REMARK 927      BINDING AFFINITY PREDICTED BY RF-SCORE:    0.00 PKD
ROOT
HETATM    1  C   UNL     1     -11.309   6.868  71.670  1.00  0.00    -0.296 C  
HETATM    2  C   UNL     1     -11.017   8.362  71.820  1.00  0.00    -0.291 C  
HETATM    3  C   UNL     1      -9.519   8.572  72.056  1.00  0.00    -0.364 C  
ENDROOT
BRANCH   2   4
HETATM    4  N   UNL     1     -11.514   9.193  70.697  1.00  0.00    -0.269 NA 
BRANCH   4   5
HETATM    5  C   UNL     1     -12.836   9.844  70.731  1.00  0.00    -0.216 C  
BRANCH   5   6
HETATM    6  C   UNL     1     -13.046  10.694  71.991  1.00  0.00    -0.501 C  
BRANCH   6   7
HETATM    7  C   UNL     1     -13.014  12.212  71.735  1.00  0.00    -0.437 C  
BRANCH   7   8
HETATM    8  C   UNL     1     -12.171  12.646  70.535  1.00  0.00    -0.299 C  
BRANCH   8   9
HETATM    9  O   UNL     1     -12.683  13.872  70.017  1.00  0.00    -0.244 OA 
BRANCH   9  10
HETATM   10  C   UNL     1     -11.826  14.426  69.021  1.00  0.00    -0.323 C  
BRANCH  10  11
HETATM   11  C   UNL     1     -11.931  13.661  67.707  1.00  0.00    -0.352 C  
HETATM   12  O   UNL     1     -11.990  12.439  67.673  1.00  0.00    -0.454 OA 
HETATM   13  N   UNL     1     -12.020  14.468  66.563  1.00  0.00    -0.378 N  
HETATM   14  H   UNL     1     -12.083  15.480  66.674  1.00  0.00     0.000 HD 
BRANCH  13  15
HETATM   15  S   UNL     1     -12.025  13.821  65.032  1.00  0.00    -0.408 S  
HETATM   16  O   UNL     1     -10.710  13.329  64.717  1.00  0.00    -0.333 OA 
HETATM   17  C   UNL     1     -12.260  15.289  64.080  1.00  0.00    -0.114 C  
HETATM   18  O   UNL     1     -13.217  13.025  64.882  1.00  0.00    -0.735 OA 
ENDBRANCH  13  15
ENDBRANCH  10  11
ENDBRANCH   9  10
ENDBRANCH   8   9
ENDBRANCH   7   8
ENDBRANCH   6   7
ENDBRANCH   5   6
ENDBRANCH   4   5
BRANCH   4  19
HETATM   19  C   UNL     1     -10.689   9.257  69.569  1.00  0.00    -0.222 A  
HETATM   20  N   UNL     1      -9.885   8.329  67.455  1.00  0.00    -0.172 NA 
HETATM   21  N   UNL     1      -9.828  10.292  69.432  1.00  0.00    -0.223 NA 
HETATM   22  C   UNL     1      -9.003   9.372  67.349  1.00  0.00    -0.124 A  
HETATM   23  C   UNL     1      -8.996  10.378  68.337  1.00  0.00    -0.137 A  
HETATM   24  C   UNL     1     -10.698   8.314  68.549  1.00  0.00    -0.017 A  
BRANCH  23  25
HETATM   25  C   UNL     1      -8.099  11.568  68.370  1.00  0.00    -0.149 A  
HETATM   26  C   UNL     1      -8.435  12.740  67.665  1.00  0.00    -0.178 A  
HETATM   27  C   UNL     1      -6.268  12.830  69.396  1.00  0.00    -0.112 A  
HETATM   28  C   UNL     1      -6.925  11.623  69.142  1.00  0.00    -0.105 A  
HETATM   29  C   UNL     1      -6.672  13.988  68.749  1.00  0.00    -0.100 A  
HETATM   30  C   UNL     1      -7.720  13.931  67.837  1.00  0.00    -0.161 A  
ENDBRANCH  23  25
BRANCH  22  31
HETATM   31  C   UNL     1      -8.087   9.273  66.165  1.00  0.00    -0.110 A  
HETATM   32  C   UNL     1      -7.657   9.634  63.769  1.00  0.00    -0.126 A  
HETATM   33  C   UNL     1      -5.915   8.732  65.149  1.00  0.00    -0.055 A  
HETATM   34  C   UNL     1      -6.804   8.692  66.231  1.00  0.00    -0.070 A  
HETATM   35  C   UNL     1      -8.505   9.700  64.885  1.00  0.00    -0.161 A  
HETATM   36  C   UNL     1      -6.342   9.210  63.917  1.00  0.00    -0.088 A  
ENDBRANCH  22  31
ENDBRANCH   4  19
ENDBRANCH   2   4
TORSDOF 12
ENDMDL
MODEL      140
REMARK 921   NORMALIZED FREE ENERGY PREDICTED BY IDOCK:   -5.16 KCAL/MOL
REMARK 922        TOTAL FREE ENERGY PREDICTED BY IDOCK:  -10.10 KCAL/MOL
REMARK 923 INTER-LIGAND FREE ENERGY PREDICTED BY IDOCK:   -8.15 KCAL/MOL
REMARK 924 INTRA-LIGAND FREE ENERGY PREDICTED BY IDOCK:   -1.95 KCAL/MOL
REMARK 927      BINDING AFFINITY PREDICTED BY RF-SCORE:    0.00 PKD
ROOT
HETATM    1  C   UNL     1     -12.656   6.856  71.474  1.00  0.00    -0.412 C  
HETATM    2  C   UNL     1     -12.528   8.365  71.259  1.00  0.00    -0.244 C  
HETATM    3  C   UNL     1     -13.129   9.108  72.454  1.00  0.00    -0.493 C  
ENDROOT
BRANCH   2   4
HETATM    4  N   UNL     1     -11.146   8.821  70.971  1.00  0.00    -0.256 NA 
BRANCH   4   5
HETATM    5  C   UNL     1     -10.118   8.912  72.022  1.00  0.00    -0.281 C  
BRANCH   5   6
HETATM    6  C   UNL     1      -8.845   8.128  71.677  1.00  0.00    -0.202 C  
BRANCH   6   7
HETATM    7  C   UNL     1      -8.691   6.811  72.460  1.00  0.00    -0.129 C  
BRANCH   7   8
HETATM    8  C   UNL     1      -7.922   5.711  71.728  1.00  0.00    -0.114 C  
BRANCH   8   9
HETATM    9  O   UNL     1      -8.394   4.436  72.161  1.00  0.00    -0.104 OA 
BRANCH   9  10
HETATM   10  C   UNL     1      -9.406   3.924  71.297  1.00  0.00    -0.143 C  
BRANCH  10  11
HETATM   11  C   UNL     1      -8.822   3.452  69.971  1.00  0.00    -0.089 C  
HETATM   12  O   UNL     1      -7.928   2.619  69.918  1.00  0.00    -0.043 OA 
HETATM   13  N   UNL     1      -9.435   3.998  68.833  1.00  0.00    -0.168 N  
HETATM   14  H   UNL     1     -10.252   4.597  68.948  1.00  0.00     0.000 HD 
BRANCH  13  15
HETATM   15  S   UNL     1      -8.864   3.696  67.301  1.00  0.00    -0.139 S  
HETATM   16  O   UNL     1      -7.512   4.176  67.191  1.00  0.00    -0.072 OA 
HETATM   17  C   UNL     1      -9.874   4.807  66.374  1.00  0.00    -0.219 C  
HETATM   18  O   UNL     1      -9.254   2.359  66.930  1.00  0.00    -0.133 OA 
ENDBRANCH  13  15
ENDBRANCH  10  11
ENDBRANCH   9  10
ENDBRANCH   8   9
ENDBRANCH   7   8
ENDBRANCH   6   7
ENDBRANCH   5   6
ENDBRANCH   4   5
BRANCH   4  19
HETATM   19  C   UNL     1     -10.898   9.234  69.657  1.00  0.00    -0.212 A  
HETATM   20  N   UNL     1     -10.340   8.734  67.330  1.00  0.00    -0.260 NA 
HETATM   21  N   UNL     1     -10.933  10.553  69.356  1.00  0.00    -0.233 NA 
HETATM   22  C   UNL     1     -10.356  10.076  67.054  1.00  0.00    -0.243 A  
HETATM   23  C   UNL     1     -10.684  10.991  68.075  1.00  0.00    -0.217 A  
HETATM   24  C   UNL     1     -10.619   8.362  68.612  1.00  0.00    -0.113 A  
BRANCH  23  25
HETATM   25  C   UNL     1     -10.740  12.474  67.937  1.00  0.00    -0.239 A  
HETATM   26  C   UNL     1      -9.559  13.242  67.953  1.00  0.00    -0.217 A  
HETATM   27  C   UNL     1     -11.937  14.513  67.295  1.00  0.00    -0.375 A  
HETATM   28  C   UNL     1     -11.936  13.181  67.718  1.00  0.00    -0.352 A  
HETATM   29  C   UNL     1     -10.746  15.222  67.242  1.00  0.00    -0.311 A  
HETATM   30  C   UNL     1      -9.563  14.603  67.627  1.00  0.00    -0.212 A  
ENDBRANCH  23  25
BRANCH  22  31
HETATM   31  C   UNL     1      -9.957  10.408  65.646  1.00  0.00    -0.337 A  
HETATM   32  C   UNL     1      -8.411  10.140  63.751  1.00  0.00    -0.171 A  
HETATM   33  C   UNL     1     -10.353  11.524  63.491  1.00  0.00    -0.484 A  
HETATM   34  C   UNL     1     -10.661  11.331  64.845  1.00  0.00    -0.364 A  
HETATM   35  C   UNL     1      -8.791   9.856  65.070  1.00  0.00    -0.220 A  
HETATM   36  C   UNL     1      -9.228  10.921  62.943  1.00  0.00    -0.348 A  
ENDBRANCH  22  31
ENDBRANCH   4  19
ENDBRANCH   2   4
TORSDOF 12
ENDMDL
MODEL      141
REMARK 921   NORMALIZED FREE ENERGY PREDICTED BY IDOCK:   -5.16 KCAL/MOL
REMARK 922        TOTAL FREE ENERGY PREDICTED BY IDOCK:  -10.10 KCAL/MOL
REMARK 923 INTER-LIGAND FREE ENERGY PREDICTED BY IDOCK:   -8.23 KCAL/MOL
REMARK 924 INTRA-LIGAND FREE ENERGY PREDICTED BY IDOCK:   -1.86 KCAL/MOL
REMARK 927      BINDING AFFINITY PREDICTED BY RF-SCORE:    0.00 PKD
ROOT
HETATM    1  C   UNL     1     -12.585  13.721  65.482  1.00  0.00    -0.551 C  
HETATM    2  C   UNL     1     -11.600  12.581  65.211  1.00  0.00    -0.364 C  
HETATM    3  C   UNL     1     -11.099  12.667  63.768  1.00  0.00    -0.504 C  
ENDROOT
BRANCH   2   4
HETATM    4  N   UNL     1     -10.477  12.508  66.176  1.00  0.00    -0.245 NA 
BRANCH   4   5
HETATM    5  C   UNL     1      -9.668  13.689  66.525  1.00  0.00    -0.292 C  
BRANCH   5   6
HETATM    6  C   UNL     1     -10.339  14.579  67.578  1.00  0.00    -0.244 C  
BRANCH   6   7
HETATM    7  C   UNL     1     -10.612  13.868  68.916  1.00  0.00    -0.228 C  
BRANCH   7   8
HETATM    8  C   UNL     1     -12.056  13.952  69.409  1.00  0.00    -0.337 C  
BRANCH   8   9
HETATM    9  O   UNL     1     -12.266  12.975  70.427  1.00  0.00    -0.351 OA 
BRANCH   9  10
HETATM   10  C   UNL     1     -11.962  11.659  69.969  1.00  0.00    -0.351 C  
BRANCH  10  11
HETATM   11  C   UNL     1     -12.467  10.599  70.941  1.00  0.00    -0.397 C  
HETATM   12  O   UNL     1     -13.050  10.896  71.975  1.00  0.00    -0.491 OA 
HETATM   13  N   UNL     1     -12.268   9.275  70.521  1.00  0.00    -0.483 N  
HETATM   14  H   UNL     1     -11.881   9.102  69.594  1.00  0.00     0.000 HD 
BRANCH  13  15
HETATM   15  S   UNL     1     -12.646   7.982  71.494  1.00  0.00    -0.296 S  
HETATM   16  O   UNL     1     -13.835   8.280  72.247  1.00  0.00    -0.302 OA 
HETATM   17  C   UNL     1     -11.296   8.049  72.630  1.00  0.00    -0.405 C  
HETATM   18  O   UNL     1     -12.488   6.775  70.722  1.00  0.00    -0.351 OA 
ENDBRANCH  13  15
ENDBRANCH  10  11
ENDBRANCH   9  10
ENDBRANCH   8   9
ENDBRANCH   7   8
ENDBRANCH   6   7
ENDBRANCH   5   6
ENDBRANCH   4   5
BRANCH   4  19
HETATM   19  C   UNL     1     -10.181  11.236  66.678  1.00  0.00    -0.229 A  
HETATM   20  N   UNL     1     -10.745   8.878  66.988  1.00  0.00    -0.198 NA 
HETATM   21  N   UNL     1      -9.044  11.048  67.388  1.00  0.00    -0.141 NA 
HETATM   22  C   UNL     1      -9.602   8.716  67.725  1.00  0.00    -0.148 A  
HETATM   23  C   UNL     1      -8.729   9.810  67.902  1.00  0.00    -0.125 A  
HETATM   24  C   UNL     1     -10.988  10.122  66.486  1.00  0.00     0.133 A  
BRANCH  23  25
HETATM   25  C   UNL     1      -7.456   9.799  68.677  1.00  0.00    -0.075 A  
HETATM   26  C   UNL     1      -7.424  10.250  70.011  1.00  0.00    -0.143 A  
HETATM   27  C   UNL     1      -5.159   9.010  68.993  1.00  0.00    -0.037 A  
HETATM   28  C   UNL     1      -6.250   9.288  68.165  1.00  0.00    -0.053 A  
HETATM   29  C   UNL     1      -5.187   9.392  70.326  1.00  0.00    -0.027 A  
HETATM   30  C   UNL     1      -6.298  10.065  70.821  1.00  0.00    -0.074 A  
ENDBRANCH  23  25
BRANCH  22  31
HETATM   31  C   UNL     1      -9.449   7.344  68.313  1.00  0.00    -0.143 A  
HETATM   32  C   UNL     1      -9.766   4.910  68.148  1.00  0.00    -0.202 A  
HETATM   33  C   UNL     1      -8.650   5.819  70.067  1.00  0.00    -0.128 A  
HETATM   34  C   UNL     1      -8.908   7.112  69.594  1.00  0.00    -0.141 A  
HETATM   35  C   UNL     1      -9.916   6.202  67.625  1.00  0.00    -0.150 A  
HETATM   36  C   UNL     1      -9.074   4.715  69.338  1.00  0.00    -0.159 A  
ENDBRANCH  22  31
ENDBRANCH   4  19
ENDBRANCH   2   4
TORSDOF 12
ENDMDL
MODEL      142
REMARK 921   NORMALIZED FREE ENERGY PREDICTED BY IDOCK:   -5.14 KCAL/MOL
REMARK 922        TOTAL FREE ENERGY PREDICTED BY IDOCK:  -10.06 KCAL/MOL
REMARK 923 INTER-LIGAND FREE ENERGY PREDICTED BY IDOCK:   -8.16 KCAL/MOL
REMARK 924 INTRA-LIGAND FREE ENERGY PREDICTED BY IDOCK:   -1.90 KCAL/MOL
REMARK 927      BINDING AFFINITY PREDICTED BY RF-SCORE:    0.00 PKD
ROOT
HETATM    1  C   UNL     1      -6.541  10.490  70.066  1.00  0.00    -0.144 C  
HETATM    2  C   UNL     1      -6.536  12.011  69.903  1.00  0.00    -0.029 C  
HETATM    3  C   UNL     1      -5.373  12.610  70.698  1.00  0.00    -0.156 C  
ENDROOT
BRANCH   2   4
HETATM    4  N   UNL     1      -6.526  12.469  68.492  1.00  0.00    -0.067 NA 
BRANCH   4   5
HETATM    5  C   UNL     1      -5.737  11.783  67.453  1.00  0.00    -0.102 C  
BRANCH   5   6
HETATM    6  C   UNL     1      -6.612  11.160  66.358  1.00  0.00    -0.108 C  
BRANCH   6   7
HETATM    7  C   UNL     1      -7.875  10.459  66.890  1.00  0.00    -0.114 C  
BRANCH   7   8
HETATM    8  C   UNL     1      -9.185  10.911  66.244  1.00  0.00    -0.177 C  
BRANCH   8   9
HETATM    9  O   UNL     1     -10.071  11.386  67.256  1.00  0.00    -0.188 OA 
BRANCH   9  10
HETATM   10  C   UNL     1     -11.064  10.417  67.588  1.00  0.00    -0.293 C  
BRANCH  10  11
HETATM   11  C   UNL     1     -10.832   9.834  68.978  1.00  0.00    -0.199 C  
HETATM   12  O   UNL     1     -11.274  10.370  69.985  1.00  0.00    -0.272 OA 
HETATM   13  N   UNL     1     -10.137   8.616  68.994  1.00  0.00    -0.194 N  
HETATM   14  H   UNL     1      -9.901   8.167  68.109  1.00  0.00     0.000 HD 
BRANCH  13  15
HETATM   15  S   UNL     1      -9.687   7.883  70.417  1.00  0.00    -0.178 S  
HETATM   16  O   UNL     1      -8.841   6.756  70.128  1.00  0.00    -0.140 OA 
HETATM   17  C   UNL     1     -11.244   7.231  70.931  1.00  0.00    -0.272 C  
HETATM   18  O   UNL     1      -9.328   8.912  71.360  1.00  0.00    -0.234 OA 
ENDBRANCH  13  15
ENDBRANCH  10  11
ENDBRANCH   9  10
ENDBRANCH   8   9
ENDBRANCH   7   8
ENDBRANCH   6   7
ENDBRANCH   5   6
ENDBRANCH   4   5
BRANCH   4  19
HETATM   19  C   UNL     1      -7.247  13.637  68.221  1.00  0.00    -0.111 A  
HETATM   20  N   UNL     1      -7.463  15.804  67.112  1.00  0.00    -0.213 NA 
HETATM   21  N   UNL     1      -8.456  13.822  68.799  1.00  0.00    -0.043 NA 
HETATM   22  C   UNL     1      -8.674  15.983  67.728  1.00  0.00    -0.167 A  
HETATM   23  C   UNL     1      -9.186  14.965  68.560  1.00  0.00    -0.192 A  
HETATM   24  C   UNL     1      -6.801  14.641  67.371  1.00  0.00    -0.055 A  
BRANCH  23  25
HETATM   25  C   UNL     1     -10.478  15.008  69.302  1.00  0.00    -0.252 A  
HETATM   26  C   UNL     1     -11.433  13.986  69.140  1.00  0.00    -0.340 A  
HETATM   27  C   UNL     1     -11.855  15.869  71.135  1.00  0.00    -0.483 A  
HETATM   28  C   UNL     1     -10.791  16.008  70.241  1.00  0.00    -0.327 A  
HETATM   29  C   UNL     1     -12.736  14.805  71.004  1.00  0.00    -0.411 A  
HETATM   30  C   UNL     1     -12.558  13.894  69.968  1.00  0.00    -0.226 A  
ENDBRANCH  23  25
BRANCH  22  31
HETATM   31  C   UNL     1      -9.298  17.320  67.461  1.00  0.00    -0.236 A  
HETATM   32  C   UNL     1      -9.658  19.669  68.100  1.00  0.00    -0.474 A  
HETATM   33  C   UNL     1     -10.630  18.846  66.067  1.00  0.00    -0.470 A  
HETATM   34  C   UNL     1     -10.168  17.560  66.376  1.00  0.00    -0.354 A  
HETATM   35  C   UNL     1      -9.099  18.406  68.342  1.00  0.00    -0.340 A  
HETATM   36  C   UNL     1     -10.369  19.904  66.928  1.00  0.00    -0.596 A  
ENDBRANCH  22  31
ENDBRANCH   4  19
ENDBRANCH   2   4
TORSDOF 12
ENDMDL
MODEL      143
REMARK 921   NORMALIZED FREE ENERGY PREDICTED BY IDOCK:   -5.13 KCAL/MOL
REMARK 922        TOTAL FREE ENERGY PREDICTED BY IDOCK:  -10.05 KCAL/MOL
REMARK 923 INTER-LIGAND FREE ENERGY PREDICTED BY IDOCK:   -8.67 KCAL/MOL
REMARK 924 INTRA-LIGAND FREE ENERGY PREDICTED BY IDOCK:   -1.38 KCAL/MOL
REMARK 927      BINDING AFFINITY PREDICTED BY RF-SCORE:    0.00 PKD
ROOT
HETATM    1  C   UNL     1      -8.218  13.512  67.411  1.00  0.00    -0.187 C  
HETATM    2  C   UNL     1      -9.442  13.199  68.274  1.00  0.00    -0.210 C  
HETATM    3  C   UNL     1     -10.100  14.505  68.726  1.00  0.00    -0.239 C  
ENDROOT
BRANCH   2   4
HETATM    4  N   UNL     1     -10.420  12.289  67.630  1.00  0.00    -0.211 NA 
BRANCH   4   5
HETATM    5  C   UNL     1     -11.664  12.786  67.015  1.00  0.00    -0.374 C  
BRANCH   5   6
HETATM    6  C   UNL     1     -11.517  13.055  65.512  1.00  0.00    -0.352 C  
BRANCH   6   7
HETATM    7  C   UNL     1     -12.200  14.351  65.039  1.00  0.00    -0.418 C  
BRANCH   7   8
HETATM    8  C   UNL     1     -11.253  15.411  64.475  1.00  0.00    -0.299 C  
BRANCH   8   9
HETATM    9  O   UNL     1     -10.225  15.680  65.426  1.00  0.00    -0.358 OA 
BRANCH   9  10
HETATM   10  C   UNL     1     -10.509  16.843  66.200  1.00  0.00    -0.272 C  
BRANCH  10  11
HETATM   11  C   UNL     1      -9.273  17.720  66.365  1.00  0.00    -0.240 C  
HETATM   12  O   UNL     1      -9.351  18.883  66.737  1.00  0.00    -0.300 OA 
HETATM   13  N   UNL     1      -8.055  17.068  66.121  1.00  0.00    -0.294 N  
HETATM   14  H   UNL     1      -8.058  16.067  65.929  1.00  0.00     0.000 HD 
BRANCH  13  15
HETATM   15  S   UNL     1      -6.607  17.883  66.137  1.00  0.00    -0.288 S  
HETATM   16  O   UNL     1      -5.526  16.937  66.209  1.00  0.00    -0.349 OA 
HETATM   17  C   UNL     1      -6.709  18.658  67.719  1.00  0.00    -0.213 C  
HETATM   18  O   UNL     1      -6.668  18.931  65.149  1.00  0.00    -0.483 OA 
ENDBRANCH  13  15
ENDBRANCH  10  11
ENDBRANCH   9  10
ENDBRANCH   8   9
ENDBRANCH   7   8
ENDBRANCH   6   7
ENDBRANCH   5   6
ENDBRANCH   4   5
BRANCH   4  19
HETATM   19  C   UNL     1     -10.132  10.923  67.710  1.00  0.00    -0.177 A  
HETATM   20  N   UNL     1      -9.371   8.837  66.686  1.00  0.00    -0.174 NA 
HETATM   21  N   UNL     1     -10.333  10.266  68.875  1.00  0.00    -0.192 NA 
HETATM   22  C   UNL     1      -9.607   8.188  67.868  1.00  0.00    -0.155 A  
HETATM   23  C   UNL     1     -10.067   8.919  68.983  1.00  0.00    -0.197 A  
HETATM   24  C   UNL     1      -9.632  10.175  66.651  1.00  0.00    -0.183 A  
BRANCH  23  25
HETATM   25  C   UNL     1     -10.375   8.362  70.330  1.00  0.00    -0.219 A  
HETATM   26  C   UNL     1      -9.382   8.307  71.328  1.00  0.00    -0.218 A  
HETATM   27  C   UNL     1     -11.994   7.699  72.045  1.00  0.00    -0.341 A  
HETATM   28  C   UNL     1     -11.659   7.930  70.708  1.00  0.00    -0.258 A  
HETATM   29  C   UNL     1     -11.009   7.732  73.021  1.00  0.00    -0.442 A  
HETATM   30  C   UNL     1      -9.690   7.979  72.654  1.00  0.00    -0.332 A  
ENDBRANCH  23  25
BRANCH  22  31
HETATM   31  C   UNL     1      -9.378   6.707  67.802  1.00  0.00    -0.119 A  
HETATM   32  C   UNL     1     -10.268   4.412  67.783  1.00  0.00     0.079 A  
HETATM   33  C   UNL     1      -7.905   4.754  67.552  1.00  0.00    -0.094 A  
HETATM   34  C   UNL     1      -8.092   6.128  67.751  1.00  0.00    -0.113 A  
HETATM   35  C   UNL     1     -10.459   5.799  67.862  1.00  0.00    -0.290 A  
HETATM   36  C   UNL     1      -8.996   3.896  67.562  1.00  0.00    -0.154 A  
ENDBRANCH  22  31
ENDBRANCH   4  19
ENDBRANCH   2   4
TORSDOF 12
ENDMDL
MODEL      144
REMARK 921   NORMALIZED FREE ENERGY PREDICTED BY IDOCK:   -5.12 KCAL/MOL
REMARK 922        TOTAL FREE ENERGY PREDICTED BY IDOCK:  -10.04 KCAL/MOL
REMARK 923 INTER-LIGAND FREE ENERGY PREDICTED BY IDOCK:   -9.32 KCAL/MOL
REMARK 924 INTRA-LIGAND FREE ENERGY PREDICTED BY IDOCK:   -0.71 KCAL/MOL
REMARK 927      BINDING AFFINITY PREDICTED BY RF-SCORE:    0.00 PKD
ROOT
HETATM    1  C   UNL     1      -9.528   9.285  65.666  1.00  0.00    -0.324 C  
HETATM    2  C   UNL     1      -9.290  10.768  65.378  1.00  0.00    -0.207 C  
HETATM    3  C   UNL     1     -10.579  11.404  64.852  1.00  0.00    -0.368 C  
ENDROOT
BRANCH   2   4
HETATM    4  N   UNL     1      -8.735  11.527  66.525  1.00  0.00    -0.181 NA 
BRANCH   4   5
HETATM    5  C   UNL     1      -7.285  11.704  66.718  1.00  0.00    -0.082 C  
BRANCH   5   6
HETATM    6  C   UNL     1      -6.935  12.290  68.092  1.00  0.00    -0.087 C  
BRANCH   6   7
HETATM    7  C   UNL     1      -6.510  11.236  69.131  1.00  0.00    -0.081 C  
BRANCH   7   8
HETATM    8  C   UNL     1      -6.301   9.828  68.573  1.00  0.00    -0.047 C  
BRANCH   8   9
HETATM    9  O   UNL     1      -7.520   9.094  68.675  1.00  0.00    -0.078 OA 
BRANCH   9  10
HETATM   10  C   UNL     1      -7.372   7.929  69.486  1.00  0.00    -0.087 C  
BRANCH  10  11
HETATM   11  C   UNL     1      -8.554   6.982  69.322  1.00  0.00    -0.136 C  
HETATM   12  O   UNL     1      -8.991   6.676  68.221  1.00  0.00    -0.124 OA 
HETATM   13  N   UNL     1      -9.048   6.447  70.522  1.00  0.00    -0.154 N  
HETATM   14  H   UNL     1      -8.561   6.653  71.394  1.00  0.00     0.000 HD 
BRANCH  13  15
HETATM   15  S   UNL     1     -10.404   5.487  70.561  1.00  0.00    -0.279 S  
HETATM   16  O   UNL     1     -10.768   5.228  71.928  1.00  0.00    -0.225 OA 
HETATM   17  C   UNL     1      -9.734   3.985  69.920  1.00  0.00    -0.193 C  
HETATM   18  O   UNL     1     -11.337   5.985  69.582  1.00  0.00    -0.411 OA 
ENDBRANCH  13  15
ENDBRANCH  10  11
ENDBRANCH   9  10
ENDBRANCH   8   9
ENDBRANCH   7   8
ENDBRANCH   6   7
ENDBRANCH   5   6
ENDBRANCH   4   5
BRANCH   4  19
HETATM   19  C   UNL     1      -9.666  11.997  67.458  1.00  0.00    -0.187 A  
HETATM   20  N   UNL     1     -10.956  13.817  68.456  1.00  0.00    -0.253 NA 
HETATM   21  N   UNL     1     -10.222  11.132  68.338  1.00  0.00    -0.181 NA 
HETATM   22  C   UNL     1     -11.486  12.929  69.354  1.00  0.00    -0.260 A  
HETATM   23  C   UNL     1     -11.135  11.566  69.273  1.00  0.00    -0.246 A  
HETATM   24  C   UNL     1     -10.077  13.321  67.540  1.00  0.00    -0.223 A  
BRANCH  23  25
HETATM   25  C   UNL     1     -11.618  10.481  70.174  1.00  0.00    -0.408 A  
HETATM   26  C   UNL     1     -10.717   9.771  70.991  1.00  0.00    -0.342 A  
HETATM   27  C   UNL     1     -13.434   9.354  71.369  1.00  0.00    -0.403 A  
HETATM   28  C   UNL     1     -12.978  10.150  70.316  1.00  0.00    -0.011 A  
HETATM   29  C   UNL     1     -12.525   8.731  72.211  1.00  0.00    -0.455 A  
HETATM   30  C   UNL     1     -11.162   8.893  71.985  1.00  0.00    -0.422 A  
ENDBRANCH  23  25
BRANCH  22  31
HETATM   31  C   UNL     1     -12.377  13.565  70.381  1.00  0.00    -0.397 A  
HETATM   32  C   UNL     1     -13.564  15.543  71.239  1.00  0.00    -0.520 A  
HETATM   33  C   UNL     1     -13.800  13.447  72.382  1.00  0.00    -0.665 A  
HETATM   34  C   UNL     1     -12.862  12.876  71.511  1.00  0.00    -0.380 A  
HETATM   35  C   UNL     1     -12.718  14.934  70.301  1.00  0.00    -0.317 A  
HETATM   36  C   UNL     1     -14.155  14.782  72.241  1.00  0.00    -0.587 A  
ENDBRANCH  22  31
ENDBRANCH   4  19
ENDBRANCH   2   4
TORSDOF 12
ENDMDL
MODEL      145
REMARK 921   NORMALIZED FREE ENERGY PREDICTED BY IDOCK:   -5.10 KCAL/MOL
REMARK 922        TOTAL FREE ENERGY PREDICTED BY IDOCK:   -9.99 KCAL/MOL
REMARK 923 INTER-LIGAND FREE ENERGY PREDICTED BY IDOCK:   -9.35 KCAL/MOL
REMARK 924 INTRA-LIGAND FREE ENERGY PREDICTED BY IDOCK:   -0.64 KCAL/MOL
REMARK 927      BINDING AFFINITY PREDICTED BY RF-SCORE:    0.00 PKD
ROOT
HETATM    1  C   UNL     1      -7.207  13.670  67.648  1.00  0.00    -0.179 C  
HETATM    2  C   UNL     1      -8.334  13.723  68.682  1.00  0.00    -0.067 C  
HETATM    3  C   UNL     1      -8.547  15.168  69.137  1.00  0.00    -0.218 C  
ENDROOT
BRANCH   2   4
HETATM    4  N   UNL     1      -9.601  13.100  68.229  1.00  0.00    -0.225 NA 
BRANCH   4   5
HETATM    5  C   UNL     1     -10.788  13.903  67.884  1.00  0.00    -0.244 C  
BRANCH   5   6
HETATM    6  C   UNL     1     -11.898  13.072  67.229  1.00  0.00    -0.419 C  
BRANCH   6   7
HETATM    7  C   UNL     1     -12.631  13.798  66.086  1.00  0.00    -0.423 C  
BRANCH   7   8
HETATM    8  C   UNL     1     -12.092  13.506  64.685  1.00  0.00    -0.409 C  
BRANCH   8   9
HETATM    9  O   UNL     1     -10.882  14.233  64.483  1.00  0.00    -0.381 OA 
BRANCH   9  10
HETATM   10  C   UNL     1     -11.091  15.642  64.559  1.00  0.00    -0.286 C  
BRANCH  10  11
HETATM   11  C   UNL     1     -10.177  16.287  65.595  1.00  0.00    -0.343 C  
HETATM   12  O   UNL     1      -9.082  15.818  65.872  1.00  0.00    -0.337 OA 
HETATM   13  N   UNL     1     -10.665  17.482  66.145  1.00  0.00    -0.180 N  
HETATM   14  H   UNL     1     -11.533  17.877  65.782  1.00  0.00     0.000 HD 
BRANCH  13  15
HETATM   15  S   UNL     1      -9.868  18.271  67.371  1.00  0.00    -0.330 S  
HETATM   16  O   UNL     1     -10.450  17.902  68.635  1.00  0.00    -0.349 OA 
HETATM   17  C   UNL     1     -10.373  19.931  67.046  1.00  0.00    -0.461 C  
HETATM   18  O   UNL     1      -8.453  18.200  67.109  1.00  0.00    -0.234 OA 
ENDBRANCH  13  15
ENDBRANCH  10  11
ENDBRANCH   9  10
ENDBRANCH   8   9
ENDBRANCH   7   8
ENDBRANCH   6   7
ENDBRANCH   5   6
ENDBRANCH   4   5
BRANCH   4  19
HETATM   19  C   UNL     1      -9.630  11.701  68.224  1.00  0.00    -0.198 A  
HETATM   20  N   UNL     1      -9.474   9.566  67.044  1.00  0.00    -0.150 NA 
HETATM   21  N   UNL     1      -9.867  11.036  69.378  1.00  0.00    -0.037 NA 
HETATM   22  C   UNL     1      -9.740   8.914  68.219  1.00  0.00    -0.157 A  
HETATM   23  C   UNL     1      -9.910   9.660  69.404  1.00  0.00    -0.193 A  
HETATM   24  C   UNL     1      -9.420  10.928  67.089  1.00  0.00    -0.160 A  
BRANCH  23  25
HETATM   25  C   UNL     1     -10.209   9.103  70.754  1.00  0.00    -0.325 A  
HETATM   26  C   UNL     1     -11.539   8.940  71.185  1.00  0.00    -0.360 A  
HETATM   27  C   UNL     1      -9.515   7.868  72.752  1.00  0.00    -0.304 A  
HETATM   28  C   UNL     1      -9.210   8.653  71.636  1.00  0.00    -0.326 A  
HETATM   29  C   UNL     1     -10.838   7.654  73.107  1.00  0.00    -0.440 A  
HETATM   30  C   UNL     1     -11.852   8.239  72.356  1.00  0.00    -0.461 A  
ENDBRANCH  23  25
BRANCH  22  31
HETATM   31  C   UNL     1      -9.867   7.426  68.070  1.00  0.00    -0.172 A  
HETATM   32  C   UNL     1      -9.872   5.179  69.072  1.00  0.00    -0.246 A  
HETATM   33  C   UNL     1     -10.299   5.415  66.724  1.00  0.00    -0.321 A  
HETATM   34  C   UNL     1     -10.047   6.790  66.825  1.00  0.00    -0.250 A  
HETATM   35  C   UNL     1      -9.737   6.570  69.186  1.00  0.00    -0.143 A  
HETATM   36  C   UNL     1     -10.217   4.610  67.852  1.00  0.00    -0.019 A  
ENDBRANCH  22  31
ENDBRANCH   4  19
ENDBRANCH   2   4
TORSDOF 12
ENDMDL
MODEL      146
REMARK 921   NORMALIZED FREE ENERGY PREDICTED BY IDOCK:   -5.09 KCAL/MOL
REMARK 922        TOTAL FREE ENERGY PREDICTED BY IDOCK:   -9.97 KCAL/MOL
REMARK 923 INTER-LIGAND FREE ENERGY PREDICTED BY IDOCK:   -8.41 KCAL/MOL
REMARK 924 INTRA-LIGAND FREE ENERGY PREDICTED BY IDOCK:   -1.56 KCAL/MOL
REMARK 927      BINDING AFFINITY PREDICTED BY RF-SCORE:    0.00 PKD
ROOT
HETATM    1  C   UNL     1      -7.124  10.228  69.544  1.00  0.00    -0.107 C  
HETATM    2  C   UNL     1      -6.729  11.696  69.376  1.00  0.00    -0.110 C  
HETATM    3  C   UNL     1      -5.473  11.989  70.199  1.00  0.00    -0.117 C  
ENDROOT
BRANCH   2   4
HETATM    4  N   UNL     1      -6.569  12.122  67.964  1.00  0.00    -0.063 NA 
BRANCH   4   5
HETATM    5  C   UNL     1      -5.831  11.310  66.981  1.00  0.00    -0.091 C  
BRANCH   5   6
HETATM    6  C   UNL     1      -6.699  10.885  65.790  1.00  0.00     0.006 C  
BRANCH   6   7
HETATM    7  C   UNL     1      -7.708   9.770  66.118  1.00  0.00    -0.104 C  
BRANCH   7   8
HETATM    8  C   UNL     1      -8.779   9.534  65.053  1.00  0.00    -0.177 C  
BRANCH   8   9
HETATM    9  O   UNL     1      -9.999   9.153  65.685  1.00  0.00    -0.232 OA 
BRANCH   9  10
HETATM   10  C   UNL     1      -9.768   8.412  66.882  1.00  0.00    -0.227 C  
BRANCH  10  11
HETATM   11  C   UNL     1     -10.282   6.983  66.761  1.00  0.00    -0.211 C  
HETATM   12  O   UNL     1     -11.380   6.652  67.188  1.00  0.00    -0.343 OA 
HETATM   13  N   UNL     1      -9.429   6.108  66.070  1.00  0.00    -0.345 N  
HETATM   14  H   UNL     1      -8.583   6.479  65.639  1.00  0.00     0.000 HD 
BRANCH  13  15
HETATM   15  S   UNL     1      -9.760   4.485  65.936  1.00  0.00    -0.224 S  
HETATM   16  O   UNL     1      -9.673   3.870  67.234  1.00  0.00    -0.204 OA 
HETATM   17  C   UNL     1      -8.342   3.958  65.027  1.00  0.00    -0.104 C  
HETATM   18  O   UNL     1     -10.901   4.328  65.069  1.00  0.00    -0.253 OA 
ENDBRANCH  13  15
ENDBRANCH  10  11
ENDBRANCH   9  10
ENDBRANCH   8   9
ENDBRANCH   7   8
ENDBRANCH   6   7
ENDBRANCH   5   6
ENDBRANCH   4   5
BRANCH   4  19
HETATM   19  C   UNL     1      -7.092  13.379  67.639  1.00  0.00    -0.162 A  
HETATM   20  N   UNL     1      -6.877  15.810  67.496  1.00  0.00    -0.173 NA 
HETATM   21  N   UNL     1      -8.353  13.471  67.158  1.00  0.00    -0.172 NA 
HETATM   22  C   UNL     1      -8.165  15.882  67.035  1.00  0.00    -0.221 A  
HETATM   23  C   UNL     1      -8.900  14.694  66.838  1.00  0.00    -0.242 A  
HETATM   24  C   UNL     1      -6.386  14.568  67.772  1.00  0.00    -0.152 A  
BRANCH  23  25
HETATM   25  C   UNL     1     -10.305  14.603  66.350  1.00  0.00    -0.293 A  
HETATM   26  C   UNL     1     -10.620  14.900  65.010  1.00  0.00    -0.446 A  
HETATM   27  C   UNL     1     -12.604  13.798  66.608  1.00  0.00    -0.171 A  
HETATM   28  C   UNL     1     -11.370  14.161  67.156  1.00  0.00    -0.348 A  
HETATM   29  C   UNL     1     -12.859  14.026  65.265  1.00  0.00    -0.418 A  
HETATM   30  C   UNL     1     -11.886  14.632  64.477  1.00  0.00    -0.442 A  
ENDBRANCH  23  25
BRANCH  22  31
HETATM   31  C   UNL     1      -8.659  17.284  66.836  1.00  0.00    -0.263 A  
HETATM   32  C   UNL     1      -8.255  19.604  66.122  1.00  0.00    -0.355 A  
HETATM   33  C   UNL     1     -10.442  18.976  66.880  1.00  0.00    -0.505 A  
HETATM   34  C   UNL     1      -9.957  17.701  67.199  1.00  0.00    -0.316 A  
HETATM   35  C   UNL     1      -7.807  18.292  66.333  1.00  0.00    -0.290 A  
HETATM   36  C   UNL     1      -9.590  19.927  66.335  1.00  0.00    -0.537 A  
ENDBRANCH  22  31
ENDBRANCH   4  19
ENDBRANCH   2   4
TORSDOF 12
ENDMDL
MODEL      147
REMARK 921   NORMALIZED FREE ENERGY PREDICTED BY IDOCK:   -5.07 KCAL/MOL
REMARK 922        TOTAL FREE ENERGY PREDICTED BY IDOCK:   -9.94 KCAL/MOL
REMARK 923 INTER-LIGAND FREE ENERGY PREDICTED BY IDOCK:   -7.60 KCAL/MOL
REMARK 924 INTRA-LIGAND FREE ENERGY PREDICTED BY IDOCK:   -2.33 KCAL/MOL
REMARK 927      BINDING AFFINITY PREDICTED BY RF-SCORE:    0.00 PKD
ROOT
HETATM    1  C   UNL     1      -8.651   7.494  69.123  1.00  0.00    -0.136 C  
HETATM    2  C   UNL     1      -9.050   8.943  68.835  1.00  0.00    -0.140 C  
HETATM    3  C   UNL     1      -9.789   9.522  70.043  1.00  0.00    -0.269 C  
ENDROOT
BRANCH   2   4
HETATM    4  N   UNL     1      -7.922   9.810  68.417  1.00  0.00    -0.088 NA 
BRANCH   4   5
HETATM    5  C   UNL     1      -6.529   9.328  68.403  1.00  0.00    -0.054 C  
BRANCH   5   6
HETATM    6  C   UNL     1      -6.118   8.739  67.047  1.00  0.00    -0.058 C  
BRANCH   6   7
HETATM    7  C   UNL     1      -5.575   9.780  66.052  1.00  0.00    -0.052 C  
BRANCH   7   8
HETATM    8  C   UNL     1      -6.510  10.110  64.888  1.00  0.00    -0.129 C  
BRANCH   8   9
HETATM    9  O   UNL     1      -7.719   9.365  65.028  1.00  0.00    -0.105 OA 
BRANCH   9  10
HETATM   10  C   UNL     1      -7.958   8.526  63.900  1.00  0.00    -0.160 C  
BRANCH  10  11
HETATM   11  C   UNL     1      -7.893   7.051  64.278  1.00  0.00    -0.111 C  
HETATM   12  O   UNL     1      -7.001   6.318  63.873  1.00  0.00    -0.040 OA 
HETATM   13  N   UNL     1      -8.892   6.629  65.170  1.00  0.00    -0.360 N  
HETATM   14  H   UNL     1      -9.533   7.320  65.559  1.00  0.00     0.000 HD 
BRANCH  13  15
HETATM   15  S   UNL     1      -9.057   5.035  65.609  1.00  0.00    -0.156 S  
HETATM   16  O   UNL     1      -9.374   4.249  64.446  1.00  0.00    -0.154 OA 
HETATM   17  C   UNL     1     -10.532   5.135  66.573  1.00  0.00    -0.294 C  
HETATM   18  O   UNL     1      -7.984   4.702  66.512  1.00  0.00    -0.101 OA 
ENDBRANCH  13  15
ENDBRANCH  10  11
ENDBRANCH   9  10
ENDBRANCH   8   9
ENDBRANCH   7   8
ENDBRANCH   6   7
ENDBRANCH   5   6
ENDBRANCH   4   5
BRANCH   4  19
HETATM   19  C   UNL     1      -8.247  11.136  68.111  1.00  0.00    -0.131 A  
HETATM   20  N   UNL     1      -8.047  13.535  68.532  1.00  0.00    -0.135 NA 
HETATM   21  N   UNL     1      -9.112  11.394  67.103  1.00  0.00    -0.161 NA 
HETATM   22  C   UNL     1      -8.944  13.772  67.525  1.00  0.00    -0.201 A  
HETATM   23  C   UNL     1      -9.459  12.688  66.785  1.00  0.00    -0.237 A  
HETATM   24  C   UNL     1      -7.726  12.234  68.783  1.00  0.00    -0.016 A  
BRANCH  23  25
HETATM   25  C   UNL     1     -10.442  12.778  65.668  1.00  0.00    -0.297 A  
HETATM   26  C   UNL     1     -10.085  12.384  64.364  1.00  0.00    -0.293 A  
HETATM   27  C   UNL     1     -12.749  12.977  64.868  1.00  0.00    -0.456 A  
HETATM   28  C   UNL     1     -11.776  13.185  65.850  1.00  0.00    -0.427 A  
HETATM   29  C   UNL     1     -12.379  12.509  63.616  1.00  0.00    -0.618 A  
HETATM   30  C   UNL     1     -11.037  12.267  63.344  1.00  0.00    -0.487 A  
ENDBRANCH  23  25
BRANCH  22  31
HETATM   31  C   UNL     1      -9.310  15.219  67.368  1.00  0.00    -0.202 A  
HETATM   32  C   UNL     1      -8.973  17.394  66.267  1.00  0.00    -0.239 A  
HETATM   33  C   UNL     1     -10.705  17.169  67.911  1.00  0.00    -0.355 A  
HETATM   34  C   UNL     1     -10.282  15.857  68.165  1.00  0.00    -0.232 A  
HETATM   35  C   UNL     1      -8.633  16.045  66.443  1.00  0.00    -0.369 A  
HETATM   36  C   UNL     1     -10.052  17.936  66.956  1.00  0.00    -0.340 A  
ENDBRANCH  22  31
ENDBRANCH   4  19
ENDBRANCH   2   4
TORSDOF 12
ENDMDL
MODEL      148
REMARK 921   NORMALIZED FREE ENERGY PREDICTED BY IDOCK:   -5.06 KCAL/MOL
REMARK 922        TOTAL FREE ENERGY PREDICTED BY IDOCK:   -9.93 KCAL/MOL
REMARK 923 INTER-LIGAND FREE ENERGY PREDICTED BY IDOCK:   -8.26 KCAL/MOL
REMARK 924 INTRA-LIGAND FREE ENERGY PREDICTED BY IDOCK:   -1.67 KCAL/MOL
REMARK 927      BINDING AFFINITY PREDICTED BY RF-SCORE:    0.00 PKD
ROOT
HETATM    1  C   UNL     1     -13.233   9.778  71.867  1.00  0.00    -0.545 C  
HETATM    2  C   UNL     1     -12.151   8.696  71.907  1.00  0.00    -0.356 C  
HETATM    3  C   UNL     1     -12.697   7.400  71.304  1.00  0.00    -0.371 C  
ENDROOT
BRANCH   2   4
HETATM    4  N   UNL     1     -10.871   9.097  71.275  1.00  0.00    -0.303 NA 
BRANCH   4   5
HETATM    5  C   UNL     1      -9.575   8.921  71.953  1.00  0.00    -0.256 C  
BRANCH   5   6
HETATM    6  C   UNL     1      -9.613   7.832  73.034  1.00  0.00    -0.320 C  
BRANCH   6   7
HETATM    7  C   UNL     1      -9.338   6.414  72.502  1.00  0.00    -0.145 C  
BRANCH   7   8
HETATM    8  C   UNL     1      -8.008   6.246  71.767  1.00  0.00    -0.102 C  
BRANCH   8   9
HETATM    9  O   UNL     1      -8.205   5.428  70.615  1.00  0.00    -0.109 OA 
BRANCH   9  10
HETATM   10  C   UNL     1      -8.651   6.189  69.494  1.00  0.00    -0.127 C  
BRANCH  10  11
HETATM   11  C   UNL     1      -7.559   7.121  68.982  1.00  0.00    -0.100 C  
HETATM   12  O   UNL     1      -6.408   6.738  68.815  1.00  0.00    -0.029 OA 
HETATM   13  N   UNL     1      -7.995   8.415  68.662  1.00  0.00    -0.119 N  
HETATM   14  H   UNL     1      -8.990   8.631  68.715  1.00  0.00     0.000 HD 
BRANCH  13  15
HETATM   15  S   UNL     1      -6.933   9.607  68.199  1.00  0.00    -0.078 S  
HETATM   16  O   UNL     1      -6.065   9.101  67.169  1.00  0.00    -0.056 OA 
HETATM   17  C   UNL     1      -5.960   9.736  69.666  1.00  0.00    -0.041 C  
HETATM   18  O   UNL     1      -7.668  10.841  68.070  1.00  0.00    -0.097 OA 
ENDBRANCH  13  15
ENDBRANCH  10  11
ENDBRANCH   9  10
ENDBRANCH   8   9
ENDBRANCH   7   8
ENDBRANCH   6   7
ENDBRANCH   5   6
ENDBRANCH   4   5
BRANCH   4  19
HETATM   19  C   UNL     1     -10.973   9.724  70.029  1.00  0.00    -0.277 A  
HETATM   20  N   UNL     1     -11.095   9.621  67.589  1.00  0.00    -0.122 NA 
HETATM   21  N   UNL     1     -11.029  11.074  69.965  1.00  0.00    -0.165 NA 
HETATM   22  C   UNL     1     -11.125  10.990  67.547  1.00  0.00    -0.302 A  
HETATM   23  C   UNL     1     -11.120  11.722  68.753  1.00  0.00    -0.241 A  
HETATM   24  C   UNL     1     -11.029   9.040  68.821  1.00  0.00     0.072 A  
BRANCH  23  25
HETATM   25  C   UNL     1     -11.143  13.207  68.877  1.00  0.00    -0.310 A  
HETATM   26  C   UNL     1     -10.031  13.977  68.483  1.00  0.00    -0.230 A  
HETATM   27  C   UNL     1     -12.378  15.305  69.142  1.00  0.00    -0.092 A  
HETATM   28  C   UNL     1     -12.270  13.923  69.318  1.00  0.00    -0.319 A  
HETATM   29  C   UNL     1     -11.292  16.030  68.674  1.00  0.00    -0.383 A  
HETATM   30  C   UNL     1     -10.098  15.373  68.399  1.00  0.00    -0.215 A  
ENDBRANCH  23  25
BRANCH  22  31
HETATM   31  C   UNL     1     -11.111  11.554  66.157  1.00  0.00    -0.302 A  
HETATM   32  C   UNL     1     -10.196  11.565  63.872  1.00  0.00    -0.411 A  
HETATM   33  C   UNL     1     -11.993  13.056  64.423  1.00  0.00    -0.457 A  
HETATM   34  C   UNL     1     -11.922  12.635  65.757  1.00  0.00    -0.503 A  
HETATM   35  C   UNL     1     -10.212  11.065  65.182  1.00  0.00    -0.352 A  
HETATM   36  C   UNL     1     -11.131  12.514  63.477  1.00  0.00    -0.497 A  
ENDBRANCH  22  31
ENDBRANCH   4  19
ENDBRANCH   2   4
TORSDOF 12
ENDMDL
MODEL      149
REMARK 921   NORMALIZED FREE ENERGY PREDICTED BY IDOCK:   -5.05 KCAL/MOL
REMARK 922        TOTAL FREE ENERGY PREDICTED BY IDOCK:   -9.91 KCAL/MOL
REMARK 923 INTER-LIGAND FREE ENERGY PREDICTED BY IDOCK:   -7.89 KCAL/MOL
REMARK 924 INTRA-LIGAND FREE ENERGY PREDICTED BY IDOCK:   -2.01 KCAL/MOL
REMARK 927      BINDING AFFINITY PREDICTED BY RF-SCORE:    0.00 PKD
ROOT
HETATM    1  C   UNL     1     -10.859  15.428  69.624  1.00  0.00    -0.288 C  
HETATM    2  C   UNL     1     -11.013  14.172  68.764  1.00  0.00    -0.257 C  
HETATM    3  C   UNL     1     -12.010  14.442  67.634  1.00  0.00    -0.378 C  
ENDROOT
BRANCH   2   4
HETATM    4  N   UNL     1      -9.733  13.632  68.246  1.00  0.00    -0.229 NA 
BRANCH   4   5
HETATM    5  C   UNL     1      -8.576  14.499  67.963  1.00  0.00    -0.162 C  
BRANCH   5   6
HETATM    6  C   UNL     1      -7.398  14.246  68.912  1.00  0.00    -0.126 C  
BRANCH   6   7
HETATM    7  C   UNL     1      -6.074  14.882  68.449  1.00  0.00    -0.103 C  
BRANCH   7   8
HETATM    8  C   UNL     1      -5.426  15.831  69.458  1.00  0.00    -0.113 C  
BRANCH   8   9
HETATM    9  O   UNL     1      -6.393  16.781  69.900  1.00  0.00    -0.215 OA 
BRANCH   9  10
HETATM   10  C   UNL     1      -5.947  18.122  69.703  1.00  0.00    -0.244 C  
BRANCH  10  11
HETATM   11  C   UNL     1      -6.583  18.744  68.465  1.00  0.00    -0.243 C  
HETATM   12  O   UNL     1      -5.935  19.416  67.674  1.00  0.00    -0.196 OA 
HETATM   13  N   UNL     1      -7.938  18.429  68.280  1.00  0.00    -0.291 N  
HETATM   14  H   UNL     1      -8.384  17.769  68.915  1.00  0.00     0.000 HD 
BRANCH  13  15
HETATM   15  S   UNL     1      -8.834  19.105  67.054  1.00  0.00    -0.305 S  
HETATM   16  O   UNL     1      -8.782  20.539  67.158  1.00  0.00    -0.336 OA 
HETATM   17  C   UNL     1     -10.454  18.618  67.556  1.00  0.00    -0.428 C  
HETATM   18  O   UNL     1      -8.538  18.395  65.835  1.00  0.00    -0.503 OA 
ENDBRANCH  13  15
ENDBRANCH  10  11
ENDBRANCH   9  10
ENDBRANCH   8   9
ENDBRANCH   7   8
ENDBRANCH   6   7
ENDBRANCH   5   6
ENDBRANCH   4   5
BRANCH   4  19
HETATM   19  C   UNL     1      -9.714  12.261  67.966  1.00  0.00    -0.205 A  
HETATM   20  N   UNL     1     -10.134   9.943  68.618  1.00  0.00    -0.168 NA 
HETATM   21  N   UNL     1      -9.238  11.831  66.775  1.00  0.00    -0.188 NA 
HETATM   22  C   UNL     1      -9.624   9.528  67.416  1.00  0.00    -0.141 A  
HETATM   23  C   UNL     1      -9.198  10.487  66.474  1.00  0.00    -0.161 A  
HETATM   24  C   UNL     1     -10.168  11.286  68.846  1.00  0.00    -0.180 A  
BRANCH  23  25
HETATM   25  C   UNL     1      -8.619  10.200  65.131  1.00  0.00    -0.175 A  
HETATM   26  C   UNL     1      -7.231  10.022  64.971  1.00  0.00    -0.139 A  
HETATM   27  C   UNL     1      -8.880   9.465  62.809  1.00  0.00    -0.224 A  
HETATM   28  C   UNL     1      -9.405  10.024  63.978  1.00  0.00    -0.324 A  
HETATM   29  C   UNL     1      -7.519   9.223  62.708  1.00  0.00    -0.104 A  
HETATM   30  C   UNL     1      -6.684   9.556  63.770  1.00  0.00    -0.105 A  
ENDBRANCH  23  25
BRANCH  22  31
HETATM   31  C   UNL     1      -9.541   8.037  67.275  1.00  0.00    -0.210 A  
HETATM   32  C   UNL     1     -10.650   5.860  66.979  1.00  0.00    -0.376 A  
HETATM   33  C   UNL     1      -8.255   5.950  67.082  1.00  0.00    -0.105 A  
HETATM   34  C   UNL     1      -8.327   7.323  67.351  1.00  0.00    -0.119 A  
HETATM   35  C   UNL     1     -10.708   7.253  67.131  1.00  0.00    -0.413 A  
HETATM   36  C   UNL     1      -9.420   5.219  66.890  1.00  0.00    -0.138 A  
ENDBRANCH  22  31
ENDBRANCH   4  19
ENDBRANCH   2   4
TORSDOF 12
ENDMDL
MODEL      150
REMARK 921   NORMALIZED FREE ENERGY PREDICTED BY IDOCK:   -5.05 KCAL/MOL
REMARK 922        TOTAL FREE ENERGY PREDICTED BY IDOCK:   -9.90 KCAL/MOL
REMARK 923 INTER-LIGAND FREE ENERGY PREDICTED BY IDOCK:   -8.45 KCAL/MOL
REMARK 924 INTRA-LIGAND FREE ENERGY PREDICTED BY IDOCK:   -1.46 KCAL/MOL
REMARK 927      BINDING AFFINITY PREDICTED BY RF-SCORE:    0.00 PKD
ROOT
HETATM    1  C   UNL     1      -9.700   4.126  64.138  1.00  0.00    -0.142 C  
HETATM    2  C   UNL     1      -8.316   4.278  64.773  1.00  0.00    -0.106 C  
HETATM    3  C   UNL     1      -7.244   3.801  63.791  1.00  0.00    -0.051 C  
ENDROOT
BRANCH   2   4
HETATM    4  N   UNL     1      -8.027   5.643  65.277  1.00  0.00    -0.108 NA 
BRANCH   4   5
HETATM    5  C   UNL     1      -7.003   6.504  64.660  1.00  0.00    -0.054 C  
BRANCH   5   6
HETATM    6  C   UNL     1      -7.580   7.445  63.596  1.00  0.00    -0.121 C  
BRANCH   6   7
HETATM    7  C   UNL     1      -6.572   8.480  63.063  1.00  0.00    -0.090 C  
BRANCH   7   8
HETATM    8  C   UNL     1      -7.196   9.736  62.456  1.00  0.00    -0.112 C  
BRANCH   8   9
HETATM    9  O   UNL     1      -8.603   9.725  62.690  1.00  0.00    -0.158 OA 
BRANCH   9  10
HETATM   10  C   UNL     1      -9.168  11.031  62.590  1.00  0.00    -0.333 C  
BRANCH  10  11
HETATM   11  C   UNL     1     -10.149  11.303  63.725  1.00  0.00    -0.361 C  
HETATM   12  O   UNL     1     -10.326  10.502  64.632  1.00  0.00    -0.344 OA 
HETATM   13  N   UNL     1     -10.771  12.560  63.674  1.00  0.00    -0.443 N  
HETATM   14  H   UNL     1     -10.488  13.224  62.954  1.00  0.00     0.000 HD 
BRANCH  13  15
HETATM   15  S   UNL     1     -11.956  12.995  64.755  1.00  0.00    -0.423 S  
HETATM   16  O   UNL     1     -13.194  12.360  64.389  1.00  0.00    -0.816 OA 
HETATM   17  C   UNL     1     -12.124  14.705  64.353  1.00  0.00    -0.462 C  
HETATM   18  O   UNL     1     -11.401  12.926  66.084  1.00  0.00    -0.293 OA 
ENDBRANCH  13  15
ENDBRANCH  10  11
ENDBRANCH   9  10
ENDBRANCH   8   9
ENDBRANCH   7   8
ENDBRANCH   6   7
ENDBRANCH   5   6
ENDBRANCH   4   5
BRANCH   4  19
HETATM   19  C   UNL     1      -8.730   6.035  66.421  1.00  0.00    -0.133 A  
HETATM   20  N   UNL     1     -10.111   7.650  67.631  1.00  0.00    -0.177 NA 
HETATM   21  N   UNL     1      -8.739   5.228  67.507  1.00  0.00    -0.107 NA 
HETATM   22  C   UNL     1     -10.085   6.829  68.727  1.00  0.00    -0.160 A  
HETATM   23  C   UNL     1      -9.414   5.591  68.651  1.00  0.00    -0.129 A  
HETATM   24  C   UNL     1      -9.444   7.223  66.521  1.00  0.00    -0.163 A  
BRANCH  23  25
HETATM   25  C   UNL     1      -9.290   4.593  69.751  1.00  0.00    -0.215 A  
HETATM   26  C   UNL     1      -9.473   3.219  69.498  1.00  0.00    -0.205 A  
HETATM   27  C   UNL     1      -8.523   3.976  71.994  1.00  0.00    -0.110 A  
HETATM   28  C   UNL     1      -8.925   4.939  71.065  1.00  0.00    -0.168 A  
HETATM   29  C   UNL     1      -8.637   2.628  71.688  1.00  0.00    -0.096 A  
HETATM   30  C   UNL     1      -9.167   2.248  70.459  1.00  0.00    -0.192 A  
ENDBRANCH  23  25
BRANCH  22  31
HETATM   31  C   UNL     1     -10.767   7.406  69.932  1.00  0.00    -0.254 A  
HETATM   32  C   UNL     1     -12.554   7.302  71.621  1.00  0.00    -0.403 A  
HETATM   33  C   UNL     1     -10.930   9.064  71.739  1.00  0.00    -0.443 A  
HETATM   34  C   UNL     1     -10.367   8.615  70.537  1.00  0.00    -0.234 A  
HETATM   35  C   UNL     1     -11.913   6.790  70.484  1.00  0.00    -0.385 A  
HETATM   36  C   UNL     1     -12.022   8.402  72.285  1.00  0.00    -0.455 A  
ENDBRANCH  22  31
ENDBRANCH   4  19
ENDBRANCH   2   4
TORSDOF 12
ENDMDL
MODEL      151
REMARK 921   NORMALIZED FREE ENERGY PREDICTED BY IDOCK:   -5.02 KCAL/MOL
REMARK 922        TOTAL FREE ENERGY PREDICTED BY IDOCK:   -9.87 KCAL/MOL
REMARK 923 INTER-LIGAND FREE ENERGY PREDICTED BY IDOCK:   -8.12 KCAL/MOL
REMARK 924 INTRA-LIGAND FREE ENERGY PREDICTED BY IDOCK:   -1.75 KCAL/MOL
REMARK 927      BINDING AFFINITY PREDICTED BY RF-SCORE:    0.00 PKD
ROOT
HETATM    1  C   UNL     1     -12.258   9.509  71.748  1.00  0.00    -0.465 C  
HETATM    2  C   UNL     1     -11.362   8.274  71.635  1.00  0.00    -0.272 C  
HETATM    3  C   UNL     1     -12.224   7.032  71.400  1.00  0.00    -0.407 C  
ENDROOT
BRANCH   2   4
HETATM    4  N   UNL     1     -10.289   8.395  70.618  1.00  0.00    -0.194 NA 
BRANCH   4   5
HETATM    5  C   UNL     1      -8.974   7.750  70.788  1.00  0.00    -0.148 C  
BRANCH   5   6
HETATM    6  C   UNL     1      -8.138   8.391  71.903  1.00  0.00    -0.193 C  
BRANCH   6   7
HETATM    7  C   UNL     1      -6.840   9.055  71.408  1.00  0.00    -0.073 C  
BRANCH   7   8
HETATM    8  C   UNL     1      -6.712   9.169  69.889  1.00  0.00    -0.048 C  
BRANCH   8   9
HETATM    9  O   UNL     1      -6.569  10.541  69.528  1.00  0.00    -0.058 OA 
BRANCH   9  10
HETATM   10  C   UNL     1      -5.874  10.695  68.293  1.00  0.00    -0.046 C  
BRANCH  10  11
HETATM   11  C   UNL     1      -6.804  10.500  67.101  1.00  0.00    -0.084 C  
HETATM   12  O   UNL     1      -7.816  11.171  66.954  1.00  0.00    -0.137 OA 
HETATM   13  N   UNL     1      -6.370   9.544  66.169  1.00  0.00    -0.067 N  
HETATM   14  H   UNL     1      -5.458   9.107  66.296  1.00  0.00     0.000 HD 
BRANCH  13  15
HETATM   15  S   UNL     1      -7.303   9.107  64.865  1.00  0.00    -0.103 S  
HETATM   16  O   UNL     1      -8.474   8.410  65.327  1.00  0.00    -0.165 OA 
HETATM   17  C   UNL     1      -6.250   7.898  64.127  1.00  0.00    -0.057 C  
HETATM   18  O   UNL     1      -7.363  10.226  63.957  1.00  0.00    -0.133 OA 
ENDBRANCH  13  15
ENDBRANCH  10  11
ENDBRANCH   9  10
ENDBRANCH   8   9
ENDBRANCH   7   8
ENDBRANCH   6   7
ENDBRANCH   5   6
ENDBRANCH   4   5
BRANCH   4  19
HETATM   19  C   UNL     1     -10.570   9.221  69.526  1.00  0.00    -0.224 A  
HETATM   20  N   UNL     1     -10.992   9.536  67.138  1.00  0.00    -0.078 NA 
HETATM   21  N   UNL     1     -10.688  10.556  69.713  1.00  0.00    -0.269 NA 
HETATM   22  C   UNL     1     -11.081  10.887  67.347  1.00  0.00    -0.307 A  
HETATM   23  C   UNL     1     -10.955  11.397  68.656  1.00  0.00    -0.220 A  
HETATM   24  C   UNL     1     -10.750   8.755  68.229  1.00  0.00    -0.067 A  
BRANCH  23  25
HETATM   25  C   UNL     1     -11.022  12.834  69.046  1.00  0.00    -0.241 A  
HETATM   26  C   UNL     1     -10.078  13.756  68.555  1.00  0.00    -0.225 A  
HETATM   27  C   UNL     1     -12.261  14.740  69.959  1.00  0.00    -0.383 A  
HETATM   28  C   UNL     1     -12.045  13.363  69.854  1.00  0.00    -0.389 A  
HETATM   29  C   UNL     1     -11.357  15.627  69.394  1.00  0.00    -0.332 A  
HETATM   30  C   UNL     1     -10.232  15.135  68.741  1.00  0.00    -0.235 A  
ENDBRANCH  23  25
BRANCH  22  31
HETATM   31  C   UNL     1     -11.263  11.684  66.089  1.00  0.00    -0.314 A  
HETATM   32  C   UNL     1     -12.297  13.569  64.893  1.00  0.00    -0.447 A  
HETATM   33  C   UNL     1     -10.730  12.168  63.739  1.00  0.00    -0.488 A  
HETATM   34  C   UNL     1     -10.656  11.337  64.864  1.00  0.00    -0.364 A  
HETATM   35  C   UNL     1     -12.128  12.801  66.053  1.00  0.00    -0.458 A  
HETATM   36  C   UNL     1     -11.548  13.290  63.756  1.00  0.00    -0.427 A  
ENDBRANCH  22  31
ENDBRANCH   4  19
ENDBRANCH   2   4
TORSDOF 12
ENDMDL
MODEL      152
REMARK 921   NORMALIZED FREE ENERGY PREDICTED BY IDOCK:   -5.02 KCAL/MOL
REMARK 922        TOTAL FREE ENERGY PREDICTED BY IDOCK:   -9.86 KCAL/MOL
REMARK 923 INTER-LIGAND FREE ENERGY PREDICTED BY IDOCK:   -8.74 KCAL/MOL
REMARK 924 INTRA-LIGAND FREE ENERGY PREDICTED BY IDOCK:   -1.13 KCAL/MOL
REMARK 927      BINDING AFFINITY PREDICTED BY RF-SCORE:    0.00 PKD
ROOT
HETATM    1  C   UNL     1     -13.066  11.402  71.911  1.00  0.00    -0.505 C  
HETATM    2  C   UNL     1     -12.649   9.937  72.057  1.00  0.00    -0.323 C  
HETATM    3  C   UNL     1     -13.785   9.029  71.581  1.00  0.00    -0.442 C  
ENDROOT
BRANCH   2   4
HETATM    4  N   UNL     1     -11.367   9.603  71.390  1.00  0.00    -0.379 NA 
BRANCH   4   5
HETATM    5  C   UNL     1     -10.307   8.839  72.072  1.00  0.00    -0.340 C  
BRANCH   5   6
HETATM    6  C   UNL     1     -10.861   7.713  72.955  1.00  0.00    -0.446 C  
BRANCH   6   7
HETATM    7  C   UNL     1     -10.709   6.308  72.344  1.00  0.00    -0.257 C  
BRANCH   7   8
HETATM    8  C   UNL     1     -11.560   6.049  71.100  1.00  0.00    -0.097 C  
BRANCH   8   9
HETATM    9  O   UNL     1     -10.707   5.739  70.000  1.00  0.00    -0.285 OA 
BRANCH   9  10
HETATM   10  C   UNL     1     -10.802   6.715  68.964  1.00  0.00    -0.277 C  
BRANCH  10  11
HETATM   11  C   UNL     1     -10.353   6.149  67.622  1.00  0.00    -0.201 C  
HETATM   12  O   UNL     1     -11.108   6.089  66.660  1.00  0.00    -0.263 OA 
HETATM   13  N   UNL     1      -9.003   5.770  67.567  1.00  0.00    -0.109 N  
HETATM   14  H   UNL     1      -8.403   5.957  68.369  1.00  0.00     0.000 HD 
BRANCH  13  15
HETATM   15  S   UNL     1      -8.356   5.025  66.229  1.00  0.00    -0.113 S  
HETATM   16  O   UNL     1      -9.339   4.150  65.647  1.00  0.00    -0.141 OA 
HETATM   17  C   UNL     1      -7.153   3.994  67.005  1.00  0.00    -0.064 C  
HETATM   18  O   UNL     1      -7.637   6.014  65.466  1.00  0.00    -0.079 OA 
ENDBRANCH  13  15
ENDBRANCH  10  11
ENDBRANCH   9  10
ENDBRANCH   8   9
ENDBRANCH   7   8
ENDBRANCH   6   7
ENDBRANCH   5   6
ENDBRANCH   4   5
BRANCH   4  19
HETATM   19  C   UNL     1     -11.191  10.124  70.104  1.00  0.00    -0.310 A  
HETATM   20  N   UNL     1     -12.088  11.134  68.067  1.00  0.00    -0.587 NA 
HETATM   21  N   UNL     1      -9.954  10.137  69.555  1.00  0.00    -0.225 NA 
HETATM   22  C   UNL     1     -10.832  11.113  67.521  1.00  0.00    -0.254 A  
HETATM   23  C   UNL     1      -9.750  10.634  68.287  1.00  0.00    -0.161 A  
HETATM   24  C   UNL     1     -12.221  10.649  69.334  1.00  0.00    -0.102 A  
BRANCH  23  25
HETATM   25  C   UNL     1      -8.331  10.542  67.838  1.00  0.00    -0.115 A  
HETATM   26  C   UNL     1      -7.790   9.312  67.417  1.00  0.00    -0.099 A  
HETATM   27  C   UNL     1      -6.273  11.607  67.044  1.00  0.00    -0.144 A  
HETATM   28  C   UNL     1      -7.482  11.660  67.742  1.00  0.00    -0.111 A  
HETATM   29  C   UNL     1      -5.802  10.392  66.567  1.00  0.00    -0.068 A  
HETATM   30  C   UNL     1      -6.533   9.234  66.805  1.00  0.00    -0.067 A  
ENDBRANCH  23  25
BRANCH  22  31
HETATM   31  C   UNL     1     -10.784  11.582  66.097  1.00  0.00    -0.324 A  
HETATM   32  C   UNL     1     -10.383  11.117  63.714  1.00  0.00    -0.447 A  
HETATM   33  C   UNL     1     -11.107  13.306  64.374  1.00  0.00    -0.407 A  
HETATM   34  C   UNL     1     -11.024  12.920  65.718  1.00  0.00    -0.303 A  
HETATM   35  C   UNL     1     -10.416  10.704  65.053  1.00  0.00    -0.278 A  
HETATM   36  C   UNL     1     -10.792  12.400  63.370  1.00  0.00    -0.417 A  
ENDBRANCH  22  31
ENDBRANCH   4  19
ENDBRANCH   2   4
TORSDOF 12
ENDMDL
MODEL      153
REMARK 921   NORMALIZED FREE ENERGY PREDICTED BY IDOCK:   -5.02 KCAL/MOL
REMARK 922        TOTAL FREE ENERGY PREDICTED BY IDOCK:   -9.86 KCAL/MOL
REMARK 923 INTER-LIGAND FREE ENERGY PREDICTED BY IDOCK:   -9.66 KCAL/MOL
REMARK 924 INTRA-LIGAND FREE ENERGY PREDICTED BY IDOCK:   -0.20 KCAL/MOL
REMARK 927      BINDING AFFINITY PREDICTED BY RF-SCORE:    0.00 PKD
ROOT
HETATM    1  C   UNL     1      -9.524   8.511  66.078  1.00  0.00    -0.256 C  
HETATM    2  C   UNL     1      -9.297  10.004  65.827  1.00  0.00    -0.189 C  
HETATM    3  C   UNL     1     -10.597  10.646  65.338  1.00  0.00    -0.185 C  
ENDROOT
BRANCH   2   4
HETATM    4  N   UNL     1      -8.730  10.734  66.986  1.00  0.00    -0.134 NA 
BRANCH   4   5
HETATM    5  C   UNL     1      -7.285  10.742  67.274  1.00  0.00    -0.096 C  
BRANCH   5   6
HETATM    6  C   UNL     1      -6.428  10.911  66.013  1.00  0.00    -0.089 C  
BRANCH   6   7
HETATM    7  C   UNL     1      -5.186  11.798  66.215  1.00  0.00     0.186 C  
BRANCH   7   8
HETATM    8  C   UNL     1      -5.207  12.660  67.477  1.00  0.00    -0.091 C  
BRANCH   8   9
HETATM    9  O   UNL     1      -5.696  13.960  67.154  1.00  0.00    -0.218 OA 
BRANCH   9  10
HETATM   10  C   UNL     1      -6.900  14.264  67.856  1.00  0.00    -0.164 C  
BRANCH  10  11
HETATM   11  C   UNL     1      -7.587  15.495  67.278  1.00  0.00    -0.218 C  
HETATM   12  O   UNL     1      -8.606  15.411  66.606  1.00  0.00    -0.255 OA 
HETATM   13  N   UNL     1      -6.997  16.718  67.633  1.00  0.00    -0.129 N  
HETATM   14  H   UNL     1      -6.219  16.720  68.292  1.00  0.00     0.000 HD 
BRANCH  13  15
HETATM   15  S   UNL     1      -7.531  18.162  67.009  1.00  0.00    -0.214 S  
HETATM   16  O   UNL     1      -7.524  18.094  65.572  1.00  0.00    -0.540 OA 
HETATM   17  C   UNL     1      -6.190  19.211  67.474  1.00  0.00    -0.198 C  
HETATM   18  O   UNL     1      -8.681  18.585  67.769  1.00  0.00    -0.268 OA 
ENDBRANCH  13  15
ENDBRANCH  10  11
ENDBRANCH   9  10
ENDBRANCH   8   9
ENDBRANCH   7   8
ENDBRANCH   6   7
ENDBRANCH   5   6
ENDBRANCH   4   5
BRANCH   4  19
HETATM   19  C   UNL     1      -9.655  11.349  67.836  1.00  0.00    -0.177 A  
HETATM   20  N   UNL     1     -10.886  13.326  68.581  1.00  0.00    -0.255 NA 
HETATM   21  N   UNL     1     -10.258  10.621  68.804  1.00  0.00    -0.181 NA 
HETATM   22  C   UNL     1     -11.464  12.575  69.570  1.00  0.00    -0.230 A  
HETATM   23  C   UNL     1     -11.166  11.200  69.662  1.00  0.00    -0.264 A  
HETATM   24  C   UNL     1     -10.013  12.689  67.749  1.00  0.00    -0.218 A  
BRANCH  23  25
HETATM   25  C   UNL     1     -11.706  10.252  70.678  1.00  0.00    -0.438 A  
HETATM   26  C   UNL     1     -13.094  10.064  70.819  1.00  0.00    -0.316 A  
HETATM   27  C   UNL     1     -11.396   8.370  72.215  1.00  0.00    -0.448 A  
HETATM   28  C   UNL     1     -10.885   9.454  71.495  1.00  0.00    -0.398 A  
HETATM   29  C   UNL     1     -12.766   8.159  72.269  1.00  0.00    -0.292 A  
HETATM   30  C   UNL     1     -13.620   9.042  71.618  1.00  0.00    -0.446 A  
ENDBRANCH  23  25
BRANCH  22  31
HETATM   31  C   UNL     1     -12.343  13.365  70.494  1.00  0.00    -0.401 A  
HETATM   32  C   UNL     1     -13.728  13.494  72.524  1.00  0.00    -0.664 A  
HETATM   33  C   UNL     1     -13.415  15.464  71.193  1.00  0.00    -0.565 A  
HETATM   34  C   UNL     1     -12.707  14.705  70.251  1.00  0.00    -0.323 A  
HETATM   35  C   UNL     1     -12.919  12.768  71.638  1.00  0.00    -0.402 A  
HETATM   36  C   UNL     1     -13.921  14.857  72.335  1.00  0.00    -0.582 A  
ENDBRANCH  22  31
ENDBRANCH   4  19
ENDBRANCH   2   4
TORSDOF 12
ENDMDL
MODEL      154
REMARK 921   NORMALIZED FREE ENERGY PREDICTED BY IDOCK:   -5.00 KCAL/MOL
REMARK 922        TOTAL FREE ENERGY PREDICTED BY IDOCK:   -9.82 KCAL/MOL
REMARK 923 INTER-LIGAND FREE ENERGY PREDICTED BY IDOCK:   -8.87 KCAL/MOL
REMARK 924 INTRA-LIGAND FREE ENERGY PREDICTED BY IDOCK:   -0.95 KCAL/MOL
REMARK 927      BINDING AFFINITY PREDICTED BY RF-SCORE:    0.00 PKD
ROOT
HETATM    1  C   UNL     1     -10.053   7.944  72.754  1.00  0.00    -0.365 C  
HETATM    2  C   UNL     1      -9.933   8.802  71.493  1.00  0.00    -0.300 C  
HETATM    3  C   UNL     1      -8.689   8.387  70.704  1.00  0.00    -0.158 C  
ENDROOT
BRANCH   2   4
HETATM    4  N   UNL     1     -11.147   8.799  70.641  1.00  0.00    -0.242 NA 
BRANCH   4   5
HETATM    5  C   UNL     1     -12.203   7.782  70.787  1.00  0.00    -0.054 C  
BRANCH   5   6
HETATM    6  C   UNL     1     -11.727   6.373  70.409  1.00  0.00    -0.389 C  
BRANCH   6   7
HETATM    7  C   UNL     1     -11.173   6.264  68.977  1.00  0.00    -0.415 C  
BRANCH   7   8
HETATM    8  C   UNL     1     -10.010   5.286  68.807  1.00  0.00    -0.174 C  
BRANCH   8   9
HETATM    9  O   UNL     1     -10.221   4.500  67.636  1.00  0.00    -0.071 OA 
BRANCH   9  10
HETATM   10  C   UNL     1     -10.321   5.308  66.465  1.00  0.00    -0.285 C  
BRANCH  10  11
HETATM   11  C   UNL     1      -9.895   4.541  65.219  1.00  0.00    -0.169 C  
HETATM   12  O   UNL     1      -8.778   4.663  64.736  1.00  0.00    -0.138 OA 
HETATM   13  N   UNL     1     -10.857   3.649  64.722  1.00  0.00    -0.487 N  
HETATM   14  H   UNL     1     -11.723   3.512  65.243  1.00  0.00     0.000 HD 
BRANCH  13  15
HETATM   15  S   UNL     1     -10.624   2.809  63.307  1.00  0.00    -0.231 S  
HETATM   16  O   UNL     1     -11.806   2.046  63.003  1.00  0.00    -0.175 OA 
HETATM   17  C   UNL     1      -9.397   1.655  63.835  1.00  0.00    -0.118 C  
HETATM   18  O   UNL     1      -9.993   3.691  62.357  1.00  0.00    -0.109 OA 
ENDBRANCH  13  15
ENDBRANCH  10  11
ENDBRANCH   9  10
ENDBRANCH   8   9
ENDBRANCH   7   8
ENDBRANCH   6   7
ENDBRANCH   5   6
ENDBRANCH   4   5
BRANCH   4  19
HETATM   19  C   UNL     1     -11.194   9.772  69.637  1.00  0.00    -0.178 A  
HETATM   20  N   UNL     1     -12.185  11.778  68.650  1.00  0.00    -0.362 NA 
HETATM   21  N   UNL     1     -10.321   9.707  68.605  1.00  0.00    -0.196 NA 
HETATM   22  C   UNL     1     -11.309  11.678  67.602  1.00  0.00    -0.295 A  
HETATM   23  C   UNL     1     -10.348  10.645  67.597  1.00  0.00    -0.209 A  
HETATM   24  C   UNL     1     -12.092  10.833  69.629  1.00  0.00    -0.289 A  
BRANCH  23  25
HETATM   25  C   UNL     1      -9.334  10.398  66.533  1.00  0.00    -0.193 A  
HETATM   26  C   UNL     1      -7.976  10.702  66.751  1.00  0.00    -0.132 A  
HETATM   27  C   UNL     1      -8.651   9.303  64.451  1.00  0.00    -0.216 A  
HETATM   28  C   UNL     1      -9.645   9.797  65.300  1.00  0.00    -0.368 A  
HETATM   29  C   UNL     1      -7.315   9.547  64.734  1.00  0.00    -0.112 A  
HETATM   30  C   UNL     1      -6.979  10.298  65.855  1.00  0.00    -0.126 A  
ENDBRANCH  23  25
BRANCH  22  31
HETATM   31  C   UNL     1     -11.531  12.701  66.528  1.00  0.00    -0.409 A  
HETATM   32  C   UNL     1     -12.372  13.294  64.292  1.00  0.00    -0.406 A  
HETATM   33  C   UNL     1     -11.429  15.006  65.681  1.00  0.00    -0.248 A  
HETATM   34  C   UNL     1     -11.092  14.037  66.635  1.00  0.00    -0.312 A  
HETATM   35  C   UNL     1     -12.138  12.349  65.301  1.00  0.00    -0.451 A  
HETATM   36  C   UNL     1     -12.075  14.634  64.510  1.00  0.00    -0.490 A  
ENDBRANCH  22  31
ENDBRANCH   4  19
ENDBRANCH   2   4
TORSDOF 12
ENDMDL
MODEL      155
REMARK 921   NORMALIZED FREE ENERGY PREDICTED BY IDOCK:   -4.98 KCAL/MOL
REMARK 922        TOTAL FREE ENERGY PREDICTED BY IDOCK:   -9.79 KCAL/MOL
REMARK 923 INTER-LIGAND FREE ENERGY PREDICTED BY IDOCK:   -9.53 KCAL/MOL
REMARK 924 INTRA-LIGAND FREE ENERGY PREDICTED BY IDOCK:   -0.26 KCAL/MOL
REMARK 927      BINDING AFFINITY PREDICTED BY RF-SCORE:    0.00 PKD
ROOT
HETATM    1  C   UNL     1      -5.662  18.542  68.513  1.00  0.00    -0.189 C  
HETATM    2  C   UNL     1      -6.372  17.192  68.386  1.00  0.00    -0.156 C  
HETATM    3  C   UNL     1      -6.239  16.415  69.697  1.00  0.00    -0.210 C  
ENDROOT
BRANCH   2   4
HETATM    4  N   UNL     1      -7.786  17.290  67.949  1.00  0.00    -0.189 NA 
BRANCH   4   5
HETATM    5  C   UNL     1      -8.311  18.482  67.261  1.00  0.00    -0.253 C  
BRANCH   5   6
HETATM    6  C   UNL     1      -9.582  19.035  67.917  1.00  0.00    -0.373 C  
BRANCH   6   7
HETATM    7  C   UNL     1     -10.759  19.223  66.942  1.00  0.00    -0.543 C  
BRANCH   7   8
HETATM    8  C   UNL     1     -10.390  19.132  65.461  1.00  0.00     0.076 C  
BRANCH   8   9
HETATM    9  O   UNL     1     -11.105  18.054  64.861  1.00  0.00    -0.738 OA 
BRANCH   9  10
HETATM   10  C   UNL     1     -10.654  16.788  65.337  1.00  0.00    -0.203 C  
BRANCH  10  11
HETATM   11  C   UNL     1     -11.449  15.644  64.720  1.00  0.00    -0.283 C  
HETATM   12  O   UNL     1     -12.387  15.844  63.960  1.00  0.00    -0.724 OA 
HETATM   13  N   UNL     1     -10.980  14.361  65.043  1.00  0.00    -0.366 N  
HETATM   14  H   UNL     1     -10.123  14.270  65.588  1.00  0.00     0.000 HD 
BRANCH  13  15
HETATM   15  S   UNL     1     -11.782  12.988  64.562  1.00  0.00    -0.394 S  
HETATM   16  O   UNL     1     -11.949  12.111  65.691  1.00  0.00    -0.503 OA 
HETATM   17  C   UNL     1     -10.549  12.258  63.531  1.00  0.00    -0.448 C  
HETATM   18  O   UNL     1     -12.873  13.379  63.705  1.00  0.00    -0.584 OA 
ENDBRANCH  13  15
ENDBRANCH  10  11
ENDBRANCH   9  10
ENDBRANCH   8   9
ENDBRANCH   7   8
ENDBRANCH   6   7
ENDBRANCH   5   6
ENDBRANCH   4   5
BRANCH   4  19
HETATM   19  C   UNL     1      -8.611  16.216  68.298  1.00  0.00    -0.182 A  
HETATM   20  N   UNL     1     -10.661  15.334  69.298  1.00  0.00    -0.243 NA 
HETATM   21  N   UNL     1      -8.212  14.952  68.025  1.00  0.00    -0.133 NA 
HETATM   22  C   UNL     1     -10.225  14.063  69.034  1.00  0.00    -0.089 A  
HETATM   23  C   UNL     1      -8.999  13.874  68.364  1.00  0.00    -0.178 A  
HETATM   24  C   UNL     1      -9.848  16.360  68.915  1.00  0.00    -0.260 A  
BRANCH  23  25
HETATM   25  C   UNL     1      -8.386  12.562  68.011  1.00  0.00    -0.171 A  
HETATM   26  C   UNL     1      -8.599  11.988  66.743  1.00  0.00    -0.177 A  
HETATM   27  C   UNL     1      -6.730  10.803  68.417  1.00  0.00    -0.059 A  
HETATM   28  C   UNL     1      -7.522  11.861  68.872  1.00  0.00    -0.060 A  
HETATM   29  C   UNL     1      -6.904  10.311  67.133  1.00  0.00    -0.082 A  
HETATM   30  C   UNL     1      -7.881  10.866  66.313  1.00  0.00    -0.158 A  
ENDBRANCH  23  25
BRANCH  22  31
HETATM   31  C   UNL     1     -11.133  12.990  69.561  1.00  0.00    -0.052 A  
HETATM   32  C   UNL     1     -12.017  10.697  69.435  1.00  0.00    -0.298 A  
HETATM   33  C   UNL     1     -12.761  12.145  71.197  1.00  0.00    -0.351 A  
HETATM   34  C   UNL     1     -12.024  13.196  70.634  1.00  0.00    -0.246 A  
HETATM   35  C   UNL     1     -11.190  11.719  68.947  1.00  0.00    -0.311 A  
HETATM   36  C   UNL     1     -12.753  10.892  70.599  1.00  0.00    -0.396 A  
ENDBRANCH  22  31
ENDBRANCH   4  19
ENDBRANCH   2   4
TORSDOF 12
ENDMDL
MODEL      156
REMARK 921   NORMALIZED FREE ENERGY PREDICTED BY IDOCK:   -4.97 KCAL/MOL
REMARK 922        TOTAL FREE ENERGY PREDICTED BY IDOCK:   -9.78 KCAL/MOL
REMARK 923 INTER-LIGAND FREE ENERGY PREDICTED BY IDOCK:   -8.72 KCAL/MOL
REMARK 924 INTRA-LIGAND FREE ENERGY PREDICTED BY IDOCK:   -1.06 KCAL/MOL
REMARK 927      BINDING AFFINITY PREDICTED BY RF-SCORE:    0.00 PKD
ROOT
HETATM    1  C   UNL     1      -7.263  10.512  69.120  1.00  0.00    -0.099 C  
HETATM    2  C   UNL     1      -8.454  10.897  68.240  1.00  0.00    -0.134 C  
HETATM    3  C   UNL     1      -8.374  10.145  66.910  1.00  0.00    -0.122 C  
ENDROOT
BRANCH   2   4
HETATM    4  N   UNL     1      -9.773  10.716  68.893  1.00  0.00    -0.195 NA 
BRANCH   4   5
HETATM    5  C   UNL     1     -10.813  11.759  68.859  1.00  0.00    -0.223 C  
BRANCH   5   6
HETATM    6  C   UNL     1     -11.734  11.640  67.638  1.00  0.00    -0.300 C  
BRANCH   6   7
HETATM    7  C   UNL     1     -11.318  12.529  66.451  1.00  0.00    -0.379 C  
BRANCH   7   8
HETATM    8  C   UNL     1     -10.252  13.577  66.773  1.00  0.00    -0.264 C  
BRANCH   8   9
HETATM    9  O   UNL     1     -10.746  14.872  66.436  1.00  0.00    -0.302 OA 
BRANCH   9  10
HETATM   10  C   UNL     1     -11.486  15.452  67.508  1.00  0.00    -0.225 C  
BRANCH  10  11
HETATM   11  C   UNL     1     -10.704  16.573  68.182  1.00  0.00    -0.343 C  
HETATM   12  O   UNL     1     -10.491  16.579  69.387  1.00  0.00    -0.292 OA 
HETATM   13  N   UNL     1     -10.202  17.548  67.306  1.00  0.00    -0.324 N  
HETATM   14  H   UNL     1     -10.318  17.418  66.302  1.00  0.00     0.000 HD 
BRANCH  13  15
HETATM   15  S   UNL     1      -9.425  18.908  67.861  1.00  0.00    -0.316 S  
HETATM   16  O   UNL     1     -10.359  19.733  68.580  1.00  0.00    -0.444 OA 
HETATM   17  C   UNL     1      -9.101  19.722  66.330  1.00  0.00    -0.379 C  
HETATM   18  O   UNL     1      -8.151  18.509  68.405  1.00  0.00    -0.305 OA 
ENDBRANCH  13  15
ENDBRANCH  10  11
ENDBRANCH   9  10
ENDBRANCH   8   9
ENDBRANCH   7   8
ENDBRANCH   6   7
ENDBRANCH   5   6
ENDBRANCH   4   5
BRANCH   4  19
HETATM   19  C   UNL     1      -9.944   9.527  69.610  1.00  0.00    -0.205 A  
HETATM   20  N   UNL     1     -10.232   8.329  71.722  1.00  0.00    -0.210 NA 
HETATM   21  N   UNL     1      -9.974   8.347  68.948  1.00  0.00    -0.182 NA 
HETATM   22  C   UNL     1     -10.234   7.145  71.033  1.00  0.00    -0.196 A  
HETATM   23  C   UNL     1     -10.132   7.160  69.626  1.00  0.00    -0.192 A  
HETATM   24  C   UNL     1     -10.097   9.471  70.990  1.00  0.00    -0.229 A  
BRANCH  23  25
HETATM   25  C   UNL     1     -10.113   5.964  68.737  1.00  0.00    -0.220 A  
HETATM   26  C   UNL     1     -10.711   6.008  67.462  1.00  0.00    -0.383 A  
HETATM   27  C   UNL     1      -9.193   3.779  68.120  1.00  0.00    -0.214 A  
HETATM   28  C   UNL     1      -9.457   4.767  69.073  1.00  0.00    -0.213 A  
HETATM   29  C   UNL     1      -9.727   3.889  66.845  1.00  0.00    -0.189 A  
HETATM   30  C   UNL     1     -10.536   4.976  66.533  1.00  0.00    -0.325 A  
ENDBRANCH  23  25
BRANCH  22  31
HETATM   31  C   UNL     1     -10.301   5.932  71.914  1.00  0.00    -0.255 A  
HETATM   32  C   UNL     1     -11.606   4.386  73.314  1.00  0.00    -0.218 A  
HETATM   33  C   UNL     1      -9.269   3.970  72.975  1.00  0.00    -0.127 A  
HETATM   34  C   UNL     1      -9.165   5.174  72.266  1.00  0.00    -0.155 A  
HETATM   35  C   UNL     1     -11.519   5.527  72.504  1.00  0.00    -0.303 A  
HETATM   36  C   UNL     1     -10.494   3.573  73.495  1.00  0.00    -0.263 A  
ENDBRANCH  22  31
ENDBRANCH   4  19
ENDBRANCH   2   4
TORSDOF 12
ENDMDL
MODEL      157
REMARK 921   NORMALIZED FREE ENERGY PREDICTED BY IDOCK:   -4.93 KCAL/MOL
REMARK 922        TOTAL FREE ENERGY PREDICTED BY IDOCK:   -9.70 KCAL/MOL
REMARK 923 INTER-LIGAND FREE ENERGY PREDICTED BY IDOCK:   -8.00 KCAL/MOL
REMARK 924 INTRA-LIGAND FREE ENERGY PREDICTED BY IDOCK:   -1.71 KCAL/MOL
REMARK 927      BINDING AFFINITY PREDICTED BY RF-SCORE:    0.00 PKD
ROOT
HETATM    1  C   UNL     1     -12.264   6.926  71.537  1.00  0.00    -0.415 C  
HETATM    2  C   UNL     1     -12.411   8.442  71.394  1.00  0.00    -0.299 C  
HETATM    3  C   UNL     1     -12.999   9.026  72.680  1.00  0.00    -0.339 C  
ENDROOT
BRANCH   2   4
HETATM    4  N   UNL     1     -11.161   9.137  71.000  1.00  0.00    -0.286 NA 
BRANCH   4   5
HETATM    5  C   UNL     1      -9.900   8.959  71.740  1.00  0.00    -0.315 C  
BRANCH   5   6
HETATM    6  C   UNL     1      -8.827   8.232  70.919  1.00  0.00    -0.171 C  
BRANCH   6   7
HETATM    7  C   UNL     1      -8.605   6.767  71.338  1.00  0.00    -0.124 C  
BRANCH   7   8
HETATM    8  C   UNL     1      -7.837   5.916  70.326  1.00  0.00    -0.101 C  
BRANCH   8   9
HETATM    9  O   UNL     1      -8.416   4.614  70.268  1.00  0.00    -0.074 OA 
BRANCH   9  10
HETATM   10  C   UNL     1      -9.601   4.595  69.475  1.00  0.00    -0.188 C  
BRANCH  10  11
HETATM   11  C   UNL     1      -9.333   4.032  68.085  1.00  0.00    -0.164 C  
HETATM   12  O   UNL     1      -9.298   2.827  67.870  1.00  0.00    -0.194 OA 
HETATM   13  N   UNL     1      -9.197   4.998  67.076  1.00  0.00    -0.117 N  
HETATM   14  H   UNL     1      -9.354   5.979  67.306  1.00  0.00     0.000 HD 
BRANCH  13  15
HETATM   15  S   UNL     1      -8.787   4.588  65.519  1.00  0.00    -0.136 S  
HETATM   16  O   UNL     1      -7.518   3.910  65.522  1.00  0.00    -0.078 OA 
HETATM   17  C   UNL     1      -8.503   6.193  64.844  1.00  0.00    -0.036 C  
HETATM   18  O   UNL     1      -9.959   4.057  64.869  1.00  0.00    -0.188 OA 
ENDBRANCH  13  15
ENDBRANCH  10  11
ENDBRANCH   9  10
ENDBRANCH   8   9
ENDBRANCH   7   8
ENDBRANCH   6   7
ENDBRANCH   5   6
ENDBRANCH   4   5
BRANCH   4  19
HETATM   19  C   UNL     1     -11.269  10.034  69.931  1.00  0.00    -0.275 A  
HETATM   20  N   UNL     1     -11.399  10.493  67.533  1.00  0.00    -0.409 NA 
HETATM   21  N   UNL     1     -11.329  11.362  70.180  1.00  0.00    -0.199 NA 
HETATM   22  C   UNL     1     -11.433  11.835  67.807  1.00  0.00    -0.311 A  
HETATM   23  C   UNL     1     -11.426  12.270  69.149  1.00  0.00    -0.296 A  
HETATM   24  C   UNL     1     -11.327   9.645  68.598  1.00  0.00     0.157 A  
BRANCH  23  25
HETATM   25  C   UNL     1     -11.454  13.687  69.610  1.00  0.00    -0.286 A  
HETATM   26  C   UNL     1     -10.473  14.602  69.180  1.00  0.00    -0.239 A  
HETATM   27  C   UNL     1     -12.646  15.584  70.600  1.00  0.00    -0.493 A  
HETATM   28  C   UNL     1     -12.472  14.208  70.429  1.00  0.00    -0.424 A  
HETATM   29  C   UNL     1     -11.705  16.469  70.094  1.00  0.00     0.300 A  
HETATM   30  C   UNL     1     -10.586  15.974  69.433  1.00  0.00    -0.275 A  
ENDBRANCH  23  25
BRANCH  22  31
HETATM   31  C   UNL     1     -11.425  12.703  66.584  1.00  0.00    -0.409 A  
HETATM   32  C   UNL     1     -10.352  13.423  64.490  1.00  0.00    -0.394 A  
HETATM   33  C   UNL     1     -12.460  14.380  65.114  1.00  0.00    -0.360 A  
HETATM   34  C   UNL     1     -12.411  13.678  66.326  1.00  0.00    -0.420 A  
HETATM   35  C   UNL     1     -10.368  12.634  65.649  1.00  0.00    -0.293 A  
HETATM   36  C   UNL     1     -11.430  14.248  64.192  1.00  0.00    -0.149 A  
ENDBRANCH  22  31
ENDBRANCH   4  19
ENDBRANCH   2   4
TORSDOF 12
ENDMDL
MODEL      158
REMARK 921   NORMALIZED FREE ENERGY PREDICTED BY IDOCK:   -4.92 KCAL/MOL
REMARK 922        TOTAL FREE ENERGY PREDICTED BY IDOCK:   -9.69 KCAL/MOL
REMARK 923 INTER-LIGAND FREE ENERGY PREDICTED BY IDOCK:   -8.56 KCAL/MOL
REMARK 924 INTRA-LIGAND FREE ENERGY PREDICTED BY IDOCK:   -1.13 KCAL/MOL
REMARK 927      BINDING AFFINITY PREDICTED BY RF-SCORE:    0.00 PKD
ROOT
HETATM    1  C   UNL     1     -13.220  11.313  71.808  1.00  0.00    -0.480 C  
HETATM    2  C   UNL     1     -12.761   9.854  71.859  1.00  0.00    -0.409 C  
HETATM    3  C   UNL     1     -13.968   8.943  72.089  1.00  0.00    -0.520 C  
ENDROOT
BRANCH   2   4
HETATM    4  N   UNL     1     -11.970   9.427  70.679  1.00  0.00    -0.221 NA 
BRANCH   4   5
HETATM    5  C   UNL     1     -11.949  10.206  69.428  1.00  0.00     0.114 C  
BRANCH   5   6
HETATM    6  C   UNL     1     -10.690  11.070  69.288  1.00  0.00    -0.263 C  
BRANCH   6   7
HETATM    7  C   UNL     1     -10.922  12.396  68.540  1.00  0.00    -0.277 C  
BRANCH   7   8
HETATM    8  C   UNL     1      -9.685  12.974  67.852  1.00  0.00    -0.218 C  
BRANCH   8   9
HETATM    9  O   UNL     1      -9.713  14.397  67.948  1.00  0.00    -0.215 OA 
BRANCH   9  10
HETATM   10  C   UNL     1      -9.442  14.845  69.274  1.00  0.00    -0.114 C  
BRANCH  10  11
HETATM   11  C   UNL     1     -10.637  15.581  69.869  1.00  0.00    -0.313 C  
HETATM   12  O   UNL     1     -11.063  16.621  69.384  1.00  0.00    -0.285 OA 
HETATM   13  N   UNL     1     -11.236  14.939  70.963  1.00  0.00    -0.526 N  
HETATM   14  H   UNL     1     -10.902  14.017  71.241  1.00  0.00     0.000 HD 
BRANCH  13  15
HETATM   15  S   UNL     1     -12.477  15.640  71.818  1.00  0.00    -0.474 S  
HETATM   16  O   UNL     1     -11.992  16.820  72.483  1.00  0.00    -0.373 OA 
HETATM   17  C   UNL     1     -12.718  14.416  73.067  1.00  0.00    -0.357 C  
HETATM   18  O   UNL     1     -13.656  15.635  70.989  1.00  0.00    -0.588 OA 
ENDBRANCH  13  15
ENDBRANCH  10  11
ENDBRANCH   9  10
ENDBRANCH   8   9
ENDBRANCH   7   8
ENDBRANCH   6   7
ENDBRANCH   5   6
ENDBRANCH   4   5
BRANCH   4  19
HETATM   19  C   UNL     1     -11.309   8.200  70.795  1.00  0.00    -0.270 A  
HETATM   20  N   UNL     1     -10.437   6.364  72.154  1.00  0.00    -0.204 NA 
HETATM   21  N   UNL     1     -10.836   7.589  69.684  1.00  0.00    -0.231 NA 
HETATM   22  C   UNL     1      -9.944   5.777  71.019  1.00  0.00    -0.190 A  
HETATM   23  C   UNL     1     -10.173   6.386  69.767  1.00  0.00    -0.186 A  
HETATM   24  C   UNL     1     -11.105   7.543  72.002  1.00  0.00    -0.247 A  
BRANCH  23  25
HETATM   25  C   UNL     1      -9.701   5.879  68.447  1.00  0.00    -0.151 A  
HETATM   26  C   UNL     1     -10.613   5.651  67.398  1.00  0.00    -0.312 A  
HETATM   27  C   UNL     1      -7.901   5.485  66.834  1.00  0.00    -0.101 A  
HETATM   28  C   UNL     1      -8.344   5.665  68.147  1.00  0.00    -0.099 A  
HETATM   29  C   UNL     1      -8.821   5.346  65.806  1.00  0.00    -0.151 A  
HETATM   30  C   UNL     1     -10.180   5.371  66.097  1.00  0.00    -0.181 A  
ENDBRANCH  23  25
BRANCH  22  31
HETATM   31  C   UNL     1      -9.150   4.531  71.277  1.00  0.00    -0.178 A  
HETATM   32  C   UNL     1      -8.902   2.089  71.101  1.00  0.00    -0.119 A  
HETATM   33  C   UNL     1      -7.136   3.378  72.088  1.00  0.00    -0.041 A  
HETATM   34  C   UNL     1      -7.926   4.530  71.977  1.00  0.00    -0.099 A  
HETATM   35  C   UNL     1      -9.637   3.263  70.886  1.00  0.00    -0.234 A  
HETATM   36  C   UNL     1      -7.623   2.156  71.643  1.00  0.00    -0.040 A  
ENDBRANCH  22  31
ENDBRANCH   4  19
ENDBRANCH   2   4
TORSDOF 12
ENDMDL
MODEL      159
REMARK 921   NORMALIZED FREE ENERGY PREDICTED BY IDOCK:   -4.91 KCAL/MOL
REMARK 922        TOTAL FREE ENERGY PREDICTED BY IDOCK:   -9.67 KCAL/MOL
REMARK 923 INTER-LIGAND FREE ENERGY PREDICTED BY IDOCK:   -8.32 KCAL/MOL
REMARK 924 INTRA-LIGAND FREE ENERGY PREDICTED BY IDOCK:   -1.35 KCAL/MOL
REMARK 927      BINDING AFFINITY PREDICTED BY RF-SCORE:    0.00 PKD
ROOT
HETATM    1  C   UNL     1     -12.922  13.876  65.486  1.00  0.00    -0.375 C  
HETATM    2  C   UNL     1     -11.982  12.799  64.940  1.00  0.00    -0.402 C  
HETATM    3  C   UNL     1     -11.820  12.975  63.429  1.00  0.00    -0.543 C  
ENDROOT
BRANCH   2   4
HETATM    4  N   UNL     1     -10.670  12.735  65.627  1.00  0.00    -0.269 NA 
BRANCH   4   5
HETATM    5  C   UNL     1     -10.021  13.934  66.187  1.00  0.00    -0.310 C  
BRANCH   5   6
HETATM    6  C   UNL     1     -10.625  14.364  67.530  1.00  0.00    -0.265 C  
BRANCH   6   7
HETATM    7  C   UNL     1     -10.502  13.302  68.639  1.00  0.00    -0.242 C  
BRANCH   7   8
HETATM    8  C   UNL     1     -11.763  12.471  68.879  1.00  0.00    -0.322 C  
BRANCH   8   9
HETATM    9  O   UNL     1     -11.596  11.690  70.060  1.00  0.00    -0.295 OA 
BRANCH   9  10
HETATM   10  C   UNL     1     -12.771  11.694  70.869  1.00  0.00    -0.258 C  
BRANCH  10  11
HETATM   11  C   UNL     1     -12.998  10.340  71.530  1.00  0.00    -0.453 C  
HETATM   12  O   UNL     1     -13.700  10.215  72.524  1.00  0.00    -0.176 OA 
HETATM   13  N   UNL     1     -12.396   9.257  70.871  1.00  0.00    -0.459 N  
HETATM   14  H   UNL     1     -11.923   9.419  69.982  1.00  0.00     0.000 HD 
BRANCH  13  15
HETATM   15  S   UNL     1     -12.432   7.719  71.499  1.00  0.00    -0.324 S  
HETATM   16  O   UNL     1     -11.529   7.638  72.616  1.00  0.00    -0.340 OA 
HETATM   17  C   UNL     1     -11.682   6.829  70.173  1.00  0.00    -0.313 C  
HETATM   18  O   UNL     1     -13.807   7.293  71.570  1.00  0.00    -0.393 OA 
ENDBRANCH  13  15
ENDBRANCH  10  11
ENDBRANCH   9  10
ENDBRANCH   8   9
ENDBRANCH   7   8
ENDBRANCH   6   7
ENDBRANCH   5   6
ENDBRANCH   4   5
BRANCH   4  19
HETATM   19  C   UNL     1     -10.046  11.483  65.644  1.00  0.00    -0.237 A  
HETATM   20  N   UNL     1      -9.374   9.416  64.525  1.00  0.00    -0.113 NA 
HETATM   21  N   UNL     1      -9.493  11.030  66.793  1.00  0.00    -0.179 NA 
HETATM   22  C   UNL     1      -8.843   8.967  65.705  1.00  0.00    -0.191 A  
HETATM   23  C   UNL     1      -8.880   9.798  66.844  1.00  0.00    -0.138 A  
HETATM   24  C   UNL     1      -9.946  10.654  64.534  1.00  0.00    -0.345 A  
BRANCH  23  25
HETATM   25  C   UNL     1      -8.353   9.455  68.195  1.00  0.00    -0.119 A  
HETATM   26  C   UNL     1      -6.966   9.368  68.425  1.00  0.00    -0.067 A  
HETATM   27  C   UNL     1      -8.665   9.250  70.616  1.00  0.00    -0.282 A  
HETATM   28  C   UNL     1      -9.181   9.269  69.317  1.00  0.00    -0.152 A  
HETATM   29  C   UNL     1      -7.293   9.248  70.816  1.00  0.00    -0.134 A  
HETATM   30  C   UNL     1      -6.441   9.248  69.717  1.00  0.00    -0.040 A  
ENDBRANCH  23  25
BRANCH  22  31
HETATM   31  C   UNL     1      -8.311   7.566  65.635  1.00  0.00    -0.144 A  
HETATM   32  C   UNL     1      -8.594   5.157  66.050  1.00  0.00    -0.124 A  
HETATM   33  C   UNL     1      -6.598   5.933  64.971  1.00  0.00    -0.043 A  
HETATM   34  C   UNL     1      -7.022   7.256  65.155  1.00  0.00    -0.055 A  
HETATM   35  C   UNL     1      -9.065   6.475  66.124  1.00  0.00    -0.146 A  
HETATM   36  C   UNL     1      -7.389   4.881  65.415  1.00  0.00    -0.072 A  
ENDBRANCH  22  31
ENDBRANCH   4  19
ENDBRANCH   2   4
TORSDOF 12
ENDMDL
MODEL      160
REMARK 921   NORMALIZED FREE ENERGY PREDICTED BY IDOCK:   -4.90 KCAL/MOL
REMARK 922        TOTAL FREE ENERGY PREDICTED BY IDOCK:   -9.66 KCAL/MOL
REMARK 923 INTER-LIGAND FREE ENERGY PREDICTED BY IDOCK:   -9.29 KCAL/MOL
REMARK 924 INTRA-LIGAND FREE ENERGY PREDICTED BY IDOCK:   -0.37 KCAL/MOL
REMARK 927      BINDING AFFINITY PREDICTED BY RF-SCORE:    0.00 PKD
ROOT
HETATM    1  C   UNL     1     -10.276  11.140  64.881  1.00  0.00    -0.361 C  
HETATM    2  C   UNL     1      -9.779  10.742  66.273  1.00  0.00    -0.205 C  
HETATM    3  C   UNL     1      -8.292  11.078  66.404  1.00  0.00    -0.165 C  
ENDROOT
BRANCH   2   4
HETATM    4  N   UNL     1     -10.570  11.319  67.386  1.00  0.00    -0.212 NA 
BRANCH   4   5
HETATM    5  C   UNL     1     -11.362  10.478  68.302  1.00  0.00    -0.264 C  
BRANCH   5   6
HETATM    6  C   UNL     1     -10.498   9.766  69.350  1.00  0.00    -0.241 C  
BRANCH   6   7
HETATM    7  C   UNL     1     -10.579   8.229  69.288  1.00  0.00    -0.191 C  
BRANCH   7   8
HETATM    8  C   UNL     1      -9.260   7.525  68.972  1.00  0.00    -0.146 C  
BRANCH   8   9
HETATM    9  O   UNL     1      -8.986   7.638  67.576  1.00  0.00    -0.126 OA 
BRANCH   9  10
HETATM   10  C   UNL     1     -10.041   7.098  66.783  1.00  0.00    -0.208 C  
BRANCH  10  11
HETATM   11  C   UNL     1      -9.753   5.657  66.378  1.00  0.00    -0.156 C  
HETATM   12  O   UNL     1     -10.630   4.805  66.354  1.00  0.00    -0.284 OA 
HETATM   13  N   UNL     1      -8.430   5.414  65.978  1.00  0.00    -0.119 N  
HETATM   14  H   UNL     1      -7.781   6.197  65.911  1.00  0.00     0.000 HD 
BRANCH  13  15
HETATM   15  S   UNL     1      -7.894   3.884  65.612  1.00  0.00    -0.090 S  
HETATM   16  O   UNL     1      -7.888   3.081  66.806  1.00  0.00    -0.075 OA 
HETATM   17  C   UNL     1      -6.208   4.235  65.227  1.00  0.00    -0.027 C  
HETATM   18  O   UNL     1      -8.528   3.465  64.387  1.00  0.00    -0.093 OA 
ENDBRANCH  13  15
ENDBRANCH  10  11
ENDBRANCH   9  10
ENDBRANCH   8   9
ENDBRANCH   7   8
ENDBRANCH   6   7
ENDBRANCH   5   6
ENDBRANCH   4   5
BRANCH   4  19
HETATM   19  C   UNL     1     -10.585  12.715  67.469  1.00  0.00    -0.221 A  
HETATM   20  N   UNL     1     -10.048  14.915  66.547  1.00  0.00    -0.262 NA 
HETATM   21  N   UNL     1     -11.123  13.313  68.557  1.00  0.00    -0.252 NA 
HETATM   22  C   UNL     1     -10.575  15.498  67.669  1.00  0.00    -0.291 A  
HETATM   23  C   UNL     1     -11.144  14.685  68.672  1.00  0.00    -0.262 A  
HETATM   24  C   UNL     1     -10.079  13.554  66.483  1.00  0.00    -0.282 A  
BRANCH  23  25
HETATM   25  C   UNL     1     -11.750  15.162  69.947  1.00  0.00    -0.346 A  
HETATM   26  C   UNL     1     -13.149  15.226  70.097  1.00  0.00    -0.030 A  
HETATM   27  C   UNL     1     -11.571  15.655  72.339  1.00  0.00    -0.523 A  
HETATM   28  C   UNL     1     -10.988  15.505  71.078  1.00  0.00    -0.314 A  
HETATM   29  C   UNL     1     -12.951  15.632  72.471  1.00  0.00    -0.541 A  
HETATM   30  C   UNL     1     -13.744  15.475  71.340  1.00  0.00    -0.532 A  
ENDBRANCH  23  25
BRANCH  22  31
HETATM   31  C   UNL     1     -10.427  16.990  67.703  1.00  0.00    -0.343 A  
HETATM   32  C   UNL     1     -10.520  19.167  66.558  1.00  0.00    -0.534 A  
HETATM   33  C   UNL     1     -10.006  19.096  68.900  1.00  0.00    -0.481 A  
HETATM   34  C   UNL     1     -10.006  17.696  68.849  1.00  0.00    -0.324 A  
HETATM   35  C   UNL     1     -10.635  17.769  66.543  1.00  0.00    -0.220 A  
HETATM   36  C   UNL     1     -10.270  19.832  67.752  1.00  0.00    -0.571 A  
ENDBRANCH  22  31
ENDBRANCH   4  19
ENDBRANCH   2   4
TORSDOF 12
ENDMDL
MODEL      161
REMARK 921   NORMALIZED FREE ENERGY PREDICTED BY IDOCK:   -4.90 KCAL/MOL
REMARK 922        TOTAL FREE ENERGY PREDICTED BY IDOCK:   -9.65 KCAL/MOL
REMARK 923 INTER-LIGAND FREE ENERGY PREDICTED BY IDOCK:   -7.89 KCAL/MOL
REMARK 924 INTRA-LIGAND FREE ENERGY PREDICTED BY IDOCK:   -1.77 KCAL/MOL
REMARK 927      BINDING AFFINITY PREDICTED BY RF-SCORE:    0.00 PKD
ROOT
HETATM    1  C   UNL     1      -9.108   9.108  71.062  1.00  0.00    -0.305 C  
HETATM    2  C   UNL     1     -10.539   8.568  71.081  1.00  0.00    -0.220 C  
HETATM    3  C   UNL     1     -11.520   9.717  71.322  1.00  0.00    -0.457 C  
ENDROOT
BRANCH   2   4
HETATM    4  N   UNL     1     -10.905   7.781  69.878  1.00  0.00    -0.245 NA 
BRANCH   4   5
HETATM    5  C   UNL     1     -11.489   6.431  69.975  1.00  0.00    -0.428 C  
BRANCH   5   6
HETATM    6  C   UNL     1     -10.651   5.482  70.841  1.00  0.00    -0.309 C  
BRANCH   6   7
HETATM    7  C   UNL     1      -9.344   5.016  70.173  1.00  0.00    -0.215 C  
BRANCH   7   8
HETATM    8  C   UNL     1      -9.226   3.506  69.969  1.00  0.00    -0.156 C  
BRANCH   8   9
HETATM    9  O   UNL     1      -8.650   3.245  68.691  1.00  0.00    -0.079 OA 
BRANCH   9  10
HETATM   10  C   UNL     1      -9.596   3.418  67.638  1.00  0.00    -0.107 C  
BRANCH  10  11
HETATM   11  C   UNL     1      -8.940   3.988  66.386  1.00  0.00    -0.128 C  
HETATM   12  O   UNL     1      -9.275   3.636  65.263  1.00  0.00    -0.138 OA 
HETATM   13  N   UNL     1      -7.980   4.983  66.627  1.00  0.00    -0.107 N  
HETATM   14  H   UNL     1      -7.835   5.310  67.582  1.00  0.00     0.000 HD 
BRANCH  13  15
HETATM   15  S   UNL     1      -7.074   5.642  65.400  1.00  0.00    -0.067 S  
HETATM   16  O   UNL     1      -6.025   4.726  65.036  1.00  0.00    -0.023 OA 
HETATM   17  C   UNL     1      -6.307   6.974  66.268  1.00  0.00    -0.050 C  
HETATM   18  O   UNL     1      -7.974   6.226  64.438  1.00  0.00    -0.114 OA 
ENDBRANCH  13  15
ENDBRANCH  10  11
ENDBRANCH   9  10
ENDBRANCH   8   9
ENDBRANCH   7   8
ENDBRANCH   6   7
ENDBRANCH   5   6
ENDBRANCH   4   5
BRANCH   4  19
HETATM   19  C   UNL     1     -10.590   8.362  68.645  1.00  0.00    -0.113 A  
HETATM   20  N   UNL     1      -9.820   8.180  66.332  1.00  0.00    -0.224 NA 
HETATM   21  N   UNL     1     -10.705   9.702  68.492  1.00  0.00    -0.217 NA 
HETATM   22  C   UNL     1      -9.919   9.541  66.208  1.00  0.00    -0.274 A  
HETATM   23  C   UNL     1     -10.394  10.305  67.294  1.00  0.00    -0.232 A  
HETATM   24  C   UNL     1     -10.166   7.642  67.536  1.00  0.00    -0.227 A  
BRANCH  23  25
HETATM   25  C   UNL     1     -10.553  11.787  67.319  1.00  0.00    -0.259 A  
HETATM   26  C   UNL     1      -9.431  12.631  67.226  1.00  0.00    -0.199 A  
HETATM   27  C   UNL     1     -11.951  13.785  67.089  1.00  0.00    -0.442 A  
HETATM   28  C   UNL     1     -11.807  12.423  67.368  1.00  0.00    -0.360 A  
HETATM   29  C   UNL     1     -10.827  14.580  66.920  1.00  0.00    -0.305 A  
HETATM   30  C   UNL     1      -9.564  14.013  67.046  1.00  0.00    -0.253 A  
ENDBRANCH  23  25
BRANCH  22  31
HETATM   31  C   UNL     1      -9.441  10.064  64.885  1.00  0.00    -0.355 A  
HETATM   32  C   UNL     1      -7.650  10.319  63.217  1.00  0.00    -0.124 A  
HETATM   33  C   UNL     1      -9.827  11.208  62.744  1.00  0.00    -0.261 A  
HETATM   34  C   UNL     1     -10.246  10.846  64.031  1.00  0.00    -0.422 A  
HETATM   35  C   UNL     1      -8.111   9.855  64.457  1.00  0.00    -0.149 A  
HETATM   36  C   UNL     1      -8.528  10.938  62.335  1.00  0.00    -0.323 A  
ENDBRANCH  22  31
ENDBRANCH   4  19
ENDBRANCH   2   4
TORSDOF 12
ENDMDL
MODEL      162
REMARK 921   NORMALIZED FREE ENERGY PREDICTED BY IDOCK:   -4.90 KCAL/MOL
REMARK 922        TOTAL FREE ENERGY PREDICTED BY IDOCK:   -9.65 KCAL/MOL
REMARK 923 INTER-LIGAND FREE ENERGY PREDICTED BY IDOCK:   -8.46 KCAL/MOL
REMARK 924 INTRA-LIGAND FREE ENERGY PREDICTED BY IDOCK:   -1.19 KCAL/MOL
REMARK 927      BINDING AFFINITY PREDICTED BY RF-SCORE:    0.00 PKD
ROOT
HETATM    1  C   UNL     1     -14.244   8.287  72.419  1.00  0.00    -0.318 C  
HETATM    2  C   UNL     1     -12.769   8.258  72.014  1.00  0.00    -0.342 C  
HETATM    3  C   UNL     1     -12.539   7.148  70.987  1.00  0.00    -0.335 C  
ENDROOT
BRANCH   2   4
HETATM    4  N   UNL     1     -12.247   9.562  71.536  1.00  0.00    -0.361 NA 
BRANCH   4   5
HETATM    5  C   UNL     1     -12.921  10.835  71.846  1.00  0.00    -0.419 C  
BRANCH   5   6
HETATM    6  C   UNL     1     -13.106  11.725  70.610  1.00  0.00     0.225 C  
BRANCH   6   7
HETATM    7  C   UNL     1     -12.210  12.976  70.601  1.00  0.00    -0.390 C  
BRANCH   7   8
HETATM    8  C   UNL     1     -12.921  14.283  70.954  1.00  0.00    -0.329 C  
BRANCH   8   9
HETATM    9  O   UNL     1     -11.990  15.361  70.884  1.00  0.00    -0.297 OA 
BRANCH   9  10
HETATM   10  C   UNL     1     -12.005  15.992  69.605  1.00  0.00    -0.180 C  
BRANCH  10  11
HETATM   11  C   UNL     1     -10.619  16.493  69.214  1.00  0.00    -0.327 C  
HETATM   12  O   UNL     1      -9.611  16.136  69.809  1.00  0.00    -0.154 OA 
HETATM   13  N   UNL     1     -10.594  17.332  68.089  1.00  0.00    -0.379 N  
HETATM   14  H   UNL     1     -11.457  17.493  67.572  1.00  0.00     0.000 HD 
BRANCH  13  15
HETATM   15  S   UNL     1      -9.195  18.070  67.579  1.00  0.00    -0.255 S  
HETATM   16  O   UNL     1      -8.867  19.145  68.477  1.00  0.00    -0.344 OA 
HETATM   17  C   UNL     1      -9.770  18.815  66.085  1.00  0.00    -0.257 C  
HETATM   18  O   UNL     1      -8.254  17.045  67.205  1.00  0.00    -0.179 OA 
ENDBRANCH  13  15
ENDBRANCH  10  11
ENDBRANCH   9  10
ENDBRANCH   8   9
ENDBRANCH   7   8
ENDBRANCH   6   7
ENDBRANCH   5   6
ENDBRANCH   4   5
BRANCH   4  19
HETATM   19  C   UNL     1     -11.121   9.505  70.707  1.00  0.00    -0.323 A  
HETATM   20  N   UNL     1      -8.752   9.018  70.353  1.00  0.00    -0.178 NA 
HETATM   21  N   UNL     1     -11.224   9.897  69.416  1.00  0.00    -0.194 NA 
HETATM   22  C   UNL     1      -8.873   9.444  69.057  1.00  0.00    -0.141 A  
HETATM   23  C   UNL     1     -10.132   9.861  68.578  1.00  0.00    -0.168 A  
HETATM   24  C   UNL     1      -9.875   9.055  71.125  1.00  0.00    -0.300 A  
BRANCH  23  25
HETATM   25  C   UNL     1     -10.427  10.355  67.203  1.00  0.00    -0.311 A  
HETATM   26  C   UNL     1     -11.096  11.579  67.007  1.00  0.00    -0.365 A  
HETATM   27  C   UNL     1     -10.026  10.303  64.787  1.00  0.00    -0.392 A  
HETATM   28  C   UNL     1     -10.008   9.684  66.040  1.00  0.00    -0.344 A  
HETATM   29  C   UNL     1     -10.619  11.547  64.638  1.00  0.00    -0.369 A  
HETATM   30  C   UNL     1     -11.207  12.161  65.739  1.00  0.00    -0.384 A  
ENDBRANCH  23  25
BRANCH  22  31
HETATM   31  C   UNL     1      -7.579   9.454  68.299  1.00  0.00    -0.082 A  
HETATM   32  C   UNL     1      -5.785   8.239  67.132  1.00  0.00    -0.038 A  
HETATM   33  C   UNL     1      -5.712  10.635  67.220  1.00  0.00    -0.045 A  
HETATM   34  C   UNL     1      -6.845  10.631  68.045  1.00  0.00    -0.072 A  
HETATM   35  C   UNL     1      -6.984   8.250  67.858  1.00  0.00    -0.078 A  
HETATM   36  C   UNL     1      -5.185   9.436  66.758  1.00  0.00    -0.038 A  
ENDBRANCH  22  31
ENDBRANCH   4  19
ENDBRANCH   2   4
TORSDOF 12
ENDMDL
MODEL      163
REMARK 921   NORMALIZED FREE ENERGY PREDICTED BY IDOCK:   -4.89 KCAL/MOL
REMARK 922        TOTAL FREE ENERGY PREDICTED BY IDOCK:   -9.64 KCAL/MOL
REMARK 923 INTER-LIGAND FREE ENERGY PREDICTED BY IDOCK:   -8.53 KCAL/MOL
REMARK 924 INTRA-LIGAND FREE ENERGY PREDICTED BY IDOCK:   -1.11 KCAL/MOL
REMARK 927      BINDING AFFINITY PREDICTED BY RF-SCORE:    0.00 PKD
ROOT
HETATM    1  C   UNL     1     -12.635  12.059  63.560  1.00  0.00    -0.625 C  
HETATM    2  C   UNL     1     -11.591  13.138  63.857  1.00  0.00    -0.433 C  
HETATM    3  C   UNL     1     -12.293  14.461  64.171  1.00  0.00    -0.340 C  
ENDROOT
BRANCH   2   4
HETATM    4  N   UNL     1     -10.622  12.768  64.917  1.00  0.00    -0.301 NA 
BRANCH   4   5
HETATM    5  C   UNL     1      -9.492  11.858  64.662  1.00  0.00     0.072 C  
BRANCH   5   6
HETATM    6  C   UNL     1      -9.940  10.415  64.395  1.00  0.00    -0.388 C  
BRANCH   6   7
HETATM    7  C   UNL     1      -8.790   9.392  64.400  1.00  0.00    -0.225 C  
BRANCH   7   8
HETATM    8  C   UNL     1      -7.483   9.888  63.781  1.00  0.00    -0.136 C  
BRANCH   8   9
HETATM    9  O   UNL     1      -6.521  10.099  64.813  1.00  0.00    -0.121 OA 
BRANCH   9  10
HETATM   10  C   UNL     1      -6.809   9.320  65.973  1.00  0.00    -0.088 C  
BRANCH  10  11
HETATM   11  C   UNL     1      -6.507  10.091  67.252  1.00  0.00    -0.068 C  
HETATM   12  O   UNL     1      -5.757   9.650  68.112  1.00  0.00    -0.040 OA 
HETATM   13  N   UNL     1      -7.103  11.360  67.327  1.00  0.00    -0.110 N  
HETATM   14  H   UNL     1      -7.621  11.712  66.523  1.00  0.00     0.000 HD 
BRANCH  13  15
HETATM   15  S   UNL     1      -6.987  12.303  68.690  1.00  0.00    -0.101 S  
HETATM   16  O   UNL     1      -7.492  13.620  68.405  1.00  0.00    -0.107 OA 
HETATM   17  C   UNL     1      -5.233  12.447  68.814  1.00  0.00    -0.054 C  
HETATM   18  O   UNL     1      -7.428  11.521  69.818  1.00  0.00     0.183 OA 
ENDBRANCH  13  15
ENDBRANCH  10  11
ENDBRANCH   9  10
ENDBRANCH   8   9
ENDBRANCH   7   8
ENDBRANCH   6   7
ENDBRANCH   5   6
ENDBRANCH   4   5
BRANCH   4  19
HETATM   19  C   UNL     1     -10.890  13.272  66.195  1.00  0.00    -0.280 A  
HETATM   20  N   UNL     1     -11.923  13.061  68.401  1.00  0.00    -0.322 NA 
HETATM   21  N   UNL     1     -10.419  14.492  66.542  1.00  0.00    -0.281 NA 
HETATM   22  C   UNL     1     -11.458  14.309  68.721  1.00  0.00    -0.296 A  
HETATM   23  C   UNL     1     -10.673  15.018  67.789  1.00  0.00    -0.278 A  
HETATM   24  C   UNL     1     -11.617  12.586  67.160  1.00  0.00    -0.368 A  
BRANCH  23  25
HETATM   25  C   UNL     1     -10.099  16.380  67.983  1.00  0.00    -0.248 A  
HETATM   26  C   UNL     1     -10.758  17.516  67.474  1.00  0.00    -0.280 A  
HETATM   27  C   UNL     1      -8.579  17.908  69.147  1.00  0.00     0.121 A  
HETATM   28  C   UNL     1      -8.930  16.622  68.726  1.00  0.00    -0.253 A  
HETATM   29  C   UNL     1      -9.298  19.004  68.695  1.00  0.00    -0.428 A  
HETATM   30  C   UNL     1     -10.353  18.813  67.810  1.00  0.00    -0.467 A  
ENDBRANCH  23  25
BRANCH  22  31
HETATM   31  C   UNL     1     -11.907  14.795  70.068  1.00  0.00    -0.362 A  
HETATM   32  C   UNL     1     -11.370  15.656  72.310  1.00  0.00    -0.337 A  
HETATM   33  C   UNL     1     -13.668  15.413  71.668  1.00  0.00    -0.606 A  
HETATM   34  C   UNL     1     -13.261  14.829  70.461  1.00  0.00    -0.204 A  
HETATM   35  C   UNL     1     -10.970  15.181  71.052  1.00  0.00    -0.216 A  
HETATM   36  C   UNL     1     -12.719  15.832  72.592  1.00  0.00    -0.546 A  
ENDBRANCH  22  31
ENDBRANCH   4  19
ENDBRANCH   2   4
TORSDOF 12
ENDMDL
MODEL      164
REMARK 921   NORMALIZED FREE ENERGY PREDICTED BY IDOCK:   -4.87 KCAL/MOL
REMARK 922        TOTAL FREE ENERGY PREDICTED BY IDOCK:   -9.60 KCAL/MOL
REMARK 923 INTER-LIGAND FREE ENERGY PREDICTED BY IDOCK:   -8.97 KCAL/MOL
REMARK 924 INTRA-LIGAND FREE ENERGY PREDICTED BY IDOCK:   -0.63 KCAL/MOL
REMARK 927      BINDING AFFINITY PREDICTED BY RF-SCORE:    0.00 PKD
ROOT
HETATM    1  C   UNL     1     -12.506  14.477  72.865  1.00  0.00    -0.337 C  
HETATM    2  C   UNL     1     -13.093  14.141  71.492  1.00  0.00    -0.353 C  
HETATM    3  C   UNL     1     -14.394  14.919  71.285  1.00  0.00    -0.460 C  
ENDROOT
BRANCH   2   4
HETATM    4  N   UNL     1     -12.151  14.342  70.365  1.00  0.00    -0.309 NA 
BRANCH   4   5
HETATM    5  C   UNL     1     -11.730  15.685  69.927  1.00  0.00    -0.362 C  
BRANCH   5   6
HETATM    6  C   UNL     1     -10.210  15.879  69.985  1.00  0.00    -0.187 C  
BRANCH   6   7
HETATM    7  C   UNL     1      -9.680  16.956  69.020  1.00  0.00    -0.231 C  
BRANCH   7   8
HETATM    8  C   UNL     1     -10.757  17.710  68.240  1.00  0.00    -0.280 C  
BRANCH   8   9
HETATM    9  O   UNL     1     -10.310  17.921  66.902  1.00  0.00    -0.341 OA 
BRANCH   9  10
HETATM   10  C   UNL     1      -9.460  16.867  66.454  1.00  0.00    -0.283 C  
BRANCH  10  11
HETATM   11  C   UNL     1      -8.012  17.329  66.340  1.00  0.00    -0.303 C  
HETATM   12  O   UNL     1      -7.117  16.570  65.992  1.00  0.00     0.065 OA 
HETATM   13  N   UNL     1      -7.809  18.693  66.599  1.00  0.00    -0.246 N  
HETATM   14  H   UNL     1      -8.617  19.291  66.768  1.00  0.00     0.000 HD 
BRANCH  13  15
HETATM   15  S   UNL     1      -6.288  19.360  66.637  1.00  0.00    -0.184 S  
HETATM   16  O   UNL     1      -5.849  19.472  68.003  1.00  0.00    -0.205 OA 
HETATM   17  C   UNL     1      -6.656  20.996  66.086  1.00  0.00    -0.146 C  
HETATM   18  O   UNL     1      -5.495  18.736  65.608  1.00  0.00    -0.146 OA 
ENDBRANCH  13  15
ENDBRANCH  10  11
ENDBRANCH   9  10
ENDBRANCH   8   9
ENDBRANCH   7   8
ENDBRANCH   6   7
ENDBRANCH   5   6
ENDBRANCH   4   5
BRANCH   4  19
HETATM   19  C   UNL     1     -11.745  13.185  69.691  1.00  0.00    -0.303 A  
HETATM   20  N   UNL     1     -10.996  10.858  69.702  1.00  0.00    -0.260 NA 
HETATM   21  N   UNL     1     -11.659  13.196  68.340  1.00  0.00    -0.314 NA 
HETATM   22  C   UNL     1     -10.891  10.900  68.337  1.00  0.00    -0.222 A  
HETATM   23  C   UNL     1     -11.255  12.076  67.649  1.00  0.00    -0.282 A  
HETATM   24  C   UNL     1     -11.425  11.992  70.326  1.00  0.00     0.114 A  
BRANCH  23  25
HETATM   25  C   UNL     1     -11.193  12.283  66.174  1.00  0.00    -0.372 A  
HETATM   26  C   UNL     1     -10.179  11.679  65.406  1.00  0.00    -0.306 A  
HETATM   27  C   UNL     1     -12.253  12.949  64.069  1.00  0.00    -0.500 A  
HETATM   28  C   UNL     1     -12.158  13.018  65.461  1.00  0.00    -0.501 A  
HETATM   29  C   UNL     1     -11.283  12.277  63.341  1.00  0.00    -0.497 A  
HETATM   30  C   UNL     1     -10.212  11.690  64.007  1.00  0.00    -0.391 A  
ENDBRANCH  23  25
BRANCH  22  31
HETATM   31  C   UNL     1     -10.332   9.646  67.734  1.00  0.00    -0.286 A  
HETATM   32  C   UNL     1     -10.645   7.328  66.969  1.00  0.00    -0.415 A  
HETATM   33  C   UNL     1      -8.503   8.371  66.699  1.00  0.00    -0.113 A  
HETATM   34  C   UNL     1      -8.974   9.498  67.385  1.00  0.00    -0.141 A  
HETATM   35  C   UNL     1     -11.143   8.503  67.549  1.00  0.00     0.345 A  
HETATM   36  C   UNL     1      -9.343   7.286  66.486  1.00  0.00    -0.216 A  
ENDBRANCH  22  31
ENDBRANCH   4  19
ENDBRANCH   2   4
TORSDOF 12
ENDMDL
MODEL      165
REMARK 921   NORMALIZED FREE ENERGY PREDICTED BY IDOCK:   -4.85 KCAL/MOL
REMARK 922        TOTAL FREE ENERGY PREDICTED BY IDOCK:   -9.57 KCAL/MOL
REMARK 923 INTER-LIGAND FREE ENERGY PREDICTED BY IDOCK:   -8.60 KCAL/MOL
REMARK 924 INTRA-LIGAND FREE ENERGY PREDICTED BY IDOCK:   -0.97 KCAL/MOL
REMARK 927      BINDING AFFINITY PREDICTED BY RF-SCORE:    0.00 PKD
ROOT
HETATM    1  C   UNL     1      -8.381   7.646  70.357  1.00  0.00    -0.124 C  
HETATM    2  C   UNL     1      -9.657   6.950  70.836  1.00  0.00    -0.164 C  
HETATM    3  C   UNL     1      -9.778   7.088  72.355  1.00  0.00    -0.171 C  
ENDROOT
BRANCH   2   4
HETATM    4  N   UNL     1     -10.889   7.402  70.146  1.00  0.00    -0.252 NA 
BRANCH   4   5
HETATM    5  C   UNL     1     -11.639   6.525  69.230  1.00  0.00    -0.111 C  
BRANCH   5   6
HETATM    6  C   UNL     1     -10.818   6.104  68.005  1.00  0.00    -0.398 C  
BRANCH   6   7
HETATM    7  C   UNL     1     -10.668   7.210  66.943  1.00  0.00    -0.363 C  
BRANCH   7   8
HETATM    8  C   UNL     1      -9.346   7.193  66.176  1.00  0.00    -0.045 C  
BRANCH   8   9
HETATM    9  O   UNL     1      -9.132   5.891  65.632  1.00  0.00    -0.136 OA 
BRANCH   9  10
HETATM   10  C   UNL     1      -7.745   5.615  65.449  1.00  0.00    -0.087 C  
BRANCH  10  11
HETATM   11  C   UNL     1      -7.222   4.657  66.513  1.00  0.00    -0.080 C  
HETATM   12  O   UNL     1      -6.034   4.600  66.804  1.00  0.00    -0.025 OA 
HETATM   13  N   UNL     1      -8.212   3.908  67.166  1.00  0.00    -0.098 N  
HETATM   14  H   UNL     1      -9.193   4.091  66.955  1.00  0.00     0.000 HD 
BRANCH  13  15
HETATM   15  S   UNL     1      -7.831   2.729  68.273  1.00  0.00    -0.054 S  
HETATM   16  O   UNL     1      -7.121   1.665  67.614  1.00  0.00    -0.035 OA 
HETATM   17  C   UNL     1      -9.445   2.114  68.635  1.00  0.00    -0.137 C  
HETATM   18  O   UNL     1      -7.346   3.372  69.469  1.00  0.00    -0.045 OA 
ENDBRANCH  13  15
ENDBRANCH  10  11
ENDBRANCH   9  10
ENDBRANCH   8   9
ENDBRANCH   7   8
ENDBRANCH   6   7
ENDBRANCH   5   6
ENDBRANCH   4   5
BRANCH   4  19
HETATM   19  C   UNL     1     -11.253   8.737  70.353  1.00  0.00    -0.223 A  
HETATM   20  N   UNL     1     -12.311  10.477  71.707  1.00  0.00    -0.267 NA 
HETATM   21  N   UNL     1     -10.951   9.664  69.415  1.00  0.00    -0.219 NA 
HETATM   22  C   UNL     1     -12.018  11.393  70.732  1.00  0.00    -0.252 A  
HETATM   23  C   UNL     1     -11.305  10.984  69.586  1.00  0.00    -0.292 A  
HETATM   24  C   UNL     1     -11.913   9.191  71.489  1.00  0.00    -0.352 A  
BRANCH  23  25
HETATM   25  C   UNL     1     -10.915  11.853  68.440  1.00  0.00    -0.273 A  
HETATM   26  C   UNL     1      -9.573  12.234  68.251  1.00  0.00    -0.212 A  
HETATM   27  C   UNL     1     -11.397  12.833  66.247  1.00  0.00    -0.365 A  
HETATM   28  C   UNL     1     -11.826  12.282  67.458  1.00  0.00    -0.331 A  
HETATM   29  C   UNL     1     -10.054  13.122  66.056  1.00  0.00    -0.286 A  
HETATM   30  C   UNL     1      -9.149  12.876  67.082  1.00  0.00    -0.220 A  
ENDBRANCH  23  25
BRANCH  22  31
HETATM   31  C   UNL     1     -12.563  12.764  71.006  1.00  0.00    -0.362 A  
HETATM   32  C   UNL     1     -12.550  15.186  70.573  1.00  0.00    -0.429 A  
HETATM   33  C   UNL     1     -14.146  14.281  72.118  1.00  0.00    -0.634 A  
HETATM   34  C   UNL     1     -13.556  13.018  71.974  1.00  0.00    -0.530 A  
HETATM   35  C   UNL     1     -12.042  13.899  70.345  1.00  0.00    -0.421 A  
HETATM   36  C   UNL     1     -13.645  15.366  71.410  1.00  0.00    -0.604 A  
ENDBRANCH  22  31
ENDBRANCH   4  19
ENDBRANCH   2   4
TORSDOF 12
ENDMDL
MODEL      166
REMARK 921   NORMALIZED FREE ENERGY PREDICTED BY IDOCK:   -4.83 KCAL/MOL
REMARK 922        TOTAL FREE ENERGY PREDICTED BY IDOCK:   -9.54 KCAL/MOL
REMARK 923 INTER-LIGAND FREE ENERGY PREDICTED BY IDOCK:   -8.97 KCAL/MOL
REMARK 924 INTRA-LIGAND FREE ENERGY PREDICTED BY IDOCK:   -0.56 KCAL/MOL
REMARK 927      BINDING AFFINITY PREDICTED BY RF-SCORE:    0.00 PKD
ROOT
HETATM    1  C   UNL     1     -12.347  11.810  63.764  1.00  0.00    -0.443 C  
HETATM    2  C   UNL     1     -11.254  12.798  64.178  1.00  0.00    -0.387 C  
HETATM    3  C   UNL     1     -11.868  14.181  64.401  1.00  0.00    -0.447 C  
ENDROOT
BRANCH   2   4
HETATM    4  N   UNL     1     -10.455  12.360  65.348  1.00  0.00    -0.270 NA 
BRANCH   4   5
HETATM    5  C   UNL     1      -9.428  11.308  65.245  1.00  0.00    -0.221 C  
BRANCH   5   6
HETATM    6  C   UNL     1      -9.887   9.970  65.839  1.00  0.00    -0.330 C  
BRANCH   6   7
HETATM    7  C   UNL     1      -8.962   8.786  65.501  1.00  0.00    -0.231 C  
BRANCH   7   8
HETATM    8  C   UNL     1      -7.572   8.852  66.134  1.00  0.00    -0.091 C  
BRANCH   8   9
HETATM    9  O   UNL     1      -7.281   7.607  66.766  1.00  0.00    -0.083 OA 
BRANCH   9  10
HETATM   10  C   UNL     1      -8.080   6.547  66.242  1.00  0.00    -0.115 C  
BRANCH  10  11
HETATM   11  C   UNL     1      -8.311   5.456  67.282  1.00  0.00    -0.107 C  
HETATM   12  O   UNL     1      -8.177   4.270  67.014  1.00  0.00    -0.100 OA 
HETATM   13  N   UNL     1      -8.619   5.927  68.567  1.00  0.00    -0.111 N  
HETATM   14  H   UNL     1      -8.598   6.930  68.746  1.00  0.00     0.000 HD 
BRANCH  13  15
HETATM   15  S   UNL     1      -9.017   4.893  69.806  1.00  0.00    -0.103 S  
HETATM   16  O   UNL     1      -9.495   5.654  70.930  1.00  0.00    -0.160 OA 
HETATM   17  C   UNL     1      -7.411   4.302  70.239  1.00  0.00    -0.046 C  
HETATM   18  O   UNL     1      -9.741   3.778  69.248  1.00  0.00    -0.176 OA 
ENDBRANCH  13  15
ENDBRANCH  10  11
ENDBRANCH   9  10
ENDBRANCH   8   9
ENDBRANCH   7   8
ENDBRANCH   6   7
ENDBRANCH   5   6
ENDBRANCH   4   5
BRANCH   4  19
HETATM   19  C   UNL     1     -10.787  12.949  66.573  1.00  0.00    -0.271 A  
HETATM   20  N   UNL     1     -11.886  12.864  68.755  1.00  0.00    -0.319 NA 
HETATM   21  N   UNL     1     -10.381  14.212  66.837  1.00  0.00    -0.267 NA 
HETATM   22  C   UNL     1     -11.485  14.153  68.991  1.00  0.00    -0.285 A  
HETATM   23  C   UNL     1     -10.700  14.822  68.030  1.00  0.00    -0.248 A  
HETATM   24  C   UNL     1     -11.517  12.308  67.566  1.00  0.00    -0.347 A  
BRANCH  23  25
HETATM   25  C   UNL     1     -10.192  16.220  68.132  1.00  0.00    -0.258 A  
HETATM   26  C   UNL     1     -10.973  17.302  67.684  1.00  0.00    -0.133 A  
HETATM   27  C   UNL     1      -8.644  17.861  69.087  1.00  0.00     0.121 A  
HETATM   28  C   UNL     1      -8.961  16.547  68.730  1.00  0.00    -0.250 A  
HETATM   29  C   UNL     1      -9.475  18.902  68.702  1.00  0.00    -0.427 A  
HETATM   30  C   UNL     1     -10.611  18.628  67.949  1.00  0.00    -0.397 A  
ENDBRANCH  23  25
BRANCH  22  31
HETATM   31  C   UNL     1     -12.001  14.721  70.280  1.00  0.00    -0.367 A  
HETATM   32  C   UNL     1     -11.575  15.678  72.507  1.00  0.00    -0.507 A  
HETATM   33  C   UNL     1     -13.835  15.476  71.731  1.00  0.00    -0.575 A  
HETATM   34  C   UNL     1     -13.374  14.819  70.583  1.00  0.00    -0.216 A  
HETATM   35  C   UNL     1     -11.114  15.127  71.303  1.00  0.00    -0.257 A  
HETATM   36  C   UNL     1     -12.932  15.912  72.692  1.00  0.00    -0.553 A  
ENDBRANCH  22  31
ENDBRANCH   4  19
ENDBRANCH   2   4
TORSDOF 12
ENDMDL
MODEL      167
REMARK 921   NORMALIZED FREE ENERGY PREDICTED BY IDOCK:   -4.83 KCAL/MOL
REMARK 922        TOTAL FREE ENERGY PREDICTED BY IDOCK:   -9.53 KCAL/MOL
REMARK 923 INTER-LIGAND FREE ENERGY PREDICTED BY IDOCK:   -8.92 KCAL/MOL
REMARK 924 INTRA-LIGAND FREE ENERGY PREDICTED BY IDOCK:   -0.62 KCAL/MOL
REMARK 927      BINDING AFFINITY PREDICTED BY RF-SCORE:    0.00 PKD
ROOT
HETATM    1  C   UNL     1     -11.764  13.318  68.243  1.00  0.00    -0.388 C  
HETATM    2  C   UNL     1     -11.239  12.802  66.902  1.00  0.00    -0.296 C  
HETATM    3  C   UNL     1     -11.742  13.702  65.772  1.00  0.00    -0.369 C  
ENDROOT
BRANCH   2   4
HETATM    4  N   UNL     1      -9.766  12.634  66.853  1.00  0.00    -0.228 NA 
BRANCH   4   5
HETATM    5  C   UNL     1      -9.136  11.344  66.522  1.00  0.00    -0.186 C  
BRANCH   5   6
HETATM    6  C   UNL     1     -10.053  10.146  66.803  1.00  0.00    -0.277 C  
BRANCH   6   7
HETATM    7  C   UNL     1      -9.841   8.959  65.846  1.00  0.00    -0.200 C  
BRANCH   7   8
HETATM    8  C   UNL     1      -8.919   7.860  66.375  1.00  0.00    -0.166 C  
BRANCH   8   9
HETATM    9  O   UNL     1      -8.759   8.015  67.784  1.00  0.00    -0.127 OA 
BRANCH   9  10
HETATM   10  C   UNL     1      -9.329   6.925  68.506  1.00  0.00    -0.134 C  
BRANCH  10  11
HETATM   11  C   UNL     1     -10.288   7.413  69.586  1.00  0.00    -0.223 C  
HETATM   12  O   UNL     1     -10.756   8.544  69.573  1.00  0.00    -0.225 OA 
HETATM   13  N   UNL     1     -10.633   6.447  70.544  1.00  0.00    -0.226 N  
HETATM   14  H   UNL     1     -10.298   5.492  70.427  1.00  0.00     0.000 HD 
BRANCH  13  15
HETATM   15  S   UNL     1     -11.573   6.819  71.863  1.00  0.00    -0.307 S  
HETATM   16  O   UNL     1     -10.990   7.931  72.567  1.00  0.00    -0.292 OA 
HETATM   17  C   UNL     1     -11.290   5.386  72.854  1.00  0.00    -0.303 C  
HETATM   18  O   UNL     1     -12.955   6.786  71.457  1.00  0.00    -0.331 OA 
ENDBRANCH  13  15
ENDBRANCH  10  11
ENDBRANCH   9  10
ENDBRANCH   8   9
ENDBRANCH   7   8
ENDBRANCH   6   7
ENDBRANCH   5   6
ENDBRANCH   4   5
BRANCH   4  19
HETATM   19  C   UNL     1      -9.009  13.753  67.217  1.00  0.00    -0.224 A  
HETATM   20  N   UNL     1      -6.952  14.751  68.083  1.00  0.00    -0.112 NA 
HETATM   21  N   UNL     1      -9.550  14.989  67.104  1.00  0.00    -0.213 NA 
HETATM   22  C   UNL     1      -7.529  15.989  67.985  1.00  0.00    -0.126 A  
HETATM   23  C   UNL     1      -8.833  16.109  67.463  1.00  0.00    -0.189 A  
HETATM   24  C   UNL     1      -7.705  13.684  67.690  1.00  0.00    -0.178 A  
BRANCH  23  25
HETATM   25  C   UNL     1      -9.598  17.377  67.297  1.00  0.00    -0.258 A  
HETATM   26  C   UNL     1      -9.746  18.272  68.374  1.00  0.00    -0.373 A  
HETATM   27  C   UNL     1     -10.592  19.096  65.862  1.00  0.00    -0.495 A  
HETATM   28  C   UNL     1     -10.150  17.786  66.069  1.00  0.00    -0.254 A  
HETATM   29  C   UNL     1     -10.650  19.983  66.926  1.00  0.00    -0.455 A  
HETATM   30  C   UNL     1     -10.281  19.553  68.196  1.00  0.00    -0.556 A  
ENDBRANCH  23  25
BRANCH  22  31
HETATM   31  C   UNL     1      -6.671  17.100  68.516  1.00  0.00    -0.178 A  
HETATM   32  C   UNL     1      -5.496  19.234  68.171  1.00  0.00    -0.194 A  
HETATM   33  C   UNL     1      -5.464  18.217  70.343  1.00  0.00    -0.245 A  
HETATM   34  C   UNL     1      -6.147  17.109  69.825  1.00  0.00    -0.229 A  
HETATM   35  C   UNL     1      -6.280  18.177  67.689  1.00  0.00    -0.174 A  
HETATM   36  C   UNL     1      -5.143  19.285  69.515  1.00  0.00    -0.184 A  
ENDBRANCH  22  31
ENDBRANCH   4  19
ENDBRANCH   2   4
TORSDOF 12
ENDMDL
MODEL      168
REMARK 921   NORMALIZED FREE ENERGY PREDICTED BY IDOCK:   -4.83 KCAL/MOL
REMARK 922        TOTAL FREE ENERGY PREDICTED BY IDOCK:   -9.53 KCAL/MOL
REMARK 923 INTER-LIGAND FREE ENERGY PREDICTED BY IDOCK:   -7.93 KCAL/MOL
REMARK 924 INTRA-LIGAND FREE ENERGY PREDICTED BY IDOCK:   -1.60 KCAL/MOL
REMARK 927      BINDING AFFINITY PREDICTED BY RF-SCORE:    0.00 PKD
ROOT
HETATM    1  C   UNL     1     -11.983   6.720  71.866  1.00  0.00    -0.374 C  
HETATM    2  C   UNL     1     -11.586   8.178  72.112  1.00  0.00    -0.357 C  
HETATM    3  C   UNL     1     -10.166   8.235  72.679  1.00  0.00    -0.368 C  
ENDROOT
BRANCH   2   4
HETATM    4  N   UNL     1     -11.737   9.055  70.926  1.00  0.00    -0.284 NA 
BRANCH   4   5
HETATM    5  C   UNL     1     -12.919   9.915  70.735  1.00  0.00    -0.208 C  
BRANCH   5   6
HETATM    6  C   UNL     1     -13.174  10.847  71.927  1.00  0.00    -0.508 C  
BRANCH   6   7
HETATM    7  C   UNL     1     -13.138  12.344  71.568  1.00  0.00    -0.362 C  
BRANCH   7   8
HETATM    8  C   UNL     1     -12.119  12.726  70.494  1.00  0.00    -0.285 C  
BRANCH   8   9
HETATM    9  O   UNL     1     -12.622  13.825  69.737  1.00  0.00    -0.233 OA 
BRANCH   9  10
HETATM   10  C   UNL     1     -11.615  14.806  69.493  1.00  0.00    -0.304 C  
BRANCH  10  11
HETATM   11  C   UNL     1     -11.119  14.751  68.053  1.00  0.00    -0.286 C  
HETATM   12  O   UNL     1     -10.957  13.690  67.465  1.00  0.00    -0.261 OA 
HETATM   13  N   UNL     1     -10.931  16.003  67.449  1.00  0.00    -0.284 N  
HETATM   14  H   UNL     1     -11.197  16.845  67.959  1.00  0.00     0.000 HD 
BRANCH  13  15
HETATM   15  S   UNL     1     -10.285  16.152  65.925  1.00  0.00    -0.372 S  
HETATM   16  O   UNL     1     -10.683  15.024  65.125  1.00  0.00    -0.355 OA 
HETATM   17  C   UNL     1      -8.574  15.934  66.295  1.00  0.00    -0.313 C  
HETATM   18  O   UNL     1     -10.454  17.517  65.494  1.00  0.00    -0.628 OA 
ENDBRANCH  13  15
ENDBRANCH  10  11
ENDBRANCH   9  10
ENDBRANCH   8   9
ENDBRANCH   7   8
ENDBRANCH   6   7
ENDBRANCH   5   6
ENDBRANCH   4   5
BRANCH   4  19
HETATM   19  C   UNL     1     -10.730   8.960  69.960  1.00  0.00    -0.228 A  
HETATM   20  N   UNL     1      -9.644   7.779  68.115  1.00  0.00    -0.149 NA 
HETATM   21  N   UNL     1      -9.788   9.928  69.883  1.00  0.00    -0.241 NA 
HETATM   22  C   UNL     1      -8.687   8.758  68.072  1.00  0.00    -0.141 A  
HETATM   23  C   UNL     1      -8.778   9.859  68.949  1.00  0.00    -0.140 A  
HETATM   24  C   UNL     1     -10.631   7.919  69.046  1.00  0.00    -0.162 A  
BRANCH  23  25
HETATM   25  C   UNL     1      -7.819  10.997  69.030  1.00  0.00    -0.126 A  
HETATM   26  C   UNL     1      -6.662  10.905  69.827  1.00  0.00    -0.144 A  
HETATM   27  C   UNL     1      -6.919  13.094  68.140  1.00  0.00    -0.108 A  
HETATM   28  C   UNL     1      -7.966  12.179  68.282  1.00  0.00    -0.163 A  
HETATM   29  C   UNL     1      -5.756  12.934  68.877  1.00  0.00    -0.073 A  
HETATM   30  C   UNL     1      -5.650  11.870  69.766  1.00  0.00    -0.096 A  
ENDBRANCH  23  25
BRANCH  22  31
HETATM   31  C   UNL     1      -7.592   8.490  67.082  1.00  0.00    -0.096 A  
HETATM   32  C   UNL     1      -5.470   7.388  66.499  1.00  0.00    -0.024 A  
HETATM   33  C   UNL     1      -6.591   8.719  64.848  1.00  0.00    -0.069 A  
HETATM   34  C   UNL     1      -7.546   9.087  65.805  1.00  0.00    -0.090 A  
HETATM   35  C   UNL     1      -6.494   7.666  67.416  1.00  0.00    -0.058 A  
HETATM   36  C   UNL     1      -5.554   7.863  65.195  1.00  0.00    -0.037 A  
ENDBRANCH  22  31
ENDBRANCH   4  19
ENDBRANCH   2   4
TORSDOF 12
ENDMDL
MODEL      169
REMARK 921   NORMALIZED FREE ENERGY PREDICTED BY IDOCK:   -4.82 KCAL/MOL
REMARK 922        TOTAL FREE ENERGY PREDICTED BY IDOCK:   -9.52 KCAL/MOL
REMARK 923 INTER-LIGAND FREE ENERGY PREDICTED BY IDOCK:   -8.08 KCAL/MOL
REMARK 924 INTRA-LIGAND FREE ENERGY PREDICTED BY IDOCK:   -1.45 KCAL/MOL
REMARK 927      BINDING AFFINITY PREDICTED BY RF-SCORE:    0.00 PKD
ROOT
HETATM    1  C   UNL     1     -12.221   6.735  71.602  1.00  0.00    -0.410 C  
HETATM    2  C   UNL     1     -12.428   8.222  71.302  1.00  0.00    -0.245 C  
HETATM    3  C   UNL     1     -13.196   8.876  72.453  1.00  0.00    -0.482 C  
ENDROOT
BRANCH   2   4
HETATM    4  N   UNL     1     -11.178   8.957  70.991  1.00  0.00    -0.264 NA 
BRANCH   4   5
HETATM    5  C   UNL     1     -10.017   8.945  71.899  1.00  0.00    -0.314 C  
BRANCH   5   6
HETATM    6  C   UNL     1      -8.683   8.804  71.154  1.00  0.00    -0.265 C  
BRANCH   6   7
HETATM    7  C   UNL     1      -7.986   7.448  71.370  1.00  0.00    -0.096 C  
BRANCH   7   8
HETATM    8  C   UNL     1      -6.492   7.433  71.050  1.00  0.00    -0.039 C  
BRANCH   8   9
HETATM    9  O   UNL     1      -6.074   6.090  70.809  1.00  0.00    -0.028 OA 
BRANCH   9  10
HETATM   10  C   UNL     1      -5.726   5.880  69.442  1.00  0.00    -0.015 C  
BRANCH  10  11
HETATM   11  C   UNL     1      -6.957   5.896  68.544  1.00  0.00    -0.075 C  
HETATM   12  O   UNL     1      -7.215   6.847  67.818  1.00  0.00    -0.085 OA 
HETATM   13  N   UNL     1      -7.720   4.718  68.572  1.00  0.00    -0.077 N  
HETATM   14  H   UNL     1      -7.382   3.922  69.111  1.00  0.00     0.000 HD 
BRANCH  13  15
HETATM   15  S   UNL     1      -9.159   4.587  67.752  1.00  0.00    -0.130 S  
HETATM   16  O   UNL     1     -10.167   5.361  68.427  1.00  0.00    -0.173 OA 
HETATM   17  C   UNL     1      -9.532   2.890  68.058  1.00  0.00    -0.157 C  
HETATM   18  O   UNL     1      -8.887   4.712  66.341  1.00  0.00    -0.112 OA 
ENDBRANCH  13  15
ENDBRANCH  10  11
ENDBRANCH   9  10
ENDBRANCH   8   9
ENDBRANCH   7   8
ENDBRANCH   6   7
ENDBRANCH   5   6
ENDBRANCH   4   5
BRANCH   4  19
HETATM   19  C   UNL     1     -11.194   9.728  69.824  1.00  0.00    -0.202 A  
HETATM   20  N   UNL     1     -12.165  11.500  68.448  1.00  0.00    -0.483 NA 
HETATM   21  N   UNL     1     -10.280   9.489  68.856  1.00  0.00    -0.192 NA 
HETATM   22  C   UNL     1     -11.246  11.224  67.470  1.00  0.00    -0.291 A  
HETATM   23  C   UNL     1     -10.276  10.225  67.691  1.00  0.00    -0.205 A  
HETATM   24  C   UNL     1     -12.102  10.753  69.587  1.00  0.00    -0.289 A  
BRANCH  23  25
HETATM   25  C   UNL     1      -9.217   9.804  66.731  1.00  0.00    -0.179 A  
HETATM   26  C   UNL     1      -9.386   8.656  65.932  1.00  0.00    -0.262 A  
HETATM   27  C   UNL     1      -7.214  10.303  65.412  1.00  0.00    -0.143 A  
HETATM   28  C   UNL     1      -8.040  10.542  66.514  1.00  0.00    -0.134 A  
HETATM   29  C   UNL     1      -7.453   9.210  64.592  1.00  0.00    -0.104 A  
HETATM   30  C   UNL     1      -8.507   8.351  64.887  1.00  0.00    -0.141 A  
ENDBRANCH  23  25
BRANCH  22  31
HETATM   31  C   UNL     1     -11.435  12.027  66.217  1.00  0.00    -0.408 A  
HETATM   32  C   UNL     1     -12.171  14.095  65.104  1.00  0.00    -0.439 A  
HETATM   33  C   UNL     1     -11.188  12.344  63.792  1.00  0.00    -0.520 A  
HETATM   34  C   UNL     1     -11.134  11.531  64.932  1.00  0.00    -0.282 A  
HETATM   35  C   UNL     1     -12.004  13.320  66.261  1.00  0.00    -0.471 A  
HETATM   36  C   UNL     1     -11.703  13.631  63.881  1.00  0.00    -0.363 A  
ENDBRANCH  22  31
ENDBRANCH   4  19
ENDBRANCH   2   4
TORSDOF 12
ENDMDL
MODEL      170
REMARK 921   NORMALIZED FREE ENERGY PREDICTED BY IDOCK:   -4.80 KCAL/MOL
REMARK 922        TOTAL FREE ENERGY PREDICTED BY IDOCK:   -9.48 KCAL/MOL
REMARK 923 INTER-LIGAND FREE ENERGY PREDICTED BY IDOCK:   -8.36 KCAL/MOL
REMARK 924 INTRA-LIGAND FREE ENERGY PREDICTED BY IDOCK:   -1.13 KCAL/MOL
REMARK 927      BINDING AFFINITY PREDICTED BY RF-SCORE:    0.00 PKD
ROOT
HETATM    1  C   UNL     1      -8.983  10.171  62.348  1.00  0.00    -0.287 C  
HETATM    2  C   UNL     1      -9.188  10.946  63.651  1.00  0.00    -0.226 C  
HETATM    3  C   UNL     1     -10.685  11.101  63.928  1.00  0.00    -0.407 C  
ENDROOT
BRANCH   2   4
HETATM    4  N   UNL     1      -8.473  10.371  64.817  1.00  0.00    -0.175 NA 
BRANCH   4   5
HETATM    5  C   UNL     1      -7.083   9.892  64.723  1.00  0.00    -0.133 C  
BRANCH   5   6
HETATM    6  C   UNL     1      -6.062  10.935  65.193  1.00  0.00     0.124 C  
BRANCH   6   7
HETATM    7  C   UNL     1      -5.724  10.848  66.692  1.00  0.00    -0.090 C  
BRANCH   7   8
HETATM    8  C   UNL     1      -5.544  12.195  67.393  1.00  0.00    -0.128 C  
BRANCH   8   9
HETATM    9  O   UNL     1      -6.658  13.035  67.096  1.00  0.00    -0.184 OA 
BRANCH   9  10
HETATM   10  C   UNL     1      -7.421  13.335  68.263  1.00  0.00    -0.126 C  
BRANCH  10  11
HETATM   11  C   UNL     1      -8.636  14.193  67.929  1.00  0.00    -0.178 C  
HETATM   12  O   UNL     1      -8.703  14.846  66.896  1.00  0.00    -0.225 OA 
HETATM   13  N   UNL     1      -9.681  14.119  68.863  1.00  0.00    -0.391 N  
HETATM   14  H   UNL     1      -9.606  13.464  69.641  1.00  0.00     0.000 HD 
BRANCH  13  15
HETATM   15  S   UNL     1     -11.039  15.068  68.734  1.00  0.00    -0.277 S  
HETATM   16  O   UNL     1     -10.661  16.455  68.801  1.00  0.00    -0.270 OA 
HETATM   17  C   UNL     1     -11.828  14.683  70.265  1.00  0.00    -0.303 C  
HETATM   18  O   UNL     1     -11.868  14.531  67.685  1.00  0.00    -0.371 OA 
ENDBRANCH  13  15
ENDBRANCH  10  11
ENDBRANCH   9  10
ENDBRANCH   8   9
ENDBRANCH   7   8
ENDBRANCH   6   7
ENDBRANCH   5   6
ENDBRANCH   4   5
BRANCH   4  19
HETATM   19  C   UNL     1      -9.222  10.237  65.990  1.00  0.00    -0.164 A  
HETATM   20  N   UNL     1     -10.697  11.171  67.701  1.00  0.00    -0.214 NA 
HETATM   21  N   UNL     1      -9.232   9.051  66.643  1.00  0.00    -0.157 NA 
HETATM   22  C   UNL     1     -10.672   9.970  68.359  1.00  0.00    -0.234 A  
HETATM   23  C   UNL     1      -9.952   8.890  67.805  1.00  0.00    -0.192 A  
HETATM   24  C   UNL     1      -9.983  11.259  66.543  1.00  0.00    -0.212 A  
BRANCH  23  25
HETATM   25  C   UNL     1      -9.823   7.529  68.397  1.00  0.00    -0.173 A  
HETATM   26  C   UNL     1     -10.823   6.558  68.192  1.00  0.00    -0.370 A  
HETATM   27  C   UNL     1      -8.456   5.763  69.403  1.00  0.00    -0.112 A  
HETATM   28  C   UNL     1      -8.692   7.111  69.121  1.00  0.00    -0.133 A  
HETATM   29  C   UNL     1      -9.427   4.815  69.115  1.00  0.00    -0.215 A  
HETATM   30  C   UNL     1     -10.636   5.221  68.562  1.00  0.00    -0.084 A  
ENDBRANCH  23  25
BRANCH  22  31
HETATM   31  C   UNL     1     -11.410   9.978  69.665  1.00  0.00    -0.253 A  
HETATM   32  C   UNL     1     -12.853  11.136  71.288  1.00  0.00    -0.515 A  
HETATM   33  C   UNL     1     -12.169   8.879  71.728  1.00  0.00    -0.429 A  
HETATM   34  C   UNL     1     -11.366   8.907  70.581  1.00  0.00    -0.299 A  
HETATM   35  C   UNL     1     -12.141  11.114  70.081  1.00  0.00    -0.443 A  
HETATM   36  C   UNL     1     -12.919   9.994  72.079  1.00  0.00    -0.514 A  
ENDBRANCH  22  31
ENDBRANCH   4  19
ENDBRANCH   2   4
TORSDOF 12
ENDMDL
MODEL      171
REMARK 921   NORMALIZED FREE ENERGY PREDICTED BY IDOCK:   -4.79 KCAL/MOL
REMARK 922        TOTAL FREE ENERGY PREDICTED BY IDOCK:   -9.48 KCAL/MOL
REMARK 923 INTER-LIGAND FREE ENERGY PREDICTED BY IDOCK:   -8.59 KCAL/MOL
REMARK 924 INTRA-LIGAND FREE ENERGY PREDICTED BY IDOCK:   -0.89 KCAL/MOL
REMARK 927      BINDING AFFINITY PREDICTED BY RF-SCORE:    0.00 PKD
ROOT
HETATM    1  C   UNL     1     -11.889  15.147  63.869  1.00  0.00     0.197 C  
HETATM    2  C   UNL     1     -11.617  13.877  64.678  1.00  0.00    -0.385 C  
HETATM    3  C   UNL     1     -10.702  12.946  63.881  1.00  0.00    -0.390 C  
ENDROOT
BRANCH   2   4
HETATM    4  N   UNL     1     -11.088  14.129  66.041  1.00  0.00    -0.310 NA 
BRANCH   4   5
HETATM    5  C   UNL     1     -10.626  15.462  66.466  1.00  0.00    -0.306 C  
BRANCH   5   6
HETATM    6  C   UNL     1      -9.118  15.506  66.748  1.00  0.00    -0.282 C  
BRANCH   6   7
HETATM    7  C   UNL     1      -8.748  16.228  68.056  1.00  0.00    -0.178 C  
BRANCH   7   8
HETATM    8  C   UNL     1      -9.087  15.463  69.335  1.00  0.00    -0.258 C  
BRANCH   8   9
HETATM    9  O   UNL     1     -10.187  16.096  69.987  1.00  0.00    -0.215 OA 
BRANCH   9  10
HETATM   10  C   UNL     1     -11.426  15.799  69.345  1.00  0.00    -0.355 C  
BRANCH  10  11
HETATM   11  C   UNL     1     -12.534  15.551  70.362  1.00  0.00    -0.402 C  
HETATM   12  O   UNL     1     -13.718  15.624  70.058  1.00  0.00     0.319 OA 
HETATM   13  N   UNL     1     -12.087  15.173  71.637  1.00  0.00    -0.330 N  
HETATM   14  H   UNL     1     -11.091  15.018  71.787  1.00  0.00     0.000 HD 
BRANCH  13  15
HETATM   15  S   UNL     1     -13.138  14.971  72.909  1.00  0.00    -0.512 S  
HETATM   16  O   UNL     1     -14.107  16.035  72.901  1.00  0.00    -0.530 OA 
HETATM   17  C   UNL     1     -12.047  15.288  74.260  1.00  0.00    -0.466 C  
HETATM   18  O   UNL     1     -13.502  13.578  72.978  1.00  0.00    -0.552 OA 
ENDBRANCH  13  15
ENDBRANCH  10  11
ENDBRANCH   9  10
ENDBRANCH   8   9
ENDBRANCH   7   8
ENDBRANCH   6   7
ENDBRANCH   5   6
ENDBRANCH   4   5
BRANCH   4  19
HETATM   19  C   UNL     1     -10.978  13.009  66.873  1.00  0.00    -0.265 A  
HETATM   20  N   UNL     1     -11.984  11.119  68.053  1.00  0.00    -0.632 NA 
HETATM   21  N   UNL     1      -9.770  12.670  67.377  1.00  0.00    -0.196 NA 
HETATM   22  C   UNL     1     -10.755  10.809  68.573  1.00  0.00    -0.210 A  
HETATM   23  C   UNL     1      -9.631  11.579  68.206  1.00  0.00    -0.189 A  
HETATM   24  C   UNL     1     -12.050  12.196  67.220  1.00  0.00     0.116 A  
BRANCH  23  25
HETATM   25  C   UNL     1      -8.235  11.375  68.685  1.00  0.00    -0.142 A  
HETATM   26  C   UNL     1      -7.786  10.095  69.066  1.00  0.00    -0.107 A  
HETATM   27  C   UNL     1      -5.916  12.138  68.883  1.00  0.00    -0.064 A  
HETATM   28  C   UNL     1      -7.278  12.405  68.724  1.00  0.00    -0.094 A  
HETATM   29  C   UNL     1      -5.493  10.850  69.177  1.00  0.00    -0.040 A  
HETATM   30  C   UNL     1      -6.435   9.838  69.326  1.00  0.00    -0.048 A  
ENDBRANCH  23  25
BRANCH  22  31
HETATM   31  C   UNL     1     -10.779   9.667  69.545  1.00  0.00    -0.252 A  
HETATM   32  C   UNL     1     -10.655   7.251  69.996  1.00  0.00    -0.247 A  
HETATM   33  C   UNL     1     -10.881   8.775  71.834  1.00  0.00    -0.431 A  
HETATM   34  C   UNL     1     -10.998   9.838  70.928  1.00  0.00    -0.411 A  
HETATM   35  C   UNL     1     -10.654   8.331  69.102  1.00  0.00    -0.179 A  
HETATM   36  C   UNL     1     -10.703   7.480  71.366  1.00  0.00    -0.243 A  
ENDBRANCH  22  31
ENDBRANCH   4  19
ENDBRANCH   2   4
TORSDOF 12
ENDMDL
MODEL      172
REMARK 921   NORMALIZED FREE ENERGY PREDICTED BY IDOCK:   -4.79 KCAL/MOL
REMARK 922        TOTAL FREE ENERGY PREDICTED BY IDOCK:   -9.47 KCAL/MOL
REMARK 923 INTER-LIGAND FREE ENERGY PREDICTED BY IDOCK:   -8.14 KCAL/MOL
REMARK 924 INTRA-LIGAND FREE ENERGY PREDICTED BY IDOCK:   -1.33 KCAL/MOL
REMARK 927      BINDING AFFINITY PREDICTED BY RF-SCORE:    0.00 PKD
ROOT
HETATM    1  C   UNL     1     -10.765   9.151  67.218  1.00  0.00    -0.224 C  
HETATM    2  C   UNL     1     -10.254  10.402  67.935  1.00  0.00    -0.179 C  
HETATM    3  C   UNL     1      -9.547  10.000  69.231  1.00  0.00    -0.227 C  
ENDROOT
BRANCH   2   4
HETATM    4  N   UNL     1      -9.400  11.276  67.094  1.00  0.00    -0.162 NA 
BRANCH   4   5
HETATM    5  C   UNL     1      -8.400  10.727  66.161  1.00  0.00    -0.166 C  
BRANCH   5   6
HETATM    6  C   UNL     1      -8.926  10.620  64.724  1.00  0.00    -0.218 C  
BRANCH   6   7
HETATM    7  C   UNL     1      -8.489   9.337  63.992  1.00  0.00    -0.202 C  
BRANCH   7   8
HETATM    8  C   UNL     1      -7.610   8.393  64.814  1.00  0.00    -0.102 C  
BRANCH   8   9
HETATM    9  O   UNL     1      -8.329   7.190  65.079  1.00  0.00    -0.125 OA 
BRANCH   9  10
HETATM   10  C   UNL     1      -7.462   6.060  65.155  1.00  0.00    -0.084 C  
BRANCH  10  11
HETATM   11  C   UNL     1      -7.638   5.310  66.470  1.00  0.00    -0.088 C  
HETATM   12  O   UNL     1      -7.026   4.279  66.713  1.00  0.00    -0.057 OA 
HETATM   13  N   UNL     1      -8.500   5.930  67.389  1.00  0.00    -0.105 N  
HETATM   14  H   UNL     1      -8.885   6.847  67.166  1.00  0.00     0.000 HD 
BRANCH  13  15
HETATM   15  S   UNL     1      -8.909   5.209  68.829  1.00  0.00    -0.094 S  
HETATM   16  O   UNL     1      -9.404   3.882  68.576  1.00  0.00    -0.144 OA 
HETATM   17  C   UNL     1     -10.303   6.193  69.278  1.00  0.00    -0.221 C  
HETATM   18  O   UNL     1      -7.868   5.489  69.786  1.00  0.00    -0.079 OA 
ENDBRANCH  13  15
ENDBRANCH  10  11
ENDBRANCH   9  10
ENDBRANCH   8   9
ENDBRANCH   7   8
ENDBRANCH   6   7
ENDBRANCH   5   6
ENDBRANCH   4   5
BRANCH   4  19
HETATM   19  C   UNL     1      -9.543  12.652  67.297  1.00  0.00    -0.203 A  
HETATM   20  N   UNL     1      -9.075  14.965  66.658  1.00  0.00    -0.268 NA 
HETATM   21  N   UNL     1     -10.271  13.099  68.346  1.00  0.00    -0.248 NA 
HETATM   22  C   UNL     1      -9.796  15.395  67.741  1.00  0.00    -0.220 A  
HETATM   23  C   UNL     1     -10.423  14.448  68.577  1.00  0.00    -0.254 A  
HETATM   24  C   UNL     1      -8.982  13.618  66.470  1.00  0.00    -0.047 A  
BRANCH  23  25
HETATM   25  C   UNL     1     -11.233  14.752  69.791  1.00  0.00    -0.306 A  
HETATM   26  C   UNL     1     -10.789  15.702  70.732  1.00  0.00    -0.275 A  
HETATM   27  C   UNL     1     -13.359  14.690  71.006  1.00  0.00    -0.410 A  
HETATM   28  C   UNL     1     -12.493  14.176  70.037  1.00  0.00    -0.352 A  
HETATM   29  C   UNL     1     -12.922  15.685  71.868  1.00  0.00    -0.541 A  
HETATM   30  C   UNL     1     -11.615  16.151  71.768  1.00  0.00    -0.503 A  
ENDBRANCH  23  25
BRANCH  22  31
HETATM   31  C   UNL     1      -9.780  16.883  67.928  1.00  0.00    -0.254 A  
HETATM   32  C   UNL     1     -10.872  19.074  67.672  1.00  0.00    -0.439 A  
HETATM   33  C   UNL     1      -8.740  18.948  68.763  1.00  0.00    -0.331 A  
HETATM   34  C   UNL     1      -8.681  17.579  68.473  1.00  0.00    -0.282 A  
HETATM   35  C   UNL     1     -10.859  17.683  67.490  1.00  0.00    -0.205 A  
HETATM   36  C   UNL     1      -9.841  19.695  68.366  1.00  0.00    -0.531 A  
ENDBRANCH  22  31
ENDBRANCH   4  19
ENDBRANCH   2   4
TORSDOF 12
ENDMDL
MODEL      173
REMARK 921   NORMALIZED FREE ENERGY PREDICTED BY IDOCK:   -4.79 KCAL/MOL
REMARK 922        TOTAL FREE ENERGY PREDICTED BY IDOCK:   -9.47 KCAL/MOL
REMARK 923 INTER-LIGAND FREE ENERGY PREDICTED BY IDOCK:   -9.08 KCAL/MOL
REMARK 924 INTRA-LIGAND FREE ENERGY PREDICTED BY IDOCK:   -0.40 KCAL/MOL
REMARK 927      BINDING AFFINITY PREDICTED BY RF-SCORE:    0.00 PKD
ROOT
HETATM    1  C   UNL     1     -11.648  12.011  64.361  1.00  0.00    -0.411 C  
HETATM    2  C   UNL     1     -11.397  13.284  65.172  1.00  0.00    -0.297 C  
HETATM    3  C   UNL     1     -12.730  13.846  65.672  1.00  0.00    -0.534 C  
ENDROOT
BRANCH   2   4
HETATM    4  N   UNL     1     -10.425  13.115  66.279  1.00  0.00    -0.280 NA 
BRANCH   4   5
HETATM    5  C   UNL     1      -9.046  13.628  66.194  1.00  0.00     0.125 C  
BRANCH   5   6
HETATM    6  C   UNL     1      -8.161  13.146  67.351  1.00  0.00    -0.187 C  
BRANCH   6   7
HETATM    7  C   UNL     1      -7.247  11.962  66.987  1.00  0.00    -0.118 C  
BRANCH   7   8
HETATM    8  C   UNL     1      -7.685  11.160  65.762  1.00  0.00     0.121 C  
BRANCH   8   9
HETATM    9  O   UNL     1      -7.259   9.807  65.906  1.00  0.00    -0.096 OA 
BRANCH   9  10
HETATM   10  C   UNL     1      -8.207   8.892  65.358  1.00  0.00    -0.129 C  
BRANCH  10  11
HETATM   11  C   UNL     1      -8.136   7.535  66.049  1.00  0.00    -0.123 C  
HETATM   12  O   UNL     1      -7.126   7.156  66.627  1.00  0.00    -0.074 OA 
HETATM   13  N   UNL     1      -9.330   6.799  66.020  1.00  0.00    -0.377 N  
HETATM   14  H   UNL     1     -10.166   7.226  65.622  1.00  0.00     0.000 HD 
BRANCH  13  15
HETATM   15  S   UNL     1      -9.419   5.250  66.617  1.00  0.00    -0.155 S  
HETATM   16  O   UNL     1      -8.756   5.191  67.893  1.00  0.00    -0.104 OA 
HETATM   17  C   UNL     1      -8.375   4.417  65.463  1.00  0.00    -0.114 C  
HETATM   18  O   UNL     1     -10.758   4.761  66.405  1.00  0.00    -0.253 OA 
ENDBRANCH  13  15
ENDBRANCH  10  11
ENDBRANCH   9  10
ENDBRANCH   8   9
ENDBRANCH   7   8
ENDBRANCH   6   7
ENDBRANCH   5   6
ENDBRANCH   4   5
BRANCH   4  19
HETATM   19  C   UNL     1     -10.869  12.371  67.377  1.00  0.00    -0.238 A  
HETATM   20  N   UNL     1     -11.261  10.229  68.489  1.00  0.00    -0.241 NA 
HETATM   21  N   UNL     1     -11.387  13.012  68.451  1.00  0.00    -0.270 NA 
HETATM   22  C   UNL     1     -11.805  10.898  69.553  1.00  0.00    -0.332 A  
HETATM   23  C   UNL     1     -11.841  12.308  69.543  1.00  0.00    -0.315 A  
HETATM   24  C   UNL     1     -10.808  10.985  67.448  1.00  0.00    -0.274 A  
BRANCH  23  25
HETATM   25  C   UNL     1     -12.401  13.178  70.616  1.00  0.00    -0.405 A  
HETATM   26  C   UNL     1     -12.262  14.578  70.550  1.00  0.00    -0.399 A  
HETATM   27  C   UNL     1     -13.909  13.516  72.516  1.00  0.00    -0.624 A  
HETATM   28  C   UNL     1     -13.146  12.677  71.699  1.00  0.00    -0.421 A  
HETATM   29  C   UNL     1     -13.815  14.892  72.376  1.00  0.00    -0.587 A  
HETATM   30  C   UNL     1     -12.946  15.425  71.430  1.00  0.00    -0.532 A  
ENDBRANCH  23  25
BRANCH  22  31
HETATM   31  C   UNL     1     -12.358   9.995  70.617  1.00  0.00    -0.342 A  
HETATM   32  C   UNL     1     -11.998   8.472  72.516  1.00  0.00    -0.401 A  
HETATM   33  C   UNL     1     -14.239   8.987  71.836  1.00  0.00    -0.357 A  
HETATM   34  C   UNL     1     -13.734   9.722  70.755  1.00  0.00     0.118 A  
HETATM   35  C   UNL     1     -11.501   9.305  71.503  1.00  0.00    -0.454 A  
HETATM   36  C   UNL     1     -13.368   8.366  72.721  1.00  0.00     0.005 A  
ENDBRANCH  22  31
ENDBRANCH   4  19
ENDBRANCH   2   4
TORSDOF 12
ENDMDL
MODEL      174
REMARK 921   NORMALIZED FREE ENERGY PREDICTED BY IDOCK:   -4.79 KCAL/MOL
REMARK 922        TOTAL FREE ENERGY PREDICTED BY IDOCK:   -9.47 KCAL/MOL
REMARK 923 INTER-LIGAND FREE ENERGY PREDICTED BY IDOCK:   -7.57 KCAL/MOL
REMARK 924 INTRA-LIGAND FREE ENERGY PREDICTED BY IDOCK:   -1.90 KCAL/MOL
REMARK 927      BINDING AFFINITY PREDICTED BY RF-SCORE:    0.00 PKD
ROOT
HETATM    1  C   UNL     1     -10.895   8.416  72.368  1.00  0.00    -0.416 C  
HETATM    2  C   UNL     1     -10.538   7.492  71.202  1.00  0.00    -0.222 C  
HETATM    3  C   UNL     1     -11.807   7.122  70.431  1.00  0.00    -0.235 C  
ENDROOT
BRANCH   2   4
HETATM    4  N   UNL     1      -9.489   8.030  70.302  1.00  0.00    -0.166 NA 
BRANCH   4   5
HETATM    5  C   UNL     1      -8.056   7.781  70.535  1.00  0.00    -0.103 C  
BRANCH   5   6
HETATM    6  C   UNL     1      -7.633   6.352  70.169  1.00  0.00    -0.096 C  
BRANCH   6   7
HETATM    7  C   UNL     1      -7.429   6.129  68.660  1.00  0.00    -0.087 C  
BRANCH   7   8
HETATM    8  C   UNL     1      -6.314   6.963  68.029  1.00  0.00    -0.042 C  
BRANCH   8   9
HETATM    9  O   UNL     1      -6.285   6.726  66.622  1.00  0.00    -0.040 OA 
BRANCH   9  10
HETATM   10  C   UNL     1      -7.197   7.572  65.923  1.00  0.00    -0.066 C  
BRANCH  10  11
HETATM   11  C   UNL     1      -6.745   9.027  65.957  1.00  0.00    -0.076 C  
HETATM   12  O   UNL     1      -6.052   9.510  65.071  1.00  0.00    -0.067 OA 
HETATM   13  N   UNL     1      -7.240   9.771  67.039  1.00  0.00    -0.090 N  
HETATM   14  H   UNL     1      -7.907   9.335  67.675  1.00  0.00     0.000 HD 
BRANCH  13  15
HETATM   15  S   UNL     1      -6.768  11.340  67.312  1.00  0.00    -0.114 S  
HETATM   16  O   UNL     1      -5.344  11.449  67.137  1.00  0.00    -0.056 OA 
HETATM   17  C   UNL     1      -7.076  11.455  69.046  1.00  0.00    -0.117 C  
HETATM   18  O   UNL     1      -7.708  12.215  66.657  1.00  0.00    -0.031 OA 
ENDBRANCH  13  15
ENDBRANCH  10  11
ENDBRANCH   9  10
ENDBRANCH   8   9
ENDBRANCH   7   8
ENDBRANCH   6   7
ENDBRANCH   5   6
ENDBRANCH   4   5
BRANCH   4  19
HETATM   19  C   UNL     1      -9.936   8.853  69.263  1.00  0.00    -0.192 A  
HETATM   20  N   UNL     1     -10.478   9.215  66.907  1.00  0.00    -0.243 NA 
HETATM   21  N   UNL     1     -10.263  10.139  69.526  1.00  0.00    -0.223 NA 
HETATM   22  C   UNL     1     -10.780  10.520  67.192  1.00  0.00    -0.265 A  
HETATM   23  C   UNL     1     -10.697  10.977  68.524  1.00  0.00    -0.202 A  
HETATM   24  C   UNL     1     -10.078   8.430  67.947  1.00  0.00    -0.203 A  
BRANCH  23  25
HETATM   25  C   UNL     1     -10.985  12.362  68.994  1.00  0.00    -0.247 A  
HETATM   26  C   UNL     1     -12.022  12.606  69.916  1.00  0.00    -0.365 A  
HETATM   27  C   UNL     1     -10.310  14.698  69.288  1.00  0.00    -0.183 A  
HETATM   28  C   UNL     1     -10.219  13.477  68.613  1.00  0.00    -0.193 A  
HETATM   29  C   UNL     1     -11.289  14.884  70.252  1.00  0.00    -0.296 A  
HETATM   30  C   UNL     1     -12.184  13.856  70.525  1.00  0.00    -0.443 A  
ENDBRANCH  23  25
BRANCH  22  31
HETATM   31  C   UNL     1     -11.129  11.339  65.984  1.00  0.00    -0.181 A  
HETATM   32  C   UNL     1     -10.742  11.928  63.626  1.00  0.00    -0.502 A  
HETATM   33  C   UNL     1     -12.521  13.001  64.825  1.00  0.00    -0.485 A  
HETATM   34  C   UNL     1     -12.117  12.345  65.996  1.00  0.00    -0.327 A  
HETATM   35  C   UNL     1     -10.419  11.187  64.772  1.00  0.00    -0.388 A  
HETATM   36  C   UNL     1     -11.835  12.787  63.637  1.00  0.00    -0.603 A  
ENDBRANCH  22  31
ENDBRANCH   4  19
ENDBRANCH   2   4
TORSDOF 12
ENDMDL
MODEL      175
REMARK 921   NORMALIZED FREE ENERGY PREDICTED BY IDOCK:   -4.78 KCAL/MOL
REMARK 922        TOTAL FREE ENERGY PREDICTED BY IDOCK:   -9.46 KCAL/MOL
REMARK 923 INTER-LIGAND FREE ENERGY PREDICTED BY IDOCK:   -8.30 KCAL/MOL
REMARK 924 INTRA-LIGAND FREE ENERGY PREDICTED BY IDOCK:   -1.16 KCAL/MOL
REMARK 927      BINDING AFFINITY PREDICTED BY RF-SCORE:    0.00 PKD
ROOT
HETATM    1  C   UNL     1     -12.580  13.654  70.976  1.00  0.00    -0.441 C  
HETATM    2  C   UNL     1     -12.074  12.219  70.810  1.00  0.00    -0.162 C  
HETATM    3  C   UNL     1     -13.116  11.240  71.357  1.00  0.00    -0.395 C  
ENDROOT
BRANCH   2   4
HETATM    4  N   UNL     1     -11.675  11.874  69.424  1.00  0.00    -0.316 NA 
BRANCH   4   5
HETATM    5  C   UNL     1     -12.024  12.727  68.274  1.00  0.00    -0.229 C  
BRANCH   5   6
HETATM    6  C   UNL     1     -10.899  13.697  67.892  1.00  0.00    -0.264 C  
BRANCH   6   7
HETATM    7  C   UNL     1      -9.622  13.005  67.382  1.00  0.00    -0.211 C  
BRANCH   7   8
HETATM    8  C   UNL     1      -8.318  13.531  67.983  1.00  0.00    -0.168 C  
BRANCH   8   9
HETATM    9  O   UNL     1      -7.712  14.444  67.070  1.00  0.00    -0.104 OA 
BRANCH   9  10
HETATM   10  C   UNL     1      -7.269  15.632  67.724  1.00  0.00    -0.155 C  
BRANCH  10  11
HETATM   11  C   UNL     1      -7.939  16.872  67.142  1.00  0.00    -0.182 C  
HETATM   12  O   UNL     1      -7.962  17.090  65.939  1.00  0.00    -0.465 OA 
HETATM   13  N   UNL     1      -8.574  17.693  68.087  1.00  0.00    -0.253 N  
HETATM   14  H   UNL     1      -8.616  17.390  69.059  1.00  0.00     0.000 HD 
BRANCH  13  15
HETATM   15  S   UNL     1      -9.259  19.147  67.663  1.00  0.00    -0.306 S  
HETATM   16  O   UNL     1      -8.219  20.106  67.398  1.00  0.00    -0.319 OA 
HETATM   17  C   UNL     1      -9.989  19.602  69.204  1.00  0.00    -0.339 C  
HETATM   18  O   UNL     1     -10.338  18.887  66.744  1.00  0.00    -0.365 OA 
ENDBRANCH  13  15
ENDBRANCH  10  11
ENDBRANCH   9  10
ENDBRANCH   8   9
ENDBRANCH   7   8
ENDBRANCH   6   7
ENDBRANCH   5   6
ENDBRANCH   4   5
BRANCH   4  19
HETATM   19  C   UNL     1     -11.016  10.650  69.262  1.00  0.00    -0.245 A  
HETATM   20  N   UNL     1     -10.299   8.779  67.862  1.00  0.00    -0.219 NA 
HETATM   21  N   UNL     1     -10.436  10.060  70.333  1.00  0.00    -0.279 NA 
HETATM   22  C   UNL     1      -9.741   8.187  68.964  1.00  0.00    -0.163 A  
HETATM   23  C   UNL     1      -9.788   8.851  70.207  1.00  0.00    -0.183 A  
HETATM   24  C   UNL     1     -10.905   9.987  68.047  1.00  0.00    -0.260 A  
BRANCH  23  25
HETATM   25  C   UNL     1      -9.236   8.341  71.494  1.00  0.00    -0.231 A  
HETATM   26  C   UNL     1      -7.871   8.500  71.804  1.00  0.00    -0.161 A  
HETATM   27  C   UNL     1      -9.561   7.551  73.790  1.00  0.00    -0.321 A  
HETATM   28  C   UNL     1     -10.032   7.744  72.488  1.00  0.00    -0.284 A  
HETATM   29  C   UNL     1      -8.229   7.795  74.087  1.00  0.00    -0.282 A  
HETATM   30  C   UNL     1      -7.368   8.215  73.079  1.00  0.00    -0.161 A  
ENDBRANCH  23  25
BRANCH  22  31
HETATM   31  C   UNL     1      -9.170   6.826  68.696  1.00  0.00    -0.132 A  
HETATM   32  C   UNL     1      -9.403   4.376  68.722  1.00  0.00    -0.213 A  
HETATM   33  C   UNL     1      -7.394   5.353  67.849  1.00  0.00    -0.073 A  
HETATM   34  C   UNL     1      -7.859   6.621  68.221  1.00  0.00    -0.110 A  
HETATM   35  C   UNL     1      -9.911   5.657  68.983  1.00  0.00    -0.210 A  
HETATM   36  C   UNL     1      -8.171   4.229  68.095  1.00  0.00    -0.093 A  
ENDBRANCH  22  31
ENDBRANCH   4  19
ENDBRANCH   2   4
TORSDOF 12
ENDMDL
MODEL      176
REMARK 921   NORMALIZED FREE ENERGY PREDICTED BY IDOCK:   -4.78 KCAL/MOL
REMARK 922        TOTAL FREE ENERGY PREDICTED BY IDOCK:   -9.45 KCAL/MOL
REMARK 923 INTER-LIGAND FREE ENERGY PREDICTED BY IDOCK:   -8.60 KCAL/MOL
REMARK 924 INTRA-LIGAND FREE ENERGY PREDICTED BY IDOCK:   -0.85 KCAL/MOL
REMARK 927      BINDING AFFINITY PREDICTED BY RF-SCORE:    0.00 PKD
ROOT
HETATM    1  C   UNL     1      -5.134  14.655  67.983  1.00  0.00    -0.099 C  
HETATM    2  C   UNL     1      -5.227  13.975  69.351  1.00  0.00    -0.082 C  
HETATM    3  C   UNL     1      -5.546  15.019  70.423  1.00  0.00    -0.138 C  
ENDROOT
BRANCH   2   4
HETATM    4  N   UNL     1      -6.175  12.836  69.398  1.00  0.00    -0.105 NA 
BRANCH   4   5
HETATM    5  C   UNL     1      -5.978  11.691  70.304  1.00  0.00    -0.159 C  
BRANCH   5   6
HETATM    6  C   UNL     1      -5.302  10.498  69.616  1.00  0.00    -0.038 C  
BRANCH   6   7
HETATM    7  C   UNL     1      -5.773   9.128  70.137  1.00  0.00    -0.031 C  
BRANCH   7   8
HETATM    8  C   UNL     1      -6.782   8.409  69.241  1.00  0.00    -0.046 C  
BRANCH   8   9
HETATM    9  O   UNL     1      -7.944   8.087  70.002  1.00  0.00    -0.102 OA 
BRANCH   9  10
HETATM   10  C   UNL     1      -8.576   9.255  70.523  1.00  0.00    -0.233 C  
BRANCH  10  11
HETATM   11  C   UNL     1      -9.981   9.428  69.958  1.00  0.00    -0.221 C  
HETATM   12  O   UNL     1     -10.547   8.531  69.347  1.00  0.00    -0.221 OA 
HETATM   13  N   UNL     1     -10.585  10.660  70.252  1.00  0.00    -0.429 N  
HETATM   14  H   UNL     1     -10.101  11.315  70.865  1.00  0.00     0.000 HD 
BRANCH  13  15
HETATM   15  S   UNL     1     -12.066  11.081  69.627  1.00  0.00    -0.310 S  
HETATM   16  O   UNL     1     -12.032  10.958  68.194  1.00  0.00    -0.581 OA 
HETATM   17  C   UNL     1     -12.070  12.809  69.988  1.00  0.00    -0.285 C  
HETATM   18  O   UNL     1     -13.088  10.476  70.442  1.00  0.00    -0.279 OA 
ENDBRANCH  13  15
ENDBRANCH  10  11
ENDBRANCH   9  10
ENDBRANCH   8   9
ENDBRANCH   7   8
ENDBRANCH   6   7
ENDBRANCH   5   6
ENDBRANCH   4   5
BRANCH   4  19
HETATM   19  C   UNL     1      -7.226  12.874  68.474  1.00  0.00    -0.107 A  
HETATM   20  N   UNL     1      -8.722  11.759  66.894  1.00  0.00    -0.183 NA 
HETATM   21  N   UNL     1      -7.817  14.056  68.186  1.00  0.00    -0.131 NA 
HETATM   22  C   UNL     1      -9.288  12.971  66.598  1.00  0.00    -0.241 A  
HETATM   23  C   UNL     1      -8.847  14.127  67.275  1.00  0.00    -0.218 A  
HETATM   24  C   UNL     1      -7.723  11.752  67.822  1.00  0.00    -0.133 A  
BRANCH  23  25
HETATM   25  C   UNL     1      -9.354  15.513  67.064  1.00  0.00    -0.239 A  
HETATM   26  C   UNL     1     -10.441  16.001  67.815  1.00  0.00    -0.298 A  
HETATM   27  C   UNL     1      -9.049  17.789  66.213  1.00  0.00    -0.198 A  
HETATM   28  C   UNL     1      -8.755  16.423  66.175  1.00  0.00    -0.347 A  
HETATM   29  C   UNL     1     -10.072  18.255  67.025  1.00  0.00    -0.370 A  
HETATM   30  C   UNL     1     -10.808  17.352  67.784  1.00  0.00    -0.257 A  
ENDBRANCH  23  25
BRANCH  22  31
HETATM   31  C   UNL     1     -10.318  12.908  65.509  1.00  0.00    -0.304 A  
HETATM   32  C   UNL     1     -11.508  11.632  63.774  1.00  0.00    -0.457 A  
HETATM   33  C   UNL     1     -12.117  13.917  64.173  1.00  0.00    -0.464 A  
HETATM   34  C   UNL     1     -11.068  14.028  65.094  1.00  0.00    -0.341 A  
HETATM   35  C   UNL     1     -10.537  11.717  64.783  1.00  0.00    -0.358 A  
HETATM   36  C   UNL     1     -12.341  12.714  63.516  1.00  0.00    -0.591 A  
ENDBRANCH  22  31
ENDBRANCH   4  19
ENDBRANCH   2   4
TORSDOF 12
ENDMDL
MODEL      177
REMARK 921   NORMALIZED FREE ENERGY PREDICTED BY IDOCK:   -4.77 KCAL/MOL
REMARK 922        TOTAL FREE ENERGY PREDICTED BY IDOCK:   -9.44 KCAL/MOL
REMARK 923 INTER-LIGAND FREE ENERGY PREDICTED BY IDOCK:   -8.06 KCAL/MOL
REMARK 924 INTRA-LIGAND FREE ENERGY PREDICTED BY IDOCK:   -1.38 KCAL/MOL
REMARK 927      BINDING AFFINITY PREDICTED BY RF-SCORE:    0.00 PKD
ROOT
HETATM    1  C   UNL     1      -9.092   8.247  65.850  1.00  0.00    -0.203 C  
HETATM    2  C   UNL     1      -8.032   9.062  66.594  1.00  0.00    -0.100 C  
HETATM    3  C   UNL     1      -7.394  10.071  65.638  1.00  0.00    -0.127 C  
ENDROOT
BRANCH   2   4
HETATM    4  N   UNL     1      -8.528   9.716  67.829  1.00  0.00    -0.125 NA 
BRANCH   4   5
HETATM    5  C   UNL     1      -8.596  11.182  67.963  1.00  0.00    -0.140 C  
BRANCH   5   6
HETATM    6  C   UNL     1      -7.455  11.753  68.815  1.00  0.00    -0.109 C  
BRANCH   6   7
HETATM    7  C   UNL     1      -6.745  12.963  68.179  1.00  0.00    -0.096 C  
BRANCH   7   8
HETATM    8  C   UNL     1      -6.262  14.022  69.170  1.00  0.00    -0.103 C  
BRANCH   8   9
HETATM    9  O   UNL     1      -5.879  15.196  68.457  1.00  0.00    -0.086 OA 
BRANCH   9  10
HETATM   10  C   UNL     1      -6.700  16.313  68.793  1.00  0.00    -0.144 C  
BRANCH  10  11
HETATM   11  C   UNL     1      -7.912  16.411  67.874  1.00  0.00    -0.153 C  
HETATM   12  O   UNL     1      -7.797  16.606  66.671  1.00  0.00    -0.220 OA 
HETATM   13  N   UNL     1      -9.146  16.196  68.505  1.00  0.00    -0.199 N  
HETATM   14  H   UNL     1      -9.160  15.922  69.487  1.00  0.00     0.000 HD 
BRANCH  13  15
HETATM   15  S   UNL     1     -10.587  16.375  67.696  1.00  0.00    -0.301 S  
HETATM   16  O   UNL     1     -10.451  15.861  66.359  1.00  0.00    -0.296 OA 
HETATM   17  C   UNL     1     -10.645  18.134  67.560  1.00  0.00    -0.401 C  
HETATM   18  O   UNL     1     -11.654  15.984  68.582  1.00  0.00    -0.386 OA 
ENDBRANCH  13  15
ENDBRANCH  10  11
ENDBRANCH   9  10
ENDBRANCH   8   9
ENDBRANCH   7   8
ENDBRANCH   6   7
ENDBRANCH   5   6
ENDBRANCH   4   5
BRANCH   4  19
HETATM   19  C   UNL     1      -8.854   8.862  68.888  1.00  0.00    -0.137 A  
HETATM   20  N   UNL     1      -8.284   7.043  70.417  1.00  0.00    -0.122 NA 
HETATM   21  N   UNL     1     -10.077   8.949  69.462  1.00  0.00    -0.192 NA 
HETATM   22  C   UNL     1      -9.535   7.131  70.967  1.00  0.00    -0.159 A  
HETATM   23  C   UNL     1     -10.430   8.116  70.500  1.00  0.00    -0.214 A  
HETATM   24  C   UNL     1      -7.986   7.912  69.410  1.00  0.00    -0.117 A  
BRANCH  23  25
HETATM   25  C   UNL     1     -11.822   8.338  70.986  1.00  0.00    -0.276 A  
HETATM   26  C   UNL     1     -12.755   7.283  70.998  1.00  0.00    -0.284 A  
HETATM   27  C   UNL     1     -13.457   9.665  72.236  1.00  0.00    -0.488 A  
HETATM   28  C   UNL     1     -12.263   9.563  71.516  1.00  0.00    -0.468 A  
HETATM   29  C   UNL     1     -14.321   8.583  72.300  1.00  0.00    -0.483 A  
HETATM   30  C   UNL     1     -13.997   7.408  71.631  1.00  0.00    -0.523 A  
ENDBRANCH  23  25
BRANCH  22  31
HETATM   31  C   UNL     1      -9.815   6.088  72.008  1.00  0.00    -0.177 A  
HETATM   32  C   UNL     1     -10.150   5.470  74.366  1.00  0.00    -0.282 A  
HETATM   33  C   UNL     1     -10.358   3.785  72.672  1.00  0.00    -0.226 A  
HETATM   34  C   UNL     1      -9.963   4.719  71.705  1.00  0.00    -0.255 A  
HETATM   35  C   UNL     1      -9.872   6.426  73.379  1.00  0.00    -0.190 A  
HETATM   36  C   UNL     1     -10.458   4.163  74.004  1.00  0.00    -0.279 A  
ENDBRANCH  22  31
ENDBRANCH   4  19
ENDBRANCH   2   4
TORSDOF 12
ENDMDL
MODEL      178
REMARK 921   NORMALIZED FREE ENERGY PREDICTED BY IDOCK:   -4.77 KCAL/MOL
REMARK 922        TOTAL FREE ENERGY PREDICTED BY IDOCK:   -9.43 KCAL/MOL
REMARK 923 INTER-LIGAND FREE ENERGY PREDICTED BY IDOCK:   -8.47 KCAL/MOL
REMARK 924 INTRA-LIGAND FREE ENERGY PREDICTED BY IDOCK:   -0.97 KCAL/MOL
REMARK 927      BINDING AFFINITY PREDICTED BY RF-SCORE:    0.00 PKD
ROOT
HETATM    1  C   UNL     1      -9.309   9.038  71.384  1.00  0.00    -0.310 C  
HETATM    2  C   UNL     1     -10.800   8.717  71.254  1.00  0.00    -0.277 C  
HETATM    3  C   UNL     1     -11.609  10.015  71.279  1.00  0.00    -0.430 C  
ENDROOT
BRANCH   2   4
HETATM    4  N   UNL     1     -11.140   7.884  70.075  1.00  0.00    -0.211 NA 
BRANCH   4   5
HETATM    5  C   UNL     1     -11.739   6.545  70.211  1.00  0.00    -0.366 C  
BRANCH   5   6
HETATM    6  C   UNL     1     -11.035   5.683  71.268  1.00  0.00    -0.251 C  
BRANCH   6   7
HETATM    7  C   UNL     1      -9.576   5.336  70.920  1.00  0.00    -0.233 C  
BRANCH   7   8
HETATM    8  C   UNL     1      -9.294   3.845  70.736  1.00  0.00    -0.144 C  
BRANCH   8   9
HETATM    9  O   UNL     1      -8.688   3.632  69.463  1.00  0.00    -0.067 OA 
BRANCH   9  10
HETATM   10  C   UNL     1      -9.656   3.325  68.460  1.00  0.00    -0.055 C  
BRANCH  10  11
HETATM   11  C   UNL     1      -8.999   3.083  67.106  1.00  0.00    -0.158 C  
HETATM   12  O   UNL     1      -7.840   2.704  67.009  1.00  0.00    -0.070 OA 
HETATM   13  N   UNL     1      -9.845   3.267  66.002  1.00  0.00    -0.400 N  
HETATM   14  H   UNL     1     -10.832   3.470  66.162  1.00  0.00     0.000 HD 
BRANCH  13  15
HETATM   15  S   UNL     1      -9.284   3.164  64.442  1.00  0.00    -0.141 S  
HETATM   16  O   UNL     1      -8.301   4.191  64.218  1.00  0.00    -0.094 OA 
HETATM   17  C   UNL     1     -10.735   3.649  63.562  1.00  0.00    -0.239 C  
HETATM   18  O   UNL     1      -9.049   1.775  64.137  1.00  0.00    -0.099 OA 
ENDBRANCH  13  15
ENDBRANCH  10  11
ENDBRANCH   9  10
ENDBRANCH   8   9
ENDBRANCH   7   8
ENDBRANCH   6   7
ENDBRANCH   5   6
ENDBRANCH   4   5
BRANCH   4  19
HETATM   19  C   UNL     1     -10.785   8.411  68.829  1.00  0.00    -0.051 A  
HETATM   20  N   UNL     1      -9.947   8.127  66.550  1.00  0.00    -0.255 NA 
HETATM   21  N   UNL     1     -10.887   9.743  68.616  1.00  0.00    -0.213 NA 
HETATM   22  C   UNL     1     -10.034   9.481  66.365  1.00  0.00    -0.269 A  
HETATM   23  C   UNL     1     -10.537  10.293  67.403  1.00  0.00    -0.270 A  
HETATM   24  C   UNL     1     -10.332   7.642  67.765  1.00  0.00    -0.219 A  
BRANCH  23  25
HETATM   25  C   UNL     1     -10.689  11.775  67.360  1.00  0.00    -0.277 A  
HETATM   26  C   UNL     1     -11.796  12.366  66.721  1.00  0.00    -0.385 A  
HETATM   27  C   UNL     1     -10.114  14.002  68.204  1.00  0.00    -0.244 A  
HETATM   28  C   UNL     1      -9.797  12.657  67.998  1.00  0.00    -0.218 A  
HETATM   29  C   UNL     1     -11.256  14.540  67.630  1.00  0.00    -0.335 A  
HETATM   30  C   UNL     1     -12.068  13.734  66.839  1.00  0.00    -0.454 A  
ENDBRANCH  23  25
BRANCH  22  31
HETATM   31  C   UNL     1      -9.514   9.946  65.036  1.00  0.00    -0.343 A  
HETATM   32  C   UNL     1      -9.800  11.270  62.982  1.00  0.00    -0.370 A  
HETATM   33  C   UNL     1      -7.761  10.052  63.317  1.00  0.00    -0.147 A  
HETATM   34  C   UNL     1      -8.291   9.504  64.492  1.00  0.00    -0.167 A  
HETATM   35  C   UNL     1     -10.276  10.810  64.218  1.00  0.00    -0.422 A  
HETATM   36  C   UNL     1      -8.516  10.942  62.564  1.00  0.00    -0.282 A  
ENDBRANCH  22  31
ENDBRANCH   4  19
ENDBRANCH   2   4
TORSDOF 12
ENDMDL
MODEL      179
REMARK 921   NORMALIZED FREE ENERGY PREDICTED BY IDOCK:   -4.76 KCAL/MOL
REMARK 922        TOTAL FREE ENERGY PREDICTED BY IDOCK:   -9.42 KCAL/MOL
REMARK 923 INTER-LIGAND FREE ENERGY PREDICTED BY IDOCK:   -8.06 KCAL/MOL
REMARK 924 INTRA-LIGAND FREE ENERGY PREDICTED BY IDOCK:   -1.37 KCAL/MOL
REMARK 927      BINDING AFFINITY PREDICTED BY RF-SCORE:    0.00 PKD
ROOT
HETATM    1  C   UNL     1      -6.494  10.510  66.019  1.00  0.00    -0.127 C  
HETATM    2  C   UNL     1      -6.954   9.159  66.572  1.00  0.00    -0.080 C  
HETATM    3  C   UNL     1      -6.258   8.886  67.907  1.00  0.00    -0.052 C  
ENDROOT
BRANCH   2   4
HETATM    4  N   UNL     1      -8.426   9.021  66.685  1.00  0.00    -0.121 NA 
BRANCH   4   5
HETATM    5  C   UNL     1      -9.148   7.864  66.126  1.00  0.00    -0.163 C  
BRANCH   5   6
HETATM    6  C   UNL     1      -8.479   6.526  66.465  1.00  0.00    -0.120 C  
BRANCH   6   7
HETATM    7  C   UNL     1      -8.822   5.993  67.868  1.00  0.00    -0.110 C  
BRANCH   7   8
HETATM    8  C   UNL     1     -10.206   5.357  67.997  1.00  0.00    -0.164 C  
BRANCH   8   9
HETATM    9  O   UNL     1     -11.054   6.220  68.752  1.00  0.00    -0.337 OA 
BRANCH   9  10
HETATM   10  C   UNL     1     -10.309   7.056  69.636  1.00  0.00    -0.209 C  
BRANCH  10  11
HETATM   11  C   UNL     1     -10.480   6.623  71.088  1.00  0.00    -0.217 C  
HETATM   12  O   UNL     1     -10.698   7.430  71.981  1.00  0.00    -0.212 OA 
HETATM   13  N   UNL     1     -10.431   5.236  71.297  1.00  0.00    -0.223 N  
HETATM   14  H   UNL     1     -10.363   4.616  70.490  1.00  0.00     0.000 HD 
BRANCH  13  15
HETATM   15  S   UNL     1     -10.481   4.578  72.822  1.00  0.00    -0.196 S  
HETATM   16  O   UNL     1      -9.448   5.168  73.631  1.00  0.00    -0.132 OA 
HETATM   17  C   UNL     1      -9.963   2.930  72.460  1.00  0.00    -0.159 C  
HETATM   18  O   UNL     1     -11.859   4.507  73.238  1.00  0.00    -0.218 OA 
ENDBRANCH  13  15
ENDBRANCH  10  11
ENDBRANCH   9  10
ENDBRANCH   8   9
ENDBRANCH   7   8
ENDBRANCH   6   7
ENDBRANCH   5   6
ENDBRANCH   4   5
BRANCH   4  19
HETATM   19  C   UNL     1      -9.099  10.091  67.283  1.00  0.00    -0.138 A  
HETATM   20  N   UNL     1      -9.906  11.264  69.271  1.00  0.00     0.002 NA 
HETATM   21  N   UNL     1      -9.658  11.046  66.504  1.00  0.00    -0.191 NA 
HETATM   22  C   UNL     1     -10.486  12.205  68.462  1.00  0.00    -0.233 A  
HETATM   23  C   UNL     1     -10.335  12.107  67.063  1.00  0.00    -0.211 A  
HETATM   24  C   UNL     1      -9.229  10.251  68.657  1.00  0.00    -0.159 A  
BRANCH  23  25
HETATM   25  C   UNL     1     -10.906  13.042  66.053  1.00  0.00    -0.290 A  
HETATM   26  C   UNL     1     -12.250  12.928  65.649  1.00  0.00    -0.519 A  
HETATM   27  C   UNL     1     -10.811  15.143  64.798  1.00  0.00    -0.378 A  
HETATM   28  C   UNL     1     -10.180  14.113  65.501  1.00  0.00    -0.371 A  
HETATM   29  C   UNL     1     -12.158  15.044  64.484  1.00  0.00    -0.373 A  
HETATM   30  C   UNL     1     -12.866  13.907  64.859  1.00  0.00    -0.221 A  
ENDBRANCH  23  25
BRANCH  22  31
HETATM   31  C   UNL     1     -11.282  13.236  69.207  1.00  0.00    -0.266 A  
HETATM   32  C   UNL     1     -12.909  13.812  70.961  1.00  0.00    -0.376 A  
HETATM   33  C   UNL     1     -11.897  15.568  69.679  1.00  0.00    -0.384 A  
HETATM   34  C   UNL     1     -11.254  14.609  68.886  1.00  0.00    -0.285 A  
HETATM   35  C   UNL     1     -12.171  12.863  70.240  1.00  0.00    -0.362 A  
HETATM   36  C   UNL     1     -12.721  15.168  70.723  1.00  0.00    -0.463 A  
ENDBRANCH  22  31
ENDBRANCH   4  19
ENDBRANCH   2   4
TORSDOF 12
ENDMDL
MODEL      180
REMARK 921   NORMALIZED FREE ENERGY PREDICTED BY IDOCK:   -4.76 KCAL/MOL
REMARK 922        TOTAL FREE ENERGY PREDICTED BY IDOCK:   -9.42 KCAL/MOL
REMARK 923 INTER-LIGAND FREE ENERGY PREDICTED BY IDOCK:   -8.65 KCAL/MOL
REMARK 924 INTRA-LIGAND FREE ENERGY PREDICTED BY IDOCK:   -0.77 KCAL/MOL
REMARK 927      BINDING AFFINITY PREDICTED BY RF-SCORE:    0.00 PKD
ROOT
HETATM    1  C   UNL     1     -10.405   9.068  66.500  1.00  0.00    -0.263 C  
HETATM    2  C   UNL     1      -9.844   8.413  67.763  1.00  0.00    -0.174 C  
HETATM    3  C   UNL     1      -8.391   7.995  67.524  1.00  0.00    -0.123 C  
ENDROOT
BRANCH   2   4
HETATM    4  N   UNL     1      -9.981   9.239  68.986  1.00  0.00    -0.176 NA 
BRANCH   4   5
HETATM    5  C   UNL     1     -10.110   8.639  70.326  1.00  0.00    -0.187 C  
BRANCH   5   6
HETATM    6  C   UNL     1     -11.524   8.116  70.608  1.00  0.00    -0.237 C  
BRANCH   6   7
HETATM    7  C   UNL     1     -11.604   6.588  70.777  1.00  0.00    -0.437 C  
BRANCH   7   8
HETATM    8  C   UNL     1     -10.759   6.020  71.917  1.00  0.00    -0.234 C  
BRANCH   8   9
HETATM    9  O   UNL     1     -10.181   4.782  71.506  1.00  0.00    -0.200 OA 
BRANCH   9  10
HETATM   10  C   UNL     1      -8.797   4.921  71.191  1.00  0.00    -0.127 C  
BRANCH  10  11
HETATM   11  C   UNL     1      -8.461   4.273  69.853  1.00  0.00    -0.061 C  
HETATM   12  O   UNL     1      -7.517   3.506  69.725  1.00  0.00    -0.045 OA 
HETATM   13  N   UNL     1      -9.354   4.576  68.814  1.00  0.00    -0.135 N  
HETATM   14  H   UNL     1     -10.186   5.129  69.020  1.00  0.00     0.000 HD 
BRANCH  13  15
HETATM   15  S   UNL     1      -9.093   4.059  67.256  1.00  0.00    -0.164 S  
HETATM   16  O   UNL     1      -7.857   4.613  66.769  1.00  0.00    -0.097 OA 
HETATM   17  C   UNL     1     -10.394   4.916  66.427  1.00  0.00    -0.288 C  
HETATM   18  O   UNL     1      -9.402   2.653  67.189  1.00  0.00    -0.154 OA 
ENDBRANCH  13  15
ENDBRANCH  10  11
ENDBRANCH   9  10
ENDBRANCH   8   9
ENDBRANCH   7   8
ENDBRANCH   6   7
ENDBRANCH   5   6
ENDBRANCH   4   5
BRANCH   4  19
HETATM   19  C   UNL     1     -10.059  10.622  68.787  1.00  0.00    -0.191 A  
HETATM   20  N   UNL     1      -9.269  12.674  67.719  1.00  0.00    -0.187 NA 
HETATM   21  N   UNL     1     -10.982  11.342  69.466  1.00  0.00    -0.222 NA 
HETATM   22  C   UNL     1     -10.194  13.386  68.436  1.00  0.00    -0.251 A  
HETATM   23  C   UNL     1     -11.078  12.705  69.298  1.00  0.00    -0.132 A  
HETATM   24  C   UNL     1      -9.240  11.325  67.912  1.00  0.00    -0.157 A  
BRANCH  23  25
HETATM   25  C   UNL     1     -12.132  13.332  70.145  1.00  0.00    -0.403 A  
HETATM   26  C   UNL     1     -12.746  12.603  71.183  1.00  0.00    -0.347 A  
HETATM   27  C   UNL     1     -13.278  15.321  70.999  1.00  0.00    -0.546 A  
HETATM   28  C   UNL     1     -12.523  14.676  70.015  1.00  0.00    -0.333 A  
HETATM   29  C   UNL     1     -13.804  14.593  72.056  1.00  0.00    -0.557 A  
HETATM   30  C   UNL     1     -13.586  13.221  72.117  1.00  0.00    -0.655 A  
ENDBRANCH  23  25
BRANCH  22  31
HETATM   31  C   UNL     1     -10.106  14.870  68.233  1.00  0.00    -0.221 A  
HETATM   32  C   UNL     1     -10.531  16.859  66.848  1.00  0.00    -0.271 A  
HETATM   33  C   UNL     1      -9.534  17.130  69.012  1.00  0.00    -0.162 A  
HETATM   34  C   UNL     1      -9.484  15.737  69.155  1.00  0.00    -0.255 A  
HETATM   35  C   UNL     1     -10.587  15.472  67.049  1.00  0.00    -0.311 A  
HETATM   36  C   UNL     1     -10.064  17.692  67.858  1.00  0.00    -0.345 A  
ENDBRANCH  22  31
ENDBRANCH   4  19
ENDBRANCH   2   4
TORSDOF 12
ENDMDL
MODEL      181
REMARK 921   NORMALIZED FREE ENERGY PREDICTED BY IDOCK:   -4.76 KCAL/MOL
REMARK 922        TOTAL FREE ENERGY PREDICTED BY IDOCK:   -9.42 KCAL/MOL
REMARK 923 INTER-LIGAND FREE ENERGY PREDICTED BY IDOCK:   -7.83 KCAL/MOL
REMARK 924 INTRA-LIGAND FREE ENERGY PREDICTED BY IDOCK:   -1.58 KCAL/MOL
REMARK 927      BINDING AFFINITY PREDICTED BY RF-SCORE:    0.00 PKD
ROOT
HETATM    1  C   UNL     1     -11.425   7.064  72.401  1.00  0.00    -0.300 C  
HETATM    2  C   UNL     1     -10.542   6.848  71.170  1.00  0.00    -0.222 C  
HETATM    3  C   UNL     1     -11.421   6.694  69.927  1.00  0.00    -0.414 C  
ENDROOT
BRANCH   2   4
HETATM    4  N   UNL     1      -9.504   7.890  70.979  1.00  0.00    -0.155 NA 
BRANCH   4   5
HETATM    5  C   UNL     1      -8.216   7.852  71.695  1.00  0.00    -0.115 C  
BRANCH   5   6
HETATM    6  C   UNL     1      -7.470   6.526  71.503  1.00  0.00    -0.089 C  
BRANCH   6   7
HETATM    7  C   UNL     1      -7.165   6.187  70.032  1.00  0.00    -0.073 C  
BRANCH   7   8
HETATM    8  C   UNL     1      -6.205   7.149  69.333  1.00  0.00    -0.035 C  
BRANCH   8   9
HETATM    9  O   UNL     1      -6.047   6.753  67.972  1.00  0.00    -0.029 OA 
BRANCH   9  10
HETATM   10  C   UNL     1      -6.783   7.593  67.086  1.00  0.00    -0.067 C  
BRANCH  10  11
HETATM   11  C   UNL     1      -7.664   6.777  66.146  1.00  0.00    -0.091 C  
HETATM   12  O   UNL     1      -8.220   7.282  65.180  1.00  0.00    -0.131 OA 
HETATM   13  N   UNL     1      -7.726   5.407  66.443  1.00  0.00    -0.098 N  
HETATM   14  H   UNL     1      -7.144   5.035  67.192  1.00  0.00     0.000 HD 
BRANCH  13  15
HETATM   15  S   UNL     1      -8.723   4.374  65.606  1.00  0.00    -0.125 S  
HETATM   16  O   UNL     1     -10.091   4.792  65.770  1.00  0.00    -0.204 OA 
HETATM   17  C   UNL     1      -8.521   2.908  66.566  1.00  0.00    -0.101 C  
HETATM   18  O   UNL     1      -8.131   4.120  64.317  1.00  0.00    -0.088 OA 
ENDBRANCH  13  15
ENDBRANCH  10  11
ENDBRANCH   9  10
ENDBRANCH   8   9
ENDBRANCH   7   8
ENDBRANCH   6   7
ENDBRANCH   5   6
ENDBRANCH   4   5
BRANCH   4  19
HETATM   19  C   UNL     1      -9.850   8.954  70.139  1.00  0.00    -0.178 A  
HETATM   20  N   UNL     1      -9.669  10.141  68.010  1.00  0.00    -0.142 NA 
HETATM   21  N   UNL     1     -10.700   9.907  70.588  1.00  0.00    -0.310 NA 
HETATM   22  C   UNL     1     -10.510  11.108  68.494  1.00  0.00    -0.191 A  
HETATM   23  C   UNL     1     -11.052  10.972  69.789  1.00  0.00    -0.235 A  
HETATM   24  C   UNL     1      -9.377   9.101  68.841  1.00  0.00    -0.146 A  
BRANCH  23  25
HETATM   25  C   UNL     1     -11.973  11.934  70.459  1.00  0.00    -0.360 A  
HETATM   26  C   UNL     1     -12.953  11.479  71.362  1.00  0.00    -0.450 A  
HETATM   27  C   UNL     1     -12.542  14.215  71.145  1.00  0.00    -0.439 A  
HETATM   28  C   UNL     1     -11.882  13.327  70.291  1.00  0.00    -0.307 A  
HETATM   29  C   UNL     1     -13.442  13.733  72.083  1.00  0.00    -0.596 A  
HETATM   30  C   UNL     1     -13.692  12.367  72.153  1.00  0.00    -0.271 A  
ENDBRANCH  23  25
BRANCH  22  31
HETATM   31  C   UNL     1     -10.714  12.259  67.554  1.00  0.00    -0.255 A  
HETATM   32  C   UNL     1      -9.871  14.307  66.480  1.00  0.00    -0.299 A  
HETATM   33  C   UNL     1     -12.045  13.484  65.889  1.00  0.00    -0.477 A  
HETATM   34  C   UNL     1     -11.922  12.484  66.863  1.00  0.00    -0.306 A  
HETATM   35  C   UNL     1      -9.708  13.234  67.368  1.00  0.00    -0.221 A  
HETATM   36  C   UNL     1     -11.014  14.394  65.694  1.00  0.00    -0.314 A  
ENDBRANCH  22  31
ENDBRANCH   4  19
ENDBRANCH   2   4
TORSDOF 12
ENDMDL
MODEL      182
REMARK 921   NORMALIZED FREE ENERGY PREDICTED BY IDOCK:   -4.74 KCAL/MOL
REMARK 922        TOTAL FREE ENERGY PREDICTED BY IDOCK:   -9.38 KCAL/MOL
REMARK 923 INTER-LIGAND FREE ENERGY PREDICTED BY IDOCK:   -8.30 KCAL/MOL
REMARK 924 INTRA-LIGAND FREE ENERGY PREDICTED BY IDOCK:   -1.08 KCAL/MOL
REMARK 927      BINDING AFFINITY PREDICTED BY RF-SCORE:    0.00 PKD
ROOT
HETATM    1  C   UNL     1      -5.272  17.634  66.020  1.00  0.00    -0.224 C  
HETATM    2  C   UNL     1      -6.022  16.737  67.008  1.00  0.00    -0.178 C  
HETATM    3  C   UNL     1      -5.774  17.225  68.436  1.00  0.00    -0.145 C  
ENDROOT
BRANCH   2   4
HETATM    4  N   UNL     1      -7.470  16.598  66.721  1.00  0.00    -0.227 NA 
BRANCH   4   5
HETATM    5  C   UNL     1      -8.274  17.716  66.197  1.00  0.00    -0.169 C  
BRANCH   5   6
HETATM    6  C   UNL     1      -9.781  17.434  66.236  1.00  0.00    -0.276 C  
BRANCH   6   7
HETATM    7  C   UNL     1     -10.573  18.391  67.147  1.00  0.00    -0.416 C  
BRANCH   7   8
HETATM    8  C   UNL     1     -11.506  17.707  68.146  1.00  0.00     0.802 C  
BRANCH   8   9
HETATM    9  O   UNL     1     -10.905  17.720  69.439  1.00  0.00     0.189 OA 
BRANCH   9  10
HETATM   10  C   UNL     1     -10.347  16.452  69.778  1.00  0.00    -0.197 C  
BRANCH  10  11
HETATM   11  C   UNL     1     -11.343  15.591  70.546  1.00  0.00    -0.351 C  
HETATM   12  O   UNL     1     -11.542  14.419  70.257  1.00  0.00    -0.273 OA 
HETATM   13  N   UNL     1     -11.952  16.231  71.637  1.00  0.00    -0.656 N  
HETATM   14  H   UNL     1     -11.652  17.171  71.891  1.00  0.00     0.000 HD 
BRANCH  13  15
HETATM   15  S   UNL     1     -13.149  15.496  72.525  1.00  0.00    -0.492 S  
HETATM   16  O   UNL     1     -13.592  16.390  73.562  1.00  0.00    -0.596 OA 
HETATM   17  C   UNL     1     -12.210  14.227  73.315  1.00  0.00     0.166 C  
HETATM   18  O   UNL     1     -14.055  14.846  71.611  1.00  0.00    -0.417 OA 
ENDBRANCH  13  15
ENDBRANCH  10  11
ENDBRANCH   9  10
ENDBRANCH   8   9
ENDBRANCH   7   8
ENDBRANCH   6   7
ENDBRANCH   5   6
ENDBRANCH   4   5
BRANCH   4  19
HETATM   19  C   UNL     1      -8.046  15.367  67.051  1.00  0.00    -0.230 A  
HETATM   20  N   UNL     1      -8.225  13.417  68.515  1.00  0.00    -0.130 NA 
HETATM   21  N   UNL     1      -8.995  14.837  66.245  1.00  0.00    -0.195 NA 
HETATM   22  C   UNL     1      -9.166  12.888  67.671  1.00  0.00    -0.193 A  
HETATM   23  C   UNL     1      -9.574  13.623  66.538  1.00  0.00    -0.286 A  
HETATM   24  C   UNL     1      -7.708  14.634  68.182  1.00  0.00    -0.125 A  
BRANCH  23  25
HETATM   25  C   UNL     1     -10.577  13.187  65.526  1.00  0.00    -0.299 A  
HETATM   26  C   UNL     1     -10.176  12.476  64.378  1.00  0.00    -0.346 A  
HETATM   27  C   UNL     1     -12.894  12.719  64.884  1.00  0.00    -0.357 A  
HETATM   28  C   UNL     1     -11.960  13.390  65.679  1.00  0.00    -0.439 A  
HETATM   29  C   UNL     1     -12.466  11.958  63.807  1.00  0.00    -0.537 A  
HETATM   30  C   UNL     1     -11.108  11.883  63.518  1.00  0.00    -0.506 A  
ENDBRANCH  23  25
BRANCH  22  31
HETATM   31  C   UNL     1      -9.623  11.513  68.059  1.00  0.00    -0.180 A  
HETATM   32  C   UNL     1      -9.362   9.069  67.939  1.00  0.00    -0.155 A  
HETATM   33  C   UNL     1     -11.090   9.996  69.320  1.00  0.00    -0.248 A  
HETATM   34  C   UNL     1     -10.761  11.277  68.858  1.00  0.00    -0.246 A  
HETATM   35  C   UNL     1      -8.963  10.362  67.573  1.00  0.00    -0.138 A  
HETATM   36  C   UNL     1     -10.385   8.891  68.863  1.00  0.00    -0.229 A  
ENDBRANCH  22  31
ENDBRANCH   4  19
ENDBRANCH   2   4
TORSDOF 12
ENDMDL
MODEL      183
REMARK 921   NORMALIZED FREE ENERGY PREDICTED BY IDOCK:   -4.73 KCAL/MOL
REMARK 922        TOTAL FREE ENERGY PREDICTED BY IDOCK:   -9.37 KCAL/MOL
REMARK 923 INTER-LIGAND FREE ENERGY PREDICTED BY IDOCK:   -7.81 KCAL/MOL
REMARK 924 INTRA-LIGAND FREE ENERGY PREDICTED BY IDOCK:   -1.55 KCAL/MOL
REMARK 927      BINDING AFFINITY PREDICTED BY RF-SCORE:    0.00 PKD
ROOT
HETATM    1  C   UNL     1      -6.304   9.947  67.307  1.00  0.00    -0.068 C  
HETATM    2  C   UNL     1      -7.114  11.225  67.081  1.00  0.00    -0.125 C  
HETATM    3  C   UNL     1      -8.237  10.951  66.078  1.00  0.00    -0.155 C  
ENDROOT
BRANCH   2   4
HETATM    4  N   UNL     1      -7.632  11.842  68.326  1.00  0.00    -0.108 NA 
BRANCH   4   5
HETATM    5  C   UNL     1      -7.023  13.049  68.912  1.00  0.00    -0.088 C  
BRANCH   5   6
HETATM    6  C   UNL     1      -5.926  13.651  68.026  1.00  0.00    -0.133 C  
BRANCH   6   7
HETATM    7  C   UNL     1      -5.221  14.872  68.645  1.00  0.00    -0.095 C  
BRANCH   7   8
HETATM    8  C   UNL     1      -5.174  16.112  67.752  1.00  0.00    -0.131 C  
BRANCH   8   9
HETATM    9  O   UNL     1      -5.683  17.233  68.472  1.00  0.00    -0.145 OA 
BRANCH   9  10
HETATM   10  C   UNL     1      -6.865  16.904  69.198  1.00  0.00    -0.238 C  
BRANCH  10  11
HETATM   11  C   UNL     1      -8.120  17.293  68.426  1.00  0.00    -0.259 C  
HETATM   12  O   UNL     1      -8.491  18.456  68.338  1.00  0.00    -0.310 OA 
HETATM   13  N   UNL     1      -8.766  16.228  67.779  1.00  0.00    -0.178 N  
HETATM   14  H   UNL     1      -8.336  15.303  67.798  1.00  0.00     0.000 HD 
BRANCH  13  15
HETATM   15  S   UNL     1     -10.211  16.431  66.985  1.00  0.00    -0.285 S  
HETATM   16  O   UNL     1     -11.185  16.973  67.895  1.00  0.00    -0.222 OA 
HETATM   17  C   UNL     1     -10.652  14.744  66.715  1.00  0.00    -0.302 C  
HETATM   18  O   UNL     1      -9.938  17.009  65.693  1.00  0.00    -0.554 OA 
ENDBRANCH  13  15
ENDBRANCH  10  11
ENDBRANCH   9  10
ENDBRANCH   8   9
ENDBRANCH   7   8
ENDBRANCH   6   7
ENDBRANCH   5   6
ENDBRANCH   4   5
BRANCH   4  19
HETATM   19  C   UNL     1      -8.683  11.166  68.955  1.00  0.00    -0.080 A  
HETATM   20  N   UNL     1     -11.052  10.953  69.518  1.00  0.00    -0.251 NA 
HETATM   21  N   UNL     1      -8.423  10.045  69.667  1.00  0.00    -0.178 NA 
HETATM   22  C   UNL     1     -10.762   9.836  70.255  1.00  0.00    -0.302 A  
HETATM   23  C   UNL     1      -9.434   9.363  70.305  1.00  0.00    -0.251 A  
HETATM   24  C   UNL     1     -10.011  11.570  68.891  1.00  0.00    -0.101 A  
BRANCH  23  25
HETATM   25  C   UNL     1      -8.957   8.171  71.063  1.00  0.00    -0.173 A  
HETATM   26  C   UNL     1      -8.710   8.251  72.447  1.00  0.00    -0.279 A  
HETATM   27  C   UNL     1      -8.638   5.750  71.248  1.00  0.00    -0.129 A  
HETATM   28  C   UNL     1      -8.791   6.904  70.475  1.00  0.00    -0.155 A  
HETATM   29  C   UNL     1      -8.480   5.852  72.621  1.00  0.00    -0.119 A  
HETATM   30  C   UNL     1      -8.457   7.109  73.215  1.00  0.00    -0.146 A  
ENDBRANCH  23  25
BRANCH  22  31
HETATM   31  C   UNL     1     -11.944   9.266  70.982  1.00  0.00    -0.369 A  
HETATM   32  C   UNL     1     -13.886   9.575  72.461  1.00  0.00    -0.306 A  
HETATM   33  C   UNL     1     -13.448   7.403  71.541  1.00  0.00    -0.445 A  
HETATM   34  C   UNL     1     -12.266   7.893  70.970  1.00  0.00    -0.214 A  
HETATM   35  C   UNL     1     -12.766  10.084  71.789  1.00  0.00    -0.526 A  
HETATM   36  C   UNL     1     -14.263   8.248  72.283  1.00  0.00    -0.393 A  
ENDBRANCH  22  31
ENDBRANCH   4  19
ENDBRANCH   2   4
TORSDOF 12
ENDMDL
MODEL      184
REMARK 921   NORMALIZED FREE ENERGY PREDICTED BY IDOCK:   -4.71 KCAL/MOL
REMARK 922        TOTAL FREE ENERGY PREDICTED BY IDOCK:   -9.34 KCAL/MOL
REMARK 923 INTER-LIGAND FREE ENERGY PREDICTED BY IDOCK:   -8.65 KCAL/MOL
REMARK 924 INTRA-LIGAND FREE ENERGY PREDICTED BY IDOCK:   -0.68 KCAL/MOL
REMARK 927      BINDING AFFINITY PREDICTED BY RF-SCORE:    0.00 PKD
ROOT
HETATM    1  C   UNL     1      -9.523   4.462  64.715  1.00  0.00    -0.155 C  
HETATM    2  C   UNL     1      -9.583   4.992  66.149  1.00  0.00    -0.168 C  
HETATM    3  C   UNL     1      -9.134   3.899  67.120  1.00  0.00    -0.174 C  
ENDROOT
BRANCH   2   4
HETATM    4  N   UNL     1      -8.831   6.253  66.360  1.00  0.00    -0.139 NA 
BRANCH   4   5
HETATM    5  C   UNL     1      -8.252   7.016  65.240  1.00  0.00    -0.128 C  
BRANCH   5   6
HETATM    6  C   UNL     1      -8.731   8.472  65.202  1.00  0.00    -0.156 C  
BRANCH   6   7
HETATM    7  C   UNL     1      -8.776   9.079  63.788  1.00  0.00    -0.100 C  
BRANCH   7   8
HETATM    8  C   UNL     1      -8.369  10.550  63.703  1.00  0.00    -0.108 C  
BRANCH   8   9
HETATM    9  O   UNL     1      -9.323  11.259  62.914  1.00  0.00    -0.333 OA 
BRANCH   9  10
HETATM   10  C   UNL     1     -10.594  11.333  63.557  1.00  0.00    -0.369 C  
BRANCH  10  11
HETATM   11  C   UNL     1     -10.588  12.355  64.688  1.00  0.00    -0.308 C  
HETATM   12  O   UNL     1     -10.753  12.028  65.855  1.00  0.00    -0.257 OA 
HETATM   13  N   UNL     1     -10.316  13.672  64.287  1.00  0.00    -0.648 N  
HETATM   14  H   UNL     1     -10.072  13.854  63.314  1.00  0.00     0.000 HD 
BRANCH  13  15
HETATM   15  S   UNL     1     -10.380  14.943  65.356  1.00  0.00    -0.404 S  
HETATM   16  O   UNL     1      -9.203  14.934  66.182  1.00  0.00    -0.287 OA 
HETATM   17  C   UNL     1     -11.721  14.417  66.376  1.00  0.00    -0.386 C  
HETATM   18  O   UNL     1     -10.827  16.112  64.640  1.00  0.00    -0.650 OA 
ENDBRANCH  13  15
ENDBRANCH  10  11
ENDBRANCH   9  10
ENDBRANCH   8   9
ENDBRANCH   7   8
ENDBRANCH   6   7
ENDBRANCH   5   6
ENDBRANCH   4   5
BRANCH   4  19
HETATM   19  C   UNL     1      -8.636   6.635  67.692  1.00  0.00    -0.120 A  
HETATM   20  N   UNL     1      -7.176   6.993  69.619  1.00  0.00    -0.078 NA 
HETATM   21  N   UNL     1      -9.699   7.018  68.437  1.00  0.00    -0.138 NA 
HETATM   22  C   UNL     1      -8.269   7.352  70.363  1.00  0.00    -0.121 A  
HETATM   23  C   UNL     1      -9.540   7.391  69.754  1.00  0.00    -0.163 A  
HETATM   24  C   UNL     1      -7.395   6.658  68.316  1.00  0.00    -0.090 A  
BRANCH  23  25
HETATM   25  C   UNL     1     -10.822   7.753  70.423  1.00  0.00    -0.248 A  
HETATM   26  C   UNL     1     -11.667   6.754  70.944  1.00  0.00    -0.424 A  
HETATM   27  C   UNL     1     -12.264   9.404  71.516  1.00  0.00    -0.448 A  
HETATM   28  C   UNL     1     -11.228   9.083  70.634  1.00  0.00    -0.318 A  
HETATM   29  C   UNL     1     -13.030   8.395  72.081  1.00  0.00    -0.370 A  
HETATM   30  C   UNL     1     -12.769   7.070  71.748  1.00  0.00    -0.378 A  
ENDBRANCH  23  25
BRANCH  22  31
HETATM   31  C   UNL     1      -7.958   7.623  71.805  1.00  0.00    -0.102 A  
HETATM   32  C   UNL     1      -8.588   7.492  74.180  1.00  0.00    -0.276 A  
HETATM   33  C   UNL     1      -6.461   8.426  73.582  1.00  0.00    -0.133 A  
HETATM   34  C   UNL     1      -6.798   8.305  72.227  1.00  0.00    -0.096 A  
HETATM   35  C   UNL     1      -8.868   7.265  72.826  1.00  0.00    -0.156 A  
HETATM   36  C   UNL     1      -7.356   8.013  74.560  1.00  0.00    -0.224 A  
ENDBRANCH  22  31
ENDBRANCH   4  19
ENDBRANCH   2   4
TORSDOF 12
ENDMDL
MODEL      185
REMARK 921   NORMALIZED FREE ENERGY PREDICTED BY IDOCK:   -4.70 KCAL/MOL
REMARK 922        TOTAL FREE ENERGY PREDICTED BY IDOCK:   -9.31 KCAL/MOL
REMARK 923 INTER-LIGAND FREE ENERGY PREDICTED BY IDOCK:   -8.30 KCAL/MOL
REMARK 924 INTRA-LIGAND FREE ENERGY PREDICTED BY IDOCK:   -1.01 KCAL/MOL
REMARK 927      BINDING AFFINITY PREDICTED BY RF-SCORE:    0.00 PKD
ROOT
HETATM    1  C   UNL     1     -13.454  10.135  72.193  1.00  0.00    -0.371 C  
HETATM    2  C   UNL     1     -12.698   8.820  71.991  1.00  0.00    -0.387 C  
HETATM    3  C   UNL     1     -13.640   7.772  71.396  1.00  0.00    -0.334 C  
ENDROOT
BRANCH   2   4
HETATM    4  N   UNL     1     -11.454   8.953  71.195  1.00  0.00    -0.284 NA 
BRANCH   4   5
HETATM    5  C   UNL     1     -10.208   8.262  71.568  1.00  0.00    -0.214 C  
BRANCH   5   6
HETATM    6  C   UNL     1     -10.332   6.734  71.497  1.00  0.00    -0.228 C  
BRANCH   6   7
HETATM    7  C   UNL     1     -10.848   6.212  70.144  1.00  0.00    -0.395 C  
BRANCH   7   8
HETATM    8  C   UNL     1      -9.762   5.720  69.186  1.00  0.00    -0.147 C  
BRANCH   8   9
HETATM    9  O   UNL     1      -8.652   5.235  69.938  1.00  0.00    -0.099 OA 
BRANCH   9  10
HETATM   10  C   UNL     1      -7.424   5.388  69.230  1.00  0.00    -0.073 C  
BRANCH  10  11
HETATM   11  C   UNL     1      -7.038   6.856  69.093  1.00  0.00    -0.084 C  
HETATM   12  O   UNL     1      -7.011   7.610  70.056  1.00  0.00    -0.049 OA 
HETATM   13  N   UNL     1      -6.659   7.244  67.798  1.00  0.00    -0.051 N  
HETATM   14  H   UNL     1      -6.593   6.536  67.068  1.00  0.00     0.000 HD 
BRANCH  13  15
HETATM   15  S   UNL     1      -6.317   8.827  67.424  1.00  0.00    -0.057 S  
HETATM   16  O   UNL     1      -5.653   9.449  68.538  1.00  0.00    -0.040 OA 
HETATM   17  C   UNL     1      -7.952   9.489  67.373  1.00  0.00    -0.106 C  
HETATM   18  O   UNL     1      -5.801   8.871  66.079  1.00  0.00    -0.049 OA 
ENDBRANCH  13  15
ENDBRANCH  10  11
ENDBRANCH   9  10
ENDBRANCH   8   9
ENDBRANCH   7   8
ENDBRANCH   6   7
ENDBRANCH   5   6
ENDBRANCH   4   5
BRANCH   4  19
HETATM   19  C   UNL     1     -11.511   9.837  70.112  1.00  0.00    -0.216 A  
HETATM   20  N   UNL     1     -11.510  10.270  67.705  1.00  0.00    -0.296 NA 
HETATM   21  N   UNL     1     -11.602  11.168  70.341  1.00  0.00    -0.300 NA 
HETATM   22  C   UNL     1     -11.576  11.614  67.962  1.00  0.00    -0.313 A  
HETATM   23  C   UNL     1     -11.651  12.063  69.296  1.00  0.00    -0.321 A  
HETATM   24  C   UNL     1     -11.489   9.434  68.782  1.00  0.00     0.454 A  
BRANCH  23  25
HETATM   25  C   UNL     1     -11.722  13.484  69.740  1.00  0.00    -0.363 A  
HETATM   26  C   UNL     1     -12.778  13.929  70.558  1.00  0.00    -0.318 A  
HETATM   27  C   UNL     1     -10.658  15.661  70.101  1.00  0.00    -0.348 A  
HETATM   28  C   UNL     1     -10.730  14.434  69.436  1.00  0.00    -0.184 A  
HETATM   29  C   UNL     1     -11.673  16.039  70.967  1.00  0.00    -0.458 A  
HETATM   30  C   UNL     1     -12.765  15.197  71.151  1.00  0.00    -0.452 A  
ENDBRANCH  23  25
BRANCH  22  31
HETATM   31  C   UNL     1     -11.508  12.469  66.731  1.00  0.00    -0.422 A  
HETATM   32  C   UNL     1     -12.398  14.316  65.370  1.00  0.00    -0.421 A  
HETATM   33  C   UNL     1     -10.431  13.159  64.632  1.00  0.00    -0.411 A  
HETATM   34  C   UNL     1     -10.563  12.267  65.704  1.00  0.00    -0.295 A  
HETATM   35  C   UNL     1     -12.455  13.493  66.504  1.00  0.00    -0.309 A  
HETATM   36  C   UNL     1     -11.348  14.189  64.468  1.00  0.00    -0.355 A  
ENDBRANCH  22  31
ENDBRANCH   4  19
ENDBRANCH   2   4
TORSDOF 12
ENDMDL
MODEL      186
REMARK 921   NORMALIZED FREE ENERGY PREDICTED BY IDOCK:   -4.70 KCAL/MOL
REMARK 922        TOTAL FREE ENERGY PREDICTED BY IDOCK:   -9.31 KCAL/MOL
REMARK 923 INTER-LIGAND FREE ENERGY PREDICTED BY IDOCK:   -7.49 KCAL/MOL
REMARK 924 INTRA-LIGAND FREE ENERGY PREDICTED BY IDOCK:   -1.82 KCAL/MOL
REMARK 927      BINDING AFFINITY PREDICTED BY RF-SCORE:    0.00 PKD
ROOT
HETATM    1  C   UNL     1     -12.073   7.845  71.563  1.00  0.00    -0.336 C  
HETATM    2  C   UNL     1     -11.290   9.157  71.488  1.00  0.00    -0.368 C  
HETATM    3  C   UNL     1      -9.788   8.862  71.498  1.00  0.00    -0.384 C  
ENDROOT
BRANCH   2   4
HETATM    4  N   UNL     1     -11.668  10.023  70.345  1.00  0.00    -0.279 NA 
BRANCH   4   5
HETATM    5  C   UNL     1     -12.864  10.883  70.378  1.00  0.00    -0.184 C  
BRANCH   5   6
HETATM    6  C   UNL     1     -12.847  11.880  71.543  1.00  0.00    -0.421 C  
BRANCH   6   7
HETATM    7  C   UNL     1     -12.345  13.284  71.158  1.00  0.00    -0.323 C  
BRANCH   7   8
HETATM    8  C   UNL     1     -12.053  13.479  69.670  1.00  0.00    -0.306 C  
BRANCH   8   9
HETATM    9  O   UNL     1     -12.273  14.844  69.320  1.00  0.00    -0.266 OA 
BRANCH   9  10
HETATM   10  C   UNL     1     -11.549  15.215  68.149  1.00  0.00    -0.341 C  
BRANCH  10  11
HETATM   11  C   UNL     1     -10.743  16.489  68.371  1.00  0.00    -0.339 C  
HETATM   12  O   UNL     1     -10.894  17.184  69.367  1.00  0.00    -0.215 OA 
HETATM   13  N   UNL     1      -9.782  16.755  67.384  1.00  0.00    -0.242 N  
HETATM   14  H   UNL     1      -9.630  16.072  66.643  1.00  0.00     0.000 HD 
BRANCH  13  15
HETATM   15  S   UNL     1      -8.885  18.155  67.389  1.00  0.00    -0.259 S  
HETATM   16  O   UNL     1      -9.689  19.240  66.893  1.00  0.00    -0.305 OA 
HETATM   17  C   UNL     1      -7.713  17.772  66.126  1.00  0.00    -0.245 C  
HETATM   18  O   UNL     1      -8.160  18.221  68.633  1.00  0.00    -0.306 OA 
ENDBRANCH  13  15
ENDBRANCH  10  11
ENDBRANCH   9  10
ENDBRANCH   8   9
ENDBRANCH   7   8
ENDBRANCH   6   7
ENDBRANCH   5   6
ENDBRANCH   4   5
BRANCH   4  19
HETATM   19  C   UNL     1     -10.867   9.916  69.203  1.00  0.00    -0.221 A  
HETATM   20  N   UNL     1     -10.221   8.762  67.147  1.00  0.00    -0.251 NA 
HETATM   21  N   UNL     1      -9.898  10.834  68.981  1.00  0.00    -0.203 NA 
HETATM   22  C   UNL     1      -9.230   9.688  66.956  1.00  0.00    -0.142 A  
HETATM   23  C   UNL     1      -9.087  10.751  67.871  1.00  0.00    -0.150 A  
HETATM   24  C   UNL     1     -11.006   8.913  68.252  1.00  0.00     0.121 A  
BRANCH  23  25
HETATM   25  C   UNL     1      -8.061  11.830  67.807  1.00  0.00    -0.143 A  
HETATM   26  C   UNL     1      -8.385  13.099  67.288  1.00  0.00    -0.182 A  
HETATM   27  C   UNL     1      -5.916  12.778  68.515  1.00  0.00    -0.062 A  
HETATM   28  C   UNL     1      -6.756  11.680  68.310  1.00  0.00    -0.064 A  
HETATM   29  C   UNL     1      -6.296  14.034  68.066  1.00  0.00    -0.146 A  
HETATM   30  C   UNL     1      -7.507  14.184  67.400  1.00  0.00    -0.155 A  
ENDBRANCH  23  25
BRANCH  22  31
HETATM   31  C   UNL     1      -8.358   9.405  65.768  1.00  0.00    -0.126 A  
HETATM   32  C   UNL     1      -8.010   9.415  63.332  1.00  0.00    -0.143 A  
HETATM   33  C   UNL     1      -6.231   8.687  64.767  1.00  0.00    -0.065 A  
HETATM   34  C   UNL     1      -7.081   8.816  65.873  1.00  0.00    -0.084 A  
HETATM   35  C   UNL     1      -8.815   9.654  64.454  1.00  0.00    -0.263 A  
HETATM   36  C   UNL     1      -6.695   8.993  63.494  1.00  0.00    -0.089 A  
ENDBRANCH  22  31
ENDBRANCH   4  19
ENDBRANCH   2   4
TORSDOF 12
ENDMDL
MODEL      187
REMARK 921   NORMALIZED FREE ENERGY PREDICTED BY IDOCK:   -4.67 KCAL/MOL
REMARK 922        TOTAL FREE ENERGY PREDICTED BY IDOCK:   -9.27 KCAL/MOL
REMARK 923 INTER-LIGAND FREE ENERGY PREDICTED BY IDOCK:   -7.30 KCAL/MOL
REMARK 924 INTRA-LIGAND FREE ENERGY PREDICTED BY IDOCK:   -1.97 KCAL/MOL
REMARK 927      BINDING AFFINITY PREDICTED BY RF-SCORE:    0.00 PKD
ROOT
HETATM    1  C   UNL     1      -9.875   4.430  71.293  1.00  0.00    -0.260 C  
HETATM    2  C   UNL     1      -9.372   5.698  71.988  1.00  0.00    -0.150 C  
HETATM    3  C   UNL     1      -8.961   5.368  73.425  1.00  0.00    -0.129 C  
ENDROOT
BRANCH   2   4
HETATM    4  N   UNL     1      -8.289   6.399  71.257  1.00  0.00    -0.122 NA 
BRANCH   4   5
HETATM    5  C   UNL     1      -6.866   6.091  71.483  1.00  0.00    -0.067 C  
BRANCH   5   6
HETATM    6  C   UNL     1      -6.352   4.962  70.581  1.00  0.00    -0.026 C  
BRANCH   6   7
HETATM    7  C   UNL     1      -6.309   3.584  71.267  1.00  0.00    -0.018 C  
BRANCH   7   8
HETATM    8  C   UNL     1      -6.817   2.422  70.414  1.00  0.00    -0.033 C  
BRANCH   8   9
HETATM    9  O   UNL     1      -7.142   2.899  69.110  1.00  0.00    -0.044 OA 
BRANCH   9  10
HETATM   10  C   UNL     1      -8.375   2.358  68.639  1.00  0.00    -0.057 C  
BRANCH  10  11
HETATM   11  C   UNL     1      -8.837   3.052  67.363  1.00  0.00    -0.139 C  
HETATM   12  O   UNL     1      -8.651   2.562  66.257  1.00  0.00    -0.099 OA 
HETATM   13  N   UNL     1      -9.541   4.249  67.567  1.00  0.00    -0.177 N  
HETATM   14  H   UNL     1      -9.761   4.538  68.520  1.00  0.00     0.000 HD 
BRANCH  13  15
HETATM   15  S   UNL     1     -10.024   5.208  66.299  1.00  0.00    -0.219 S  
HETATM   16  O   UNL     1      -8.875   5.857  65.725  1.00  0.00    -0.150 OA 
HETATM   17  C   UNL     1     -10.921   6.448  67.178  1.00  0.00    -0.399 C  
HETATM   18  O   UNL     1     -10.982   4.470  65.515  1.00  0.00    -0.247 OA 
ENDBRANCH  13  15
ENDBRANCH  10  11
ENDBRANCH   9  10
ENDBRANCH   8   9
ENDBRANCH   7   8
ENDBRANCH   6   7
ENDBRANCH   5   6
ENDBRANCH   4   5
BRANCH   4  19
HETATM   19  C   UNL     1      -8.695   7.427  70.398  1.00  0.00    -0.145 A  
HETATM   20  N   UNL     1      -8.421   8.729  68.348  1.00  0.00    -0.129 NA 
HETATM   21  N   UNL     1      -9.757   8.194  70.733  1.00  0.00    -0.169 NA 
HETATM   22  C   UNL     1      -9.483   9.510  68.719  1.00  0.00    -0.147 A  
HETATM   23  C   UNL     1     -10.175   9.219  69.913  1.00  0.00    -0.214 A  
HETATM   24  C   UNL     1      -8.071   7.716  69.191  1.00  0.00    -0.125 A  
BRANCH  23  25
HETATM   25  C   UNL     1     -11.341   9.972  70.456  1.00  0.00    -0.409 A  
HETATM   26  C   UNL     1     -12.202   9.379  71.400  1.00  0.00    -0.438 A  
HETATM   27  C   UNL     1     -12.514  12.084  70.860  1.00  0.00    -0.384 A  
HETATM   28  C   UNL     1     -11.612  11.312  70.124  1.00  0.00    -0.393 A  
HETATM   29  C   UNL     1     -13.292  11.490  71.842  1.00  0.00    -0.408 A  
HETATM   30  C   UNL     1     -13.178  10.124  72.073  1.00  0.00    -0.534 A  
ENDBRANCH  23  25
BRANCH  22  31
HETATM   31  C   UNL     1      -9.750  10.653  67.785  1.00  0.00    -0.179 A  
HETATM   32  C   UNL     1      -9.185  12.897  66.948  1.00  0.00    -0.234 A  
HETATM   33  C   UNL     1     -10.977  11.680  65.918  1.00  0.00    -0.334 A  
HETATM   34  C   UNL     1     -10.826  10.666  66.873  1.00  0.00    -0.267 A  
HETATM   35  C   UNL     1      -8.964  11.826  67.826  1.00  0.00    -0.173 A  
HETATM   36  C   UNL     1     -10.150  12.795  65.953  1.00  0.00    -0.286 A  
ENDBRANCH  22  31
ENDBRANCH   4  19
ENDBRANCH   2   4
TORSDOF 12
ENDMDL
MODEL      188
REMARK 921   NORMALIZED FREE ENERGY PREDICTED BY IDOCK:   -4.67 KCAL/MOL
REMARK 922        TOTAL FREE ENERGY PREDICTED BY IDOCK:   -9.26 KCAL/MOL
REMARK 923 INTER-LIGAND FREE ENERGY PREDICTED BY IDOCK:   -7.77 KCAL/MOL
REMARK 924 INTRA-LIGAND FREE ENERGY PREDICTED BY IDOCK:   -1.49 KCAL/MOL
REMARK 927      BINDING AFFINITY PREDICTED BY RF-SCORE:    0.00 PKD
ROOT
HETATM    1  C   UNL     1     -10.818   9.400  67.240  1.00  0.00    -0.165 C  
HETATM    2  C   UNL     1     -10.657  10.757  67.928  1.00  0.00    -0.221 C  
HETATM    3  C   UNL     1     -10.640  10.565  69.446  1.00  0.00    -0.269 C  
ENDROOT
BRANCH   2   4
HETATM    4  N   UNL     1      -9.485  11.537  67.463  1.00  0.00    -0.168 NA 
BRANCH   4   5
HETATM    5  C   UNL     1      -8.211  10.892  67.098  1.00  0.00    -0.126 C  
BRANCH   5   6
HETATM    6  C   UNL     1      -8.069  10.671  65.586  1.00  0.00    -0.146 C  
BRANCH   6   7
HETATM    7  C   UNL     1      -7.323   9.378  65.211  1.00  0.00    -0.096 C  
BRANCH   7   8
HETATM    8  C   UNL     1      -7.028   8.440  66.381  1.00  0.00    -0.074 C  
BRANCH   8   9
HETATM    9  O   UNL     1      -8.137   7.563  66.575  1.00  0.00    -0.113 OA 
BRANCH   9  10
HETATM   10  C   UNL     1      -7.800   6.460  67.414  1.00  0.00    -0.105 C  
BRANCH  10  11
HETATM   11  C   UNL     1      -8.986   6.027  68.268  1.00  0.00    -0.113 C  
HETATM   12  O   UNL     1      -9.580   4.976  68.065  1.00  0.00    -0.129 OA 
HETATM   13  N   UNL     1      -9.290   6.891  69.331  1.00  0.00    -0.146 N  
HETATM   14  H   UNL     1      -8.680   7.687  69.512  1.00  0.00     0.000 HD 
BRANCH  13  15
HETATM   15  S   UNL     1     -10.617   6.651  70.303  1.00  0.00    -0.237 S  
HETATM   16  O   UNL     1     -10.726   7.736  71.240  1.00  0.00    -0.225 OA 
HETATM   17  C   UNL     1     -10.075   5.242  71.218  1.00  0.00    -0.213 C  
HETATM   18  O   UNL     1     -11.712   6.219  69.472  1.00  0.00    -0.360 OA 
ENDBRANCH  13  15
ENDBRANCH  10  11
ENDBRANCH   9  10
ENDBRANCH   8   9
ENDBRANCH   7   8
ENDBRANCH   6   7
ENDBRANCH   5   6
ENDBRANCH   4   5
BRANCH   4  19
HETATM   19  C   UNL     1      -9.633  12.928  67.466  1.00  0.00    -0.200 A  
HETATM   20  N   UNL     1     -10.996  14.932  67.143  1.00  0.00    -0.315 NA 
HETATM   21  N   UNL     1      -8.572  13.711  67.770  1.00  0.00    -0.168 NA 
HETATM   22  C   UNL     1      -9.902  15.705  67.428  1.00  0.00    -0.225 A  
HETATM   23  C   UNL     1      -8.684  15.083  67.773  1.00  0.00    -0.164 A  
HETATM   24  C   UNL     1     -10.826  13.579  67.180  1.00  0.00    -0.284 A  
BRANCH  23  25
HETATM   25  C   UNL     1      -7.408  15.779  68.104  1.00  0.00    -0.130 A  
HETATM   26  C   UNL     1      -6.624  16.362  67.089  1.00  0.00    -0.234 A  
HETATM   27  C   UNL     1      -5.926  16.857  69.729  1.00  0.00    -0.232 A  
HETATM   28  C   UNL     1      -6.948  15.955  69.421  1.00  0.00    -0.211 A  
HETATM   29  C   UNL     1      -5.224  17.481  68.709  1.00  0.00    -0.154 A  
HETATM   30  C   UNL     1      -5.534  17.189  67.386  1.00  0.00    -0.158 A  
ENDBRANCH  23  25
BRANCH  22  31
HETATM   31  C   UNL     1     -10.146  17.178  67.283  1.00  0.00    -0.294 A  
HETATM   32  C   UNL     1     -10.627  19.126  65.859  1.00  0.00    -0.495 A  
HETATM   33  C   UNL     1     -10.455  19.424  68.233  1.00  0.00    -0.424 A  
HETATM   34  C   UNL     1     -10.090  18.077  68.367  1.00  0.00    -0.392 A  
HETATM   35  C   UNL     1     -10.377  17.755  66.014  1.00  0.00    -0.304 A  
HETATM   36  C   UNL     1     -10.730  19.947  66.977  1.00  0.00    -0.478 A  
ENDBRANCH  22  31
ENDBRANCH   4  19
ENDBRANCH   2   4
TORSDOF 12
ENDMDL
MODEL      189
REMARK 921   NORMALIZED FREE ENERGY PREDICTED BY IDOCK:   -4.65 KCAL/MOL
REMARK 922        TOTAL FREE ENERGY PREDICTED BY IDOCK:   -9.24 KCAL/MOL
REMARK 923 INTER-LIGAND FREE ENERGY PREDICTED BY IDOCK:   -7.97 KCAL/MOL
REMARK 924 INTRA-LIGAND FREE ENERGY PREDICTED BY IDOCK:   -1.27 KCAL/MOL
REMARK 927      BINDING AFFINITY PREDICTED BY RF-SCORE:    0.00 PKD
ROOT
HETATM    1  C   UNL     1     -13.192  12.206  71.804  1.00  0.00    -0.423 C  
HETATM    2  C   UNL     1     -12.831  10.761  71.454  1.00  0.00    -0.452 C  
HETATM    3  C   UNL     1     -14.109   9.955  71.216  1.00  0.00     0.260 C  
ENDROOT
BRANCH   2   4
HETATM    4  N   UNL     1     -11.883  10.631  70.321  1.00  0.00    -0.312 NA 
BRANCH   4   5
HETATM    5  C   UNL     1     -12.105  11.312  69.034  1.00  0.00    -0.257 C  
BRANCH   5   6
HETATM    6  C   UNL     1     -11.320  12.625  68.913  1.00  0.00    -0.345 C  
BRANCH   6   7
HETATM    7  C   UNL     1     -11.975  13.661  67.981  1.00  0.00    -0.385 C  
BRANCH   7   8
HETATM    8  C   UNL     1     -11.501  13.612  66.528  1.00  0.00    -0.335 C  
BRANCH   8   9
HETATM    9  O   UNL     1     -11.379  14.941  66.025  1.00  0.00    -0.342 OA 
BRANCH   9  10
HETATM   10  C   UNL     1     -10.149  15.135  65.331  1.00  0.00    -0.350 C  
BRANCH  10  11
HETATM   11  C   UNL     1      -9.406  16.363  65.843  1.00  0.00    -0.227 C  
HETATM   12  O   UNL     1      -9.926  17.471  65.865  1.00  0.00    -0.511 OA 
HETATM   13  N   UNL     1      -8.120  16.106  66.342  1.00  0.00    -0.297 N  
HETATM   14  H   UNL     1      -7.795  15.141  66.402  1.00  0.00     0.000 HD 
BRANCH  13  15
HETATM   15  S   UNL     1      -7.112  17.330  66.838  1.00  0.00    -0.223 S  
HETATM   16  O   UNL     1      -6.660  18.072  65.691  1.00  0.00    -0.264 OA 
HETATM   17  C   UNL     1      -5.735  16.383  67.405  1.00  0.00    -0.153 C  
HETATM   18  O   UNL     1      -7.699  17.957  67.996  1.00  0.00    -0.230 OA 
ENDBRANCH  13  15
ENDBRANCH  10  11
ENDBRANCH   9  10
ENDBRANCH   8   9
ENDBRANCH   7   8
ENDBRANCH   6   7
ENDBRANCH   5   6
ENDBRANCH   4   5
BRANCH   4  19
HETATM   19  C   UNL     1     -10.806   9.760  70.519  1.00  0.00    -0.323 A  
HETATM   20  N   UNL     1      -8.538   9.014  69.994  1.00  0.00    -0.137 NA 
HETATM   21  N   UNL     1     -10.920   8.753  71.416  1.00  0.00    -0.265 NA 
HETATM   22  C   UNL     1      -8.685   7.987  70.888  1.00  0.00    -0.138 A  
HETATM   23  C   UNL     1      -9.881   7.874  71.627  1.00  0.00    -0.167 A  
HETATM   24  C   UNL     1      -9.594   9.864  69.849  1.00  0.00    -0.227 A  
BRANCH  23  25
HETATM   25  C   UNL     1     -10.196   6.817  72.628  1.00  0.00    -0.208 A  
HETATM   26  C   UNL     1     -11.256   5.915  72.411  1.00  0.00    -0.340 A  
HETATM   27  C   UNL     1      -9.556   5.444  74.553  1.00  0.00    -0.173 A  
HETATM   28  C   UNL     1      -9.435   6.610  73.793  1.00  0.00    -0.198 A  
HETATM   29  C   UNL     1     -10.559   4.531  74.265  1.00  0.00    -0.316 A  
HETATM   30  C   UNL     1     -11.448   4.795  73.228  1.00  0.00    -0.361 A  
ENDBRANCH  23  25
BRANCH  22  31
HETATM   31  C   UNL     1      -7.515   7.047  70.929  1.00  0.00    -0.082 A  
HETATM   32  C   UNL     1      -6.501   4.883  70.345  1.00  0.00    -0.031 A  
HETATM   33  C   UNL     1      -5.191   6.511  71.521  1.00  0.00    -0.026 A  
HETATM   34  C   UNL     1      -6.316   7.341  71.610  1.00  0.00    -0.036 A  
HETATM   35  C   UNL     1      -7.589   5.767  70.335  1.00  0.00    -0.090 A  
HETATM   36  C   UNL     1      -5.283   5.282  70.881  1.00  0.00    -0.005 A  
ENDBRANCH  22  31
ENDBRANCH   4  19
ENDBRANCH   2   4
TORSDOF 12
ENDMDL
MODEL      190
REMARK 921   NORMALIZED FREE ENERGY PREDICTED BY IDOCK:   -4.65 KCAL/MOL
REMARK 922        TOTAL FREE ENERGY PREDICTED BY IDOCK:   -9.23 KCAL/MOL
REMARK 923 INTER-LIGAND FREE ENERGY PREDICTED BY IDOCK:   -8.92 KCAL/MOL
REMARK 924 INTRA-LIGAND FREE ENERGY PREDICTED BY IDOCK:   -0.31 KCAL/MOL
REMARK 927      BINDING AFFINITY PREDICTED BY RF-SCORE:    0.00 PKD
ROOT
HETATM    1  C   UNL     1      -8.381   7.444  70.546  1.00  0.00    -0.132 C  
HETATM    2  C   UNL     1      -9.689   7.029  71.222  1.00  0.00    -0.171 C  
HETATM    3  C   UNL     1      -9.711   7.548  72.661  1.00  0.00    -0.229 C  
ENDROOT
BRANCH   2   4
HETATM    4  N   UNL     1     -10.908   7.429  70.478  1.00  0.00    -0.238 NA 
BRANCH   4   5
HETATM    5  C   UNL     1     -11.629   6.494  69.597  1.00  0.00    -0.283 C  
BRANCH   5   6
HETATM    6  C   UNL     1     -10.694   5.724  68.656  1.00  0.00    -0.303 C  
BRANCH   6   7
HETATM    7  C   UNL     1     -10.484   6.403  67.290  1.00  0.00    -0.326 C  
BRANCH   7   8
HETATM    8  C   UNL     1      -9.183   6.033  66.578  1.00  0.00    -0.148 C  
BRANCH   8   9
HETATM    9  O   UNL     1      -9.136   4.620  66.384  1.00  0.00    -0.115 OA 
BRANCH   9  10
HETATM   10  C   UNL     1      -9.819   4.226  65.196  1.00  0.00    -0.200 C  
BRANCH  10  11
HETATM   11  C   UNL     1      -8.841   3.841  64.091  1.00  0.00    -0.110 C  
HETATM   12  O   UNL     1      -9.179   3.793  62.916  1.00  0.00    -0.098 OA 
HETATM   13  N   UNL     1      -7.526   3.615  64.525  1.00  0.00    -0.071 N  
HETATM   14  H   UNL     1      -7.289   3.787  65.502  1.00  0.00     0.000 HD 
BRANCH  13  15
HETATM   15  S   UNL     1      -6.343   3.075  63.490  1.00  0.00    -0.019 S  
HETATM   16  O   UNL     1      -6.855   1.979  62.709  1.00  0.00    -0.021 OA 
HETATM   17  C   UNL     1      -5.211   2.383  64.654  1.00  0.00    -0.008 C  
HETATM   18  O   UNL     1      -5.698   4.222  62.903  1.00  0.00    -0.012 OA 
ENDBRANCH  13  15
ENDBRANCH  10  11
ENDBRANCH   9  10
ENDBRANCH   8   9
ENDBRANCH   7   8
ENDBRANCH   6   7
ENDBRANCH   5   6
ENDBRANCH   4   5
BRANCH   4  19
HETATM   19  C   UNL     1     -11.289   8.770  70.600  1.00  0.00    -0.254 A  
HETATM   20  N   UNL     1     -12.426  10.566  71.807  1.00  0.00    -0.333 NA 
HETATM   21  N   UNL     1     -10.939   9.652  69.635  1.00  0.00    -0.239 NA 
HETATM   22  C   UNL     1     -12.084  11.436  70.806  1.00  0.00    -0.332 A  
HETATM   23  C   UNL     1     -11.307  10.976  69.722  1.00  0.00    -0.292 A  
HETATM   24  C   UNL     1     -12.012   9.274  71.674  1.00  0.00    -0.378 A  
BRANCH  23  25
HETATM   25  C   UNL     1     -10.858  11.791  68.558  1.00  0.00    -0.261 A  
HETATM   26  C   UNL     1     -11.775  12.195  67.568  1.00  0.00    -0.385 A  
HETATM   27  C   UNL     1      -9.212  13.255  67.488  1.00  0.00    -0.213 A  
HETATM   28  C   UNL     1      -9.539  12.257  68.409  1.00  0.00    -0.183 A  
HETATM   29  C   UNL     1     -10.160  13.694  66.576  1.00  0.00    -0.286 A  
HETATM   30  C   UNL     1     -11.427  13.121  66.578  1.00  0.00    -0.378 A  
ENDBRANCH  23  25
BRANCH  22  31
HETATM   31  C   UNL     1     -12.647  12.815  70.982  1.00  0.00    -0.362 A  
HETATM   32  C   UNL     1     -14.097  14.383  72.206  1.00  0.00    -0.609 A  
HETATM   33  C   UNL     1     -12.784  15.192  70.369  1.00  0.00    -0.378 A  
HETATM   34  C   UNL     1     -12.357  13.883  70.108  1.00  0.00    -0.400 A  
HETATM   35  C   UNL     1     -13.573  13.097  72.012  1.00  0.00    -0.554 A  
HETATM   36  C   UNL     1     -13.651  15.442  71.424  1.00  0.00    -0.604 A  
ENDBRANCH  22  31
ENDBRANCH   4  19
ENDBRANCH   2   4
TORSDOF 12
ENDMDL
MODEL      191
REMARK 921   NORMALIZED FREE ENERGY PREDICTED BY IDOCK:   -4.63 KCAL/MOL
REMARK 922        TOTAL FREE ENERGY PREDICTED BY IDOCK:   -9.20 KCAL/MOL
REMARK 923 INTER-LIGAND FREE ENERGY PREDICTED BY IDOCK:   -7.81 KCAL/MOL
REMARK 924 INTRA-LIGAND FREE ENERGY PREDICTED BY IDOCK:   -1.38 KCAL/MOL
REMARK 927      BINDING AFFINITY PREDICTED BY RF-SCORE:    0.00 PKD
ROOT
HETATM    1  C   UNL     1      -9.954  11.208  64.672  1.00  0.00    -0.345 C  
HETATM    2  C   UNL     1      -9.792  11.625  66.135  1.00  0.00    -0.223 C  
HETATM    3  C   UNL     1     -11.135  11.502  66.857  1.00  0.00    -0.366 C  
ENDROOT
BRANCH   2   4
HETATM    4  N   UNL     1      -8.716  10.901  66.855  1.00  0.00    -0.141 NA 
BRANCH   4   5
HETATM    5  C   UNL     1      -7.290  11.114  66.550  1.00  0.00    -0.129 C  
BRANCH   5   6
HETATM    6  C   UNL     1      -6.443  11.349  67.807  1.00  0.00    -0.065 C  
BRANCH   6   7
HETATM    7  C   UNL     1      -6.681  12.716  68.474  1.00  0.00    -0.089 C  
BRANCH   7   8
HETATM    8  C   UNL     1      -5.992  13.897  67.790  1.00  0.00    -0.108 C  
BRANCH   8   9
HETATM    9  O   UNL     1      -6.553  15.116  68.272  1.00  0.00    -0.096 OA 
BRANCH   9  10
HETATM   10  C   UNL     1      -6.588  16.121  67.261  1.00  0.00    -0.196 C  
BRANCH  10  11
HETATM   11  C   UNL     1      -8.003  16.642  67.041  1.00  0.00    -0.196 C  
HETATM   12  O   UNL     1      -8.374  17.718  67.490  1.00  0.00    -0.222 OA 
HETATM   13  N   UNL     1      -8.811  15.823  66.236  1.00  0.00    -0.330 N  
HETATM   14  H   UNL     1      -8.401  14.999  65.799  1.00  0.00     0.000 HD 
BRANCH  13  15
HETATM   15  S   UNL     1     -10.417  16.162  65.976  1.00  0.00    -0.323 S  
HETATM   16  O   UNL     1     -11.156  15.932  67.189  1.00  0.00    -0.270 OA 
HETATM   17  C   UNL     1     -10.832  14.849  64.872  1.00  0.00    -0.413 C  
HETATM   18  O   UNL     1     -10.504  17.389  65.225  1.00  0.00    -0.654 OA 
ENDBRANCH  13  15
ENDBRANCH  10  11
ENDBRANCH   9  10
ENDBRANCH   8   9
ENDBRANCH   7   8
ENDBRANCH   6   7
ENDBRANCH   5   6
ENDBRANCH   4   5
BRANCH   4  19
HETATM   19  C   UNL     1      -9.137   9.945  67.787  1.00  0.00    -0.131 A  
HETATM   20  N   UNL     1      -9.852   9.332  70.043  1.00  0.00    -0.191 NA 
HETATM   21  N   UNL     1      -9.243   8.650  67.411  1.00  0.00    -0.135 NA 
HETATM   22  C   UNL     1      -9.927   8.023  69.647  1.00  0.00    -0.188 A  
HETATM   23  C   UNL     1      -9.646   7.685  68.307  1.00  0.00    -0.153 A  
HETATM   24  C   UNL     1      -9.471  10.243  69.102  1.00  0.00    -0.215 A  
BRANCH  23  25
HETATM   25  C   UNL     1      -9.677   6.314  67.723  1.00  0.00    -0.122 A  
HETATM   26  C   UNL     1     -10.709   5.931  66.845  1.00  0.00    -0.395 A  
HETATM   27  C   UNL     1      -8.559   4.207  67.168  1.00  0.00    -0.105 A  
HETATM   28  C   UNL     1      -8.669   5.360  67.951  1.00  0.00    -0.106 A  
HETATM   29  C   UNL     1      -9.550   3.895  66.250  1.00  0.00    -0.198 A  
HETATM   30  C   UNL     1     -10.657   4.729  66.130  1.00  0.00    -0.282 A  
ENDBRANCH  23  25
BRANCH  22  31
HETATM   31  C   UNL     1     -10.270   7.073  70.757  1.00  0.00    -0.208 A  
HETATM   32  C   UNL     1     -11.956   5.865  72.081  1.00  0.00    -0.191 A  
HETATM   33  C   UNL     1      -9.629   5.509  72.541  1.00  0.00    -0.167 A  
HETATM   34  C   UNL     1      -9.300   6.495  71.602  1.00  0.00    -0.147 A  
HETATM   35  C   UNL     1     -11.615   6.764  71.061  1.00  0.00    -0.388 A  
HETATM   36  C   UNL     1     -10.959   5.189  72.776  1.00  0.00    -0.327 A  
ENDBRANCH  22  31
ENDBRANCH   4  19
ENDBRANCH   2   4
TORSDOF 12
ENDMDL
MODEL      192
REMARK 921   NORMALIZED FREE ENERGY PREDICTED BY IDOCK:   -4.62 KCAL/MOL
REMARK 922        TOTAL FREE ENERGY PREDICTED BY IDOCK:   -9.18 KCAL/MOL
REMARK 923 INTER-LIGAND FREE ENERGY PREDICTED BY IDOCK:   -7.93 KCAL/MOL
REMARK 924 INTRA-LIGAND FREE ENERGY PREDICTED BY IDOCK:   -1.25 KCAL/MOL
REMARK 927      BINDING AFFINITY PREDICTED BY RF-SCORE:    0.00 PKD
ROOT
HETATM    1  C   UNL     1     -13.155  11.166  71.878  1.00  0.00    -0.513 C  
HETATM    2  C   UNL     1     -12.741   9.695  71.955  1.00  0.00    -0.411 C  
HETATM    3  C   UNL     1     -13.854   8.817  71.378  1.00  0.00    -0.318 C  
ENDROOT
BRANCH   2   4
HETATM    4  N   UNL     1     -11.431   9.400  71.325  1.00  0.00    -0.332 NA 
BRANCH   4   5
HETATM    5  C   UNL     1     -10.375   8.653  72.030  1.00  0.00    -0.346 C  
BRANCH   5   6
HETATM    6  C   UNL     1     -10.932   7.694  73.090  1.00  0.00    -0.411 C  
BRANCH   6   7
HETATM    7  C   UNL     1     -10.815   6.207  72.710  1.00  0.00    -0.282 C  
BRANCH   7   8
HETATM    8  C   UNL     1     -11.502   5.819  71.400  1.00  0.00    -0.025 C  
BRANCH   8   9
HETATM    9  O   UNL     1     -10.634   4.980  70.641  1.00  0.00    -0.200 OA 
BRANCH   9  10
HETATM   10  C   UNL     1     -10.099   5.658  69.506  1.00  0.00    -0.225 C  
BRANCH  10  11
HETATM   11  C   UNL     1      -8.593   5.453  69.392  1.00  0.00    -0.099 C  
HETATM   12  O   UNL     1      -8.107   4.665  68.592  1.00  0.00    -0.082 OA 
HETATM   13  N   UNL     1      -7.823   6.281  70.224  1.00  0.00    -0.101 N  
HETATM   14  H   UNL     1      -8.290   6.996  70.780  1.00  0.00     0.000 HD 
BRANCH  13  15
HETATM   15  S   UNL     1      -6.172   6.126  70.327  1.00  0.00    -0.032 S  
HETATM   16  O   UNL     1      -5.846   4.842  70.890  1.00  0.00    -0.015 OA 
HETATM   17  C   UNL     1      -5.829   7.328  71.573  1.00  0.00    -0.036 C  
HETATM   18  O   UNL     1      -5.595   6.613  69.100  1.00  0.00    -0.016 OA 
ENDBRANCH  13  15
ENDBRANCH  10  11
ENDBRANCH   9  10
ENDBRANCH   8   9
ENDBRANCH   7   8
ENDBRANCH   6   7
ENDBRANCH   5   6
ENDBRANCH   4   5
BRANCH   4  19
HETATM   19  C   UNL     1     -11.228   9.942  70.051  1.00  0.00    -0.276 A  
HETATM   20  N   UNL     1     -12.000  11.257  68.141  1.00  0.00    -0.641 NA 
HETATM   21  N   UNL     1     -10.067   9.696  69.401  1.00  0.00    -0.190 NA 
HETATM   22  C   UNL     1     -10.828  10.974  67.491  1.00  0.00    -0.263 A  
HETATM   23  C   UNL     1      -9.840  10.207  68.142  1.00  0.00    -0.144 A  
HETATM   24  C   UNL     1     -12.154  10.741  69.394  1.00  0.00    -0.244 A  
BRANCH  23  25
HETATM   25  C   UNL     1      -8.522   9.810  67.573  1.00  0.00    -0.122 A  
HETATM   26  C   UNL     1      -8.262   8.469  67.229  1.00  0.00    -0.108 A  
HETATM   27  C   UNL     1      -6.408  10.394  66.482  1.00  0.00    -0.083 A  
HETATM   28  C   UNL     1      -7.501  10.734  67.283  1.00  0.00    -0.101 A  
HETATM   29  C   UNL     1      -6.220   9.078  66.089  1.00  0.00    -0.063 A  
HETATM   30  C   UNL     1      -7.117   8.103  66.512  1.00  0.00    -0.076 A  
ENDBRANCH  23  25
BRANCH  22  31
HETATM   31  C   UNL     1     -10.771  11.504  66.088  1.00  0.00    -0.324 A  
HETATM   32  C   UNL     1     -10.969  13.382  64.511  1.00  0.00    -0.404 A  
HETATM   33  C   UNL     1     -10.342  11.220  63.684  1.00  0.00    -0.464 A  
HETATM   34  C   UNL     1     -10.527  10.685  64.966  1.00  0.00    -0.278 A  
HETATM   35  C   UNL     1     -11.036  12.864  65.812  1.00  0.00    -0.312 A  
HETATM   36  C   UNL     1     -10.558  12.573  63.458  1.00  0.00    -0.394 A  
ENDBRANCH  22  31
ENDBRANCH   4  19
ENDBRANCH   2   4
TORSDOF 12
ENDMDL
MODEL      193
REMARK 921   NORMALIZED FREE ENERGY PREDICTED BY IDOCK:   -4.61 KCAL/MOL
REMARK 922        TOTAL FREE ENERGY PREDICTED BY IDOCK:   -9.17 KCAL/MOL
REMARK 923 INTER-LIGAND FREE ENERGY PREDICTED BY IDOCK:   -8.00 KCAL/MOL
REMARK 924 INTRA-LIGAND FREE ENERGY PREDICTED BY IDOCK:   -1.17 KCAL/MOL
REMARK 927      BINDING AFFINITY PREDICTED BY RF-SCORE:    0.00 PKD
ROOT
HETATM    1  C   UNL     1      -8.580   6.134  65.822  1.00  0.00    -0.153 C  
HETATM    2  C   UNL     1      -8.055   7.493  65.352  1.00  0.00    -0.133 C  
HETATM    3  C   UNL     1      -8.457   7.723  63.894  1.00  0.00     0.226 C  
ENDROOT
BRANCH   2   4
HETATM    4  N   UNL     1      -8.458   8.629  66.217  1.00  0.00    -0.120 NA 
BRANCH   4   5
HETATM    5  C   UNL     1      -8.878   9.926  65.658  1.00  0.00    -0.158 C  
BRANCH   5   6
HETATM    6  C   UNL     1     -10.401  10.051  65.526  1.00  0.00    -0.146 C  
BRANCH   6   7
HETATM    7  C   UNL     1     -10.926  11.489  65.689  1.00  0.00    -0.296 C  
BRANCH   7   8
HETATM    8  C   UNL     1     -11.065  12.277  64.387  1.00  0.00    -0.330 C  
BRANCH   8   9
HETATM    9  O   UNL     1     -10.368  13.516  64.508  1.00  0.00    -0.423 OA 
BRANCH   9  10
HETATM   10  C   UNL     1     -10.688  14.188  65.725  1.00  0.00    -0.299 C  
BRANCH  10  11
HETATM   11  C   UNL     1     -10.219  15.638  65.702  1.00  0.00    -0.375 C  
HETATM   12  O   UNL     1     -10.340  16.341  64.707  1.00  0.00    -0.527 OA 
HETATM   13  N   UNL     1      -9.706  16.108  66.920  1.00  0.00    -0.230 N  
HETATM   14  H   UNL     1      -9.744  15.504  67.740  1.00  0.00     0.000 HD 
BRANCH  13  15
HETATM   15  S   UNL     1      -9.039  17.624  67.063  1.00  0.00    -0.256 S  
HETATM   16  O   UNL     1      -8.076  17.823  66.013  1.00  0.00    -0.484 OA 
HETATM   17  C   UNL     1      -8.126  17.417  68.558  1.00  0.00    -0.270 C  
HETATM   18  O   UNL     1     -10.100  18.559  67.341  1.00  0.00    -0.320 OA 
ENDBRANCH  13  15
ENDBRANCH  10  11
ENDBRANCH   9  10
ENDBRANCH   8   9
ENDBRANCH   7   8
ENDBRANCH   6   7
ENDBRANCH   5   6
ENDBRANCH   4   5
BRANCH   4  19
HETATM   19  C   UNL     1      -8.340   8.422  67.595  1.00  0.00    -0.130 A  
HETATM   20  N   UNL     1      -6.980   8.025  69.587  1.00  0.00    -0.048 NA 
HETATM   21  N   UNL     1      -9.455   8.382  68.360  1.00  0.00    -0.139 NA 
HETATM   22  C   UNL     1      -8.123   7.962  70.338  1.00  0.00    -0.114 A  
HETATM   23  C   UNL     1      -9.373   8.172  69.719  1.00  0.00    -0.159 A  
HETATM   24  C   UNL     1      -7.127   8.260  68.252  1.00  0.00    -0.081 A  
BRANCH  23  25
HETATM   25  C   UNL     1     -10.702   8.132  70.392  1.00  0.00    -0.234 A  
HETATM   26  C   UNL     1     -11.314   6.901  70.701  1.00  0.00    -0.366 A  
HETATM   27  C   UNL     1     -12.464   9.221  71.698  1.00  0.00    -0.448 A  
HETATM   28  C   UNL     1     -11.384   9.287  70.814  1.00  0.00    -0.349 A  
HETATM   29  C   UNL     1     -12.996   7.990  72.051  1.00  0.00    -0.302 A  
HETATM   30  C   UNL     1     -12.457   6.830  71.506  1.00  0.00    -0.390 A  
ENDBRANCH  23  25
BRANCH  22  31
HETATM   31  C   UNL     1      -7.884   7.617  71.778  1.00  0.00    -0.092 A  
HETATM   32  C   UNL     1      -8.406   7.940  74.161  1.00  0.00    -0.312 A  
HETATM   33  C   UNL     1      -6.784   6.289  73.531  1.00  0.00    -0.075 A  
HETATM   34  C   UNL     1      -6.898   6.699  72.195  1.00  0.00    -0.067 A  
HETATM   35  C   UNL     1      -8.601   8.262  72.811  1.00  0.00    -0.270 A  
HETATM   36  C   UNL     1      -7.544   6.908  74.514  1.00  0.00    -0.126 A  
ENDBRANCH  22  31
ENDBRANCH   4  19
ENDBRANCH   2   4
TORSDOF 12
ENDMDL
MODEL      194
REMARK 921   NORMALIZED FREE ENERGY PREDICTED BY IDOCK:   -4.61 KCAL/MOL
REMARK 922        TOTAL FREE ENERGY PREDICTED BY IDOCK:   -9.17 KCAL/MOL
REMARK 923 INTER-LIGAND FREE ENERGY PREDICTED BY IDOCK:   -8.48 KCAL/MOL
REMARK 924 INTRA-LIGAND FREE ENERGY PREDICTED BY IDOCK:   -0.69 KCAL/MOL
REMARK 927      BINDING AFFINITY PREDICTED BY RF-SCORE:    0.00 PKD
ROOT
HETATM    1  C   UNL     1     -13.479   9.227  72.483  1.00  0.00    -0.471 C  
HETATM    2  C   UNL     1     -12.352   8.372  71.900  1.00  0.00    -0.347 C  
HETATM    3  C   UNL     1     -12.939   7.109  71.267  1.00  0.00    -0.378 C  
ENDROOT
BRANCH   2   4
HETATM    4  N   UNL     1     -11.469   9.097  70.955  1.00  0.00    -0.282 NA 
BRANCH   4   5
HETATM    5  C   UNL     1     -11.575  10.552  70.744  1.00  0.00    -0.338 C  
BRANCH   5   6
HETATM    6  C   UNL     1     -12.139  10.913  69.364  1.00  0.00    -0.362 C  
BRANCH   6   7
HETATM    7  C   UNL     1     -11.906  12.379  68.958  1.00  0.00    -0.349 C  
BRANCH   7   8
HETATM    8  C   UNL     1     -12.173  13.405  70.060  1.00  0.00    -0.298 C  
BRANCH   8   9
HETATM    9  O   UNL     1     -11.132  14.379  70.061  1.00  0.00    -0.192 OA 
BRANCH   9  10
HETATM   10  C   UNL     1     -11.562  15.616  69.495  1.00  0.00    -0.357 C  
BRANCH  10  11
HETATM   11  C   UNL     1     -10.693  16.019  68.310  1.00  0.00    -0.298 C  
HETATM   12  O   UNL     1      -9.771  16.816  68.425  1.00  0.00    -0.231 OA 
HETATM   13  N   UNL     1     -10.995  15.358  67.109  1.00  0.00    -0.326 N  
HETATM   14  H   UNL     1     -11.699  14.621  67.113  1.00  0.00     0.000 HD 
BRANCH  13  15
HETATM   15  S   UNL     1     -10.236  15.745  65.682  1.00  0.00    -0.388 S  
HETATM   16  O   UNL     1     -10.787  16.970  65.164  1.00  0.00    -0.617 OA 
HETATM   17  C   UNL     1     -10.837  14.443  64.653  1.00  0.00    -0.346 C  
HETATM   18  O   UNL     1      -8.821  15.532  65.851  1.00  0.00    -0.254 OA 
ENDBRANCH  13  15
ENDBRANCH  10  11
ENDBRANCH   9  10
ENDBRANCH   8   9
ENDBRANCH   7   8
ENDBRANCH   6   7
ENDBRANCH   5   6
ENDBRANCH   4   5
BRANCH   4  19
HETATM   19  C   UNL     1     -10.582   8.308  70.215  1.00  0.00    -0.227 A  
HETATM   20  N   UNL     1      -9.164   6.329  69.988  1.00  0.00    -0.151 NA 
HETATM   21  N   UNL     1     -10.203   8.709  68.980  1.00  0.00    -0.204 NA 
HETATM   22  C   UNL     1      -8.775   6.768  68.750  1.00  0.00    -0.125 A  
HETATM   23  C   UNL     1      -9.324   7.959  68.232  1.00  0.00    -0.143 A  
HETATM   24  C   UNL     1     -10.055   7.105  70.669  1.00  0.00    -0.191 A  
BRANCH  23  25
HETATM   25  C   UNL     1      -9.001   8.570  66.911  1.00  0.00    -0.166 A  
HETATM   26  C   UNL     1      -9.993   9.239  66.168  1.00  0.00    -0.348 A  
HETATM   27  C   UNL     1      -7.365   9.406  65.291  1.00  0.00    -0.096 A  
HETATM   28  C   UNL     1      -7.705   8.579  66.366  1.00  0.00    -0.098 A  
HETATM   29  C   UNL     1      -8.352  10.119  64.628  1.00  0.00    -0.167 A  
HETATM   30  C   UNL     1      -9.677   9.990  65.030  1.00  0.00    -0.386 A  
ENDBRANCH  23  25
BRANCH  22  31
HETATM   31  C   UNL     1      -7.731   5.906  68.103  1.00  0.00    -0.100 A  
HETATM   32  C   UNL     1      -7.123   4.134  66.508  1.00  0.00    -0.064 A  
HETATM   33  C   UNL     1      -5.392   5.240  67.747  1.00  0.00    -0.011 A  
HETATM   34  C   UNL     1      -6.367   5.953  68.457  1.00  0.00    -0.040 A  
HETATM   35  C   UNL     1      -8.084   4.935  67.139  1.00  0.00    -0.107 A  
HETATM   36  C   UNL     1      -5.771   4.333  66.766  1.00  0.00    -0.022 A  
ENDBRANCH  22  31
ENDBRANCH   4  19
ENDBRANCH   2   4
TORSDOF 12
ENDMDL
MODEL      195
REMARK 921   NORMALIZED FREE ENERGY PREDICTED BY IDOCK:   -4.61 KCAL/MOL
REMARK 922        TOTAL FREE ENERGY PREDICTED BY IDOCK:   -9.16 KCAL/MOL
REMARK 923 INTER-LIGAND FREE ENERGY PREDICTED BY IDOCK:   -7.45 KCAL/MOL
REMARK 924 INTRA-LIGAND FREE ENERGY PREDICTED BY IDOCK:   -1.71 KCAL/MOL
REMARK 927      BINDING AFFINITY PREDICTED BY RF-SCORE:    0.00 PKD
ROOT
HETATM    1  C   UNL     1     -12.400   9.866  71.324  1.00  0.00    -0.478 C  
HETATM    2  C   UNL     1     -12.205   8.516  72.019  1.00  0.00    -0.366 C  
HETATM    3  C   UNL     1     -13.294   7.542  71.564  1.00  0.00    -0.409 C  
ENDROOT
BRANCH   2   4
HETATM    4  N   UNL     1     -10.850   7.938  71.850  1.00  0.00    -0.232 NA 
BRANCH   4   5
HETATM    5  C   UNL     1      -9.759   8.211  72.803  1.00  0.00    -0.281 C  
BRANCH   5   6
HETATM    6  C   UNL     1      -8.417   7.618  72.355  1.00  0.00    -0.151 C  
BRANCH   6   7
HETATM    7  C   UNL     1      -7.306   8.665  72.158  1.00  0.00    -0.061 C  
BRANCH   7   8
HETATM    8  C   UNL     1      -7.104   9.128  70.715  1.00  0.00    -0.102 C  
BRANCH   8   9
HETATM    9  O   UNL     1      -8.151  10.028  70.357  1.00  0.00    -0.187 OA 
BRANCH   9  10
HETATM   10  C   UNL     1      -7.876  10.699  69.129  1.00  0.00    -0.142 C  
BRANCH  10  11
HETATM   11  C   UNL     1      -9.064  11.540  68.675  1.00  0.00    -0.120 C  
HETATM   12  O   UNL     1     -10.208  11.290  69.033  1.00  0.00    -0.205 OA 
HETATM   13  N   UNL     1      -8.731  12.645  67.877  1.00  0.00    -0.172 N  
HETATM   14  H   UNL     1      -7.747  12.860  67.714  1.00  0.00     0.000 HD 
BRANCH  13  15
HETATM   15  S   UNL     1      -9.894  13.612  67.190  1.00  0.00    -0.248 S  
HETATM   16  O   UNL     1      -9.284  14.475  66.213  1.00  0.00    -0.268 OA 
HETATM   17  C   UNL     1     -10.307  14.625  68.575  1.00  0.00    -0.238 C  
HETATM   18  O   UNL     1     -11.048  12.797  66.904  1.00  0.00    -0.254 OA 
ENDBRANCH  13  15
ENDBRANCH  10  11
ENDBRANCH   9  10
ENDBRANCH   8   9
ENDBRANCH   7   8
ENDBRANCH   6   7
ENDBRANCH   5   6
ENDBRANCH   4   5
BRANCH   4  19
HETATM   19  C   UNL     1     -10.645   7.182  70.691  1.00  0.00    -0.225 A  
HETATM   20  N   UNL     1     -10.606   5.037  69.519  1.00  0.00    -0.078 NA 
HETATM   21  N   UNL     1     -10.253   7.801  69.553  1.00  0.00    -0.202 NA 
HETATM   22  C   UNL     1     -10.185   5.681  68.385  1.00  0.00    -0.191 A  
HETATM   23  C   UNL     1     -10.035   7.083  68.398  1.00  0.00    -0.154 A  
HETATM   24  C   UNL     1     -10.828   5.807  70.622  1.00  0.00    -0.267 A  
BRANCH  23  25
HETATM   25  C   UNL     1      -9.583   7.927  67.256  1.00  0.00    -0.205 A  
HETATM   26  C   UNL     1     -10.466   8.833  66.639  1.00  0.00    -0.240 A  
HETATM   27  C   UNL     1      -7.787   8.922  65.920  1.00  0.00    -0.102 A  
HETATM   28  C   UNL     1      -8.261   7.923  66.775  1.00  0.00    -0.116 A  
HETATM   29  C   UNL     1      -8.666   9.854  65.390  1.00  0.00    -0.175 A  
HETATM   30  C   UNL     1     -10.019   9.775  65.704  1.00  0.00    -0.352 A  
ENDBRANCH  23  25
BRANCH  22  31
HETATM   31  C   UNL     1      -9.881   4.758  67.242  1.00  0.00    -0.218 A  
HETATM   32  C   UNL     1     -10.191   4.108  64.889  1.00  0.00    -0.218 A  
HETATM   33  C   UNL     1      -8.678   2.851  66.262  1.00  0.00    -0.134 A  
HETATM   34  C   UNL     1      -9.058   3.620  67.370  1.00  0.00    -0.186 A  
HETATM   35  C   UNL     1     -10.476   4.948  65.975  1.00  0.00    -0.327 A  
HETATM   36  C   UNL     1      -9.242   3.101  65.018  1.00  0.00    -0.149 A  
ENDBRANCH  22  31
ENDBRANCH   4  19
ENDBRANCH   2   4
TORSDOF 12
ENDMDL
MODEL      196
REMARK 921   NORMALIZED FREE ENERGY PREDICTED BY IDOCK:   -4.60 KCAL/MOL
REMARK 922        TOTAL FREE ENERGY PREDICTED BY IDOCK:   -9.14 KCAL/MOL
REMARK 923 INTER-LIGAND FREE ENERGY PREDICTED BY IDOCK:   -7.70 KCAL/MOL
REMARK 924 INTRA-LIGAND FREE ENERGY PREDICTED BY IDOCK:   -1.44 KCAL/MOL
REMARK 927      BINDING AFFINITY PREDICTED BY RF-SCORE:    0.00 PKD
ROOT
HETATM    1  C   UNL     1     -10.748  10.088  67.131  1.00  0.00    -0.279 C  
HETATM    2  C   UNL     1     -10.717  11.005  68.355  1.00  0.00    -0.203 C  
HETATM    3  C   UNL     1     -10.961  10.182  69.622  1.00  0.00    -0.305 C  
ENDROOT
BRANCH   2   4
HETATM    4  N   UNL     1      -9.488  11.827  68.466  1.00  0.00    -0.190 NA 
BRANCH   4   5
HETATM    5  C   UNL     1      -8.203  11.256  68.907  1.00  0.00    -0.079 C  
BRANCH   5   6
HETATM    6  C   UNL     1      -7.846   9.958  68.172  1.00  0.00    -0.085 C  
BRANCH   6   7
HETATM    7  C   UNL     1      -7.460   8.796  69.106  1.00  0.00    -0.076 C  
BRANCH   7   8
HETATM    8  C   UNL     1      -6.893   9.219  70.462  1.00  0.00    -0.087 C  
BRANCH   8   9
HETATM    9  O   UNL     1      -7.898   9.066  71.462  1.00  0.00    -0.290 OA 
BRANCH   9  10
HETATM   10  C   UNL     1      -7.527   8.100  72.444  1.00  0.00    -0.116 C  
BRANCH  10  11
HETATM   11  C   UNL     1      -8.641   7.087  72.679  1.00  0.00    -0.119 C  
HETATM   12  O   UNL     1      -8.745   6.472  73.732  1.00  0.00    -0.122 OA 
HETATM   13  N   UNL     1      -9.561   6.971  71.625  1.00  0.00    -0.157 N  
HETATM   14  H   UNL     1      -9.480   7.599  70.826  1.00  0.00     0.000 HD 
BRANCH  13  15
HETATM   15  S   UNL     1     -10.776   5.838  71.645  1.00  0.00    -0.252 S  
HETATM   16  O   UNL     1     -10.202   4.519  71.618  1.00  0.00    -0.193 OA 
HETATM   17  C   UNL     1     -11.481   6.118  70.051  1.00  0.00    -0.299 C  
HETATM   18  O   UNL     1     -11.758   6.246  72.618  1.00  0.00    -0.228 OA 
ENDBRANCH  13  15
ENDBRANCH  10  11
ENDBRANCH   9  10
ENDBRANCH   8   9
ENDBRANCH   7   8
ENDBRANCH   6   7
ENDBRANCH   5   6
ENDBRANCH   4   5
BRANCH   4  19
HETATM   19  C   UNL     1      -9.637  13.193  68.203  1.00  0.00    -0.227 A  
HETATM   20  N   UNL     1     -11.016  15.106  67.561  1.00  0.00    -0.302 NA 
HETATM   21  N   UNL     1      -8.562  14.009  68.292  1.00  0.00    -0.175 NA 
HETATM   22  C   UNL     1      -9.909  15.910  67.632  1.00  0.00    -0.233 A  
HETATM   23  C   UNL     1      -8.674  15.357  68.030  1.00  0.00    -0.160 A  
HETATM   24  C   UNL     1     -10.844  13.786  67.855  1.00  0.00    -0.244 A  
BRANCH  23  25
HETATM   25  C   UNL     1      -7.384  16.092  68.151  1.00  0.00    -0.133 A  
HETATM   26  C   UNL     1      -6.650  16.448  67.003  1.00  0.00    -0.225 A  
HETATM   27  C   UNL     1      -5.824  17.462  69.451  1.00  0.00    -0.224 A  
HETATM   28  C   UNL     1      -6.861  16.527  69.382  1.00  0.00    -0.220 A  
HETATM   29  C   UNL     1      -5.172  17.859  68.293  1.00  0.00    -0.155 A  
HETATM   30  C   UNL     1      -5.547  17.307  67.073  1.00  0.00    -0.196 A  
ENDBRANCH  23  25
BRANCH  22  31
HETATM   31  C   UNL     1     -10.162  17.327  67.212  1.00  0.00    -0.320 A  
HETATM   32  C   UNL     1     -10.213  19.730  67.744  1.00  0.00    -0.571 A  
HETATM   33  C   UNL     1     -10.739  19.012  65.517  1.00  0.00    -0.105 A  
HETATM   34  C   UNL     1     -10.640  17.677  65.932  1.00  0.00    -0.203 A  
HETATM   35  C   UNL     1     -10.000  18.396  68.122  1.00  0.00    -0.388 A  
HETATM   36  C   UNL     1     -10.519  20.040  66.424  1.00  0.00    -0.534 A  
ENDBRANCH  22  31
ENDBRANCH   4  19
ENDBRANCH   2   4
TORSDOF 12
ENDMDL
MODEL      197
REMARK 921   NORMALIZED FREE ENERGY PREDICTED BY IDOCK:   -4.59 KCAL/MOL
REMARK 922        TOTAL FREE ENERGY PREDICTED BY IDOCK:   -9.12 KCAL/MOL
REMARK 923 INTER-LIGAND FREE ENERGY PREDICTED BY IDOCK:   -8.21 KCAL/MOL
REMARK 924 INTRA-LIGAND FREE ENERGY PREDICTED BY IDOCK:   -0.91 KCAL/MOL
REMARK 927      BINDING AFFINITY PREDICTED BY RF-SCORE:    0.00 PKD
ROOT
HETATM    1  C   UNL     1      -7.778   8.919  68.078  1.00  0.00    -0.101 C  
HETATM    2  C   UNL     1      -8.716   7.909  68.742  1.00  0.00    -0.128 C  
HETATM    3  C   UNL     1      -8.394   7.811  70.234  1.00  0.00    -0.127 C  
ENDROOT
BRANCH   2   4
HETATM    4  N   UNL     1     -10.157   8.177  68.511  1.00  0.00    -0.195 NA 
BRANCH   4   5
HETATM    5  C   UNL     1     -11.004   7.269  67.717  1.00  0.00    -0.070 C  
BRANCH   5   6
HETATM    6  C   UNL     1     -10.389   5.873  67.556  1.00  0.00    -0.269 C  
BRANCH   6   7
HETATM    7  C   UNL     1     -10.550   5.278  66.145  1.00  0.00    -0.251 C  
BRANCH   7   8
HETATM    8  C   UNL     1      -9.526   4.205  65.776  1.00  0.00    -0.177 C  
BRANCH   8   9
HETATM    9  O   UNL     1      -9.465   3.232  66.818  1.00  0.00    -0.180 OA 
BRANCH   9  10
HETATM   10  C   UNL     1      -8.258   2.474  66.765  1.00  0.00    -0.085 C  
BRANCH  10  11
HETATM   11  C   UNL     1      -7.538   2.478  68.109  1.00  0.00    -0.055 C  
HETATM   12  O   UNL     1      -6.443   1.952  68.257  1.00  0.00    -0.028 OA 
HETATM   13  N   UNL     1      -8.198   3.184  69.126  1.00  0.00    -0.058 N  
HETATM   14  H   UNL     1      -9.050   3.697  68.901  1.00  0.00     0.000 HD 
BRANCH  13  15
HETATM   15  S   UNL     1      -7.630   3.205  70.688  1.00  0.00    -0.040 S  
HETATM   16  O   UNL     1      -7.965   1.965  71.336  1.00  0.00    -0.040 OA 
HETATM   17  C   UNL     1      -8.683   4.440  71.380  1.00  0.00    -0.112 C  
HETATM   18  O   UNL     1      -6.294   3.747  70.675  1.00  0.00    -0.025 OA 
ENDBRANCH  13  15
ENDBRANCH  10  11
ENDBRANCH   9  10
ENDBRANCH   8   9
ENDBRANCH   7   8
ENDBRANCH   6   7
ENDBRANCH   5   6
ENDBRANCH   4   5
BRANCH   4  19
HETATM   19  C   UNL     1     -10.646   9.383  69.023  1.00  0.00    -0.213 A  
HETATM   20  N   UNL     1     -11.596  10.698  70.852  1.00  0.00    -0.293 NA 
HETATM   21  N   UNL     1     -10.700  10.474  68.224  1.00  0.00    -0.212 NA 
HETATM   22  C   UNL     1     -11.665  11.782  70.018  1.00  0.00    -0.305 A  
HETATM   23  C   UNL     1     -11.185  11.673  68.696  1.00  0.00    -0.250 A  
HETATM   24  C   UNL     1     -11.083   9.547  70.332  1.00  0.00    -0.277 A  
BRANCH  23  25
HETATM   25  C   UNL     1     -11.195  12.752  67.668  1.00  0.00    -0.323 A  
HETATM   26  C   UNL     1      -9.989  13.299  67.190  1.00  0.00    -0.238 A  
HETATM   27  C   UNL     1     -12.347  14.015  65.914  1.00  0.00    -0.515 A  
HETATM   28  C   UNL     1     -12.374  13.234  67.073  1.00  0.00    -0.190 A  
HETATM   29  C   UNL     1     -11.136  14.474  65.417  1.00  0.00    -0.345 A  
HETATM   30  C   UNL     1      -9.959  14.164  66.090  1.00  0.00    -0.328 A  
ENDBRANCH  23  25
BRANCH  22  31
HETATM   31  C   UNL     1     -12.317  12.983  70.638  1.00  0.00    -0.391 A  
HETATM   32  C   UNL     1     -12.489  15.425  70.881  1.00  0.00    -0.474 A  
HETATM   33  C   UNL     1     -14.025  14.019  72.070  1.00  0.00    -0.598 A  
HETATM   34  C   UNL     1     -13.338  12.889  71.606  1.00  0.00    -0.358 A  
HETATM   35  C   UNL     1     -11.880  14.290  70.327  1.00  0.00    -0.377 A  
HETATM   36  C   UNL     1     -13.603  15.289  71.701  1.00  0.00    -0.586 A  
ENDBRANCH  22  31
ENDBRANCH   4  19
ENDBRANCH   2   4
TORSDOF 12
ENDMDL
MODEL      198
REMARK 921   NORMALIZED FREE ENERGY PREDICTED BY IDOCK:   -4.58 KCAL/MOL
REMARK 922        TOTAL FREE ENERGY PREDICTED BY IDOCK:   -9.11 KCAL/MOL
REMARK 923 INTER-LIGAND FREE ENERGY PREDICTED BY IDOCK:   -7.69 KCAL/MOL
REMARK 924 INTRA-LIGAND FREE ENERGY PREDICTED BY IDOCK:   -1.42 KCAL/MOL
REMARK 927      BINDING AFFINITY PREDICTED BY RF-SCORE:    0.00 PKD
ROOT
HETATM    1  C   UNL     1     -11.043   9.801  70.425  1.00  0.00    -0.367 C  
HETATM    2  C   UNL     1     -10.217   9.116  71.516  1.00  0.00    -0.333 C  
HETATM    3  C   UNL     1     -11.099   8.133  72.288  1.00  0.00    -0.410 C  
ENDROOT
BRANCH   2   4
HETATM    4  N   UNL     1      -8.979   8.467  71.020  1.00  0.00    -0.163 NA 
BRANCH   4   5
HETATM    5  C   UNL     1      -7.667   8.704  71.647  1.00  0.00    -0.108 C  
BRANCH   5   6
HETATM    6  C   UNL     1      -6.609   9.185  70.646  1.00  0.00    -0.071 C  
BRANCH   6   7
HETATM    7  C   UNL     1      -6.779  10.652  70.213  1.00  0.00    -0.099 C  
BRANCH   7   8
HETATM    8  C   UNL     1      -6.908  10.869  68.705  1.00  0.00    -0.070 C  
BRANCH   8   9
HETATM    9  O   UNL     1      -8.162  11.487  68.422  1.00  0.00    -0.140 OA 
BRANCH   9  10
HETATM   10  C   UNL     1      -8.068  12.402  67.332  1.00  0.00    -0.177 C  
BRANCH  10  11
HETATM   11  C   UNL     1      -9.410  13.066  67.045  1.00  0.00    -0.236 C  
HETATM   12  O   UNL     1     -10.423  12.773  67.666  1.00  0.00    -0.216 OA 
HETATM   13  N   UNL     1      -9.368  14.074  66.069  1.00  0.00    -0.514 N  
HETATM   14  H   UNL     1      -8.468  14.347  65.677  1.00  0.00     0.000 HD 
BRANCH  13  15
HETATM   15  S   UNL     1     -10.747  14.834  65.536  1.00  0.00    -0.386 S  
HETATM   16  O   UNL     1     -11.724  14.847  66.592  1.00  0.00    -0.325 OA 
HETATM   17  C   UNL     1     -11.304  13.657  64.344  1.00  0.00    -0.374 C  
HETATM   18  O   UNL     1     -10.359  16.018  64.812  1.00  0.00    -0.510 OA 
ENDBRANCH  13  15
ENDBRANCH  10  11
ENDBRANCH   9  10
ENDBRANCH   8   9
ENDBRANCH   7   8
ENDBRANCH   6   7
ENDBRANCH   5   6
ENDBRANCH   4   5
BRANCH   4  19
HETATM   19  C   UNL     1      -9.117   7.678  69.873  1.00  0.00    -0.147 A  
HETATM   20  N   UNL     1      -9.335   5.494  68.797  1.00  0.00    -0.122 NA 
HETATM   21  N   UNL     1      -9.153   8.271  68.657  1.00  0.00    -0.140 NA 
HETATM   22  C   UNL     1      -9.343   6.113  67.575  1.00  0.00    -0.113 A  
HETATM   23  C   UNL     1      -9.279   7.521  67.509  1.00  0.00    -0.128 A  
HETATM   24  C   UNL     1      -9.232   6.294  69.896  1.00  0.00    -0.151 A  
BRANCH  23  25
HETATM   25  C   UNL     1      -9.272   8.340  66.265  1.00  0.00    -0.258 A  
HETATM   26  C   UNL     1     -10.148   9.434  66.120  1.00  0.00    -0.324 A  
HETATM   27  C   UNL     1      -8.175   9.074  64.201  1.00  0.00    -0.166 A  
HETATM   28  C   UNL     1      -8.368   8.125  65.209  1.00  0.00    -0.160 A  
HETATM   29  C   UNL     1      -9.001  10.186  64.130  1.00  0.00    -0.267 A  
HETATM   30  C   UNL     1     -10.027  10.336  65.057  1.00  0.00    -0.393 A  
ENDBRANCH  23  25
BRANCH  22  31
HETATM   31  C   UNL     1      -9.372   5.163  66.414  1.00  0.00    -0.149 A  
HETATM   32  C   UNL     1      -8.202   3.624  64.891  1.00  0.00    -0.093 A  
HETATM   33  C   UNL     1     -10.574   3.908  64.676  1.00  0.00    -0.171 A  
HETATM   34  C   UNL     1     -10.537   4.898  65.666  1.00  0.00    -0.165 A  
HETATM   35  C   UNL     1      -8.192   4.530  65.962  1.00  0.00    -0.110 A  
HETATM   36  C   UNL     1      -9.404   3.265  64.292  1.00  0.00    -0.136 A  
ENDBRANCH  22  31
ENDBRANCH   4  19
ENDBRANCH   2   4
TORSDOF 12
ENDMDL
MODEL      199
REMARK 921   NORMALIZED FREE ENERGY PREDICTED BY IDOCK:   -4.58 KCAL/MOL
REMARK 922        TOTAL FREE ENERGY PREDICTED BY IDOCK:   -9.11 KCAL/MOL
REMARK 923 INTER-LIGAND FREE ENERGY PREDICTED BY IDOCK:   -7.71 KCAL/MOL
REMARK 924 INTRA-LIGAND FREE ENERGY PREDICTED BY IDOCK:   -1.40 KCAL/MOL
REMARK 927      BINDING AFFINITY PREDICTED BY RF-SCORE:    0.00 PKD
ROOT
HETATM    1  C   UNL     1     -11.167  14.964  71.444  1.00  0.00    -0.160 C  
HETATM    2  C   UNL     1     -11.994  14.688  70.187  1.00  0.00    -0.313 C  
HETATM    3  C   UNL     1     -13.435  15.153  70.407  1.00  0.00     0.020 C  
ENDROOT
BRANCH   2   4
HETATM    4  N   UNL     1     -11.419  15.259  68.945  1.00  0.00    -0.312 NA 
BRANCH   4   5
HETATM    5  C   UNL     1     -11.438  16.706  68.668  1.00  0.00    -0.046 C  
BRANCH   5   6
HETATM    6  C   UNL     1     -10.370  17.476  69.455  1.00  0.00    -0.067 C  
BRANCH   6   7
HETATM    7  C   UNL     1      -8.994  17.516  68.765  1.00  0.00    -0.211 C  
BRANCH   7   8
HETATM    8  C   UNL     1      -8.096  16.310  69.045  1.00  0.00    -0.236 C  
BRANCH   8   9
HETATM    9  O   UNL     1      -6.770  16.596  68.603  1.00  0.00    -0.149 OA 
BRANCH   9  10
HETATM   10  C   UNL     1      -6.569  16.211  67.244  1.00  0.00    -0.196 C  
BRANCH  10  11
HETATM   11  C   UNL     1      -7.027  17.301  66.282  1.00  0.00    -0.264 C  
HETATM   12  O   UNL     1      -8.031  17.176  65.594  1.00  0.00    -0.381 OA 
HETATM   13  N   UNL     1      -6.248  18.468  66.304  1.00  0.00    -0.174 N  
HETATM   14  H   UNL     1      -5.495  18.549  66.987  1.00  0.00     0.000 HD 
BRANCH  13  15
HETATM   15  S   UNL     1      -6.517  19.721  65.247  1.00  0.00    -0.287 S  
HETATM   16  O   UNL     1      -6.181  19.302  63.912  1.00  0.00    -0.390 OA 
HETATM   17  C   UNL     1      -5.250  20.836  65.763  1.00  0.00    -0.192 C  
HETATM   18  O   UNL     1      -7.779  20.332  65.583  1.00  0.00    -0.237 OA 
ENDBRANCH  13  15
ENDBRANCH  10  11
ENDBRANCH   9  10
ENDBRANCH   8   9
ENDBRANCH   7   8
ENDBRANCH   6   7
ENDBRANCH   5   6
ENDBRANCH   4   5
BRANCH   4  19
HETATM   19  C   UNL     1     -10.928  14.336  68.015  1.00  0.00    -0.249 A  
HETATM   20  N   UNL     1     -10.218  13.760  65.748  1.00  0.00    -0.303 NA 
HETATM   21  N   UNL     1     -10.676  13.066  68.407  1.00  0.00    -0.249 NA 
HETATM   22  C   UNL     1      -9.995  12.473  66.160  1.00  0.00    -0.255 A  
HETATM   23  C   UNL     1     -10.201  12.132  67.513  1.00  0.00    -0.199 A  
HETATM   24  C   UNL     1     -10.665  14.643  66.686  1.00  0.00    -0.305 A  
BRANCH  23  25
HETATM   25  C   UNL     1     -10.010  10.782  68.115  1.00  0.00    -0.176 A  
HETATM   26  C   UNL     1     -10.906   9.735  67.829  1.00  0.00    -0.306 A  
HETATM   27  C   UNL     1      -8.591   9.129  69.235  1.00  0.00    -0.137 A  
HETATM   28  C   UNL     1      -8.913  10.455  68.933  1.00  0.00    -0.170 A  
HETATM   29  C   UNL     1      -9.454   8.106  68.868  1.00  0.00    -0.151 A  
HETATM   30  C   UNL     1     -10.642   8.415  68.215  1.00  0.00    -0.163 A  
ENDBRANCH  23  25
BRANCH  22  31
HETATM   31  C   UNL     1      -9.587  11.545  65.055  1.00  0.00    -0.222 A  
HETATM   32  C   UNL     1      -8.204   9.679  64.241  1.00  0.00    -0.156 A  
HETATM   33  C   UNL     1      -9.818  10.670  62.769  1.00  0.00    -0.220 A  
HETATM   34  C   UNL     1     -10.109  11.630  63.747  1.00  0.00    -0.416 A  
HETATM   35  C   UNL     1      -8.586  10.569  65.256  1.00  0.00    -0.185 A  
HETATM   36  C   UNL     1      -8.867   9.689  63.019  1.00  0.00    -0.254 A  
ENDBRANCH  22  31
ENDBRANCH   4  19
ENDBRANCH   2   4
TORSDOF 12
ENDMDL
MODEL      200
REMARK 921   NORMALIZED FREE ENERGY PREDICTED BY IDOCK:   -4.57 KCAL/MOL
REMARK 922        TOTAL FREE ENERGY PREDICTED BY IDOCK:   -9.10 KCAL/MOL
REMARK 923 INTER-LIGAND FREE ENERGY PREDICTED BY IDOCK:   -8.05 KCAL/MOL
REMARK 924 INTRA-LIGAND FREE ENERGY PREDICTED BY IDOCK:   -1.05 KCAL/MOL
REMARK 927      BINDING AFFINITY PREDICTED BY RF-SCORE:    0.00 PKD
ROOT
HETATM    1  C   UNL     1     -11.302   9.266  71.752  1.00  0.00    -0.437 C  
HETATM    2  C   UNL     1     -10.308   8.140  71.459  1.00  0.00    -0.209 C  
HETATM    3  C   UNL     1     -11.069   6.861  71.102  1.00  0.00    -0.297 C  
ENDROOT
BRANCH   2   4
HETATM    4  N   UNL     1      -9.295   8.478  70.430  1.00  0.00    -0.160 NA 
BRANCH   4   5
HETATM    5  C   UNL     1      -7.870   8.145  70.595  1.00  0.00    -0.091 C  
BRANCH   5   6
HETATM    6  C   UNL     1      -6.938   9.233  70.048  1.00  0.00    -0.060 C  
BRANCH   6   7
HETATM    7  C   UNL     1      -5.923   8.722  69.009  1.00  0.00    -0.043 C  
BRANCH   7   8
HETATM    8  C   UNL     1      -6.305   7.410  68.323  1.00  0.00    -0.040 C  
BRANCH   8   9
HETATM    9  O   UNL     1      -6.226   7.576  66.909  1.00  0.00    -0.045 OA 
BRANCH   9  10
HETATM   10  C   UNL     1      -6.063   6.328  66.237  1.00  0.00    -0.033 C  
BRANCH  10  11
HETATM   11  C   UNL     1      -7.387   5.818  65.680  1.00  0.00    -0.076 C  
HETATM   12  O   UNL     1      -7.985   6.409  64.791  1.00  0.00    -0.113 OA 
HETATM   13  N   UNL     1      -7.818   4.596  66.220  1.00  0.00    -0.098 N  
HETATM   14  H   UNL     1      -7.212   4.101  66.872  1.00  0.00     0.000 HD 
BRANCH  13  15
HETATM   15  S   UNL     1      -9.292   3.937  65.825  1.00  0.00    -0.172 S  
HETATM   16  O   UNL     1      -9.460   3.963  64.396  1.00  0.00    -0.144 OA 
HETATM   17  C   UNL     1     -10.367   5.171  66.486  1.00  0.00    -0.291 C  
HETATM   18  O   UNL     1      -9.479   2.746  66.615  1.00  0.00    -0.077 OA 
ENDBRANCH  13  15
ENDBRANCH  10  11
ENDBRANCH   9  10
ENDBRANCH   8   9
ENDBRANCH   7   8
ENDBRANCH   6   7
ENDBRANCH   5   6
ENDBRANCH   4   5
BRANCH   4  19
HETATM   19  C   UNL     1      -9.760   9.204  69.327  1.00  0.00    -0.164 A  
HETATM   20  N   UNL     1     -10.384   9.337  66.967  1.00  0.00    -0.256 NA 
HETATM   21  N   UNL     1     -10.044  10.519  69.467  1.00  0.00    -0.210 NA 
HETATM   22  C   UNL     1     -10.641  10.674  67.126  1.00  0.00    -0.260 A  
HETATM   23  C   UNL     1     -10.494  11.262  68.399  1.00  0.00    -0.197 A  
HETATM   24  C   UNL     1      -9.964   8.652  68.069  1.00  0.00    -0.182 A  
BRANCH  23  25
HETATM   25  C   UNL     1     -10.728  12.696  68.733  1.00  0.00    -0.240 A  
HETATM   26  C   UNL     1     -11.901  13.096  69.401  1.00  0.00    -0.383 A  
HETATM   27  C   UNL     1      -9.887  14.974  69.056  1.00  0.00    -0.236 A  
HETATM   28  C   UNL     1      -9.786  13.708  68.473  1.00  0.00    -0.196 A  
HETATM   29  C   UNL     1     -11.020  15.314  69.779  1.00  0.00    -0.295 A  
HETATM   30  C   UNL     1     -12.055  14.394  69.903  1.00  0.00    -0.398 A  
ENDBRANCH  23  25
BRANCH  22  31
HETATM   31  C   UNL     1     -11.015  11.373  65.853  1.00  0.00    -0.268 A  
HETATM   32  C   UNL     1     -10.722  11.687  63.429  1.00  0.00    -0.460 A  
HETATM   33  C   UNL     1     -12.391  12.966  64.583  1.00  0.00    -0.501 A  
HETATM   34  C   UNL     1     -11.958  12.421  65.799  1.00  0.00    -0.437 A  
HETATM   35  C   UNL     1     -10.374  11.059  64.633  1.00  0.00    -0.410 A  
HETATM   36  C   UNL     1     -11.776  12.594  63.396  1.00  0.00    -0.571 A  
ENDBRANCH  22  31
ENDBRANCH   4  19
ENDBRANCH   2   4
TORSDOF 12
ENDMDL
MODEL      201
REMARK 921   NORMALIZED FREE ENERGY PREDICTED BY IDOCK:   -4.57 KCAL/MOL
REMARK 922        TOTAL FREE ENERGY PREDICTED BY IDOCK:   -9.10 KCAL/MOL
REMARK 923 INTER-LIGAND FREE ENERGY PREDICTED BY IDOCK:   -7.63 KCAL/MOL
REMARK 924 INTRA-LIGAND FREE ENERGY PREDICTED BY IDOCK:   -1.47 KCAL/MOL
REMARK 927      BINDING AFFINITY PREDICTED BY RF-SCORE:    0.00 PKD
ROOT
HETATM    1  C   UNL     1     -11.255  10.979  67.216  1.00  0.00    -0.330 C  
HETATM    2  C   UNL     1     -10.708  11.141  68.635  1.00  0.00    -0.198 C  
HETATM    3  C   UNL     1     -11.636  10.436  69.628  1.00  0.00    -0.307 C  
ENDROOT
BRANCH   2   4
HETATM    4  N   UNL     1      -9.301  10.701  68.796  1.00  0.00    -0.173 NA 
BRANCH   4   5
HETATM    5  C   UNL     1      -8.186  11.661  68.877  1.00  0.00     0.020 C  
BRANCH   5   6
HETATM    6  C   UNL     1      -7.765  12.200  67.504  1.00  0.00    -0.159 C  
BRANCH   6   7
HETATM    7  C   UNL     1      -7.512  13.719  67.479  1.00  0.00    -0.182 C  
BRANCH   7   8
HETATM    8  C   UNL     1      -8.736  14.582  67.786  1.00  0.00    -0.174 C  
BRANCH   8   9
HETATM    9  O   UNL     1      -9.784  14.258  66.874  1.00  0.00    -0.247 OA 
BRANCH   9  10
HETATM   10  C   UNL     1     -10.850  15.203  66.933  1.00  0.00    -0.317 C  
BRANCH  10  11
HETATM   11  C   UNL     1     -10.491  16.495  66.210  1.00  0.00    -0.281 C  
HETATM   12  O   UNL     1     -10.395  16.549  64.991  1.00  0.00    -0.622 OA 
HETATM   13  N   UNL     1     -10.348  17.614  67.045  1.00  0.00    -0.332 N  
HETATM   14  H   UNL     1     -10.558  17.522  68.038  1.00  0.00     0.000 HD 
BRANCH  13  15
HETATM   15  S   UNL     1      -9.846  19.086  66.458  1.00  0.00    -0.390 S  
HETATM   16  O   UNL     1      -8.482  18.983  66.013  1.00  0.00    -0.455 OA 
HETATM   17  C   UNL     1      -9.823  20.021  67.955  1.00  0.00    -0.394 C  
HETATM   18  O   UNL     1     -10.900  19.628  65.638  1.00  0.00    -0.473 OA 
ENDBRANCH  13  15
ENDBRANCH  10  11
ENDBRANCH   9  10
ENDBRANCH   8   9
ENDBRANCH   7   8
ENDBRANCH   6   7
ENDBRANCH   5   6
ENDBRANCH   4   5
BRANCH   4  19
HETATM   19  C   UNL     1      -9.085   9.319  68.786  1.00  0.00    -0.136 A  
HETATM   20  N   UNL     1      -8.500   7.257  67.610  1.00  0.00    -0.117 NA 
HETATM   21  N   UNL     1      -9.260   8.609  69.925  1.00  0.00    -0.152 NA 
HETATM   22  C   UNL     1      -8.707   6.555  68.768  1.00  0.00    -0.123 A  
HETATM   23  C   UNL     1      -9.064   7.246  69.945  1.00  0.00    -0.141 A  
HETATM   24  C   UNL     1      -8.686   8.607  67.662  1.00  0.00    -0.136 A  
BRANCH  23  25
HETATM   25  C   UNL     1      -9.329   6.631  71.276  1.00  0.00    -0.159 A  
HETATM   26  C   UNL     1     -10.613   6.157  71.605  1.00  0.00    -0.276 A  
HETATM   27  C   UNL     1      -8.523   5.588  73.341  1.00  0.00    -0.116 A  
HETATM   28  C   UNL     1      -8.325   6.427  72.240  1.00  0.00    -0.107 A  
HETATM   29  C   UNL     1      -9.783   5.067  73.596  1.00  0.00    -0.149 A  
HETATM   30  C   UNL     1     -10.843   5.399  72.759  1.00  0.00    -0.310 A  
ENDBRANCH  23  25
BRANCH  22  31
HETATM   31  C   UNL     1      -8.565   5.070  68.610  1.00  0.00    -0.097 A  
HETATM   32  C   UNL     1      -9.469   2.915  67.839  1.00  0.00    -0.203 A  
HETATM   33  C   UNL     1      -7.282   2.984  68.822  1.00  0.00    -0.049 A  
HETATM   34  C   UNL     1      -7.459   4.346  69.100  1.00  0.00    -0.055 A  
HETATM   35  C   UNL     1      -9.590   4.300  68.014  1.00  0.00    -0.204 A  
HETATM   36  C   UNL     1      -8.287   2.269  68.185  1.00  0.00    -0.081 A  
ENDBRANCH  22  31
ENDBRANCH   4  19
ENDBRANCH   2   4
TORSDOF 12
ENDMDL
MODEL      202
REMARK 921   NORMALIZED FREE ENERGY PREDICTED BY IDOCK:   -4.56 KCAL/MOL
REMARK 922        TOTAL FREE ENERGY PREDICTED BY IDOCK:   -9.07 KCAL/MOL
REMARK 923 INTER-LIGAND FREE ENERGY PREDICTED BY IDOCK:   -7.82 KCAL/MOL
REMARK 924 INTRA-LIGAND FREE ENERGY PREDICTED BY IDOCK:   -1.25 KCAL/MOL
REMARK 927      BINDING AFFINITY PREDICTED BY RF-SCORE:    0.00 PKD
ROOT
HETATM    1  C   UNL     1     -13.152  11.721  71.425  1.00  0.00    -0.322 C  
HETATM    2  C   UNL     1     -12.671  10.277  71.587  1.00  0.00    -0.456 C  
HETATM    3  C   UNL     1     -13.875   9.352  71.773  1.00  0.00    -0.357 C  
ENDROOT
BRANCH   2   4
HETATM    4  N   UNL     1     -11.785   9.808  70.494  1.00  0.00    -0.273 NA 
BRANCH   4   5
HETATM    5  C   UNL     1     -11.609  10.573  69.247  1.00  0.00    -0.236 C  
BRANCH   5   6
HETATM    6  C   UNL     1     -10.438  11.561  69.316  1.00  0.00    -0.066 C  
BRANCH   6   7
HETATM    7  C   UNL     1     -10.537  12.719  68.306  1.00  0.00    -0.251 C  
BRANCH   7   8
HETATM    8  C   UNL     1      -9.196  13.249  67.799  1.00  0.00    -0.209 C  
BRANCH   8   9
HETATM    9  O   UNL     1      -9.407  14.474  67.098  1.00  0.00    -0.202 OA 
BRANCH   9  10
HETATM   10  C   UNL     1     -10.368  15.300  67.752  1.00  0.00    -0.244 C  
BRANCH  10  11
HETATM   11  C   UNL     1      -9.789  16.670  68.086  1.00  0.00    -0.250 C  
HETATM   12  O   UNL     1      -9.148  16.869  69.109  1.00  0.00    -0.213 OA 
HETATM   13  N   UNL     1      -9.997  17.651  67.104  1.00  0.00    -0.304 N  
HETATM   14  H   UNL     1     -10.438  17.385  66.224  1.00  0.00     0.000 HD 
BRANCH  13  15
HETATM   15  S   UNL     1      -9.543  19.233  67.336  1.00  0.00    -0.325 S  
HETATM   16  O   UNL     1     -10.268  19.779  68.453  1.00  0.00    -0.436 OA 
HETATM   17  C   UNL     1     -10.226  19.963  65.881  1.00  0.00    -0.451 C  
HETATM   18  O   UNL     1      -8.109  19.313  67.216  1.00  0.00    -0.259 OA 
ENDBRANCH  13  15
ENDBRANCH  10  11
ENDBRANCH   9  10
ENDBRANCH   8   9
ENDBRANCH   7   8
ENDBRANCH   6   7
ENDBRANCH   5   6
ENDBRANCH   4   5
BRANCH   4  19
HETATM   19  C   UNL     1     -11.188   8.557  70.683  1.00  0.00    -0.252 A  
HETATM   20  N   UNL     1     -10.371   6.780  72.150  1.00  0.00    -0.198 NA 
HETATM   21  N   UNL     1     -10.786   7.841  69.607  1.00  0.00    -0.223 NA 
HETATM   22  C   UNL     1      -9.950   6.084  71.048  1.00  0.00    -0.187 A  
HETATM   23  C   UNL     1     -10.187   6.611  69.761  1.00  0.00    -0.187 A  
HETATM   24  C   UNL     1     -10.979   7.980  71.929  1.00  0.00    -0.263 A  
BRANCH  23  25
HETATM   25  C   UNL     1      -9.787   5.983  68.470  1.00  0.00    -0.156 A  
HETATM   26  C   UNL     1     -10.740   5.331  67.664  1.00  0.00    -0.038 A  
HETATM   27  C   UNL     1      -8.200   5.733  66.621  1.00  0.00    -0.106 A  
HETATM   28  C   UNL     1      -8.482   6.057  67.951  1.00  0.00    -0.115 A  
HETATM   29  C   UNL     1      -9.182   5.167  65.823  1.00  0.00    -0.162 A  
HETATM   30  C   UNL     1     -10.439   4.911  66.363  1.00  0.00    -0.325 A  
ENDBRANCH  23  25
BRANCH  22  31
HETATM   31  C   UNL     1      -9.216   4.817  71.375  1.00  0.00    -0.188 A  
HETATM   32  C   UNL     1      -9.242   2.403  71.851  1.00  0.00    -0.157 A  
HETATM   33  C   UNL     1      -7.141   3.556  71.757  1.00  0.00    -0.035 A  
HETATM   34  C   UNL     1      -7.823   4.768  71.588  1.00  0.00    -0.098 A  
HETATM   35  C   UNL     1      -9.911   3.601  71.563  1.00  0.00    -0.227 A  
HETATM   36  C   UNL     1      -7.853   2.370  71.883  1.00  0.00    -0.048 A  
ENDBRANCH  22  31
ENDBRANCH   4  19
ENDBRANCH   2   4
TORSDOF 12
ENDMDL
MODEL      203
REMARK 921   NORMALIZED FREE ENERGY PREDICTED BY IDOCK:   -4.55 KCAL/MOL
REMARK 922        TOTAL FREE ENERGY PREDICTED BY IDOCK:   -9.06 KCAL/MOL
REMARK 923 INTER-LIGAND FREE ENERGY PREDICTED BY IDOCK:   -8.55 KCAL/MOL
REMARK 924 INTRA-LIGAND FREE ENERGY PREDICTED BY IDOCK:   -0.51 KCAL/MOL
REMARK 927      BINDING AFFINITY PREDICTED BY RF-SCORE:    0.00 PKD
ROOT
HETATM    1  C   UNL     1      -8.094   7.979  70.404  1.00  0.00    -0.112 C  
HETATM    2  C   UNL     1      -9.162   7.091  71.047  1.00  0.00    -0.155 C  
HETATM    3  C   UNL     1      -9.083   7.213  72.570  1.00  0.00    -0.148 C  
ENDROOT
BRANCH   2   4
HETATM    4  N   UNL     1     -10.537   7.341  70.549  1.00  0.00    -0.218 NA 
BRANCH   4   5
HETATM    5  C   UNL     1     -11.340   6.286  69.907  1.00  0.00    -0.434 C  
BRANCH   5   6
HETATM    6  C   UNL     1     -10.662   5.697  68.663  1.00  0.00    -0.249 C  
BRANCH   6   7
HETATM    7  C   UNL     1     -11.149   6.310  67.337  1.00  0.00    -0.384 C  
BRANCH   7   8
HETATM    8  C   UNL     1     -10.433   5.798  66.088  1.00  0.00     0.034 C  
BRANCH   8   9
HETATM    9  O   UNL     1      -9.725   4.601  66.406  1.00  0.00    -0.162 OA 
BRANCH   9  10
HETATM   10  C   UNL     1      -8.601   4.406  65.551  1.00  0.00    -0.121 C  
BRANCH  10  11
HETATM   11  C   UNL     1      -8.056   5.732  65.034  1.00  0.00    -0.131 C  
HETATM   12  O   UNL     1      -8.049   6.008  63.842  1.00  0.00    -0.119 OA 
HETATM   13  N   UNL     1      -7.632   6.622  66.033  1.00  0.00    -0.084 N  
HETATM   14  H   UNL     1      -7.775   6.373  67.012  1.00  0.00     0.000 HD 
BRANCH  13  15
HETATM   15  S   UNL     1      -6.902   8.069  65.665  1.00  0.00    -0.056 S  
HETATM   16  O   UNL     1      -5.989   7.879  64.570  1.00  0.00    -0.047 OA 
HETATM   17  C   UNL     1      -5.919   8.293  67.114  1.00  0.00    -0.053 C  
HETATM   18  O   UNL     1      -7.911   9.099  65.676  1.00  0.00    -0.093 OA 
ENDBRANCH  13  15
ENDBRANCH  10  11
ENDBRANCH   9  10
ENDBRANCH   8   9
ENDBRANCH   7   8
ENDBRANCH   6   7
ENDBRANCH   5   6
ENDBRANCH   4   5
BRANCH   4  19
HETATM   19  C   UNL     1     -10.997   8.658  70.653  1.00  0.00    -0.240 A  
HETATM   20  N   UNL     1     -12.161  10.423  71.881  1.00  0.00    -0.126 NA 
HETATM   21  N   UNL     1     -10.780   9.522  69.635  1.00  0.00    -0.231 NA 
HETATM   22  C   UNL     1     -11.953  11.273  70.827  1.00  0.00    -0.279 A  
HETATM   23  C   UNL     1     -11.229  10.822  69.704  1.00  0.00    -0.291 A  
HETATM   24  C   UNL     1     -11.672   9.156  71.761  1.00  0.00    -0.386 A  
BRANCH  23  25
HETATM   25  C   UNL     1     -10.923  11.618  68.481  1.00  0.00    -0.264 A  
HETATM   26  C   UNL     1      -9.614  12.070  68.227  1.00  0.00    -0.204 A  
HETATM   27  C   UNL     1     -11.516  12.380  66.230  1.00  0.00    -0.423 A  
HETATM   28  C   UNL     1     -11.882  11.904  67.492  1.00  0.00    -0.249 A  
HETATM   29  C   UNL     1     -10.200  12.741  65.981  1.00  0.00    -0.290 A  
HETATM   30  C   UNL     1      -9.259  12.641  66.999  1.00  0.00    -0.212 A  
ENDBRANCH  23  25
BRANCH  22  31
HETATM   31  C   UNL     1     -12.594  12.619  70.999  1.00  0.00    -0.354 A  
HETATM   32  C   UNL     1     -12.781  14.986  70.355  1.00  0.00    -0.371 A  
HETATM   33  C   UNL     1     -14.259  14.107  72.026  1.00  0.00    -0.617 A  
HETATM   34  C   UNL     1     -13.577  12.884  71.974  1.00  0.00    -0.499 A  
HETATM   35  C   UNL     1     -12.182  13.726  70.223  1.00  0.00    -0.429 A  
HETATM   36  C   UNL     1     -13.863  15.158  71.210  1.00  0.00    -0.553 A  
ENDBRANCH  22  31
ENDBRANCH   4  19
ENDBRANCH   2   4
TORSDOF 12
ENDMDL
MODEL      204
REMARK 921   NORMALIZED FREE ENERGY PREDICTED BY IDOCK:   -4.55 KCAL/MOL
REMARK 922        TOTAL FREE ENERGY PREDICTED BY IDOCK:   -9.06 KCAL/MOL
REMARK 923 INTER-LIGAND FREE ENERGY PREDICTED BY IDOCK:   -7.80 KCAL/MOL
REMARK 924 INTRA-LIGAND FREE ENERGY PREDICTED BY IDOCK:   -1.26 KCAL/MOL
REMARK 927      BINDING AFFINITY PREDICTED BY RF-SCORE:    0.00 PKD
ROOT
HETATM    1  C   UNL     1     -11.477  15.093  71.973  1.00  0.00    -0.450 C  
HETATM    2  C   UNL     1     -12.454  14.525  70.942  1.00  0.00    -0.345 C  
HETATM    3  C   UNL     1     -13.660  15.458  70.807  1.00  0.00    -0.263 C  
ENDROOT
BRANCH   2   4
HETATM    4  N   UNL     1     -11.841  14.230  69.625  1.00  0.00    -0.298 NA 
BRANCH   4   5
HETATM    5  C   UNL     1     -11.620  15.278  68.613  1.00  0.00    -0.354 C  
BRANCH   5   6
HETATM    6  C   UNL     1     -10.392  16.146  68.914  1.00  0.00    -0.250 C  
BRANCH   6   7
HETATM    7  C   UNL     1      -9.077  15.590  68.338  1.00  0.00    -0.190 C  
BRANCH   7   8
HETATM    8  C   UNL     1      -7.913  15.529  69.326  1.00  0.00    -0.238 C  
BRANCH   8   9
HETATM    9  O   UNL     1      -7.067  16.661  69.130  1.00  0.00    -0.213 OA 
BRANCH   9  10
HETATM   10  C   UNL     1      -6.317  16.560  67.921  1.00  0.00    -0.137 C  
BRANCH  10  11
HETATM   11  C   UNL     1      -6.382  17.852  67.115  1.00  0.00    -0.160 C  
HETATM   12  O   UNL     1      -5.374  18.400  66.690  1.00  0.00    -0.135 OA 
HETATM   13  N   UNL     1      -7.680  18.316  66.852  1.00  0.00    -0.217 N  
HETATM   14  H   UNL     1      -8.477  17.747  67.137  1.00  0.00     0.000 HD 
BRANCH  13  15
HETATM   15  S   UNL     1      -7.954  19.766  66.089  1.00  0.00    -0.319 S  
HETATM   16  O   UNL     1      -7.101  19.869  64.936  1.00  0.00    -0.325 OA 
HETATM   17  C   UNL     1      -7.308  20.876  67.300  1.00  0.00    -0.321 C  
HETATM   18  O   UNL     1      -9.378  19.985  66.033  1.00  0.00    -0.383 OA 
ENDBRANCH  13  15
ENDBRANCH  10  11
ENDBRANCH   9  10
ENDBRANCH   8   9
ENDBRANCH   7   8
ENDBRANCH   6   7
ENDBRANCH   5   6
ENDBRANCH   4   5
BRANCH   4  19
HETATM   19  C   UNL     1     -11.557  12.885  69.368  1.00  0.00    -0.302 A  
HETATM   20  N   UNL     1     -12.156  10.517  69.474  1.00  0.00    -0.195 NA 
HETATM   21  N   UNL     1     -10.387  12.553  68.774  1.00  0.00    -0.169 NA 
HETATM   22  C   UNL     1     -10.955  10.202  68.895  1.00  0.00    -0.223 A  
HETATM   23  C   UNL     1     -10.075  11.237  68.516  1.00  0.00    -0.204 A  
HETATM   24  C   UNL     1     -12.417  11.839  69.681  1.00  0.00     0.044 A  
BRANCH  23  25
HETATM   25  C   UNL     1      -8.737  11.060  67.884  1.00  0.00    -0.133 A  
HETATM   26  C   UNL     1      -8.620  10.519  66.589  1.00  0.00    -0.133 A  
HETATM   27  C   UNL     1      -6.345  11.580  67.774  1.00  0.00    -0.063 A  
HETATM   28  C   UNL     1      -7.539  11.475  68.494  1.00  0.00    -0.130 A  
HETATM   29  C   UNL     1      -6.280  11.113  66.470  1.00  0.00    -0.139 A  
HETATM   30  C   UNL     1      -7.404  10.528  65.896  1.00  0.00    -0.142 A  
ENDBRANCH  23  25
BRANCH  22  31
HETATM   31  C   UNL     1     -10.707   8.727  68.779  1.00  0.00    -0.111 A  
HETATM   32  C   UNL     1     -10.190   6.565  69.835  1.00  0.00    -0.219 A  
HETATM   33  C   UNL     1     -10.586   6.649  67.471  1.00  0.00    -0.347 A  
HETATM   34  C   UNL     1     -10.684   8.045  67.545  1.00  0.00    -0.238 A  
HETATM   35  C   UNL     1     -10.407   7.948  69.919  1.00  0.00    -0.224 A  
HETATM   36  C   UNL     1     -10.345   5.908  68.620  1.00  0.00    -0.271 A  
ENDBRANCH  22  31
ENDBRANCH   4  19
ENDBRANCH   2   4
TORSDOF 12
ENDMDL
MODEL      205
REMARK 921   NORMALIZED FREE ENERGY PREDICTED BY IDOCK:   -4.52 KCAL/MOL
REMARK 922        TOTAL FREE ENERGY PREDICTED BY IDOCK:   -9.01 KCAL/MOL
REMARK 923 INTER-LIGAND FREE ENERGY PREDICTED BY IDOCK:   -7.60 KCAL/MOL
REMARK 924 INTRA-LIGAND FREE ENERGY PREDICTED BY IDOCK:   -1.41 KCAL/MOL
REMARK 927      BINDING AFFINITY PREDICTED BY RF-SCORE:    0.00 PKD
ROOT
HETATM    1  C   UNL     1     -12.911  11.564  71.575  1.00  0.00    -0.485 C  
HETATM    2  C   UNL     1     -12.141  10.244  71.654  1.00  0.00    -0.228 C  
HETATM    3  C   UNL     1     -12.961   9.217  72.438  1.00  0.00    -0.468 C  
ENDROOT
BRANCH   2   4
HETATM    4  N   UNL     1     -11.713   9.713  70.337  1.00  0.00    -0.237 NA 
BRANCH   4   5
HETATM    5  C   UNL     1     -11.886  10.480  69.091  1.00  0.00    -0.146 C  
BRANCH   5   6
HETATM    6  C   UNL     1     -10.658  11.330  68.742  1.00  0.00    -0.234 C  
BRANCH   6   7
HETATM    7  C   UNL     1     -10.938  12.438  67.710  1.00  0.00    -0.267 C  
BRANCH   7   8
HETATM    8  C   UNL     1      -9.717  12.907  66.919  1.00  0.00    -0.240 C  
BRANCH   8   9
HETATM    9  O   UNL     1      -9.991  14.180  66.338  1.00  0.00    -0.274 OA 
BRANCH   9  10
HETATM   10  C   UNL     1     -10.839  14.971  67.169  1.00  0.00    -0.314 C  
BRANCH  10  11
HETATM   11  C   UNL     1     -10.123  16.221  67.667  1.00  0.00    -0.260 C  
HETATM   12  O   UNL     1      -9.402  16.203  68.656  1.00  0.00    -0.204 OA 
HETATM   13  N   UNL     1     -10.306  17.360  66.868  1.00  0.00    -0.326 N  
HETATM   14  H   UNL     1     -10.824  17.274  65.994  1.00  0.00     0.000 HD 
BRANCH  13  15
HETATM   15  S   UNL     1      -9.703  18.845  67.308  1.00  0.00    -0.323 S  
HETATM   16  O   UNL     1     -10.391  19.312  68.482  1.00  0.00    -0.393 OA 
HETATM   17  C   UNL     1     -10.282  19.823  65.957  1.00  0.00    -0.501 C  
HETATM   18  O   UNL     1      -8.266  18.795  67.209  1.00  0.00    -0.258 OA 
ENDBRANCH  13  15
ENDBRANCH  10  11
ENDBRANCH   9  10
ENDBRANCH   8   9
ENDBRANCH   7   8
ENDBRANCH   6   7
ENDBRANCH   5   6
ENDBRANCH   4   5
BRANCH   4  19
HETATM   19  C   UNL     1     -11.208   8.408  70.337  1.00  0.00    -0.213 A  
HETATM   20  N   UNL     1     -11.431   6.032  69.808  1.00  0.00    -0.305 NA 
HETATM   21  N   UNL     1      -9.994   8.164  70.882  1.00  0.00    -0.186 NA 
HETATM   22  C   UNL     1     -10.211   5.803  70.388  1.00  0.00    -0.224 A  
HETATM   23  C   UNL     1      -9.474   6.889  70.905  1.00  0.00    -0.157 A  
HETATM   24  C   UNL     1     -11.880   7.319  69.795  1.00  0.00     0.276 A  
BRANCH  23  25
HETATM   25  C   UNL     1      -8.142   6.807  71.568  1.00  0.00    -0.110 A  
HETATM   26  C   UNL     1      -7.018   7.439  71.002  1.00  0.00    -0.059 A  
HETATM   27  C   UNL     1      -6.769   6.359  73.547  1.00  0.00    -0.074 A  
HETATM   28  C   UNL     1      -7.938   6.168  72.805  1.00  0.00    -0.106 A  
HETATM   29  C   UNL     1      -5.705   7.058  72.995  1.00  0.00    -0.045 A  
HETATM   30  C   UNL     1      -5.808   7.549  71.698  1.00  0.00    -0.036 A  
ENDBRANCH  23  25
BRANCH  22  31
HETATM   31  C   UNL     1      -9.827   4.354  70.439  1.00  0.00    -0.286 A  
HETATM   32  C   UNL     1      -8.928   2.349  69.331  1.00  0.00    -0.166 A  
HETATM   33  C   UNL     1      -9.528   2.236  71.651  1.00  0.00    -0.200 A  
HETATM   34  C   UNL     1     -10.018   3.547  71.579  1.00  0.00    -0.172 A  
HETATM   35  C   UNL     1      -9.311   3.697  69.299  1.00  0.00    -0.245 A  
HETATM   36  C   UNL     1      -8.977   1.639  70.525  1.00  0.00    -0.132 A  
ENDBRANCH  22  31
ENDBRANCH   4  19
ENDBRANCH   2   4
TORSDOF 12
ENDMDL
MODEL      206
REMARK 921   NORMALIZED FREE ENERGY PREDICTED BY IDOCK:   -4.49 KCAL/MOL
REMARK 922        TOTAL FREE ENERGY PREDICTED BY IDOCK:   -8.95 KCAL/MOL
REMARK 923 INTER-LIGAND FREE ENERGY PREDICTED BY IDOCK:   -8.14 KCAL/MOL
REMARK 924 INTRA-LIGAND FREE ENERGY PREDICTED BY IDOCK:   -0.81 KCAL/MOL
REMARK 927      BINDING AFFINITY PREDICTED BY RF-SCORE:    0.00 PKD
ROOT
HETATM    1  C   UNL     1      -9.623   8.577  66.110  1.00  0.00    -0.276 C  
HETATM    2  C   UNL     1      -9.316  10.051  65.834  1.00  0.00    -0.185 C  
HETATM    3  C   UNL     1     -10.565  10.743  65.285  1.00  0.00    -0.230 C  
ENDROOT
BRANCH   2   4
HETATM    4  N   UNL     1      -8.754  10.780  66.997  1.00  0.00    -0.134 NA 
BRANCH   4   5
HETATM    5  C   UNL     1      -7.311  10.785  67.295  1.00  0.00    -0.097 C  
BRANCH   5   6
HETATM    6  C   UNL     1      -7.011  11.041  68.777  1.00  0.00    -0.081 C  
BRANCH   6   7
HETATM    7  C   UNL     1      -6.448   9.817  69.522  1.00  0.00    -0.046 C  
BRANCH   7   8
HETATM    8  C   UNL     1      -6.509   8.503  68.743  1.00  0.00    -0.053 C  
BRANCH   8   9
HETATM    9  O   UNL     1      -7.735   7.836  69.038  1.00  0.00    -0.104 OA 
BRANCH   9  10
HETATM   10  C   UNL     1      -7.542   6.439  69.247  1.00  0.00    -0.099 C  
BRANCH  10  11
HETATM   11  C   UNL     1      -7.586   5.667  67.933  1.00  0.00    -0.085 C  
HETATM   12  O   UNL     1      -6.566   5.303  67.363  1.00  0.00    -0.050 OA 
HETATM   13  N   UNL     1      -8.876   5.359  67.475  1.00  0.00    -0.106 N  
HETATM   14  H   UNL     1      -9.678   5.592  68.061  1.00  0.00     0.000 HD 
BRANCH  13  15
HETATM   15  S   UNL     1      -9.133   4.626  66.006  1.00  0.00    -0.139 S  
HETATM   16  O   UNL     1     -10.548   4.523  65.764  1.00  0.00    -0.285 OA 
HETATM   17  C   UNL     1      -8.561   2.997  66.373  1.00  0.00    -0.118 C  
HETATM   18  O   UNL     1      -8.213   5.192  65.052  1.00  0.00    -0.117 OA 
ENDBRANCH  13  15
ENDBRANCH  10  11
ENDBRANCH   9  10
ENDBRANCH   8   9
ENDBRANCH   7   8
ENDBRANCH   6   7
ENDBRANCH   5   6
ENDBRANCH   4   5
BRANCH   4  19
HETATM   19  C   UNL     1      -9.684  11.398  67.841  1.00  0.00    -0.180 A  
HETATM   20  N   UNL     1     -10.883  13.386  68.605  1.00  0.00    -0.258 NA 
HETATM   21  N   UNL     1     -10.327  10.662  68.777  1.00  0.00    -0.182 NA 
HETATM   22  C   UNL     1     -11.503  12.627  69.562  1.00  0.00    -0.225 A  
HETATM   23  C   UNL     1     -11.240  11.243  69.628  1.00  0.00    -0.251 A  
HETATM   24  C   UNL     1     -10.007  12.747  67.778  1.00  0.00    -0.219 A  
BRANCH  23  25
HETATM   25  C   UNL     1     -11.826  10.285  70.608  1.00  0.00    -0.439 A  
HETATM   26  C   UNL     1     -13.210  10.025  70.618  1.00  0.00    -0.174 A  
HETATM   27  C   UNL     1     -11.570   8.449  72.209  1.00  0.00    -0.453 A  
HETATM   28  C   UNL     1     -11.049   9.546  71.518  1.00  0.00    -0.406 A  
HETATM   29  C   UNL     1     -12.926   8.166  72.135  1.00  0.00    -0.287 A  
HETATM   30  C   UNL     1     -13.758   8.989  71.385  1.00  0.00    -0.323 A  
ENDBRANCH  23  25
BRANCH  22  31
HETATM   31  C   UNL     1     -12.384  13.416  70.485  1.00  0.00    -0.401 A  
HETATM   32  C   UNL     1     -13.689  15.446  70.965  1.00  0.00    -0.420 A  
HETATM   33  C   UNL     1     -13.670  13.660  72.566  1.00  0.00    -0.663 A  
HETATM   34  C   UNL     1     -12.738  12.973  71.776  1.00  0.00    -0.260 A  
HETATM   35  C   UNL     1     -12.849  14.701  70.125  1.00  0.00    -0.180 A  
HETATM   36  C   UNL     1     -14.150  14.897  72.155  1.00  0.00    -0.616 A  
ENDBRANCH  22  31
ENDBRANCH   4  19
ENDBRANCH   2   4
TORSDOF 12
ENDMDL
MODEL      207
REMARK 921   NORMALIZED FREE ENERGY PREDICTED BY IDOCK:   -4.46 KCAL/MOL
REMARK 922        TOTAL FREE ENERGY PREDICTED BY IDOCK:   -8.91 KCAL/MOL
REMARK 923 INTER-LIGAND FREE ENERGY PREDICTED BY IDOCK:   -7.78 KCAL/MOL
REMARK 924 INTRA-LIGAND FREE ENERGY PREDICTED BY IDOCK:   -1.14 KCAL/MOL
REMARK 927      BINDING AFFINITY PREDICTED BY RF-SCORE:    0.00 PKD
ROOT
HETATM    1  C   UNL     1     -10.714  13.588  67.437  1.00  0.00    -0.269 C  
HETATM    2  C   UNL     1     -10.563  12.298  68.246  1.00  0.00    -0.227 C  
HETATM    3  C   UNL     1     -11.892  11.540  68.259  1.00  0.00    -0.327 C  
ENDROOT
BRANCH   2   4
HETATM    4  N   UNL     1      -9.444  11.432  67.801  1.00  0.00    -0.162 NA 
BRANCH   4   5
HETATM    5  C   UNL     1      -8.513  11.843  66.735  1.00  0.00    -0.167 C  
BRANCH   5   6
HETATM    6  C   UNL     1      -7.125  12.216  67.271  1.00  0.00    -0.144 C  
BRANCH   6   7
HETATM    7  C   UNL     1      -7.158  13.041  68.571  1.00  0.00    -0.105 C  
BRANCH   7   8
HETATM    8  C   UNL     1      -6.484  14.411  68.484  1.00  0.00    -0.094 C  
BRANCH   8   9
HETATM    9  O   UNL     1      -6.985  15.112  67.348  1.00  0.00    -0.187 OA 
BRANCH   9  10
HETATM   10  C   UNL     1      -6.666  16.501  67.399  1.00  0.00    -0.164 C  
BRANCH  10  11
HETATM   11  C   UNL     1      -7.693  17.337  66.644  1.00  0.00    -0.263 C  
HETATM   12  O   UNL     1      -7.441  17.849  65.562  1.00  0.00    -0.524 OA 
HETATM   13  N   UNL     1      -8.954  17.412  67.258  1.00  0.00    -0.233 N  
HETATM   14  H   UNL     1      -9.128  16.864  68.099  1.00  0.00     0.000 HD 
BRANCH  13  15
HETATM   15  S   UNL     1     -10.168  18.369  66.649  1.00  0.00    -0.411 S  
HETATM   16  O   UNL     1     -10.598  17.846  65.379  1.00  0.00    -0.656 OA 
HETATM   17  C   UNL     1      -9.256  19.841  66.309  1.00  0.00    -0.388 C  
HETATM   18  O   UNL     1     -11.082  18.675  67.721  1.00  0.00    -0.243 OA 
ENDBRANCH  13  15
ENDBRANCH  10  11
ENDBRANCH   9  10
ENDBRANCH   8   9
ENDBRANCH   7   8
ENDBRANCH   6   7
ENDBRANCH   5   6
ENDBRANCH   4   5
BRANCH   4  19
HETATM   19  C   UNL     1      -9.372  10.168  68.396  1.00  0.00    -0.136 A  
HETATM   20  N   UNL     1      -9.141   8.749  70.373  1.00  0.00    -0.164 NA 
HETATM   21  N   UNL     1      -9.434   9.061  67.620  1.00  0.00    -0.139 NA 
HETATM   22  C   UNL     1      -9.180   7.643  69.566  1.00  0.00    -0.150 A  
HETATM   23  C   UNL     1      -9.357   7.804  68.176  1.00  0.00    -0.145 A  
HETATM   24  C   UNL     1      -9.247   9.964  69.765  1.00  0.00    -0.227 A  
BRANCH  23  25
HETATM   25  C   UNL     1      -9.415   6.708  67.168  1.00  0.00    -0.158 A  
HETATM   26  C   UNL     1      -8.232   6.143  66.652  1.00  0.00    -0.110 A  
HETATM   27  C   UNL     1     -10.646   4.925  66.024  1.00  0.00    -0.312 A  
HETATM   28  C   UNL     1     -10.621   6.133  66.727  1.00  0.00    -0.351 A  
HETATM   29  C   UNL     1      -9.459   4.347  65.599  1.00  0.00    -0.175 A  
HETATM   30  C   UNL     1      -8.253   4.988  65.863  1.00  0.00    -0.114 A  
ENDBRANCH  23  25
BRANCH  22  31
HETATM   31  C   UNL     1      -8.973   6.350  70.299  1.00  0.00    -0.154 A  
HETATM   32  C   UNL     1      -7.562   4.898  71.697  1.00  0.00    -0.095 A  
HETATM   33  C   UNL     1      -9.761   4.160  71.088  1.00  0.00    -0.258 A  
HETATM   34  C   UNL     1      -9.914   5.300  70.288  1.00  0.00    -0.310 A  
HETATM   35  C   UNL     1      -7.768   6.091  70.990  1.00  0.00    -0.102 A  
HETATM   36  C   UNL     1      -8.585   3.962  71.798  1.00  0.00    -0.114 A  
ENDBRANCH  22  31
ENDBRANCH   4  19
ENDBRANCH   2   4
TORSDOF 12
ENDMDL
MODEL      208
REMARK 921   NORMALIZED FREE ENERGY PREDICTED BY IDOCK:   -4.43 KCAL/MOL
REMARK 922        TOTAL FREE ENERGY PREDICTED BY IDOCK:   -8.86 KCAL/MOL
REMARK 923 INTER-LIGAND FREE ENERGY PREDICTED BY IDOCK:   -7.64 KCAL/MOL
REMARK 924 INTRA-LIGAND FREE ENERGY PREDICTED BY IDOCK:   -1.22 KCAL/MOL
REMARK 927      BINDING AFFINITY PREDICTED BY RF-SCORE:    0.00 PKD
ROOT
HETATM    1  C   UNL     1     -11.109   6.905  69.194  1.00  0.00    -0.205 C  
HETATM    2  C   UNL     1     -10.140   6.490  68.084  1.00  0.00    -0.155 C  
HETATM    3  C   UNL     1     -10.929   6.095  66.834  1.00  0.00    -0.384 C  
ENDROOT
BRANCH   2   4
HETATM    4  N   UNL     1      -9.101   7.503  67.778  1.00  0.00    -0.130 NA 
BRANCH   4   5
HETATM    5  C   UNL     1      -7.739   7.125  67.364  1.00  0.00    -0.110 C  
BRANCH   5   6
HETATM    6  C   UNL     1      -6.700   7.341  68.471  1.00  0.00    -0.057 C  
BRANCH   6   7
HETATM    7  C   UNL     1      -7.063   6.670  69.808  1.00  0.00    -0.068 C  
BRANCH   7   8
HETATM    8  C   UNL     1      -6.276   5.398  70.127  1.00  0.00    -0.023 C  
BRANCH   8   9
HETATM    9  O   UNL     1      -6.863   4.295  69.440  1.00  0.00    -0.044 OA 
BRANCH   9  10
HETATM   10  C   UNL     1      -8.214   4.078  69.842  1.00  0.00    -0.057 C  
BRANCH  10  11
HETATM   11  C   UNL     1      -8.289   3.449  71.228  1.00  0.00    -0.067 C  
HETATM   12  O   UNL     1      -7.686   2.421  71.505  1.00  0.00    -0.040 OA 
HETATM   13  N   UNL     1      -9.045   4.175  72.162  1.00  0.00    -0.118 N  
HETATM   14  H   UNL     1      -9.423   5.083  71.895  1.00  0.00     0.000 HD 
BRANCH  13  15
HETATM   15  S   UNL     1      -9.340   3.594  73.691  1.00  0.00    -0.099 S  
HETATM   16  O   UNL     1      -9.934   2.287  73.599  1.00  0.00    -0.092 OA 
HETATM   17  C   UNL     1     -10.619   4.699  74.197  1.00  0.00    -0.291 C  
HETATM   18  O   UNL     1      -8.188   3.876  74.511  1.00  0.00    -0.087 OA 
ENDBRANCH  13  15
ENDBRANCH  10  11
ENDBRANCH   9  10
ENDBRANCH   8   9
ENDBRANCH   7   8
ENDBRANCH   6   7
ENDBRANCH   5   6
ENDBRANCH   4   5
BRANCH   4  19
HETATM   19  C   UNL     1      -9.467   8.838  67.981  1.00  0.00    -0.143 A  
HETATM   20  N   UNL     1      -9.721  10.785  69.439  1.00  0.00    -0.126 NA 
HETATM   21  N   UNL     1      -9.964   9.558  66.949  1.00  0.00    -0.201 NA 
HETATM   22  C   UNL     1     -10.246  11.486  68.386  1.00  0.00    -0.205 A  
HETATM   23  C   UNL     1     -10.342  10.871  67.120  1.00  0.00    -0.220 A  
HETATM   24  C   UNL     1      -9.344   9.496  69.199  1.00  0.00    -0.163 A  
BRANCH  23  25
HETATM   25  C   UNL     1     -10.891  11.493  65.882  1.00  0.00    -0.316 A  
HETATM   26  C   UNL     1     -10.340  11.193  64.622  1.00  0.00    -0.393 A  
HETATM   27  C   UNL     1     -12.687  12.671  64.705  1.00  0.00    -0.458 A  
HETATM   28  C   UNL     1     -12.011  12.345  65.883  1.00  0.00    -0.434 A  
HETATM   29  C   UNL     1     -12.163  12.291  63.478  1.00  0.00    -0.669 A  
HETATM   30  C   UNL     1     -10.957  11.602  63.434  1.00  0.00    -0.442 A  
ENDBRANCH  23  25
BRANCH  22  31
HETATM   31  C   UNL     1     -10.715  12.864  68.749  1.00  0.00    -0.249 A  
HETATM   32  C   UNL     1     -12.343  14.335  69.864  1.00  0.00    -0.377 A  
HETATM   33  C   UNL     1     -10.437  15.306  68.779  1.00  0.00    -0.237 A  
HETATM   34  C   UNL     1     -10.063  14.037  68.317  1.00  0.00    -0.246 A  
HETATM   35  C   UNL     1     -11.898  13.057  69.498  1.00  0.00    -0.385 A  
HETATM   36  C   UNL     1     -11.576  15.454  69.560  1.00  0.00    -0.346 A  
ENDBRANCH  22  31
ENDBRANCH   4  19
ENDBRANCH   2   4
TORSDOF 12
ENDMDL
MODEL      209
REMARK 921   NORMALIZED FREE ENERGY PREDICTED BY IDOCK:   -4.43 KCAL/MOL
REMARK 922        TOTAL FREE ENERGY PREDICTED BY IDOCK:   -8.85 KCAL/MOL
REMARK 923 INTER-LIGAND FREE ENERGY PREDICTED BY IDOCK:   -7.66 KCAL/MOL
REMARK 924 INTRA-LIGAND FREE ENERGY PREDICTED BY IDOCK:   -1.19 KCAL/MOL
REMARK 927      BINDING AFFINITY PREDICTED BY RF-SCORE:    0.00 PKD
ROOT
HETATM    1  C   UNL     1      -9.303   8.506  65.506  1.00  0.00    -0.039 C  
HETATM    2  C   UNL     1      -8.858   9.880  64.998  1.00  0.00    -0.190 C  
HETATM    3  C   UNL     1     -10.078  10.678  64.536  1.00  0.00    -0.421 C  
ENDROOT
BRANCH   2   4
HETATM    4  N   UNL     1      -8.039  10.647  65.968  1.00  0.00    -0.156 NA 
BRANCH   4   5
HETATM    5  C   UNL     1      -6.580  10.467  66.074  1.00  0.00    -0.127 C  
BRANCH   5   6
HETATM    6  C   UNL     1      -6.029  10.880  67.445  1.00  0.00    -0.047 C  
BRANCH   6   7
HETATM    7  C   UNL     1      -5.912   9.717  68.447  1.00  0.00    -0.046 C  
BRANCH   7   8
HETATM    8  C   UNL     1      -5.969   8.321  67.827  1.00  0.00    -0.047 C  
BRANCH   8   9
HETATM    9  O   UNL     1      -6.661   7.440  68.709  1.00  0.00    -0.050 OA 
BRANCH   9  10
HETATM   10  C   UNL     1      -8.061   7.711  68.738  1.00  0.00    -0.127 C  
BRANCH  10  11
HETATM   11  C   UNL     1      -8.682   7.295  70.067  1.00  0.00    -0.141 C  
HETATM   12  O   UNL     1      -7.997   6.951  71.021  1.00  0.00    -0.100 OA 
HETATM   13  N   UNL     1     -10.080   7.402  70.121  1.00  0.00    -0.195 N  
HETATM   14  H   UNL     1     -10.577   7.807  69.328  1.00  0.00     0.000 HD 
BRANCH  13  15
HETATM   15  S   UNL     1     -10.948   6.887  71.441  1.00  0.00    -0.247 S  
HETATM   16  O   UNL     1     -12.354   6.950  71.143  1.00  0.00    -0.369 OA 
HETATM   17  C   UNL     1     -10.607   8.205  72.564  1.00  0.00    -0.340 C  
HETATM   18  O   UNL     1     -10.309   5.707  71.968  1.00  0.00    -0.199 OA 
ENDBRANCH  13  15
ENDBRANCH  10  11
ENDBRANCH   9  10
ENDBRANCH   8   9
ENDBRANCH   7   8
ENDBRANCH   6   7
ENDBRANCH   5   6
ENDBRANCH   4   5
BRANCH   4  19
HETATM   19  C   UNL     1      -8.743  11.494  66.831  1.00  0.00    -0.181 A  
HETATM   20  N   UNL     1     -10.125  11.851  68.815  1.00  0.00    -0.168 NA 
HETATM   21  N   UNL     1      -8.793  12.820  66.568  1.00  0.00    -0.107 NA 
HETATM   22  C   UNL     1     -10.184  13.187  68.515  1.00  0.00    -0.215 A  
HETATM   23  C   UNL     1      -9.485  13.678  67.393  1.00  0.00    -0.225 A  
HETATM   24  C   UNL     1      -9.404  11.058  67.972  1.00  0.00    -0.163 A  
BRANCH  23  25
HETATM   25  C   UNL     1      -9.453  15.095  66.932  1.00  0.00    -0.253 A  
HETATM   26  C   UNL     1     -10.488  15.612  66.129  1.00  0.00    -0.327 A  
HETATM   27  C   UNL     1      -8.596  17.382  67.126  1.00  0.00    -0.233 A  
HETATM   28  C   UNL     1      -8.451  16.004  67.315  1.00  0.00    -0.206 A  
HETATM   29  C   UNL     1      -9.671  17.871  66.399  1.00  0.00    -0.321 A  
HETATM   30  C   UNL     1     -10.587  16.980  65.850  1.00  0.00    -0.221 A  
ENDBRANCH  23  25
BRANCH  22  31
HETATM   31  C   UNL     1     -11.065  13.976  69.438  1.00  0.00    -0.246 A  
HETATM   32  C   UNL     1     -11.510  16.031  70.718  1.00  0.00    -0.444 A  
HETATM   33  C   UNL     1     -13.134  14.266  70.733  1.00  0.00    -0.321 A  
HETATM   34  C   UNL     1     -12.260  13.466  69.984  1.00  0.00    -0.367 A  
HETATM   35  C   UNL     1     -10.692  15.269  69.871  1.00  0.00    -0.300 A  
HETATM   36  C   UNL     1     -12.760  15.553  71.095  1.00  0.00    -0.525 A  
ENDBRANCH  22  31
ENDBRANCH   4  19
ENDBRANCH   2   4
TORSDOF 12
ENDMDL
MODEL      210
REMARK 921   NORMALIZED FREE ENERGY PREDICTED BY IDOCK:   -4.41 KCAL/MOL
REMARK 922        TOTAL FREE ENERGY PREDICTED BY IDOCK:   -8.82 KCAL/MOL
REMARK 923 INTER-LIGAND FREE ENERGY PREDICTED BY IDOCK:   -7.36 KCAL/MOL
REMARK 924 INTRA-LIGAND FREE ENERGY PREDICTED BY IDOCK:   -1.46 KCAL/MOL
REMARK 927      BINDING AFFINITY PREDICTED BY RF-SCORE:    0.00 PKD
ROOT
HETATM    1  C   UNL     1      -8.094   8.946  71.305  1.00  0.00    -0.185 C  
HETATM    2  C   UNL     1      -7.876   7.483  71.694  1.00  0.00    -0.086 C  
HETATM    3  C   UNL     1      -7.339   7.405  73.125  1.00  0.00    -0.085 C  
ENDROOT
BRANCH   2   4
HETATM    4  N   UNL     1      -9.070   6.623  71.511  1.00  0.00    -0.143 NA 
BRANCH   4   5
HETATM    5  C   UNL     1      -9.993   6.320  72.619  1.00  0.00    -0.172 C  
BRANCH   5   6
HETATM    6  C   UNL     1     -10.879   7.515  72.996  1.00  0.00    -0.445 C  
BRANCH   6   7
HETATM    7  C   UNL     1     -11.969   7.838  71.958  1.00  0.00    -0.350 C  
BRANCH   7   8
HETATM    8  C   UNL     1     -12.388   9.307  71.898  1.00  0.00    -0.382 C  
BRANCH   8   9
HETATM    9  O   UNL     1     -11.535  10.005  70.992  1.00  0.00    -0.348 OA 
BRANCH   9  10
HETATM   10  C   UNL     1     -12.056  11.290  70.656  1.00  0.00    -0.383 C  
BRANCH  10  11
HETATM   11  C   UNL     1     -11.746  11.656  69.209  1.00  0.00    -0.331 C  
HETATM   12  O   UNL     1     -11.497  10.805  68.366  1.00  0.00    -0.289 OA 
HETATM   13  N   UNL     1     -11.834  13.026  68.919  1.00  0.00    -0.317 N  
HETATM   14  H   UNL     1     -12.160  13.666  69.643  1.00  0.00     0.000 HD 
BRANCH  13  15
HETATM   15  S   UNL     1     -11.420  13.634  67.429  1.00  0.00    -0.356 S  
HETATM   16  O   UNL     1     -11.736  12.665  66.413  1.00  0.00    -0.368 OA 
HETATM   17  C   UNL     1      -9.662  13.654  67.584  1.00  0.00    -0.228 C  
HETATM   18  O   UNL     1     -11.854  15.007  67.365  1.00  0.00    -0.309 OA 
ENDBRANCH  13  15
ENDBRANCH  10  11
ENDBRANCH   9  10
ENDBRANCH   8   9
ENDBRANCH   7   8
ENDBRANCH   6   7
ENDBRANCH   5   6
ENDBRANCH   4   5
BRANCH   4  19
HETATM   19  C   UNL     1      -9.226   6.052  70.243  1.00  0.00    -0.155 A  
HETATM   20  N   UNL     1      -9.990   4.233  68.800  1.00  0.00    -0.042 NA 
HETATM   21  N   UNL     1      -8.757   6.706  69.155  1.00  0.00    -0.130 NA 
HETATM   22  C   UNL     1      -9.485   4.901  67.715  1.00  0.00    -0.138 A  
HETATM   23  C   UNL     1      -8.887   6.165  67.896  1.00  0.00    -0.111 A  
HETATM   24  C   UNL     1      -9.851   4.832  70.016  1.00  0.00    -0.227 A  
BRANCH  23  25
HETATM   25  C   UNL     1      -8.289   7.012  66.825  1.00  0.00    -0.116 A  
HETATM   26  C   UNL     1      -6.972   6.783  66.380  1.00  0.00    -0.062 A  
HETATM   27  C   UNL     1      -8.534   8.593  64.970  1.00  0.00    -0.192 A  
HETATM   28  C   UNL     1      -9.002   8.023  66.158  1.00  0.00    -0.215 A  
HETATM   29  C   UNL     1      -7.262   8.286  64.510  1.00  0.00    -0.083 A  
HETATM   30  C   UNL     1      -6.457   7.424  65.248  1.00  0.00    -0.041 A  
ENDBRANCH  23  25
BRANCH  22  31
HETATM   31  C   UNL     1      -9.600   4.139  66.428  1.00  0.00    -0.215 A  
HETATM   32  C   UNL     1     -10.642   3.836  64.219  1.00  0.00    -0.241 A  
HETATM   33  C   UNL     1      -8.879   2.357  64.896  1.00  0.00    -0.120 A  
HETATM   34  C   UNL     1      -8.857   2.973  66.155  1.00  0.00    -0.143 A  
HETATM   35  C   UNL     1     -10.532   4.522  65.437  1.00  0.00    -0.212 A  
HETATM   36  C   UNL     1      -9.770   2.794  63.925  1.00  0.00    -0.142 A  
ENDBRANCH  22  31
ENDBRANCH   4  19
ENDBRANCH   2   4
TORSDOF 12
ENDMDL
MODEL      211
REMARK 921   NORMALIZED FREE ENERGY PREDICTED BY IDOCK:   -4.40 KCAL/MOL
REMARK 922        TOTAL FREE ENERGY PREDICTED BY IDOCK:   -8.80 KCAL/MOL
REMARK 923 INTER-LIGAND FREE ENERGY PREDICTED BY IDOCK:   -7.22 KCAL/MOL
REMARK 924 INTRA-LIGAND FREE ENERGY PREDICTED BY IDOCK:   -1.58 KCAL/MOL
REMARK 927      BINDING AFFINITY PREDICTED BY RF-SCORE:    0.00 PKD
ROOT
HETATM    1  C   UNL     1      -6.625  10.332  63.342  1.00  0.00    -0.104 C  
HETATM    2  C   UNL     1      -8.128  10.442  63.608  1.00  0.00    -0.109 C  
HETATM    3  C   UNL     1      -8.903   9.857  62.425  1.00  0.00    -0.262 C  
ENDROOT
BRANCH   2   4
HETATM    4  N   UNL     1      -8.560   9.844  64.894  1.00  0.00    -0.156 NA 
BRANCH   4   5
HETATM    5  C   UNL     1      -8.464   8.397  65.156  1.00  0.00    -0.160 C  
BRANCH   5   6
HETATM    6  C   UNL     1      -8.151   8.078  66.623  1.00  0.00    -0.103 C  
BRANCH   6   7
HETATM    7  C   UNL     1      -7.752   6.612  66.873  1.00  0.00    -0.106 C  
BRANCH   7   8
HETATM    8  C   UNL     1      -8.138   6.064  68.247  1.00  0.00    -0.110 C  
BRANCH   8   9
HETATM    9  O   UNL     1      -7.899   7.061  69.238  1.00  0.00    -0.109 OA 
BRANCH   9  10
HETATM   10  C   UNL     1      -7.888   6.510  70.554  1.00  0.00    -0.106 C  
BRANCH  10  11
HETATM   11  C   UNL     1      -9.220   6.730  71.262  1.00  0.00    -0.154 C  
HETATM   12  O   UNL     1      -9.736   5.862  71.953  1.00  0.00    -0.152 OA 
HETATM   13  N   UNL     1      -9.761   8.016  71.108  1.00  0.00    -0.158 N  
HETATM   14  H   UNL     1      -9.220   8.726  70.616  1.00  0.00     0.000 HD 
BRANCH  13  15
HETATM   15  S   UNL     1     -11.259   8.413  71.708  1.00  0.00    -0.318 S  
HETATM   16  O   UNL     1     -11.318   8.083  73.107  1.00  0.00    -0.317 OA 
HETATM   17  C   UNL     1     -12.252   7.223  70.863  1.00  0.00    -0.270 C  
HETATM   18  O   UNL     1     -11.623   9.709  71.192  1.00  0.00    -0.319 OA 
ENDBRANCH  13  15
ENDBRANCH  10  11
ENDBRANCH   9  10
ENDBRANCH   8   9
ENDBRANCH   7   8
ENDBRANCH   6   7
ENDBRANCH   5   6
ENDBRANCH   4   5
BRANCH   4  19
HETATM   19  C   UNL     1      -9.139  10.723  65.815  1.00  0.00    -0.188 A  
HETATM   20  N   UNL     1     -11.074  11.533  67.070  1.00  0.00    -0.293 NA 
HETATM   21  N   UNL     1      -8.378  11.686  66.386  1.00  0.00    -0.132 NA 
HETATM   22  C   UNL     1     -10.291  12.515  67.616  1.00  0.00    -0.218 A  
HETATM   23  C   UNL     1      -8.920  12.572  67.290  1.00  0.00    -0.192 A  
HETATM   24  C   UNL     1     -10.472  10.672  66.201  1.00  0.00    -0.194 A  
BRANCH  23  25
HETATM   25  C   UNL     1      -7.940  13.577  67.792  1.00  0.00    -0.168 A  
HETATM   26  C   UNL     1      -7.137  13.298  68.914  1.00  0.00    -0.079 A  
HETATM   27  C   UNL     1      -6.594  15.595  67.455  1.00  0.00    -0.212 A  
HETATM   28  C   UNL     1      -7.710  14.809  67.155  1.00  0.00    -0.149 A  
HETATM   29  C   UNL     1      -5.771  15.251  68.517  1.00  0.00    -0.095 A  
HETATM   30  C   UNL     1      -6.076  14.132  69.285  1.00  0.00    -0.101 A  
ENDBRANCH  23  25
BRANCH  22  31
HETATM   31  C   UNL     1     -11.043  13.472  68.494  1.00  0.00    -0.300 A  
HETATM   32  C   UNL     1     -12.361  13.913  70.524  1.00  0.00    -0.439 A  
HETATM   33  C   UNL     1     -11.821  15.734  69.059  1.00  0.00    -0.367 A  
HETATM   34  C   UNL     1     -11.235  14.830  68.164  1.00  0.00    -0.307 A  
HETATM   35  C   UNL     1     -11.670  13.032  69.681  1.00  0.00    -0.364 A  
HETATM   36  C   UNL     1     -12.380  15.275  70.245  1.00  0.00    -0.407 A  
ENDBRANCH  22  31
ENDBRANCH   4  19
ENDBRANCH   2   4
TORSDOF 12
ENDMDL
MODEL      212
REMARK 921   NORMALIZED FREE ENERGY PREDICTED BY IDOCK:   -4.40 KCAL/MOL
REMARK 922        TOTAL FREE ENERGY PREDICTED BY IDOCK:   -8.80 KCAL/MOL
REMARK 923 INTER-LIGAND FREE ENERGY PREDICTED BY IDOCK:   -8.24 KCAL/MOL
REMARK 924 INTRA-LIGAND FREE ENERGY PREDICTED BY IDOCK:   -0.56 KCAL/MOL
REMARK 927      BINDING AFFINITY PREDICTED BY RF-SCORE:    0.00 PKD
ROOT
HETATM    1  C   UNL     1     -10.846  16.523  69.943  1.00  0.00    -0.285 C  
HETATM    2  C   UNL     1     -10.096  15.189  69.947  1.00  0.00    -0.128 C  
HETATM    3  C   UNL     1     -11.088  14.041  69.750  1.00  0.00    -0.101 C  
ENDROOT
BRANCH   2   4
HETATM    4  N   UNL     1      -8.979  15.119  68.974  1.00  0.00    -0.208 NA 
BRANCH   4   5
HETATM    5  C   UNL     1      -8.147  16.293  68.653  1.00  0.00    -0.213 C  
BRANCH   5   6
HETATM    6  C   UNL     1      -6.751  16.222  69.283  1.00  0.00    -0.203 C  
BRANCH   6   7
HETATM    7  C   UNL     1      -5.602  16.462  68.287  1.00  0.00    -0.106 C  
BRANCH   7   8
HETATM    8  C   UNL     1      -5.228  17.929  68.075  1.00  0.00    -0.147 C  
BRANCH   8   9
HETATM    9  O   UNL     1      -6.154  18.759  68.773  1.00  0.00    -0.213 OA 
BRANCH   9  10
HETATM   10  C   UNL     1      -6.433  19.961  68.058  1.00  0.00    -0.242 C  
BRANCH  10  11
HETATM   11  C   UNL     1      -7.559  19.763  67.050  1.00  0.00    -0.260 C  
HETATM   12  O   UNL     1      -7.350  19.738  65.844  1.00  0.00    -0.293 OA 
HETATM   13  N   UNL     1      -8.824  19.549  67.618  1.00  0.00    -0.307 N  
HETATM   14  H   UNL     1      -8.905  19.466  68.631  1.00  0.00     0.000 HD 
BRANCH  13  15
HETATM   15  S   UNL     1     -10.194  19.428  66.685  1.00  0.00    -0.477 S  
HETATM   16  O   UNL     1     -11.356  19.577  67.520  1.00  0.00    -0.158 OA 
HETATM   17  C   UNL     1     -10.107  17.724  66.234  1.00  0.00    -0.344 C  
HETATM   18  O   UNL     1      -9.989  20.195  65.481  1.00  0.00    -0.301 OA 
ENDBRANCH  13  15
ENDBRANCH  10  11
ENDBRANCH   9  10
ENDBRANCH   8   9
ENDBRANCH   7   8
ENDBRANCH   6   7
ENDBRANCH   5   6
ENDBRANCH   4   5
BRANCH   4  19
HETATM   19  C   UNL     1      -8.810  13.894  68.321  1.00  0.00    -0.185 A  
HETATM   20  N   UNL     1      -7.601  11.794  67.999  1.00  0.00    -0.108 NA 
HETATM   21  N   UNL     1      -9.658  13.548  67.324  1.00  0.00    -0.228 NA 
HETATM   22  C   UNL     1      -8.455  11.476  66.976  1.00  0.00    -0.164 A  
HETATM   23  C   UNL     1      -9.512  12.353  66.656  1.00  0.00    -0.232 A  
HETATM   24  C   UNL     1      -7.813  12.980  68.637  1.00  0.00    -0.050 A  
BRANCH  23  25
HETATM   25  C   UNL     1     -10.518  12.156  65.574  1.00  0.00    -0.300 A  
HETATM   26  C   UNL     1     -11.853  12.567  65.750  1.00  0.00    -0.494 A  
HETATM   27  C   UNL     1     -11.066  11.725  63.226  1.00  0.00    -0.370 A  
HETATM   28  C   UNL     1     -10.194  11.623  64.313  1.00  0.00    -0.357 A  
HETATM   29  C   UNL     1     -12.351  12.211  63.413  1.00  0.00    -0.648 A  
HETATM   30  C   UNL     1     -12.765  12.579  64.689  1.00  0.00    -0.434 A  
ENDBRANCH  23  25
BRANCH  22  31
HETATM   31  C   UNL     1      -8.106  10.199  66.270  1.00  0.00    -0.124 A  
HETATM   32  C   UNL     1      -6.850   9.007  64.521  1.00  0.00    -0.081 A  
HETATM   33  C   UNL     1      -8.257   7.759  66.010  1.00  0.00    -0.123 A  
HETATM   34  C   UNL     1      -8.696   8.958  66.587  1.00  0.00    -0.140 A  
HETATM   35  C   UNL     1      -7.204  10.192  65.182  1.00  0.00    -0.141 A  
HETATM   36  C   UNL     1      -7.328   7.784  64.979  1.00  0.00    -0.073 A  
ENDBRANCH  22  31
ENDBRANCH   4  19
ENDBRANCH   2   4
TORSDOF 12
ENDMDL
MODEL      213
REMARK 921   NORMALIZED FREE ENERGY PREDICTED BY IDOCK:   -4.38 KCAL/MOL
REMARK 922        TOTAL FREE ENERGY PREDICTED BY IDOCK:   -8.77 KCAL/MOL
REMARK 923 INTER-LIGAND FREE ENERGY PREDICTED BY IDOCK:   -7.06 KCAL/MOL
REMARK 924 INTRA-LIGAND FREE ENERGY PREDICTED BY IDOCK:   -1.71 KCAL/MOL
REMARK 927      BINDING AFFINITY PREDICTED BY RF-SCORE:    0.00 PKD
ROOT
HETATM    1  C   UNL     1     -10.013   4.085  64.657  1.00  0.00    -0.205 C  
HETATM    2  C   UNL     1      -9.666   4.326  66.127  1.00  0.00    -0.212 C  
HETATM    3  C   UNL     1      -8.861   3.143  66.667  1.00  0.00    -0.153 C  
ENDROOT
BRANCH   2   4
HETATM    4  N   UNL     1      -8.980   5.616  66.384  1.00  0.00    -0.130 NA 
BRANCH   4   5
HETATM    5  C   UNL     1      -8.592   6.526  65.292  1.00  0.00    -0.028 C  
BRANCH   5   6
HETATM    6  C   UNL     1      -7.850   7.772  65.792  1.00  0.00    -0.104 C  
BRANCH   6   7
HETATM    7  C   UNL     1      -8.739   9.024  65.911  1.00  0.00    -0.193 C  
BRANCH   7   8
HETATM    8  C   UNL     1      -8.358   9.981  67.040  1.00  0.00    -0.121 C  
BRANCH   8   9
HETATM    9  O   UNL     1      -9.349   9.922  68.064  1.00  0.00    -0.131 OA 
BRANCH   9  10
HETATM   10  C   UNL     1     -10.663  10.108  67.543  1.00  0.00    -0.290 C  
BRANCH  10  11
HETATM   11  C   UNL     1     -11.154  11.534  67.764  1.00  0.00    -0.260 C  
HETATM   12  O   UNL     1     -11.954  11.813  68.647  1.00  0.00    -0.354 OA 
HETATM   13  N   UNL     1     -10.568  12.494  66.924  1.00  0.00    -0.234 N  
HETATM   14  H   UNL     1      -9.823  12.208  66.290  1.00  0.00     0.000 HD 
BRANCH  13  15
HETATM   15  S   UNL     1     -11.057  14.082  66.934  1.00  0.00    -0.311 S  
HETATM   16  O   UNL     1     -12.341  14.191  66.293  1.00  0.00    -0.456 OA 
HETATM   17  C   UNL     1      -9.874  14.773  65.821  1.00  0.00    -0.342 C  
HETATM   18  O   UNL     1     -10.782  14.631  68.238  1.00  0.00    -0.232 OA 
ENDBRANCH  13  15
ENDBRANCH  10  11
ENDBRANCH   9  10
ENDBRANCH   8   9
ENDBRANCH   7   8
ENDBRANCH   6   7
ENDBRANCH   5   6
ENDBRANCH   4   5
BRANCH   4  19
HETATM   19  C   UNL     1      -8.651   5.882  67.717  1.00  0.00    -0.105 A  
HETATM   20  N   UNL     1      -7.074   5.809  69.584  1.00  0.00    -0.063 NA 
HETATM   21  N   UNL     1      -9.568   6.460  68.527  1.00  0.00    -0.123 NA 
HETATM   22  C   UNL     1      -8.027   6.371  70.392  1.00  0.00    -0.112 A  
HETATM   23  C   UNL     1      -9.278   6.726  69.847  1.00  0.00    -0.147 A  
HETATM   24  C   UNL     1      -7.415   5.593  68.281  1.00  0.00    -0.077 A  
BRANCH  23  25
HETATM   25  C   UNL     1     -10.416   7.337  70.590  1.00  0.00    -0.226 A  
HETATM   26  C   UNL     1     -10.359   8.680  71.012  1.00  0.00    -0.275 A  
HETATM   27  C   UNL     1     -12.768   7.327  71.273  1.00  0.00    -0.400 A  
HETATM   28  C   UNL     1     -11.618   6.655  70.852  1.00  0.00    -0.416 A  
HETATM   29  C   UNL     1     -12.702   8.672  71.605  1.00  0.00    -0.379 A  
HETATM   30  C   UNL     1     -11.482   9.336  71.530  1.00  0.00    -0.454 A  
ENDBRANCH  23  25
BRANCH  22  31
HETATM   31  C   UNL     1      -7.606   6.497  71.826  1.00  0.00    -0.094 A  
HETATM   32  C   UNL     1      -6.468   7.754  73.609  1.00  0.00    -0.085 A  
HETATM   33  C   UNL     1      -7.583   5.701  74.152  1.00  0.00    -0.092 A  
HETATM   34  C   UNL     1      -7.863   5.504  72.793  1.00  0.00    -0.099 A  
HETATM   35  C   UNL     1      -6.854   7.608  72.269  1.00  0.00    -0.058 A  
HETATM   36  C   UNL     1      -6.889   6.833  74.561  1.00  0.00    -0.095 A  
ENDBRANCH  22  31
ENDBRANCH   4  19
ENDBRANCH   2   4
TORSDOF 12
ENDMDL
MODEL      214
REMARK 921   NORMALIZED FREE ENERGY PREDICTED BY IDOCK:   -4.37 KCAL/MOL
REMARK 922        TOTAL FREE ENERGY PREDICTED BY IDOCK:   -8.76 KCAL/MOL
REMARK 923 INTER-LIGAND FREE ENERGY PREDICTED BY IDOCK:   -8.00 KCAL/MOL
REMARK 924 INTRA-LIGAND FREE ENERGY PREDICTED BY IDOCK:   -0.76 KCAL/MOL
REMARK 927      BINDING AFFINITY PREDICTED BY RF-SCORE:    0.00 PKD
ROOT
HETATM    1  C   UNL     1     -11.462  15.527  68.809  1.00  0.00    -0.363 C  
HETATM    2  C   UNL     1     -11.036  14.084  69.086  1.00  0.00    -0.259 C  
HETATM    3  C   UNL     1     -12.265  13.173  69.068  1.00  0.00    -0.114 C  
ENDROOT
BRANCH   2   4
HETATM    4  N   UNL     1      -9.971  13.583  68.183  1.00  0.00    -0.234 NA 
BRANCH   4   5
HETATM    5  C   UNL     1      -9.139  14.492  67.375  1.00  0.00    -0.196 C  
BRANCH   5   6
HETATM    6  C   UNL     1      -8.052  15.192  68.199  1.00  0.00    -0.137 C  
BRANCH   6   7
HETATM    7  C   UNL     1      -6.631  14.657  67.942  1.00  0.00    -0.177 C  
BRANCH   7   8
HETATM    8  C   UNL     1      -5.512  15.683  68.124  1.00  0.00    -0.117 C  
BRANCH   8   9
HETATM    9  O   UNL     1      -6.044  16.859  68.731  1.00  0.00    -0.144 OA 
BRANCH   9  10
HETATM   10  C   UNL     1      -5.206  17.993  68.513  1.00  0.00    -0.155 C  
BRANCH  10  11
HETATM   11  C   UNL     1      -5.828  18.962  67.515  1.00  0.00    -0.175 C  
HETATM   12  O   UNL     1      -6.527  19.900  67.873  1.00  0.00    -0.220 OA 
HETATM   13  N   UNL     1      -5.481  18.727  66.175  1.00  0.00    -0.151 N  
HETATM   14  H   UNL     1      -4.801  17.999  65.960  1.00  0.00     0.000 HD 
BRANCH  13  15
HETATM   15  S   UNL     1      -6.150  19.603  64.931  1.00  0.00    -0.276 S  
HETATM   16  O   UNL     1      -5.735  19.041  63.673  1.00  0.00    -0.383 OA 
HETATM   17  C   UNL     1      -5.273  21.123  65.122  1.00  0.00    -0.187 C  
HETATM   18  O   UNL     1      -7.529  19.868  65.256  1.00  0.00    -0.360 OA 
ENDBRANCH  13  15
ENDBRANCH  10  11
ENDBRANCH   9  10
ENDBRANCH   8   9
ENDBRANCH   7   8
ENDBRANCH   6   7
ENDBRANCH   5   6
ENDBRANCH   4   5
BRANCH   4  19
HETATM   19  C   UNL     1      -9.856  12.192  68.084  1.00  0.00    -0.207 A  
HETATM   20  N   UNL     1      -9.501  10.167  66.760  1.00  0.00    -0.163 NA 
HETATM   21  N   UNL     1     -10.002  11.431  69.192  1.00  0.00    -0.060 NA 
HETATM   22  C   UNL     1      -9.677   9.415  67.891  1.00  0.00    -0.152 A  
HETATM   23  C   UNL     1      -9.903  10.059  69.125  1.00  0.00    -0.205 A  
HETATM   24  C   UNL     1      -9.587  11.521  66.897  1.00  0.00    -0.187 A  
BRANCH  23  25
HETATM   25  C   UNL     1     -10.118   9.386  70.438  1.00  0.00    -0.310 A  
HETATM   26  C   UNL     1     -11.417   9.226  70.958  1.00  0.00    -0.387 A  
HETATM   27  C   UNL     1      -9.323   7.943  72.251  1.00  0.00    -0.238 A  
HETATM   28  C   UNL     1      -9.074   8.821  71.192  1.00  0.00    -0.285 A  
HETATM   29  C   UNL     1     -10.622   7.740  72.690  1.00  0.00    -0.377 A  
HETATM   30  C   UNL     1     -11.666   8.428  72.080  1.00  0.00    -0.442 A  
ENDBRANCH  23  25
BRANCH  22  31
HETATM   31  C   UNL     1      -9.653   7.935  67.644  1.00  0.00    -0.183 A  
HETATM   32  C   UNL     1      -8.460   5.784  67.713  1.00  0.00    -0.103 A  
HETATM   33  C   UNL     1     -10.739   5.836  66.967  1.00  0.00    -0.369 A  
HETATM   34  C   UNL     1     -10.730   7.234  67.063  1.00  0.00    -0.406 A  
HETATM   35  C   UNL     1      -8.497   7.170  67.919  1.00  0.00    -0.121 A  
HETATM   36  C   UNL     1      -9.603   5.110  67.299  1.00  0.00    -0.155 A  
ENDBRANCH  22  31
ENDBRANCH   4  19
ENDBRANCH   2   4
TORSDOF 12
ENDMDL
MODEL      215
REMARK 921   NORMALIZED FREE ENERGY PREDICTED BY IDOCK:   -4.37 KCAL/MOL
REMARK 922        TOTAL FREE ENERGY PREDICTED BY IDOCK:   -8.75 KCAL/MOL
REMARK 923 INTER-LIGAND FREE ENERGY PREDICTED BY IDOCK:   -8.31 KCAL/MOL
REMARK 924 INTRA-LIGAND FREE ENERGY PREDICTED BY IDOCK:   -0.44 KCAL/MOL
REMARK 927      BINDING AFFINITY PREDICTED BY RF-SCORE:    0.00 PKD
ROOT
HETATM    1  C   UNL     1     -12.338  15.169  72.386  1.00  0.00    -0.447 C  
HETATM    2  C   UNL     1     -13.088  14.732  71.126  1.00  0.00    -0.382 C  
HETATM    3  C   UNL     1     -14.360  15.568  70.969  1.00  0.00     0.033 C  
ENDROOT
BRANCH   2   4
HETATM    4  N   UNL     1     -12.265  14.753  69.892  1.00  0.00    -0.316 NA 
BRANCH   4   5
HETATM    5  C   UNL     1     -11.904  16.011  69.214  1.00  0.00    -0.257 C  
BRANCH   5   6
HETATM    6  C   UNL     1     -10.765  16.760  69.918  1.00  0.00    -0.123 C  
BRANCH   6   7
HETATM    7  C   UNL     1     -10.287  18.017  69.168  1.00  0.00    -0.071 C  
BRANCH   7   8
HETATM    8  C   UNL     1     -10.676  18.074  67.691  1.00  0.00    -0.344 C  
BRANCH   8   9
HETATM    9  O   UNL     1      -9.497  18.014  66.890  1.00  0.00    -0.271 OA 
BRANCH   9  10
HETATM   10  C   UNL     1      -9.497  16.875  66.032  1.00  0.00    -0.195 C  
BRANCH  10  11
HETATM   11  C   UNL     1      -8.757  15.701  66.664  1.00  0.00    -0.298 C  
HETATM   12  O   UNL     1      -8.712  14.602  66.130  1.00  0.00     0.004 OA 
HETATM   13  N   UNL     1      -8.087  16.005  67.860  1.00  0.00    -0.140 N  
HETATM   14  H   UNL     1      -8.070  16.971  68.186  1.00  0.00     0.000 HD 
BRANCH  13  15
HETATM   15  S   UNL     1      -7.323  14.834  68.757  1.00  0.00    -0.138 S  
HETATM   16  O   UNL     1      -7.041  15.347  70.072  1.00  0.00    -0.121 OA 
HETATM   17  C   UNL     1      -5.780  14.753  67.903  1.00  0.00    -0.121 C  
HETATM   18  O   UNL     1      -7.997  13.580  68.532  1.00  0.00    -0.142 OA 
ENDBRANCH  13  15
ENDBRANCH  10  11
ENDBRANCH   9  10
ENDBRANCH   8   9
ENDBRANCH   7   8
ENDBRANCH   6   7
ENDBRANCH   5   6
ENDBRANCH   4   5
BRANCH   4  19
HETATM   19  C   UNL     1     -11.917  13.505  69.366  1.00  0.00    -0.330 A  
HETATM   20  N   UNL     1     -11.321  11.152  69.663  1.00  0.00    -0.275 NA 
HETATM   21  N   UNL     1     -11.791  13.358  68.027  1.00  0.00    -0.355 NA 
HETATM   22  C   UNL     1     -11.174  11.033  68.306  1.00  0.00    -0.277 A  
HETATM   23  C   UNL     1     -11.440  12.144  67.479  1.00  0.00    -0.340 A  
HETATM   24  C   UNL     1     -11.693  12.374  70.141  1.00  0.00    -0.185 A  
BRANCH  23  25
HETATM   25  C   UNL     1     -11.323  12.179  65.994  1.00  0.00    -0.410 A  
HETATM   26  C   UNL     1     -10.062  12.100  65.371  1.00  0.00    -0.282 A  
HETATM   27  C   UNL     1     -12.324  11.950  63.770  1.00  0.00    -0.541 A  
HETATM   28  C   UNL     1     -12.437  12.221  65.136  1.00  0.00    -0.183 A  
HETATM   29  C   UNL     1     -11.071  11.795  63.196  1.00  0.00    -0.251 A  
HETATM   30  C   UNL     1      -9.935  11.929  63.988  1.00  0.00    -0.318 A  
ENDBRANCH  23  25
BRANCH  22  31
HETATM   31  C   UNL     1     -10.682   9.686  67.866  1.00  0.00    -0.302 A  
HETATM   32  C   UNL     1     -10.124   7.348  68.390  1.00  0.00    -0.196 A  
HETATM   33  C   UNL     1      -9.916   8.124  66.130  1.00  0.00    -0.017 A  
HETATM   34  C   UNL     1     -10.242   9.419  66.553  1.00  0.00    -0.308 A  
HETATM   35  C   UNL     1     -10.564   8.619  68.785  1.00  0.00    -0.169 A  
HETATM   36  C   UNL     1      -9.863   7.085  67.050  1.00  0.00    -0.239 A  
ENDBRANCH  22  31
ENDBRANCH   4  19
ENDBRANCH   2   4
TORSDOF 12
ENDMDL
MODEL      216
REMARK 921   NORMALIZED FREE ENERGY PREDICTED BY IDOCK:   -4.35 KCAL/MOL
REMARK 922        TOTAL FREE ENERGY PREDICTED BY IDOCK:   -8.73 KCAL/MOL
REMARK 923 INTER-LIGAND FREE ENERGY PREDICTED BY IDOCK:   -7.11 KCAL/MOL
REMARK 924 INTRA-LIGAND FREE ENERGY PREDICTED BY IDOCK:   -1.61 KCAL/MOL
REMARK 927      BINDING AFFINITY PREDICTED BY RF-SCORE:    0.00 PKD
ROOT
HETATM    1  C   UNL     1     -10.408  10.995  65.046  1.00  0.00    -0.360 C  
HETATM    2  C   UNL     1     -10.154  10.363  66.416  1.00  0.00    -0.228 C  
HETATM    3  C   UNL     1      -8.649  10.200  66.636  1.00  0.00    -0.130 C  
ENDROOT
BRANCH   2   4
HETATM    4  N   UNL     1     -10.796  11.082  67.544  1.00  0.00    -0.244 NA 
BRANCH   4   5
HETATM    5  C   UNL     1     -11.551  10.375  68.593  1.00  0.00    -0.101 C  
BRANCH   5   6
HETATM    6  C   UNL     1     -10.657   9.887  69.741  1.00  0.00    -0.296 C  
BRANCH   6   7
HETATM    7  C   UNL     1     -10.764   8.376  70.017  1.00  0.00    -0.236 C  
BRANCH   7   8
HETATM    8  C   UNL     1      -9.427   7.653  70.181  1.00  0.00    -0.161 C  
BRANCH   8   9
HETATM    9  O   UNL     1      -8.732   7.657  68.936  1.00  0.00    -0.135 OA 
BRANCH   9  10
HETATM   10  C   UNL     1      -9.202   6.633  68.063  1.00  0.00    -0.112 C  
BRANCH  10  11
HETATM   11  C   UNL     1      -8.085   5.670  67.679  1.00  0.00    -0.101 C  
HETATM   12  O   UNL     1      -7.105   6.037  67.043  1.00  0.00    -0.067 OA 
HETATM   13  N   UNL     1      -8.242   4.364  68.167  1.00  0.00    -0.090 N  
HETATM   14  H   UNL     1      -9.023   4.157  68.788  1.00  0.00     0.000 HD 
BRANCH  13  15
HETATM   15  S   UNL     1      -7.189   3.144  67.759  1.00  0.00    -0.054 S  
HETATM   16  O   UNL     1      -7.368   2.802  66.373  1.00  0.00    -0.064 OA 
HETATM   17  C   UNL     1      -7.876   1.819  68.701  1.00  0.00    -0.046 C  
HETATM   18  O   UNL     1      -5.902   3.448  68.332  1.00  0.00    -0.022 OA 
ENDBRANCH  13  15
ENDBRANCH  10  11
ENDBRANCH   9  10
ENDBRANCH   8   9
ENDBRANCH   7   8
ENDBRANCH   6   7
ENDBRANCH   5   6
ENDBRANCH   4   5
BRANCH   4  19
HETATM   19  C   UNL     1     -10.711  12.478  67.509  1.00  0.00    -0.225 A  
HETATM   20  N   UNL     1     -11.715  14.670  67.102  1.00  0.00    -0.385 NA 
HETATM   21  N   UNL     1      -9.541  13.082  67.820  1.00  0.00    -0.201 NA 
HETATM   22  C   UNL     1     -10.513  15.258  67.396  1.00  0.00    -0.270 A  
HETATM   23  C   UNL     1      -9.423  14.453  67.787  1.00  0.00    -0.211 A  
HETATM   24  C   UNL     1     -11.773  13.309  67.177  1.00  0.00    -0.376 A  
BRANCH  23  25
HETATM   25  C   UNL     1      -8.056  14.937  68.132  1.00  0.00    -0.137 A  
HETATM   26  C   UNL     1      -7.136  15.272  67.120  1.00  0.00    -0.090 A  
HETATM   27  C   UNL     1      -6.473  15.880  69.745  1.00  0.00    -0.163 A  
HETATM   28  C   UNL     1      -7.629  15.151  69.455  1.00  0.00    -0.210 A  
HETATM   29  C   UNL     1      -5.624  16.270  68.720  1.00  0.00    -0.109 A  
HETATM   30  C   UNL     1      -5.926  15.915  67.410  1.00  0.00    -0.125 A  
ENDBRANCH  23  25
BRANCH  22  31
HETATM   31  C   UNL     1     -10.506  16.747  67.208  1.00  0.00    -0.310 A  
HETATM   32  C   UNL     1     -10.525  18.706  65.719  1.00  0.00    -0.294 A  
HETATM   33  C   UNL     1     -10.552  19.039  68.094  1.00  0.00    -0.322 A  
HETATM   34  C   UNL     1     -10.420  17.657  68.282  1.00  0.00    -0.376 A  
HETATM   35  C   UNL     1     -10.512  17.317  65.915  1.00  0.00    -0.267 A  
HETATM   36  C   UNL     1     -10.610  19.563  66.809  1.00  0.00    -0.597 A  
ENDBRANCH  22  31
ENDBRANCH   4  19
ENDBRANCH   2   4
TORSDOF 12
ENDMDL
MODEL      217
REMARK 921   NORMALIZED FREE ENERGY PREDICTED BY IDOCK:   -4.33 KCAL/MOL
REMARK 922        TOTAL FREE ENERGY PREDICTED BY IDOCK:   -8.69 KCAL/MOL
REMARK 923 INTER-LIGAND FREE ENERGY PREDICTED BY IDOCK:   -7.30 KCAL/MOL
REMARK 924 INTRA-LIGAND FREE ENERGY PREDICTED BY IDOCK:   -1.39 KCAL/MOL
REMARK 927      BINDING AFFINITY PREDICTED BY RF-SCORE:    0.00 PKD
ROOT
HETATM    1  C   UNL     1     -12.338  14.382  72.897  1.00  0.00    -0.190 C  
HETATM    2  C   UNL     1     -12.839  13.390  71.846  1.00  0.00    -0.256 C  
HETATM    3  C   UNL     1     -14.359  13.502  71.716  1.00  0.00     0.145 C  
ENDROOT
BRANCH   2   4
HETATM    4  N   UNL     1     -12.168  13.512  70.529  1.00  0.00    -0.362 NA 
BRANCH   4   5
HETATM    5  C   UNL     1     -12.128  14.784  69.786  1.00  0.00    -0.319 C  
BRANCH   5   6
HETATM    6  C   UNL     1     -10.903  15.638  70.137  1.00  0.00    -0.356 C  
BRANCH   6   7
HETATM    7  C   UNL     1     -10.680  16.830  69.189  1.00  0.00    -0.329 C  
BRANCH   7   8
HETATM    8  C   UNL     1     -11.322  16.686  67.809  1.00  0.00     0.058 C  
BRANCH   8   9
HETATM    9  O   UNL     1     -10.300  16.589  66.819  1.00  0.00    -0.292 OA 
BRANCH   9  10
HETATM   10  C   UNL     1     -10.272  15.300  66.210  1.00  0.00    -0.287 C  
BRANCH  10  11
HETATM   11  C   UNL     1      -9.166  14.430  66.795  1.00  0.00    -0.268 C  
HETATM   12  O   UNL     1      -8.852  13.359  66.293  1.00  0.00     0.026 OA 
HETATM   13  N   UNL     1      -8.504  14.986  67.901  1.00  0.00    -0.143 N  
HETATM   14  H   UNL     1      -8.739  15.934  68.193  1.00  0.00     0.000 HD 
BRANCH  13  15
HETATM   15  S   UNL     1      -7.350  14.141  68.746  1.00  0.00    -0.126 S  
HETATM   16  O   UNL     1      -7.131  14.774  70.020  1.00  0.00    -0.165 OA 
HETATM   17  C   UNL     1      -5.931  14.488  67.756  1.00  0.00    -0.097 C  
HETATM   18  O   UNL     1      -7.628  12.734  68.607  1.00  0.00    -0.127 OA 
ENDBRANCH  13  15
ENDBRANCH  10  11
ENDBRANCH   9  10
ENDBRANCH   8   9
ENDBRANCH   7   8
ENDBRANCH   6   7
ENDBRANCH   5   6
ENDBRANCH   4   5
BRANCH   4  19
HETATM   19  C   UNL     1     -11.643  12.329  69.997  1.00  0.00    -0.157 A  
HETATM   20  N   UNL     1     -10.586  11.094  68.171  1.00  0.00    -0.183 NA 
HETATM   21  N   UNL     1     -11.667  11.197  70.736  1.00  0.00    -0.228 NA 
HETATM   22  C   UNL     1     -10.645   9.954  68.928  1.00  0.00    -0.218 A  
HETATM   23  C   UNL     1     -11.167  10.015  70.237  1.00  0.00    -0.313 A  
HETATM   24  C   UNL     1     -11.076  12.236  68.732  1.00  0.00    -0.251 A  
BRANCH  23  25
HETATM   25  C   UNL     1     -11.304   8.870  71.180  1.00  0.00    -0.357 A  
HETATM   26  C   UNL     1     -12.228   7.837  70.927  1.00  0.00    -0.166 A  
HETATM   27  C   UNL     1     -10.429   7.501  73.013  1.00  0.00    -0.396 A  
HETATM   28  C   UNL     1     -10.494   8.712  72.319  1.00  0.00    -0.376 A  
HETATM   29  C   UNL     1     -11.297   6.469  72.688  1.00  0.00    -0.259 A  
HETATM   30  C   UNL     1     -12.237   6.659  71.681  1.00  0.00    -0.401 A  
ENDBRANCH  23  25
BRANCH  22  31
HETATM   31  C   UNL     1     -10.166   8.726  68.211  1.00  0.00    -0.240 A  
HETATM   32  C   UNL     1      -8.360   7.145  67.668  1.00  0.00    -0.117 A  
HETATM   33  C   UNL     1     -10.560   6.754  66.796  1.00  0.00    -0.311 A  
HETATM   34  C   UNL     1     -10.985   7.971  67.347  1.00  0.00     0.029 A  
HETATM   35  C   UNL     1      -8.822   8.300  68.314  1.00  0.00    -0.140 A  
HETATM   36  C   UNL     1      -9.246   6.338  66.963  1.00  0.00    -0.130 A  
ENDBRANCH  22  31
ENDBRANCH   4  19
ENDBRANCH   2   4
TORSDOF 12
ENDMDL
MODEL      218
REMARK 921   NORMALIZED FREE ENERGY PREDICTED BY IDOCK:   -4.32 KCAL/MOL
REMARK 922        TOTAL FREE ENERGY PREDICTED BY IDOCK:   -8.67 KCAL/MOL
REMARK 923 INTER-LIGAND FREE ENERGY PREDICTED BY IDOCK:   -6.77 KCAL/MOL
REMARK 924 INTRA-LIGAND FREE ENERGY PREDICTED BY IDOCK:   -1.90 KCAL/MOL
REMARK 927      BINDING AFFINITY PREDICTED BY RF-SCORE:    0.00 PKD
ROOT
HETATM    1  C   UNL     1      -8.959   9.237  70.743  1.00  0.00    -0.292 C  
HETATM    2  C   UNL     1      -7.687   9.720  70.043  1.00  0.00    -0.171 C  
HETATM    3  C   UNL     1      -6.538   8.755  70.340  1.00  0.00    -0.042 C  
ENDROOT
BRANCH   2   4
HETATM    4  N   UNL     1      -7.847   9.948  68.587  1.00  0.00    -0.084 NA 
BRANCH   4   5
HETATM    5  C   UNL     1      -7.564   8.896  67.595  1.00  0.00    -0.093 C  
BRANCH   5   6
HETATM    6  C   UNL     1      -6.408   9.261  66.655  1.00  0.00    -0.066 C  
BRANCH   6   7
HETATM    7  C   UNL     1      -5.455   8.091  66.352  1.00  0.00    -0.028 C  
BRANCH   7   8
HETATM    8  C   UNL     1      -5.820   6.770  67.029  1.00  0.00    -0.014 C  
BRANCH   8   9
HETATM    9  O   UNL     1      -5.360   5.684  66.226  1.00  0.00    -0.011 OA 
BRANCH   9  10
HETATM   10  C   UNL     1      -5.820   5.789  64.880  1.00  0.00    -0.024 C  
BRANCH  10  11
HETATM   11  C   UNL     1      -7.293   5.413  64.763  1.00  0.00    -0.067 C  
HETATM   12  O   UNL     1      -8.153   6.242  64.501  1.00  0.00    -0.124 OA 
HETATM   13  N   UNL     1      -7.563   4.044  64.915  1.00  0.00    -0.076 N  
HETATM   14  H   UNL     1      -6.784   3.393  65.015  1.00  0.00     0.000 HD 
BRANCH  13  15
HETATM   15  S   UNL     1      -9.117   3.455  64.936  1.00  0.00    -0.145 S  
HETATM   16  O   UNL     1      -9.731   3.771  66.198  1.00  0.00    -0.186 OA 
HETATM   17  C   UNL     1      -8.787   1.721  64.952  1.00  0.00    -0.115 C  
HETATM   18  O   UNL     1      -9.731   3.756  63.667  1.00  0.00    -0.142 OA 
ENDBRANCH  13  15
ENDBRANCH  10  11
ENDBRANCH   9  10
ENDBRANCH   8   9
ENDBRANCH   7   8
ENDBRANCH   6   7
ENDBRANCH   5   6
ENDBRANCH   4   5
BRANCH   4  19
HETATM   19  C   UNL     1      -8.206  11.246  68.205  1.00  0.00    -0.140 A  
HETATM   20  N   UNL     1      -8.065  13.670  68.483  1.00  0.00    -0.140 NA 
HETATM   21  N   UNL     1      -9.078  11.423  67.185  1.00  0.00    -0.161 NA 
HETATM   22  C   UNL     1      -8.968  13.825  67.465  1.00  0.00    -0.201 A  
HETATM   23  C   UNL     1      -9.457  12.687  66.792  1.00  0.00    -0.237 A  
HETATM   24  C   UNL     1      -7.711  12.395  68.809  1.00  0.00    -0.007 A  
BRANCH  23  25
HETATM   25  C   UNL     1     -10.443  12.686  65.674  1.00  0.00    -0.298 A  
HETATM   26  C   UNL     1     -10.037  12.387  64.359  1.00  0.00    -0.293 A  
HETATM   27  C   UNL     1     -12.756  12.610  64.870  1.00  0.00    -0.450 A  
HETATM   28  C   UNL     1     -11.819  12.910  65.863  1.00  0.00    -0.476 A  
HETATM   29  C   UNL     1     -12.328  12.238  63.605  1.00  0.00    -0.664 A  
HETATM   30  C   UNL     1     -10.966  12.183  63.331  1.00  0.00    -0.480 A  
ENDBRANCH  23  25
BRANCH  22  31
HETATM   31  C   UNL     1      -9.370  15.250  67.224  1.00  0.00    -0.212 A  
HETATM   32  C   UNL     1      -9.100  17.359  65.984  1.00  0.00    -0.086 A  
HETATM   33  C   UNL     1     -10.801  17.199  67.667  1.00  0.00    -0.241 A  
HETATM   34  C   UNL     1     -10.345  15.916  67.996  1.00  0.00    -0.262 A  
HETATM   35  C   UNL     1      -8.726  16.031  66.238  1.00  0.00    -0.372 A  
HETATM   36  C   UNL     1     -10.181  17.919  66.655  1.00  0.00    -0.371 A  
ENDBRANCH  22  31
ENDBRANCH   4  19
ENDBRANCH   2   4
TORSDOF 12
ENDMDL
MODEL      219
REMARK 921   NORMALIZED FREE ENERGY PREDICTED BY IDOCK:   -4.30 KCAL/MOL
REMARK 922        TOTAL FREE ENERGY PREDICTED BY IDOCK:   -8.64 KCAL/MOL
REMARK 923 INTER-LIGAND FREE ENERGY PREDICTED BY IDOCK:   -7.91 KCAL/MOL
REMARK 924 INTRA-LIGAND FREE ENERGY PREDICTED BY IDOCK:   -0.73 KCAL/MOL
REMARK 927      BINDING AFFINITY PREDICTED BY RF-SCORE:    0.00 PKD
ROOT
HETATM    1  C   UNL     1     -10.680  17.827  66.119  1.00  0.00    -0.110 C  
HETATM    2  C   UNL     1     -10.770  16.306  65.973  1.00  0.00    -0.214 C  
HETATM    3  C   UNL     1     -11.328  15.954  64.593  1.00  0.00    -0.328 C  
ENDROOT
BRANCH   2   4
HETATM    4  N   UNL     1      -9.496  15.596  66.245  1.00  0.00    -0.291 NA 
BRANCH   4   5
HETATM    5  C   UNL     1      -8.189  16.266  66.138  1.00  0.00    -0.169 C  
BRANCH   5   6
HETATM    6  C   UNL     1      -7.750  16.924  67.452  1.00  0.00    -0.193 C  
BRANCH   6   7
HETATM    7  C   UNL     1      -6.996  15.978  68.404  1.00  0.00    -0.121 C  
BRANCH   7   8
HETATM    8  C   UNL     1      -7.787  15.537  69.636  1.00  0.00    -0.128 C  
BRANCH   8   9
HETATM    9  O   UNL     1      -9.062  16.177  69.633  1.00  0.00    -0.124 OA 
BRANCH   9  10
HETATM   10  C   UNL     1     -10.127  15.238  69.760  1.00  0.00    -0.218 C  
BRANCH  10  11
HETATM   11  C   UNL     1     -11.198  15.736  70.723  1.00  0.00    -0.375 C  
HETATM   12  O   UNL     1     -12.128  16.437  70.350  1.00  0.00     0.043 OA 
HETATM   13  N   UNL     1     -11.063  15.272  72.041  1.00  0.00    -0.470 N  
HETATM   14  H   UNL     1     -10.332  14.596  72.256  1.00  0.00     0.000 HD 
BRANCH  13  15
HETATM   15  S   UNL     1     -12.064  15.796  73.260  1.00  0.00    -0.504 S  
HETATM   16  O   UNL     1     -12.057  14.835  74.331  1.00  0.00    -0.508 OA 
HETATM   17  C   UNL     1     -13.628  15.649  72.457  1.00  0.00    -0.552 C  
HETATM   18  O   UNL     1     -11.825  17.202  73.467  1.00  0.00    -0.176 OA 
ENDBRANCH  13  15
ENDBRANCH  10  11
ENDBRANCH   9  10
ENDBRANCH   8   9
ENDBRANCH   7   8
ENDBRANCH   6   7
ENDBRANCH   5   6
ENDBRANCH   4   5
BRANCH   4  19
HETATM   19  C   UNL     1      -9.605  14.231  66.531  1.00  0.00    -0.297 A  
HETATM   20  N   UNL     1     -10.914  12.169  66.642  1.00  0.00    -0.268 NA 
HETATM   21  N   UNL     1      -8.531  13.564  67.013  1.00  0.00    -0.168 NA 
HETATM   22  C   UNL     1      -9.821  11.520  67.153  1.00  0.00    -0.191 A  
HETATM   23  C   UNL     1      -8.609  12.222  67.313  1.00  0.00    -0.183 A  
HETATM   24  C   UNL     1     -10.766  13.491  66.342  1.00  0.00    -0.287 A  
BRANCH  23  25
HETATM   25  C   UNL     1      -7.339  11.664  67.858  1.00  0.00    -0.096 A  
HETATM   26  C   UNL     1      -6.731  12.237  68.992  1.00  0.00    -0.105 A  
HETATM   27  C   UNL     1      -5.711   9.842  68.030  1.00  0.00    -0.040 A  
HETATM   28  C   UNL     1      -6.716  10.518  67.333  1.00  0.00    -0.071 A  
HETATM   29  C   UNL     1      -5.186  10.389  69.191  1.00  0.00    -0.038 A  
HETATM   30  C   UNL     1      -5.657  11.618  69.642  1.00  0.00    -0.076 A  
ENDBRANCH  23  25
BRANCH  22  31
HETATM   31  C   UNL     1     -10.088  10.094  67.536  1.00  0.00    -0.244 A  
HETATM   32  C   UNL     1     -10.307   7.725  66.906  1.00  0.00    -0.396 A  
HETATM   33  C   UNL     1     -10.543   8.352  69.210  1.00  0.00    -0.193 A  
HETATM   34  C   UNL     1     -10.432   9.700  68.846  1.00  0.00    -0.234 A  
HETATM   35  C   UNL     1     -10.079   9.066  66.566  1.00  0.00    -0.354 A  
HETATM   36  C   UNL     1     -10.474   7.362  68.238  1.00  0.00    -0.231 A  
ENDBRANCH  22  31
ENDBRANCH   4  19
ENDBRANCH   2   4
TORSDOF 12
ENDMDL
MODEL      220
REMARK 921   NORMALIZED FREE ENERGY PREDICTED BY IDOCK:   -4.30 KCAL/MOL
REMARK 922        TOTAL FREE ENERGY PREDICTED BY IDOCK:   -8.64 KCAL/MOL
REMARK 923 INTER-LIGAND FREE ENERGY PREDICTED BY IDOCK:   -7.45 KCAL/MOL
REMARK 924 INTRA-LIGAND FREE ENERGY PREDICTED BY IDOCK:   -1.19 KCAL/MOL
REMARK 927      BINDING AFFINITY PREDICTED BY RF-SCORE:    0.00 PKD
ROOT
HETATM    1  C   UNL     1      -8.202   5.470  72.873  1.00  0.00    -0.109 C  
HETATM    2  C   UNL     1      -7.858   6.573  71.871  1.00  0.00    -0.103 C  
HETATM    3  C   UNL     1      -6.684   6.127  70.997  1.00  0.00    -0.061 C  
ENDROOT
BRANCH   2   4
HETATM    4  N   UNL     1      -9.008   7.027  71.051  1.00  0.00    -0.150 NA 
BRANCH   4   5
HETATM    5  C   UNL     1     -10.376   7.095  71.593  1.00  0.00    -0.197 C  
BRANCH   5   6
HETATM    6  C   UNL     1     -10.716   8.473  72.175  1.00  0.00    -0.426 C  
BRANCH   6   7
HETATM    7  C   UNL     1     -10.973   9.555  71.111  1.00  0.00    -0.438 C  
BRANCH   7   8
HETATM    8  C   UNL     1     -12.172  10.462  71.389  1.00  0.00    -0.362 C  
BRANCH   8   9
HETATM    9  O   UNL     1     -12.303  11.410  70.331  1.00  0.00    -0.324 OA 
BRANCH   9  10
HETATM   10  C   UNL     1     -11.734  10.929  69.115  1.00  0.00    -0.326 C  
BRANCH  10  11
HETATM   11  C   UNL     1     -11.749  11.999  68.030  1.00  0.00    -0.331 C  
HETATM   12  O   UNL     1     -11.813  11.715  66.841  1.00  0.00    -0.577 OA 
HETATM   13  N   UNL     1     -11.750  13.319  68.508  1.00  0.00    -0.332 N  
HETATM   14  H   UNL     1     -11.814  13.482  69.512  1.00  0.00     0.000 HD 
BRANCH  13  15
HETATM   15  S   UNL     1     -11.649  14.622  67.481  1.00  0.00    -0.374 S  
HETATM   16  O   UNL     1     -12.385  14.341  66.278  1.00  0.00    -0.443 OA 
HETATM   17  C   UNL     1      -9.937  14.546  67.059  1.00  0.00    -0.255 C  
HETATM   18  O   UNL     1     -11.840  15.822  68.256  1.00  0.00    -0.301 OA 
ENDBRANCH  13  15
ENDBRANCH  10  11
ENDBRANCH   9  10
ENDBRANCH   8   9
ENDBRANCH   7   8
ENDBRANCH   6   7
ENDBRANCH   5   6
ENDBRANCH   4   5
BRANCH   4  19
HETATM   19  C   UNL     1      -8.730   7.311  69.709  1.00  0.00    -0.142 A  
HETATM   20  N   UNL     1      -7.995   8.852  67.960  1.00  0.00    -0.102 NA 
HETATM   21  N   UNL     1      -8.930   6.356  68.771  1.00  0.00    -0.127 NA 
HETATM   22  C   UNL     1      -8.229   7.880  67.025  1.00  0.00    -0.117 A  
HETATM   23  C   UNL     1      -8.675   6.608  67.442  1.00  0.00    -0.118 A  
HETATM   24  C   UNL     1      -8.244   8.533  69.262  1.00  0.00    -0.115 A  
BRANCH  23  25
HETATM   25  C   UNL     1      -8.979   5.451  66.553  1.00  0.00    -0.120 A  
HETATM   26  C   UNL     1     -10.256   5.303  65.978  1.00  0.00    -0.167 A  
HETATM   27  C   UNL     1      -8.232   3.605  65.126  1.00  0.00    -0.097 A  
HETATM   28  C   UNL     1      -8.016   4.495  66.182  1.00  0.00    -0.099 A  
HETATM   29  C   UNL     1      -9.479   3.537  64.522  1.00  0.00    -0.154 A  
HETATM   30  C   UNL     1     -10.510   4.346  64.988  1.00  0.00    -0.157 A  
ENDBRANCH  23  25
BRANCH  22  31
HETATM   31  C   UNL     1      -8.013   8.334  65.611  1.00  0.00    -0.113 A  
HETATM   32  C   UNL     1      -8.768   9.607  63.645  1.00  0.00    -0.240 A  
HETATM   33  C   UNL     1      -6.660   8.465  63.563  1.00  0.00    -0.084 A  
HETATM   34  C   UNL     1      -6.914   7.923  64.830  1.00  0.00    -0.059 A  
HETATM   35  C   UNL     1      -8.960   9.156  64.959  1.00  0.00    -0.221 A  
HETATM   36  C   UNL     1      -7.587   9.314  62.973  1.00  0.00    -0.107 A  
ENDBRANCH  22  31
ENDBRANCH   4  19
ENDBRANCH   2   4
TORSDOF 12
ENDMDL
MODEL      221
REMARK 921   NORMALIZED FREE ENERGY PREDICTED BY IDOCK:   -4.29 KCAL/MOL
REMARK 922        TOTAL FREE ENERGY PREDICTED BY IDOCK:   -8.62 KCAL/MOL
REMARK 923 INTER-LIGAND FREE ENERGY PREDICTED BY IDOCK:   -7.44 KCAL/MOL
REMARK 924 INTRA-LIGAND FREE ENERGY PREDICTED BY IDOCK:   -1.18 KCAL/MOL
REMARK 927      BINDING AFFINITY PREDICTED BY RF-SCORE:    0.00 PKD
ROOT
HETATM    1  C   UNL     1     -12.995  13.500  65.101  1.00  0.00    -0.263 C  
HETATM    2  C   UNL     1     -12.069  12.281  65.101  1.00  0.00    -0.316 C  
HETATM    3  C   UNL     1     -11.409  12.136  63.729  1.00  0.00    -0.529 C  
ENDROOT
BRANCH   2   4
HETATM    4  N   UNL     1     -11.066  12.283  66.193  1.00  0.00    -0.297 NA 
BRANCH   4   5
HETATM    5  C   UNL     1     -11.023  13.345  67.214  1.00  0.00    -0.272 C  
BRANCH   5   6
HETATM    6  C   UNL     1     -11.782  12.970  68.493  1.00  0.00    -0.377 C  
BRANCH   6   7
HETATM    7  C   UNL     1     -11.374  11.608  69.086  1.00  0.00    -0.345 C  
BRANCH   7   8
HETATM    8  C   UNL     1     -12.493  10.857  69.808  1.00  0.00    -0.182 C  
BRANCH   8   9
HETATM    9  O   UNL     1     -12.185  10.774  71.198  1.00  0.00    -0.348 OA 
BRANCH   9  10
HETATM   10  C   UNL     1     -12.463   9.478  71.726  1.00  0.00    -0.401 C  
BRANCH  10  11
HETATM   11  C   UNL     1     -11.190   8.780  72.188  1.00  0.00    -0.338 C  
HETATM   12  O   UNL     1     -11.187   7.996  73.128  1.00  0.00    -0.336 OA 
HETATM   13  N   UNL     1     -10.053   9.059  71.413  1.00  0.00    -0.308 N  
HETATM   14  H   UNL     1     -10.153   9.629  70.574  1.00  0.00     0.000 HD 
BRANCH  13  15
HETATM   15  S   UNL     1      -8.549   8.485  71.827  1.00  0.00    -0.185 S  
HETATM   16  O   UNL     1      -7.610   8.814  70.788  1.00  0.00    -0.072 OA 
HETATM   17  C   UNL     1      -8.843   6.748  71.714  1.00  0.00    -0.128 C  
HETATM   18  O   UNL     1      -8.318   8.784  73.218  1.00  0.00    -0.389 OA 
ENDBRANCH  13  15
ENDBRANCH  10  11
ENDBRANCH   9  10
ENDBRANCH   8   9
ENDBRANCH   7   8
ENDBRANCH   6   7
ENDBRANCH   5   6
ENDBRANCH   4   5
BRANCH   4  19
HETATM   19  C   UNL     1     -10.112  11.260  66.151  1.00  0.00    -0.236 A  
HETATM   20  N   UNL     1      -7.863  10.457  65.629  1.00  0.00    -0.151 NA 
HETATM   21  N   UNL     1     -10.450  10.017  66.564  1.00  0.00    -0.189 NA 
HETATM   22  C   UNL     1      -8.235   9.201  66.027  1.00  0.00    -0.115 A  
HETATM   23  C   UNL     1      -9.536   8.987  66.527  1.00  0.00    -0.223 A  
HETATM   24  C   UNL     1      -8.806  11.439  65.712  1.00  0.00    -0.111 A  
BRANCH  23  25
HETATM   25  C   UNL     1     -10.094   7.686  66.993  1.00  0.00    -0.338 A  
HETATM   26  C   UNL     1      -9.899   6.511  66.241  1.00  0.00    -0.032 A  
HETATM   27  C   UNL     1     -11.018   6.276  68.770  1.00  0.00    -0.424 A  
HETATM   28  C   UNL     1     -10.773   7.535  68.215  1.00  0.00    -0.128 A  
HETATM   29  C   UNL     1     -10.740   5.132  68.038  1.00  0.00     0.114 A  
HETATM   30  C   UNL     1     -10.234   5.250  66.748  1.00  0.00    -0.287 A  
ENDBRANCH  23  25
BRANCH  22  31
HETATM   31  C   UNL     1      -7.172   8.162  65.825  1.00  0.00    -0.068 A  
HETATM   32  C   UNL     1      -5.456   6.662  66.752  1.00  0.00    -0.013 A  
HETATM   33  C   UNL     1      -5.891   6.627  64.394  1.00  0.00    -0.031 A  
HETATM   34  C   UNL     1      -6.787   7.693  64.552  1.00  0.00    -0.055 A  
HETATM   35  C   UNL     1      -6.440   7.647  66.918  1.00  0.00    -0.054 A  
HETATM   36  C   UNL     1      -5.228   6.107  65.498  1.00  0.00    -0.013 A  
ENDBRANCH  22  31
ENDBRANCH   4  19
ENDBRANCH   2   4
TORSDOF 12
ENDMDL
MODEL      222
REMARK 921   NORMALIZED FREE ENERGY PREDICTED BY IDOCK:   -4.27 KCAL/MOL
REMARK 922        TOTAL FREE ENERGY PREDICTED BY IDOCK:   -8.59 KCAL/MOL
REMARK 923 INTER-LIGAND FREE ENERGY PREDICTED BY IDOCK:   -6.48 KCAL/MOL
REMARK 924 INTRA-LIGAND FREE ENERGY PREDICTED BY IDOCK:   -2.11 KCAL/MOL
REMARK 927      BINDING AFFINITY PREDICTED BY RF-SCORE:    0.00 PKD
ROOT
HETATM    1  C   UNL     1      -9.946   6.049  74.508  1.00  0.00    -0.321 C  
HETATM    2  C   UNL     1     -10.289   7.302  73.699  1.00  0.00    -0.352 C  
HETATM    3  C   UNL     1      -9.018   8.114  73.445  1.00  0.00    -0.313 C  
ENDROOT
BRANCH   2   4
HETATM    4  N   UNL     1     -11.024   7.028  72.441  1.00  0.00    -0.237 NA 
BRANCH   4   5
HETATM    5  C   UNL     1     -12.461   6.702  72.429  1.00  0.00     0.068 C  
BRANCH   5   6
HETATM    6  C   UNL     1     -13.180   7.230  71.181  1.00  0.00    -0.273 C  
BRANCH   6   7
HETATM    7  C   UNL     1     -14.093   8.440  71.451  1.00  0.00    -0.363 C  
BRANCH   7   8
HETATM    8  C   UNL     1     -13.364   9.773  71.624  1.00  0.00    -0.399 C  
BRANCH   8   9
HETATM    9  O   UNL     1     -12.783  10.159  70.381  1.00  0.00    -0.238 OA 
BRANCH   9  10
HETATM   10  C   UNL     1     -11.927  11.291  70.524  1.00  0.00    -0.371 C  
BRANCH  10  11
HETATM   11  C   UNL     1     -11.454  11.808  69.170  1.00  0.00    -0.297 C  
HETATM   12  O   UNL     1     -12.122  12.590  68.508  1.00  0.00    -0.266 OA 
HETATM   13  N   UNL     1     -10.178  11.367  68.787  1.00  0.00    -0.229 N  
HETATM   14  H   UNL     1      -9.629  10.811  69.440  1.00  0.00     0.000 HD 
BRANCH  13  15
HETATM   15  S   UNL     1      -9.539  11.729  67.296  1.00  0.00    -0.177 S  
HETATM   16  O   UNL     1     -10.310  11.074  66.273  1.00  0.00    -0.237 OA 
HETATM   17  C   UNL     1      -8.003  10.865  67.404  1.00  0.00    -0.113 C  
HETATM   18  O   UNL     1      -9.231  13.137  67.266  1.00  0.00    -0.204 OA 
ENDBRANCH  13  15
ENDBRANCH  10  11
ENDBRANCH   9  10
ENDBRANCH   8   9
ENDBRANCH   7   8
ENDBRANCH   6   7
ENDBRANCH   5   6
ENDBRANCH   4   5
BRANCH   4  19
HETATM   19  C   UNL     1     -10.256   7.019  71.271  1.00  0.00    -0.190 A  
HETATM   20  N   UNL     1      -9.198   8.187  69.402  1.00  0.00    -0.155 NA 
HETATM   21  N   UNL     1      -9.796   5.843  70.785  1.00  0.00    -0.179 NA 
HETATM   22  C   UNL     1      -8.765   6.982  68.914  1.00  0.00    -0.131 A  
HETATM   23  C   UNL     1      -9.045   5.801  69.631  1.00  0.00    -0.135 A  
HETATM   24  C   UNL     1      -9.916   8.164  70.561  1.00  0.00    -0.187 A  
BRANCH  23  25
HETATM   25  C   UNL     1      -8.652   4.420  69.233  1.00  0.00    -0.107 A  
HETATM   26  C   UNL     1      -9.597   3.535  68.678  1.00  0.00    -0.140 A  
HETATM   27  C   UNL     1      -6.928   2.772  68.671  1.00  0.00    -0.048 A  
HETATM   28  C   UNL     1      -7.331   3.943  69.320  1.00  0.00    -0.053 A  
HETATM   29  C   UNL     1      -7.871   1.960  68.060  1.00  0.00    -0.058 A  
HETATM   30  C   UNL     1      -9.216   2.313  68.113  1.00  0.00    -0.247 A  
ENDBRANCH  23  25
BRANCH  22  31
HETATM   31  C   UNL     1      -8.057   7.082  67.595  1.00  0.00    -0.114 A  
HETATM   32  C   UNL     1      -5.972   7.311  66.308  1.00  0.00    -0.036 A  
HETATM   33  C   UNL     1      -8.050   7.062  65.137  1.00  0.00    -0.124 A  
HETATM   34  C   UNL     1      -8.735   7.106  66.358  1.00  0.00    -0.146 A  
HETATM   35  C   UNL     1      -6.654   7.235  67.531  1.00  0.00    -0.057 A  
HETATM   36  C   UNL     1      -6.665   7.159  65.113  1.00  0.00    -0.047 A  
ENDBRANCH  22  31
ENDBRANCH   4  19
ENDBRANCH   2   4
TORSDOF 12
ENDMDL
MODEL      223
REMARK 921   NORMALIZED FREE ENERGY PREDICTED BY IDOCK:   -4.26 KCAL/MOL
REMARK 922        TOTAL FREE ENERGY PREDICTED BY IDOCK:   -8.56 KCAL/MOL
REMARK 923 INTER-LIGAND FREE ENERGY PREDICTED BY IDOCK:   -6.87 KCAL/MOL
REMARK 924 INTRA-LIGAND FREE ENERGY PREDICTED BY IDOCK:   -1.69 KCAL/MOL
REMARK 927      BINDING AFFINITY PREDICTED BY RF-SCORE:    0.00 PKD
ROOT
HETATM    1  C   UNL     1      -7.900  10.631  68.679  1.00  0.00    -0.121 C  
HETATM    2  C   UNL     1      -7.414   9.310  69.282  1.00  0.00    -0.075 C  
HETATM    3  C   UNL     1      -6.582   9.592  70.534  1.00  0.00    -0.094 C  
ENDROOT
BRANCH   2   4
HETATM    4  N   UNL     1      -8.497   8.334  69.552  1.00  0.00    -0.124 NA 
BRANCH   4   5
HETATM    5  C   UNL     1      -9.226   8.310  70.832  1.00  0.00    -0.155 C  
BRANCH   5   6
HETATM    6  C   UNL     1     -10.157   9.516  71.008  1.00  0.00    -0.299 C  
BRANCH   6   7
HETATM    7  C   UNL     1     -11.451   9.433  70.178  1.00  0.00    -0.175 C  
BRANCH   7   8
HETATM    8  C   UNL     1     -11.391  10.131  68.819  1.00  0.00    -0.115 C  
BRANCH   8   9
HETATM    9  O   UNL     1     -12.272  11.253  68.824  1.00  0.00    -0.532 OA 
BRANCH   9  10
HETATM   10  C   UNL     1     -11.563  12.484  68.950  1.00  0.00    -0.318 C  
BRANCH  10  11
HETATM   11  C   UNL     1     -11.858  13.419  67.784  1.00  0.00    -0.358 C  
HETATM   12  O   UNL     1     -12.284  14.553  67.956  1.00  0.00    -0.247 OA 
HETATM   13  N   UNL     1     -11.540  12.899  66.519  1.00  0.00    -0.351 N  
HETATM   14  H   UNL     1     -11.079  11.992  66.458  1.00  0.00     0.000 HD 
BRANCH  13  15
HETATM   15  S   UNL     1     -11.896  13.721  65.120  1.00  0.00    -0.374 S  
HETATM   16  O   UNL     1     -13.275  14.132  65.144  1.00  0.00    -0.743 OA 
HETATM   17  C   UNL     1     -11.780  12.402  63.952  1.00  0.00    -0.447 C  
HETATM   18  O   UNL     1     -10.812  14.629  64.841  1.00  0.00    -0.388 OA 
ENDBRANCH  13  15
ENDBRANCH  10  11
ENDBRANCH   9  10
ENDBRANCH   8   9
ENDBRANCH   7   8
ENDBRANCH   6   7
ENDBRANCH   5   6
ENDBRANCH   4   5
BRANCH   4  19
HETATM   19  C   UNL     1      -8.732   7.385  68.551  1.00  0.00    -0.127 A  
HETATM   20  N   UNL     1      -9.746   5.298  67.782  1.00  0.00    -0.133 NA 
HETATM   21  N   UNL     1      -8.174   7.554  67.330  1.00  0.00    -0.114 NA 
HETATM   22  C   UNL     1      -9.151   5.476  66.561  1.00  0.00    -0.138 A  
HETATM   23  C   UNL     1      -8.380   6.633  66.326  1.00  0.00    -0.125 A  
HETATM   24  C   UNL     1      -9.524   6.257  68.725  1.00  0.00    -0.122 A  
BRANCH  23  25
HETATM   25  C   UNL     1      -7.667   6.969  65.062  1.00  0.00    -0.115 A  
HETATM   26  C   UNL     1      -8.140   7.996  64.222  1.00  0.00    -0.117 A  
HETATM   27  C   UNL     1      -5.665   6.876  63.653  1.00  0.00    -0.036 A  
HETATM   28  C   UNL     1      -6.468   6.348  64.668  1.00  0.00    -0.034 A  
HETATM   29  C   UNL     1      -6.122   7.942  62.893  1.00  0.00    -0.072 A  
HETATM   30  C   UNL     1      -7.386   8.466  63.140  1.00  0.00    -0.104 A  
ENDBRANCH  23  25
BRANCH  22  31
HETATM   31  C   UNL     1      -9.373   4.339  65.608  1.00  0.00    -0.161 A  
HETATM   32  C   UNL     1      -9.077   1.969  65.014  1.00  0.00    -0.126 A  
HETATM   33  C   UNL     1     -10.341   3.394  63.555  1.00  0.00    -0.227 A  
HETATM   34  C   UNL     1     -10.025   4.491  64.366  1.00  0.00     0.073 A  
HETATM   35  C   UNL     1      -8.864   3.050  65.882  1.00  0.00    -0.141 A  
HETATM   36  C   UNL     1      -9.871   2.129  63.884  1.00  0.00    -0.134 A  
ENDBRANCH  22  31
ENDBRANCH   4  19
ENDBRANCH   2   4
TORSDOF 12
ENDMDL
MODEL      224
REMARK 921   NORMALIZED FREE ENERGY PREDICTED BY IDOCK:   -4.26 KCAL/MOL
REMARK 922        TOTAL FREE ENERGY PREDICTED BY IDOCK:   -8.56 KCAL/MOL
REMARK 923 INTER-LIGAND FREE ENERGY PREDICTED BY IDOCK:   -6.50 KCAL/MOL
REMARK 924 INTRA-LIGAND FREE ENERGY PREDICTED BY IDOCK:   -2.05 KCAL/MOL
REMARK 927      BINDING AFFINITY PREDICTED BY RF-SCORE:    0.00 PKD
ROOT
HETATM    1  C   UNL     1      -9.666  15.997  69.591  1.00  0.00    -0.164 C  
HETATM    2  C   UNL     1      -9.159  15.556  68.216  1.00  0.00    -0.186 C  
HETATM    3  C   UNL     1      -8.972  16.782  67.320  1.00  0.00    -0.222 C  
ENDROOT
BRANCH   2   4
HETATM    4  N   UNL     1      -7.935  14.720  68.261  1.00  0.00    -0.123 NA 
BRANCH   4   5
HETATM    5  C   UNL     1      -6.708  15.166  68.945  1.00  0.00    -0.110 C  
BRANCH   5   6
HETATM    6  C   UNL     1      -6.480  14.450  70.282  1.00  0.00    -0.130 C  
BRANCH   6   7
HETATM    7  C   UNL     1      -5.126  13.722  70.378  1.00  0.00    -0.096 C  
BRANCH   7   8
HETATM    8  C   UNL     1      -5.177  12.351  71.051  1.00  0.00    -0.155 C  
BRANCH   8   9
HETATM    9  O   UNL     1      -6.380  11.683  70.673  1.00  0.00    -0.257 OA 
BRANCH   9  10
HETATM   10  C   UNL     1      -6.144  10.318  70.333  1.00  0.00    -0.110 C  
BRANCH  10  11
HETATM   11  C   UNL     1      -7.413   9.484  70.465  1.00  0.00    -0.148 C  
HETATM   12  O   UNL     1      -7.577   8.698  71.388  1.00  0.00    -0.096 OA 
HETATM   13  N   UNL     1      -8.387   9.739  69.488  1.00  0.00    -0.145 N  
HETATM   14  H   UNL     1      -8.231  10.491  68.817  1.00  0.00     0.000 HD 
BRANCH  13  15
HETATM   15  S   UNL     1      -9.788   8.850  69.395  1.00  0.00    -0.188 S  
HETATM   16  O   UNL     1      -9.534   7.631  68.673  1.00  0.00    -0.150 OA 
HETATM   17  C   UNL     1     -10.737   9.885  68.326  1.00  0.00    -0.234 C  
HETATM   18  O   UNL     1     -10.427   8.877  70.687  1.00  0.00    -0.199 OA 
ENDBRANCH  13  15
ENDBRANCH  10  11
ENDBRANCH   9  10
ENDBRANCH   8   9
ENDBRANCH   7   8
ENDBRANCH   6   7
ENDBRANCH   5   6
ENDBRANCH   4   5
BRANCH   4  19
HETATM   19  C   UNL     1      -7.987  13.517  67.549  1.00  0.00    -0.181 A  
HETATM   20  N   UNL     1      -6.991  11.389  66.876  1.00  0.00    -0.134 NA 
HETATM   21  N   UNL     1      -9.067  13.244  66.781  1.00  0.00    -0.233 NA 
HETATM   22  C   UNL     1      -8.082  11.145  66.084  1.00  0.00    -0.111 A  
HETATM   23  C   UNL     1      -9.144  12.073  66.061  1.00  0.00    -0.092 A  
HETATM   24  C   UNL     1      -6.986  12.555  67.582  1.00  0.00    -0.139 A  
BRANCH  23  25
HETATM   25  C   UNL     1     -10.391  11.957  65.252  1.00  0.00    -0.316 A  
HETATM   26  C   UNL     1     -11.625  12.396  65.770  1.00  0.00    -0.449 A  
HETATM   27  C   UNL     1     -11.514  11.659  63.096  1.00  0.00    -0.125 A  
HETATM   28  C   UNL     1     -10.407  11.480  63.930  1.00  0.00    -0.422 A  
HETATM   29  C   UNL     1     -12.695  12.171  63.614  1.00  0.00    -0.549 A  
HETATM   30  C   UNL     1     -12.768  12.486  64.967  1.00  0.00    -0.302 A  
ENDBRANCH  23  25
BRANCH  22  31
HETATM   31  C   UNL     1      -7.975   9.886  65.275  1.00  0.00    -0.137 A  
HETATM   32  C   UNL     1      -7.172   8.705  63.271  1.00  0.00    -0.091 A  
HETATM   33  C   UNL     1      -8.362   7.480  64.956  1.00  0.00    -0.068 A  
HETATM   34  C   UNL     1      -8.588   8.674  65.653  1.00  0.00    -0.191 A  
HETATM   35  C   UNL     1      -7.300   9.875  64.034  1.00  0.00    -0.132 A  
HETATM   36  C   UNL     1      -7.647   7.495  63.765  1.00  0.00    -0.118 A  
ENDBRANCH  22  31
ENDBRANCH   4  19
ENDBRANCH   2   4
TORSDOF 12
ENDMDL
MODEL      225
REMARK 921   NORMALIZED FREE ENERGY PREDICTED BY IDOCK:   -4.20 KCAL/MOL
REMARK 922        TOTAL FREE ENERGY PREDICTED BY IDOCK:   -8.47 KCAL/MOL
REMARK 923 INTER-LIGAND FREE ENERGY PREDICTED BY IDOCK:   -8.29 KCAL/MOL
REMARK 924 INTRA-LIGAND FREE ENERGY PREDICTED BY IDOCK:   -0.18 KCAL/MOL
REMARK 927      BINDING AFFINITY PREDICTED BY RF-SCORE:    0.00 PKD
ROOT
HETATM    1  C   UNL     1     -10.248   7.494  73.458  1.00  0.00    -0.380 C  
HETATM    2  C   UNL     1      -9.945   8.339  72.218  1.00  0.00    -0.296 C  
HETATM    3  C   UNL     1      -8.685   7.808  71.530  1.00  0.00    -0.140 C  
ENDROOT
BRANCH   2   4
HETATM    4  N   UNL     1     -11.079   8.452  71.270  1.00  0.00    -0.246 NA 
BRANCH   4   5
HETATM    5  C   UNL     1     -12.110   7.406  71.155  1.00  0.00    -0.325 C  
BRANCH   5   6
HETATM    6  C   UNL     1     -11.653   6.212  70.306  1.00  0.00    -0.266 C  
BRANCH   6   7
HETATM    7  C   UNL     1     -11.723   6.462  68.788  1.00  0.00     0.428 C  
BRANCH   7   8
HETATM    8  C   UNL     1     -10.751   5.629  67.952  1.00  0.00    -0.158 C  
BRANCH   8   9
HETATM    9  O   UNL     1     -10.682   6.167  66.633  1.00  0.00    -0.273 OA 
BRANCH   9  10
HETATM   10  C   UNL     1      -9.349   6.160  66.126  1.00  0.00    -0.102 C  
BRANCH  10  11
HETATM   11  C   UNL     1      -8.325   6.254  67.251  1.00  0.00    -0.109 C  
HETATM   12  O   UNL     1      -8.050   7.318  67.789  1.00  0.00    -0.113 OA 
HETATM   13  N   UNL     1      -7.782   5.024  67.654  1.00  0.00    -0.087 N  
HETATM   14  H   UNL     1      -8.143   4.164  67.242  1.00  0.00     0.000 HD 
BRANCH  13  15
HETATM   15  S   UNL     1      -6.567   4.931  68.784  1.00  0.00    -0.050 S  
HETATM   16  O   UNL     1      -6.144   6.259  69.142  1.00  0.00    -0.026 OA 
HETATM   17  C   UNL     1      -5.280   4.238  67.794  1.00  0.00    -0.011 C  
HETATM   18  O   UNL     1      -6.932   3.935  69.760  1.00  0.00    -0.041 OA 
ENDBRANCH  13  15
ENDBRANCH  10  11
ENDBRANCH   9  10
ENDBRANCH   8   9
ENDBRANCH   7   8
ENDBRANCH   6   7
ENDBRANCH   5   6
ENDBRANCH   4   5
BRANCH   4  19
HETATM   19  C   UNL     1     -11.070   9.574  70.434  1.00  0.00    -0.277 A  
HETATM   20  N   UNL     1     -10.422  10.684  68.355  1.00  0.00    -0.177 NA 
HETATM   21  N   UNL     1     -11.674  10.714  70.843  1.00  0.00    -0.322 NA 
HETATM   22  C   UNL     1     -11.017  11.834  68.800  1.00  0.00    -0.234 A  
HETATM   23  C   UNL     1     -11.675  11.838  70.048  1.00  0.00    -0.305 A  
HETATM   24  C   UNL     1     -10.477   9.599  69.179  1.00  0.00    -0.214 A  
BRANCH  23  25
HETATM   25  C   UNL     1     -12.362  13.004  70.672  1.00  0.00    -0.391 A  
HETATM   26  C   UNL     1     -12.028  14.320  70.298  1.00  0.00    -0.398 A  
HETATM   27  C   UNL     1     -14.233  13.947  71.941  1.00  0.00    -0.443 A  
HETATM   28  C   UNL     1     -13.410  12.870  71.601  1.00  0.00    -0.358 A  
HETATM   29  C   UNL     1     -13.926  15.222  71.491  1.00  0.00    -0.627 A  
HETATM   30  C   UNL     1     -12.788  15.418  70.715  1.00  0.00    -0.524 A  
ENDBRANCH  23  25
BRANCH  22  31
HETATM   31  C   UNL     1     -10.841  13.004  67.877  1.00  0.00    -0.260 A  
HETATM   32  C   UNL     1     -11.592  14.319  65.937  1.00  0.00    -0.358 A  
HETATM   33  C   UNL     1      -9.687  15.063  67.190  1.00  0.00    -0.228 A  
HETATM   34  C   UNL     1      -9.759  13.903  67.973  1.00  0.00    -0.226 A  
HETATM   35  C   UNL     1     -11.729  13.221  66.799  1.00  0.00    -0.434 A  
HETATM   36  C   UNL     1     -10.610  15.273  66.174  1.00  0.00    -0.318 A  
ENDBRANCH  22  31
ENDBRANCH   4  19
ENDBRANCH   2   4
TORSDOF 12
ENDMDL
MODEL      226
REMARK 921   NORMALIZED FREE ENERGY PREDICTED BY IDOCK:   -4.17 KCAL/MOL
REMARK 922        TOTAL FREE ENERGY PREDICTED BY IDOCK:   -8.41 KCAL/MOL
REMARK 923 INTER-LIGAND FREE ENERGY PREDICTED BY IDOCK:   -7.24 KCAL/MOL
REMARK 924 INTRA-LIGAND FREE ENERGY PREDICTED BY IDOCK:   -1.16 KCAL/MOL
REMARK 927      BINDING AFFINITY PREDICTED BY RF-SCORE:    0.00 PKD
ROOT
HETATM    1  C   UNL     1     -10.064   7.258  66.716  1.00  0.00    -0.291 C  
HETATM    2  C   UNL     1      -8.585   7.373  66.340  1.00  0.00    -0.134 C  
HETATM    3  C   UNL     1      -8.456   7.700  64.851  1.00  0.00     0.008 C  
ENDROOT
BRANCH   2   4
HETATM    4  N   UNL     1      -7.820   8.329  67.178  1.00  0.00    -0.096 NA 
BRANCH   4   5
HETATM    5  C   UNL     1      -6.577   7.942  67.868  1.00  0.00    -0.056 C  
BRANCH   5   6
HETATM    6  C   UNL     1      -6.744   7.856  69.390  1.00  0.00    -0.039 C  
BRANCH   6   7
HETATM    7  C   UNL     1      -6.509   6.448  69.966  1.00  0.00    -0.040 C  
BRANCH   7   8
HETATM    8  C   UNL     1      -5.580   6.394  71.180  1.00  0.00    -0.026 C  
BRANCH   8   9
HETATM    9  O   UNL     1      -6.351   6.141  72.353  1.00  0.00    -0.051 OA 
BRANCH   9  10
HETATM   10  C   UNL     1      -6.745   7.350  72.999  1.00  0.00    -0.065 C  
BRANCH  10  11
HETATM   11  C   UNL     1      -8.243   7.595  72.857  1.00  0.00    -0.120 C  
HETATM   12  O   UNL     1      -8.711   8.725  72.805  1.00  0.00    -0.398 OA 
HETATM   13  N   UNL     1      -9.018   6.433  72.725  1.00  0.00    -0.125 N  
HETATM   14  H   UNL     1      -8.550   5.530  72.659  1.00  0.00     0.000 HD 
BRANCH  13  15
HETATM   15  S   UNL     1     -10.678   6.489  72.675  1.00  0.00    -0.242 S  
HETATM   16  O   UNL     1     -11.157   7.394  73.686  1.00  0.00    -0.258 OA 
HETATM   17  C   UNL     1     -11.056   4.858  73.235  1.00  0.00    -0.337 C  
HETATM   18  O   UNL     1     -11.086   6.567  71.295  1.00  0.00    -0.250 OA 
ENDBRANCH  13  15
ENDBRANCH  10  11
ENDBRANCH   9  10
ENDBRANCH   8   9
ENDBRANCH   7   8
ENDBRANCH   6   7
ENDBRANCH   5   6
ENDBRANCH   4   5
BRANCH   4  19
HETATM   19  C   UNL     1      -8.390   9.596  67.339  1.00  0.00    -0.114 A  
HETATM   20  N   UNL     1      -8.585  11.947  66.698  1.00  0.00    -0.184 NA 
HETATM   21  N   UNL     1      -9.313   9.793  68.309  1.00  0.00    -0.129 NA 
HETATM   22  C   UNL     1      -9.498  12.130  67.703  1.00  0.00    -0.187 A  
HETATM   23  C   UNL     1      -9.885  11.031  68.498  1.00  0.00    -0.192 A  
HETATM   24  C   UNL     1      -8.073  10.693  66.547  1.00  0.00    -0.140 A  
BRANCH  23  25
HETATM   25  C   UNL     1     -10.857  11.066  69.627  1.00  0.00    -0.241 A  
HETATM   26  C   UNL     1     -11.702  12.178  69.814  1.00  0.00    -0.381 A  
HETATM   27  C   UNL     1     -12.147   9.920  71.366  1.00  0.00    -0.501 A  
HETATM   28  C   UNL     1     -11.040   9.992  70.516  1.00  0.00    -0.400 A  
HETATM   29  C   UNL     1     -13.011  11.001  71.470  1.00  0.00    -0.553 A  
HETATM   30  C   UNL     1     -12.755  12.154  70.736  1.00  0.00    -0.220 A  
ENDBRANCH  23  25
BRANCH  22  31
HETATM   31  C   UNL     1      -9.950  13.552  67.860  1.00  0.00    -0.245 A  
HETATM   32  C   UNL     1     -11.410  15.411  67.175  1.00  0.00    -0.203 A  
HETATM   33  C   UNL     1      -9.884  15.730  68.998  1.00  0.00    -0.240 A  
HETATM   34  C   UNL     1      -9.359  14.451  68.772  1.00  0.00    -0.150 A  
HETATM   35  C   UNL     1     -10.960  14.091  67.032  1.00  0.00    -0.302 A  
HETATM   36  C   UNL     1     -10.916  16.208  68.201  1.00  0.00    -0.341 A  
ENDBRANCH  22  31
ENDBRANCH   4  19
ENDBRANCH   2   4
TORSDOF 12
ENDMDL
MODEL      227
REMARK 921   NORMALIZED FREE ENERGY PREDICTED BY IDOCK:   -4.16 KCAL/MOL
REMARK 922        TOTAL FREE ENERGY PREDICTED BY IDOCK:   -8.39 KCAL/MOL
REMARK 923 INTER-LIGAND FREE ENERGY PREDICTED BY IDOCK:   -7.93 KCAL/MOL
REMARK 924 INTRA-LIGAND FREE ENERGY PREDICTED BY IDOCK:   -0.46 KCAL/MOL
REMARK 927      BINDING AFFINITY PREDICTED BY RF-SCORE:    0.00 PKD
ROOT
HETATM    1  C   UNL     1     -11.620  15.025  70.980  1.00  0.00    -0.367 C  
HETATM    2  C   UNL     1     -11.957  14.584  69.554  1.00  0.00    -0.319 C  
HETATM    3  C   UNL     1     -12.022  15.809  68.639  1.00  0.00    -0.165 C  
ENDROOT
BRANCH   2   4
HETATM    4  N   UNL     1     -11.050  13.544  69.012  1.00  0.00    -0.257 NA 
BRANCH   4   5
HETATM    5  C   UNL     1     -10.065  13.838  67.956  1.00  0.00    -0.245 C  
BRANCH   5   6
HETATM    6  C   UNL     1      -8.779  13.014  68.097  1.00  0.00    -0.190 C  
BRANCH   6   7
HETATM    7  C   UNL     1      -7.510  13.863  68.291  1.00  0.00    -0.118 C  
BRANCH   7   8
HETATM    8  C   UNL     1      -7.762  15.332  68.633  1.00  0.00    -0.135 C  
BRANCH   8   9
HETATM    9  O   UNL     1      -7.052  16.159  67.713  1.00  0.00    -0.121 OA 
BRANCH   9  10
HETATM   10  C   UNL     1      -7.723  16.254  66.458  1.00  0.00    -0.225 C  
BRANCH  10  11
HETATM   11  C   UNL     1      -8.120  17.692  66.145  1.00  0.00    -0.193 C  
HETATM   12  O   UNL     1      -7.506  18.370  65.332  1.00  0.00    -0.494 OA 
HETATM   13  N   UNL     1      -9.272  18.141  66.810  1.00  0.00    -0.271 N  
HETATM   14  H   UNL     1      -9.801  17.484  67.383  1.00  0.00     0.000 HD 
BRANCH  13  15
HETATM   15  S   UNL     1      -9.796  19.713  66.688  1.00  0.00    -0.449 S  
HETATM   16  O   UNL     1      -9.911  20.073  65.300  1.00  0.00    -0.144 OA 
HETATM   17  C   UNL     1      -8.380  20.557  67.317  1.00  0.00    -0.286 C  
HETATM   18  O   UNL     1     -10.862  19.908  67.640  1.00  0.00    -0.337 OA 
ENDBRANCH  13  15
ENDBRANCH  10  11
ENDBRANCH   9  10
ENDBRANCH   8   9
ENDBRANCH   7   8
ENDBRANCH   6   7
ENDBRANCH   5   6
ENDBRANCH   4   5
BRANCH   4  19
HETATM   19  C   UNL     1     -11.238  12.248  69.505  1.00  0.00    -0.115 A  
HETATM   20  N   UNL     1     -12.209  10.701  71.130  1.00  0.00    -0.369 NA 
HETATM   21  N   UNL     1     -10.632  11.207  68.889  1.00  0.00    -0.199 NA 
HETATM   22  C   UNL     1     -11.565   9.665  70.507  1.00  0.00    -0.272 A  
HETATM   23  C   UNL     1     -10.790   9.921  69.356  1.00  0.00    -0.237 A  
HETATM   24  C   UNL     1     -12.031  11.947  70.605  1.00  0.00    -0.191 A  
BRANCH  23  25
HETATM   25  C   UNL     1     -10.027   8.909  68.571  1.00  0.00    -0.195 A  
HETATM   26  C   UNL     1      -8.648   8.724  68.787  1.00  0.00    -0.137 A  
HETATM   27  C   UNL     1      -9.969   6.921  67.141  1.00  0.00    -0.239 A  
HETATM   28  C   UNL     1     -10.630   8.048  67.637  1.00  0.00    -0.264 A  
HETATM   29  C   UNL     1      -8.629   6.720  67.437  1.00  0.00    -0.120 A  
HETATM   30  C   UNL     1      -7.952   7.654  68.214  1.00  0.00    -0.123 A  
ENDBRANCH  23  25
BRANCH  22  31
HETATM   31  C   UNL     1     -11.741   8.342  71.192  1.00  0.00    -0.315 A  
HETATM   32  C   UNL     1     -10.791   6.452  72.449  1.00  0.00    -0.267 A  
HETATM   33  C   UNL     1     -13.144   6.486  71.985  1.00  0.00     0.014 A  
HETATM   34  C   UNL     1     -12.969   7.650  71.225  1.00  0.00    -0.287 A  
HETATM   35  C   UNL     1     -10.644   7.679  71.787  1.00  0.00    -0.250 A  
HETATM   36  C   UNL     1     -12.053   5.890  72.603  1.00  0.00    -0.046 A  
ENDBRANCH  22  31
ENDBRANCH   4  19
ENDBRANCH   2   4
TORSDOF 12
ENDMDL
MODEL      228
REMARK 921   NORMALIZED FREE ENERGY PREDICTED BY IDOCK:   -4.09 KCAL/MOL
REMARK 922        TOTAL FREE ENERGY PREDICTED BY IDOCK:   -8.27 KCAL/MOL
REMARK 923 INTER-LIGAND FREE ENERGY PREDICTED BY IDOCK:   -8.03 KCAL/MOL
REMARK 924 INTRA-LIGAND FREE ENERGY PREDICTED BY IDOCK:   -0.24 KCAL/MOL
REMARK 927      BINDING AFFINITY PREDICTED BY RF-SCORE:    0.00 PKD
ROOT
HETATM    1  C   UNL     1     -13.016  13.874  65.269  1.00  0.00    -0.341 C  
HETATM    2  C   UNL     1     -12.179  12.654  64.879  1.00  0.00    -0.471 C  
HETATM    3  C   UNL     1     -11.892  12.686  63.377  1.00  0.00    -0.594 C  
ENDROOT
BRANCH   2   4
HETATM    4  N   UNL     1     -10.935  12.495  65.670  1.00  0.00    -0.279 NA 
BRANCH   4   5
HETATM    5  C   UNL     1     -10.562  13.437  66.740  1.00  0.00    -0.277 C  
BRANCH   5   6
HETATM    6  C   UNL     1     -11.440  13.294  67.990  1.00  0.00    -0.344 C  
BRANCH   6   7
HETATM    7  C   UNL     1     -10.993  12.170  68.942  1.00  0.00    -0.269 C  
BRANCH   7   8
HETATM    8  C   UNL     1     -12.112  11.240  69.413  1.00  0.00    -0.315 C  
BRANCH   8   9
HETATM    9  O   UNL     1     -12.180  11.267  70.838  1.00  0.00    -0.365 OA 
BRANCH   9  10
HETATM   10  C   UNL     1     -12.962  10.191  71.352  1.00  0.00    -0.429 C  
BRANCH  10  11
HETATM   11  C   UNL     1     -12.082   9.056  71.862  1.00  0.00    -0.378 C  
HETATM   12  O   UNL     1     -12.557   8.024  72.317  1.00  0.00    -0.296 OA 
HETATM   13  N   UNL     1     -10.703   9.266  71.705  1.00  0.00    -0.364 N  
HETATM   14  H   UNL     1     -10.382  10.098  71.210  1.00  0.00     0.000 HD 
BRANCH  13  15
HETATM   15  S   UNL     1      -9.581   8.197  72.303  1.00  0.00    -0.281 S  
HETATM   16  O   UNL     1      -8.259   8.728  72.100  1.00  0.00    -0.340 OA 
HETATM   17  C   UNL     1      -9.778   6.872  71.154  1.00  0.00    -0.173 C  
HETATM   18  O   UNL     1     -10.047   7.721  73.581  1.00  0.00    -0.294 OA 
ENDBRANCH  13  15
ENDBRANCH  10  11
ENDBRANCH   9  10
ENDBRANCH   8   9
ENDBRANCH   7   8
ENDBRANCH   6   7
ENDBRANCH   5   6
ENDBRANCH   4   5
BRANCH   4  19
HETATM   19  C   UNL     1     -10.095  11.443  65.288  1.00  0.00    -0.268 A  
HETATM   20  N   UNL     1      -9.262   9.879  63.604  1.00  0.00    -0.263 NA 
HETATM   21  N   UNL     1      -9.268  10.885  66.202  1.00  0.00    -0.178 NA 
HETATM   22  C   UNL     1      -8.452   9.312  64.552  1.00  0.00    -0.181 A  
HETATM   23  C   UNL     1      -8.437   9.842  65.859  1.00  0.00    -0.128 A  
HETATM   24  C   UNL     1     -10.044  10.924  64.000  1.00  0.00    -0.358 A  
BRANCH  23  25
HETATM   25  C   UNL     1      -7.620   9.338  66.999  1.00  0.00    -0.091 A  
HETATM   26  C   UNL     1      -8.078   8.269  67.793  1.00  0.00    -0.127 A  
HETATM   27  C   UNL     1      -5.478   9.160  68.173  1.00  0.00    -0.038 A  
HETATM   28  C   UNL     1      -6.342   9.837  67.307  1.00  0.00    -0.068 A  
HETATM   29  C   UNL     1      -5.931   8.058  68.882  1.00  0.00    -0.039 A  
HETATM   30  C   UNL     1      -7.252   7.647  68.736  1.00  0.00    -0.082 A  
ENDBRANCH  23  25
BRANCH  22  31
HETATM   31  C   UNL     1      -7.689   8.118  64.060  1.00  0.00    -0.137 A  
HETATM   32  C   UNL     1      -5.850   7.164  62.731  1.00  0.00    -0.041 A  
HETATM   33  C   UNL     1      -7.251   5.699  64.014  1.00  0.00    -0.055 A  
HETATM   34  C   UNL     1      -8.054   6.791  64.369  1.00  0.00    -0.058 A  
HETATM   35  C   UNL     1      -6.588   8.266  63.187  1.00  0.00    -0.085 A  
HETATM   36  C   UNL     1      -6.143   5.888  63.198  1.00  0.00    -0.021 A  
ENDBRANCH  22  31
ENDBRANCH   4  19
ENDBRANCH   2   4
TORSDOF 12
ENDMDL
MODEL      229
REMARK 921   NORMALIZED FREE ENERGY PREDICTED BY IDOCK:   -4.07 KCAL/MOL
REMARK 922        TOTAL FREE ENERGY PREDICTED BY IDOCK:   -8.25 KCAL/MOL
REMARK 923 INTER-LIGAND FREE ENERGY PREDICTED BY IDOCK:   -6.79 KCAL/MOL
REMARK 924 INTRA-LIGAND FREE ENERGY PREDICTED BY IDOCK:   -1.45 KCAL/MOL
REMARK 927      BINDING AFFINITY PREDICTED BY RF-SCORE:    0.00 PKD
ROOT
HETATM    1  C   UNL     1      -6.151   6.468  62.893  1.00  0.00    -0.034 C  
HETATM    2  C   UNL     1      -7.656   6.487  63.171  1.00  0.00    -0.080 C  
HETATM    3  C   UNL     1      -8.331   5.331  62.431  1.00  0.00    -0.109 C  
ENDROOT
BRANCH   2   4
HETATM    4  N   UNL     1      -8.005   6.490  64.613  1.00  0.00    -0.119 NA 
BRANCH   4   5
HETATM    5  C   UNL     1      -8.678   5.349  65.257  1.00  0.00    -0.145 C  
BRANCH   5   6
HETATM    6  C   UNL     1      -8.194   5.107  66.692  1.00  0.00    -0.108 C  
BRANCH   6   7
HETATM    7  C   UNL     1      -9.293   4.604  67.646  1.00  0.00    -0.170 C  
BRANCH   7   8
HETATM    8  C   UNL     1      -9.958   5.689  68.494  1.00  0.00    -0.157 C  
BRANCH   8   9
HETATM    9  O   UNL     1      -9.176   6.880  68.435  1.00  0.00    -0.127 OA 
BRANCH   9  10
HETATM   10  C   UNL     1      -9.952   8.040  68.728  1.00  0.00    -0.189 C  
BRANCH  10  11
HETATM   11  C   UNL     1     -10.485   8.009  70.156  1.00  0.00    -0.225 C  
HETATM   12  O   UNL     1      -9.772   7.711  71.105  1.00  0.00    -0.163 OA 
HETATM   13  N   UNL     1     -11.823   8.408  70.292  1.00  0.00    -0.461 N  
HETATM   14  H   UNL     1     -12.322   8.756  69.474  1.00  0.00     0.000 HD 
BRANCH  13  15
HETATM   15  S   UNL     1     -12.616   8.331  71.751  1.00  0.00    -0.345 S  
HETATM   16  O   UNL     1     -13.744   7.446  71.635  1.00  0.00    -0.377 OA 
HETATM   17  C   UNL     1     -13.263   9.971  71.835  1.00  0.00    -0.452 C  
HETATM   18  O   UNL     1     -11.629   8.212  72.795  1.00  0.00    -0.411 OA 
ENDBRANCH  13  15
ENDBRANCH  10  11
ENDBRANCH   9  10
ENDBRANCH   8   9
ENDBRANCH   7   8
ENDBRANCH   6   7
ENDBRANCH   5   6
ENDBRANCH   4   5
BRANCH   4  19
HETATM   19  C   UNL     1      -7.728   7.672  65.308  1.00  0.00    -0.110 A  
HETATM   20  N   UNL     1      -6.299   8.998  66.783  1.00  0.00    -0.062 NA 
HETATM   21  N   UNL     1      -8.605   8.701  65.249  1.00  0.00    -0.181 NA 
HETATM   22  C   UNL     1      -7.213  10.017  66.730  1.00  0.00    -0.091 A  
HETATM   23  C   UNL     1      -8.366   9.874  65.930  1.00  0.00    -0.123 A  
HETATM   24  C   UNL     1      -6.582   7.872  66.068  1.00  0.00    -0.049 A  
BRANCH  23  25
HETATM   25  C   UNL     1      -9.452  10.882  65.770  1.00  0.00    -0.246 A  
HETATM   26  C   UNL     1      -9.791  11.377  64.496  1.00  0.00    -0.302 A  
HETATM   27  C   UNL     1     -11.427  12.042  66.636  1.00  0.00    -0.411 A  
HETATM   28  C   UNL     1     -10.236  11.341  66.843  1.00  0.00    -0.254 A  
HETATM   29  C   UNL     1     -11.779  12.448  65.357  1.00  0.00    -0.452 A  
HETATM   30  C   UNL     1     -10.930  12.165  64.293  1.00  0.00    -0.391 A  
ENDBRANCH  23  25
BRANCH  22  31
HETATM   31  C   UNL     1      -6.871  11.184  67.608  1.00  0.00    -0.076 A  
HETATM   32  C   UNL     1      -6.632  12.161  69.854  1.00  0.00     0.072 A  
HETATM   33  C   UNL     1      -6.067  13.484  67.935  1.00  0.00    -0.152 A  
HETATM   34  C   UNL     1      -6.514  12.450  67.101  1.00  0.00    -0.097 A  
HETATM   35  C   UNL     1      -6.965  11.088  69.015  1.00  0.00    -0.097 A  
HETATM   36  C   UNL     1      -6.121  13.336  69.315  1.00  0.00    -0.100 A  
ENDBRANCH  22  31
ENDBRANCH   4  19
ENDBRANCH   2   4
TORSDOF 12
ENDMDL
MODEL      230
REMARK 921   NORMALIZED FREE ENERGY PREDICTED BY IDOCK:   -4.07 KCAL/MOL
REMARK 922        TOTAL FREE ENERGY PREDICTED BY IDOCK:   -8.24 KCAL/MOL
REMARK 923 INTER-LIGAND FREE ENERGY PREDICTED BY IDOCK:   -8.06 KCAL/MOL
REMARK 924 INTRA-LIGAND FREE ENERGY PREDICTED BY IDOCK:   -0.18 KCAL/MOL
REMARK 927      BINDING AFFINITY PREDICTED BY RF-SCORE:    0.00 PKD
ROOT
HETATM    1  C   UNL     1     -12.204   9.604  71.899  1.00  0.00    -0.413 C  
HETATM    2  C   UNL     1     -10.856   9.505  71.183  1.00  0.00    -0.355 C  
HETATM    3  C   UNL     1     -10.285   8.095  71.352  1.00  0.00    -0.248 C  
ENDROOT
BRANCH   2   4
HETATM    4  N   UNL     1     -10.897   9.910  69.756  1.00  0.00    -0.252 NA 
BRANCH   4   5
HETATM    5  C   UNL     1     -11.944  10.800  69.226  1.00  0.00    -0.263 C  
BRANCH   5   6
HETATM    6  C   UNL     1     -11.631  11.310  67.813  1.00  0.00    -0.307 C  
BRANCH   6   7
HETATM    7  C   UNL     1     -11.609  12.845  67.693  1.00  0.00    -0.406 C  
BRANCH   7   8
HETATM    8  C   UNL     1     -12.255  13.403  66.425  1.00  0.00    -0.376 C  
BRANCH   8   9
HETATM    9  O   UNL     1     -12.120  14.822  66.411  1.00  0.00    -0.264 OA 
BRANCH   9  10
HETATM   10  C   UNL     1     -10.884  15.243  66.985  1.00  0.00    -0.321 C  
BRANCH  10  11
HETATM   11  C   UNL     1     -10.321  16.462  66.263  1.00  0.00    -0.329 C  
HETATM   12  O   UNL     1     -10.350  16.563  65.044  1.00  0.00    -0.622 OA 
HETATM   13  N   UNL     1      -9.834  17.471  67.108  1.00  0.00    -0.287 N  
HETATM   14  H   UNL     1      -9.948  17.371  68.117  1.00  0.00     0.000 HD 
BRANCH  13  15
HETATM   15  S   UNL     1      -9.076  18.824  66.511  1.00  0.00    -0.310 S  
HETATM   16  O   UNL     1      -7.995  18.426  65.649  1.00  0.00    -0.482 OA 
HETATM   17  C   UNL     1      -8.343  19.444  67.992  1.00  0.00    -0.319 C  
HETATM   18  O   UNL     1     -10.089  19.770  66.113  1.00  0.00    -0.435 OA 
ENDBRANCH  13  15
ENDBRANCH  10  11
ENDBRANCH   9  10
ENDBRANCH   8   9
ENDBRANCH   7   8
ENDBRANCH   6   7
ENDBRANCH   5   6
ENDBRANCH   4   5
BRANCH   4  19
HETATM   19  C   UNL     1      -9.928   9.334  68.927  1.00  0.00    -0.181 A  
HETATM   20  N   UNL     1      -7.892   9.501  67.585  1.00  0.00    -0.101 NA 
HETATM   21  N   UNL     1     -10.033   8.028  68.589  1.00  0.00    -0.183 NA 
HETATM   22  C   UNL     1      -8.032   8.184  67.234  1.00  0.00    -0.113 A  
HETATM   23  C   UNL     1      -9.101   7.434  67.767  1.00  0.00    -0.129 A  
HETATM   24  C   UNL     1      -8.834  10.024  68.420  1.00  0.00    -0.117 A  
BRANCH  23  25
HETATM   25  C   UNL     1      -9.393   6.001  67.481  1.00  0.00    -0.113 A  
HETATM   26  C   UNL     1      -9.775   5.589  66.189  1.00  0.00    -0.147 A  
HETATM   27  C   UNL     1      -9.230   3.631  68.079  1.00  0.00    -0.220 A  
HETATM   28  C   UNL     1      -9.246   4.981  68.439  1.00  0.00    -0.150 A  
HETATM   29  C   UNL     1      -9.529   3.258  66.777  1.00  0.00    -0.132 A  
HETATM   30  C   UNL     1      -9.859   4.235  65.844  1.00  0.00    -0.230 A  
ENDBRANCH  23  25
BRANCH  22  31
HETATM   31  C   UNL     1      -7.008   7.708  66.247  1.00  0.00    -0.066 A  
HETATM   32  C   UNL     1      -5.594   5.906  65.347  1.00  0.00    -0.020 A  
HETATM   33  C   UNL     1      -5.552   8.063  64.298  1.00  0.00    -0.045 A  
HETATM   34  C   UNL     1      -6.403   8.556  65.297  1.00  0.00    -0.052 A  
HETATM   35  C   UNL     1      -6.537   6.376  66.272  1.00  0.00    -0.048 A  
HETATM   36  C   UNL     1      -5.152   6.733  64.321  1.00  0.00    -0.027 A  
ENDBRANCH  22  31
ENDBRANCH   4  19
ENDBRANCH   2   4
TORSDOF 12
ENDMDL
MODEL      231
REMARK 921   NORMALIZED FREE ENERGY PREDICTED BY IDOCK:   -4.05 KCAL/MOL
REMARK 922        TOTAL FREE ENERGY PREDICTED BY IDOCK:   -8.21 KCAL/MOL
REMARK 923 INTER-LIGAND FREE ENERGY PREDICTED BY IDOCK:   -6.97 KCAL/MOL
REMARK 924 INTRA-LIGAND FREE ENERGY PREDICTED BY IDOCK:   -1.24 KCAL/MOL
REMARK 927      BINDING AFFINITY PREDICTED BY RF-SCORE:    0.00 PKD
ROOT
HETATM    1  C   UNL     1      -5.535  13.255  68.343  1.00  0.00    -0.086 C  
HETATM    2  C   UNL     1      -6.839  13.698  69.010  1.00  0.00    -0.110 C  
HETATM    3  C   UNL     1      -6.885  15.225  69.085  1.00  0.00    -0.138 C  
ENDROOT
BRANCH   2   4
HETATM    4  N   UNL     1      -8.061  13.144  68.377  1.00  0.00    -0.146 NA 
BRANCH   4   5
HETATM    5  C   UNL     1      -9.262  13.966  68.145  1.00  0.00    -0.202 C  
BRANCH   5   6
HETATM    6  C   UNL     1     -10.533  13.125  67.970  1.00  0.00    -0.245 C  
BRANCH   6   7
HETATM    7  C   UNL     1     -11.538  13.713  66.963  1.00  0.00    -0.389 C  
BRANCH   7   8
HETATM    8  C   UNL     1     -11.252  13.384  65.498  1.00  0.00    -0.288 C  
BRANCH   8   9
HETATM    9  O   UNL     1     -10.451  14.419  64.930  1.00  0.00    -0.415 OA 
BRANCH   9  10
HETATM   10  C   UNL     1     -11.010  15.710  65.161  1.00  0.00    -0.398 C  
BRANCH  10  11
HETATM   11  C   UNL     1     -10.020  16.628  65.869  1.00  0.00    -0.295 C  
HETATM   12  O   UNL     1      -8.811  16.444  65.809  1.00  0.00    -0.446 OA 
HETATM   13  N   UNL     1     -10.601  17.721  66.529  1.00  0.00    -0.275 N  
HETATM   14  H   UNL     1     -11.605  17.878  66.439  1.00  0.00     0.000 HD 
BRANCH  13  15
HETATM   15  S   UNL     1      -9.699  18.767  67.453  1.00  0.00    -0.315 S  
HETATM   16  O   UNL     1     -10.463  19.959  67.709  1.00  0.00    -0.407 OA 
HETATM   17  C   UNL     1      -8.450  19.207  66.286  1.00  0.00    -0.304 C  
HETATM   18  O   UNL     1      -9.056  18.009  68.495  1.00  0.00    -0.283 OA 
ENDBRANCH  13  15
ENDBRANCH  10  11
ENDBRANCH   9  10
ENDBRANCH   8   9
ENDBRANCH   7   8
ENDBRANCH   6   7
ENDBRANCH   5   6
ENDBRANCH   4   5
BRANCH   4  19
HETATM   19  C   UNL     1      -8.035  11.776  68.086  1.00  0.00    -0.146 A  
HETATM   20  N   UNL     1      -8.026   9.439  68.804  1.00  0.00    -0.091 NA 
HETATM   21  N   UNL     1      -7.969  11.371  66.797  1.00  0.00    -0.158 NA 
HETATM   22  C   UNL     1      -7.933   9.052  67.493  1.00  0.00    -0.101 A  
HETATM   23  C   UNL     1      -7.933  10.031  66.478  1.00  0.00    -0.115 A  
HETATM   24  C   UNL     1      -8.082  10.779  69.052  1.00  0.00    -0.140 A  
BRANCH  23  25
HETATM   25  C   UNL     1      -7.834   9.775  65.013  1.00  0.00    -0.128 A  
HETATM   26  C   UNL     1      -6.607   9.402  64.432  1.00  0.00    -0.090 A  
HETATM   27  C   UNL     1      -8.890   9.290  62.857  1.00  0.00    -0.185 A  
HETATM   28  C   UNL     1      -8.943   9.820  64.149  1.00  0.00    -0.276 A  
HETATM   29  C   UNL     1      -7.681   8.852  62.338  1.00  0.00    -0.117 A  
HETATM   30  C   UNL     1      -6.526   8.963  63.105  1.00  0.00    -0.090 A  
ENDBRANCH  23  25
BRANCH  22  31
HETATM   31  C   UNL     1      -7.790   7.570  67.308  1.00  0.00    -0.118 A  
HETATM   32  C   UNL     1      -8.567   5.465  66.299  1.00  0.00    -0.122 A  
HETATM   33  C   UNL     1      -6.607   5.448  67.681  1.00  0.00    -0.053 A  
HETATM   34  C   UNL     1      -6.810   6.803  67.972  1.00  0.00    -0.078 A  
HETATM   35  C   UNL     1      -8.695   6.847  66.500  1.00  0.00    -0.137 A  
HETATM   36  C   UNL     1      -7.485   4.779  66.838  1.00  0.00    -0.086 A  
ENDBRANCH  22  31
ENDBRANCH   4  19
ENDBRANCH   2   4
TORSDOF 12
ENDMDL
MODEL      232
REMARK 921   NORMALIZED FREE ENERGY PREDICTED BY IDOCK:   -4.04 KCAL/MOL
REMARK 922        TOTAL FREE ENERGY PREDICTED BY IDOCK:   -8.19 KCAL/MOL
REMARK 923 INTER-LIGAND FREE ENERGY PREDICTED BY IDOCK:   -7.81 KCAL/MOL
REMARK 924 INTRA-LIGAND FREE ENERGY PREDICTED BY IDOCK:   -0.39 KCAL/MOL
REMARK 927      BINDING AFFINITY PREDICTED BY RF-SCORE:    0.00 PKD
ROOT
HETATM    1  C   UNL     1     -13.187  13.687  65.363  1.00  0.00     0.030 C  
HETATM    2  C   UNL     1     -12.202  12.714  64.711  1.00  0.00    -0.465 C  
HETATM    3  C   UNL     1     -12.092  13.020  63.216  1.00  0.00    -0.499 C  
ENDROOT
BRANCH   2   4
HETATM    4  N   UNL     1     -10.870  12.675  65.361  1.00  0.00    -0.280 NA 
BRANCH   4   5
HETATM    5  C   UNL     1     -10.403  13.750  66.254  1.00  0.00    -0.294 C  
BRANCH   5   6
HETATM    6  C   UNL     1     -11.119  13.746  67.611  1.00  0.00    -0.292 C  
BRANCH   6   7
HETATM    7  C   UNL     1     -10.628  12.649  68.574  1.00  0.00    -0.262 C  
BRANCH   7   8
HETATM    8  C   UNL     1     -11.675  11.597  68.940  1.00  0.00    -0.334 C  
BRANCH   8   9
HETATM    9  O   UNL     1     -11.637  11.363  70.347  1.00  0.00    -0.297 OA 
BRANCH   9  10
HETATM   10  C   UNL     1     -12.944  11.183  70.890  1.00  0.00    -0.187 C  
BRANCH  10  11
HETATM   11  C   UNL     1     -13.101   9.805  71.521  1.00  0.00    -0.411 C  
HETATM   12  O   UNL     1     -13.751   9.632  72.543  1.00  0.00    -0.392 OA 
HETATM   13  N   UNL     1     -12.501   8.759  70.803  1.00  0.00    -0.490 N  
HETATM   14  H   UNL     1     -12.076   8.959  69.898  1.00  0.00     0.000 HD 
BRANCH  13  15
HETATM   15  S   UNL     1     -12.464   7.204  71.388  1.00  0.00    -0.394 S  
HETATM   16  O   UNL     1     -13.647   6.959  72.170  1.00  0.00    -0.116 OA 
HETATM   17  C   UNL     1     -11.122   7.337  72.526  1.00  0.00    -0.293 C  
HETATM   18  O   UNL     1     -12.032   6.332  70.325  1.00  0.00    -0.273 OA 
ENDBRANCH  13  15
ENDBRANCH  10  11
ENDBRANCH   9  10
ENDBRANCH   8   9
ENDBRANCH   7   8
ENDBRANCH   6   7
ENDBRANCH   5   6
ENDBRANCH   4   5
BRANCH   4  19
HETATM   19  C   UNL     1     -10.050  11.596  65.013  1.00  0.00    -0.263 A  
HETATM   20  N   UNL     1      -8.506  10.498  63.468  1.00  0.00    -0.163 NA 
HETATM   21  N   UNL     1      -9.966  10.529  65.841  1.00  0.00    -0.241 NA 
HETATM   22  C   UNL     1      -8.457   9.417  64.308  1.00  0.00    -0.187 A  
HETATM   23  C   UNL     1      -9.175   9.448  65.522  1.00  0.00    -0.232 A  
HETATM   24  C   UNL     1      -9.289  11.546  63.852  1.00  0.00    -0.030 A  
BRANCH  23  25
HETATM   25  C   UNL     1      -9.229   8.357  66.536  1.00  0.00    -0.238 A  
HETATM   26  C   UNL     1      -8.170   8.170  67.446  1.00  0.00    -0.122 A  
HETATM   27  C   UNL     1     -10.498   6.706  67.826  1.00  0.00    -0.275 A  
HETATM   28  C   UNL     1     -10.340   7.509  66.693  1.00  0.00    -0.252 A  
HETATM   29  C   UNL     1      -9.469   6.603  68.750  1.00  0.00    -0.129 A  
HETATM   30  C   UNL     1      -8.280   7.291  68.530  1.00  0.00    -0.125 A  
ENDBRANCH  23  25
BRANCH  22  31
HETATM   31  C   UNL     1      -7.644   8.273  63.777  1.00  0.00    -0.134 A  
HETATM   32  C   UNL     1      -7.481   6.225  62.422  1.00  0.00    -0.061 A  
HETATM   33  C   UNL     1      -5.518   7.069  63.511  1.00  0.00    -0.032 A  
HETATM   34  C   UNL     1      -6.294   8.062  64.124  1.00  0.00    -0.062 A  
HETATM   35  C   UNL     1      -8.227   7.291  62.945  1.00  0.00     0.016 A  
HETATM   36  C   UNL     1      -6.112   6.153  62.654  1.00  0.00    -0.026 A  
ENDBRANCH  22  31
ENDBRANCH   4  19
ENDBRANCH   2   4
TORSDOF 12
ENDMDL
MODEL      233
REMARK 921   NORMALIZED FREE ENERGY PREDICTED BY IDOCK:   -4.02 KCAL/MOL
REMARK 922        TOTAL FREE ENERGY PREDICTED BY IDOCK:   -8.16 KCAL/MOL
REMARK 923 INTER-LIGAND FREE ENERGY PREDICTED BY IDOCK:   -7.62 KCAL/MOL
REMARK 924 INTRA-LIGAND FREE ENERGY PREDICTED BY IDOCK:   -0.54 KCAL/MOL
REMARK 927      BINDING AFFINITY PREDICTED BY RF-SCORE:    0.00 PKD
ROOT
HETATM    1  C   UNL     1     -13.477  10.055  72.272  1.00  0.00    -0.346 C  
HETATM    2  C   UNL     1     -12.480   9.071  71.657  1.00  0.00    -0.351 C  
HETATM    3  C   UNL     1     -13.135   7.696  71.516  1.00  0.00    -0.379 C  
ENDROOT
BRANCH   2   4
HETATM    4  N   UNL     1     -11.888   9.529  70.377  1.00  0.00    -0.183 NA 
BRANCH   4   5
HETATM    5  C   UNL     1     -12.385  10.721  69.667  1.00  0.00    -0.192 C  
BRANCH   5   6
HETATM    6  C   UNL     1     -11.270  11.719  69.330  1.00  0.00    -0.318 C  
BRANCH   6   7
HETATM    7  C   UNL     1     -11.747  13.180  69.236  1.00  0.00    -0.376 C  
BRANCH   7   8
HETATM    8  C   UNL     1     -12.004  13.685  67.816  1.00  0.00    -0.352 C  
BRANCH   8   9
HETATM    9  O   UNL     1     -11.093  14.741  67.518  1.00  0.00    -0.297 OA 
BRANCH   9  10
HETATM   10  C   UNL     1     -11.388  15.922  68.261  1.00  0.00    -0.342 C  
BRANCH  10  11
HETATM   11  C   UNL     1     -10.443  17.061  67.897  1.00  0.00    -0.354 C  
HETATM   12  O   UNL     1     -10.800  18.232  67.927  1.00  0.00    -0.363 OA 
HETATM   13  N   UNL     1      -9.133  16.662  67.593  1.00  0.00    -0.206 N  
HETATM   14  H   UNL     1      -8.875  15.682  67.702  1.00  0.00     0.000 HD 
BRANCH  13  15
HETATM   15  S   UNL     1      -7.989  17.745  67.061  1.00  0.00    -0.226 S  
HETATM   16  O   UNL     1      -8.396  18.283  65.790  1.00  0.00    -0.489 OA 
HETATM   17  C   UNL     1      -6.650  16.641  66.740  1.00  0.00    -0.182 C  
HETATM   18  O   UNL     1      -7.598  18.572  68.174  1.00  0.00    -0.258 OA 
ENDBRANCH  13  15
ENDBRANCH  10  11
ENDBRANCH   9  10
ENDBRANCH   8   9
ENDBRANCH   7   8
ENDBRANCH   6   7
ENDBRANCH   5   6
ENDBRANCH   4   5
BRANCH   4  19
HETATM   19  C   UNL     1     -10.882   8.717  69.841  1.00  0.00    -0.206 A  
HETATM   20  N   UNL     1      -9.290   8.180  68.065  1.00  0.00    -0.135 NA 
HETATM   21  N   UNL     1     -10.475   7.622  70.524  1.00  0.00    -0.217 NA 
HETATM   22  C   UNL     1      -8.912   7.063  68.761  1.00  0.00    -0.131 A  
HETATM   23  C   UNL     1      -9.494   6.799  70.019  1.00  0.00    -0.157 A  
HETATM   24  C   UNL     1     -10.249   8.968  68.630  1.00  0.00    -0.205 A  
BRANCH  23  25
HETATM   25  C   UNL     1      -9.196   5.629  70.894  1.00  0.00    -0.178 A  
HETATM   26  C   UNL     1     -10.015   4.484  70.864  1.00  0.00    -0.263 A  
HETATM   27  C   UNL     1      -7.647   4.363  72.306  1.00  0.00    -0.078 A  
HETATM   28  C   UNL     1      -8.069   5.566  71.733  1.00  0.00    -0.118 A  
HETATM   29  C   UNL     1      -8.434   3.228  72.192  1.00  0.00    -0.087 A  
HETATM   30  C   UNL     1      -9.649   3.302  71.520  1.00  0.00    -0.234 A  
ENDBRANCH  23  25
BRANCH  22  31
HETATM   31  C   UNL     1      -7.917   6.205  68.037  1.00  0.00    -0.110 A  
HETATM   32  C   UNL     1      -7.419   4.261  66.614  1.00  0.00    -0.081 A  
HETATM   33  C   UNL     1      -5.628   5.703  67.295  1.00  0.00    -0.012 A  
HETATM   34  C   UNL     1      -6.526   6.431  68.087  1.00  0.00    -0.053 A  
HETATM   35  C   UNL     1      -8.331   5.064  67.313  1.00  0.00    -0.106 A  
HETATM   36  C   UNL     1      -6.078   4.619  66.552  1.00  0.00    -0.031 A  
ENDBRANCH  22  31
ENDBRANCH   4  19
ENDBRANCH   2   4
TORSDOF 12
ENDMDL
MODEL      234
REMARK 921   NORMALIZED FREE ENERGY PREDICTED BY IDOCK:   -4.01 KCAL/MOL
REMARK 922        TOTAL FREE ENERGY PREDICTED BY IDOCK:   -8.15 KCAL/MOL
REMARK 923 INTER-LIGAND FREE ENERGY PREDICTED BY IDOCK:   -8.42 KCAL/MOL
REMARK 924 INTRA-LIGAND FREE ENERGY PREDICTED BY IDOCK:    0.27 KCAL/MOL
REMARK 927      BINDING AFFINITY PREDICTED BY RF-SCORE:    0.00 PKD
ROOT
HETATM    1  C   UNL     1     -11.803  12.257  70.289  1.00  0.00    -0.324 C  
HETATM    2  C   UNL     1     -11.628  11.044  69.373  1.00  0.00    -0.312 C  
HETATM    3  C   UNL     1     -12.013  11.421  67.941  1.00  0.00    -0.120 C  
ENDROOT
BRANCH   2   4
HETATM    4  N   UNL     1     -10.280  10.429  69.433  1.00  0.00    -0.227 NA 
BRANCH   4   5
HETATM    5  C   UNL     1      -9.137  10.978  68.682  1.00  0.00    -0.174 C  
BRANCH   5   6
HETATM    6  C   UNL     1      -9.441  12.342  68.050  1.00  0.00    -0.208 C  
BRANCH   6   7
HETATM    7  C   UNL     1      -8.918  12.495  66.610  1.00  0.00    -0.174 C  
BRANCH   7   8
HETATM    8  C   UNL     1      -9.910  13.112  65.625  1.00  0.00    -0.160 C  
BRANCH   8   9
HETATM    9  O   UNL     1     -10.042  14.506  65.897  1.00  0.00    -0.295 OA 
BRANCH   9  10
HETATM   10  C   UNL     1     -10.619  15.209  64.799  1.00  0.00    -0.276 C  
BRANCH  10  11
HETATM   11  C   UNL     1     -10.683  16.708  65.069  1.00  0.00    -0.152 C  
HETATM   12  O   UNL     1     -11.374  17.458  64.391  1.00  0.00    -0.949 OA 
HETATM   13  N   UNL     1      -9.945  17.137  66.183  1.00  0.00    -0.295 N  
HETATM   14  H   UNL     1      -9.488  16.441  66.771  1.00  0.00     0.000 HD 
BRANCH  13  15
HETATM   15  S   UNL     1      -9.797  18.746  66.569  1.00  0.00    -0.385 S  
HETATM   16  O   UNL     1      -8.418  19.140  66.455  1.00  0.00    -0.294 OA 
HETATM   17  C   UNL     1     -10.167  18.682  68.294  1.00  0.00    -0.380 C  
HETATM   18  O   UNL     1     -10.873  19.464  65.933  1.00  0.00    -0.420 OA 
ENDBRANCH  13  15
ENDBRANCH  10  11
ENDBRANCH   9  10
ENDBRANCH   8   9
ENDBRANCH   7   8
ENDBRANCH   6   7
ENDBRANCH   5   6
ENDBRANCH   4   5
BRANCH   4  19
HETATM   19  C   UNL     1     -10.174   9.252  70.181  1.00  0.00    -0.215 A  
HETATM   20  N   UNL     1     -10.388   8.037  72.291  1.00  0.00    -0.247 NA 
HETATM   21  N   UNL     1      -9.730   8.121  69.585  1.00  0.00    -0.169 NA 
HETATM   22  C   UNL     1      -9.912   6.910  71.674  1.00  0.00    -0.171 A  
HETATM   23  C   UNL     1      -9.607   6.949  70.298  1.00  0.00    -0.168 A  
HETATM   24  C   UNL     1     -10.510   9.158  71.526  1.00  0.00    -0.352 A  
BRANCH  23  25
HETATM   25  C   UNL     1      -9.078   5.817  69.485  1.00  0.00    -0.143 A  
HETATM   26  C   UNL     1      -9.939   4.805  69.018  1.00  0.00    -0.213 A  
HETATM   27  C   UNL     1      -7.325   4.834  68.085  1.00  0.00    -0.066 A  
HETATM   28  C   UNL     1      -7.734   5.724  69.083  1.00  0.00    -0.090 A  
HETATM   29  C   UNL     1      -8.218   3.899  67.584  1.00  0.00    -0.093 A  
HETATM   30  C   UNL     1      -9.511   3.846  68.093  1.00  0.00    -0.219 A  
ENDBRANCH  23  25
BRANCH  22  31
HETATM   31  C   UNL     1      -9.727   5.745  72.600  1.00  0.00    -0.168 A  
HETATM   32  C   UNL     1     -10.685   3.935  73.965  1.00  0.00    -0.291 A  
HETATM   33  C   UNL     1      -8.302   4.158  73.822  1.00  0.00    -0.092 A  
HETATM   34  C   UNL     1      -8.464   5.328  73.070  1.00  0.00    -0.111 A  
HETATM   35  C   UNL     1     -10.838   5.039  73.114  1.00  0.00    -0.347 A  
HETATM   36  C   UNL     1      -9.415   3.457  74.265  1.00  0.00    -0.116 A  
ENDBRANCH  22  31
ENDBRANCH   4  19
ENDBRANCH   2   4
TORSDOF 12
ENDMDL
MODEL      235
REMARK 921   NORMALIZED FREE ENERGY PREDICTED BY IDOCK:   -4.00 KCAL/MOL
REMARK 922        TOTAL FREE ENERGY PREDICTED BY IDOCK:   -8.12 KCAL/MOL
REMARK 923 INTER-LIGAND FREE ENERGY PREDICTED BY IDOCK:   -6.69 KCAL/MOL
REMARK 924 INTRA-LIGAND FREE ENERGY PREDICTED BY IDOCK:   -1.43 KCAL/MOL
REMARK 927      BINDING AFFINITY PREDICTED BY RF-SCORE:    0.00 PKD
ROOT
HETATM    1  C   UNL     1      -8.480  13.369  66.622  1.00  0.00     0.137 C  
HETATM    2  C   UNL     1      -9.251  13.069  67.909  1.00  0.00    -0.208 C  
HETATM    3  C   UNL     1      -9.817  14.370  68.483  1.00  0.00    -0.233 C  
ENDROOT
BRANCH   2   4
HETATM    4  N   UNL     1     -10.303  12.035  67.758  1.00  0.00    -0.194 NA 
BRANCH   4   5
HETATM    5  C   UNL     1     -11.569  12.304  67.052  1.00  0.00    -0.349 C  
BRANCH   5   6
HETATM    6  C   UNL     1     -11.517  11.913  65.570  1.00  0.00    -0.311 C  
BRANCH   6   7
HETATM    7  C   UNL     1     -12.624  12.556  64.715  1.00  0.00    -0.493 C  
BRANCH   7   8
HETATM    8  C   UNL     1     -12.148  13.650  63.759  1.00  0.00    -0.382 C  
BRANCH   8   9
HETATM    9  O   UNL     1     -11.109  14.403  64.383  1.00  0.00    -0.318 OA 
BRANCH   9  10
HETATM   10  C   UNL     1     -11.628  15.477  65.164  1.00  0.00    -0.060 C  
BRANCH  10  11
HETATM   11  C   UNL     1     -10.521  16.420  65.621  1.00  0.00    -0.347 C  
HETATM   12  O   UNL     1      -9.374  16.320  65.206  1.00  0.00    -0.249 OA 
HETATM   13  N   UNL     1     -10.939  17.437  66.494  1.00  0.00     0.086 N  
HETATM   14  H   UNL     1     -11.932  17.531  66.705  1.00  0.00     0.000 HD 
BRANCH  13  15
HETATM   15  S   UNL     1      -9.860  18.491  67.191  1.00  0.00    -0.336 S  
HETATM   16  O   UNL     1      -9.359  17.922  68.414  1.00  0.00    -0.273 OA 
HETATM   17  C   UNL     1     -10.959  19.794  67.650  1.00  0.00    -0.096 C  
HETATM   18  O   UNL     1      -9.001  19.007  66.156  1.00  0.00    -0.425 OA 
ENDBRANCH  13  15
ENDBRANCH  10  11
ENDBRANCH   9  10
ENDBRANCH   8   9
ENDBRANCH   7   8
ENDBRANCH   6   7
ENDBRANCH   5   6
ENDBRANCH   4   5
BRANCH   4  19
HETATM   19  C   UNL     1     -10.057  10.813  68.392  1.00  0.00    -0.169 A  
HETATM   20  N   UNL     1     -10.181   9.363  70.357  1.00  0.00    -0.235 NA 
HETATM   21  N   UNL     1      -9.424   9.827  67.716  1.00  0.00    -0.133 NA 
HETATM   22  C   UNL     1      -9.516   8.388  69.662  1.00  0.00    -0.166 A  
HETATM   23  C   UNL     1      -9.159   8.616  68.317  1.00  0.00    -0.141 A  
HETATM   24  C   UNL     1     -10.435  10.530  69.699  1.00  0.00    -0.219 A  
BRANCH  23  25
HETATM   25  C   UNL     1      -8.432   7.664  67.430  1.00  0.00    -0.122 A  
HETATM   26  C   UNL     1      -8.825   7.488  66.089  1.00  0.00    -0.185 A  
HETATM   27  C   UNL     1      -6.458   6.304  66.926  1.00  0.00    -0.046 A  
HETATM   28  C   UNL     1      -7.293   6.948  67.843  1.00  0.00    -0.097 A  
HETATM   29  C   UNL     1      -6.830   6.216  65.593  1.00  0.00    -0.053 A  
HETATM   30  C   UNL     1      -8.044   6.759  65.185  1.00  0.00    -0.132 A  
ENDBRANCH  23  25
BRANCH  22  31
HETATM   31  C   UNL     1      -9.201   7.170  70.479  1.00  0.00    -0.158 A  
HETATM   32  C   UNL     1      -8.042   6.123  72.381  1.00  0.00    -0.105 A  
HETATM   33  C   UNL     1      -9.482   4.786  71.006  1.00  0.00    -0.227 A  
HETATM   34  C   UNL     1      -9.675   5.883  70.155  1.00  0.00    -0.211 A  
HETATM   35  C   UNL     1      -8.335   7.246  71.593  1.00  0.00    -0.108 A  
HETATM   36  C   UNL     1      -8.668   4.909  72.124  1.00  0.00    -0.133 A  
ENDBRANCH  22  31
ENDBRANCH   4  19
ENDBRANCH   2   4
TORSDOF 12
ENDMDL
MODEL      236
REMARK 921   NORMALIZED FREE ENERGY PREDICTED BY IDOCK:   -3.97 KCAL/MOL
REMARK 922        TOTAL FREE ENERGY PREDICTED BY IDOCK:   -8.07 KCAL/MOL
REMARK 923 INTER-LIGAND FREE ENERGY PREDICTED BY IDOCK:   -8.21 KCAL/MOL
REMARK 924 INTRA-LIGAND FREE ENERGY PREDICTED BY IDOCK:    0.14 KCAL/MOL
REMARK 927      BINDING AFFINITY PREDICTED BY RF-SCORE:    0.00 PKD
ROOT
HETATM    1  C   UNL     1      -9.799  11.198  64.604  1.00  0.00    -0.330 C  
HETATM    2  C   UNL     1      -9.386  10.698  65.990  1.00  0.00    -0.186 C  
HETATM    3  C   UNL     1      -7.914  11.031  66.239  1.00  0.00    -0.148 C  
ENDROOT
BRANCH   2   4
HETATM    4  N   UNL     1     -10.251  11.185  67.092  1.00  0.00    -0.194 NA 
BRANCH   4   5
HETATM    5  C   UNL     1     -11.116  10.278  67.867  1.00  0.00    -0.276 C  
BRANCH   5   6
HETATM    6  C   UNL     1     -10.534   8.865  67.992  1.00  0.00    -0.263 C  
BRANCH   6   7
HETATM    7  C   UNL     1     -10.522   8.319  69.432  1.00  0.00    -0.224 C  
BRANCH   7   8
HETATM    8  C   UNL     1      -9.168   7.796  69.912  1.00  0.00    -0.146 C  
BRANCH   8   9
HETATM    9  O   UNL     1      -9.364   6.611  70.681  1.00  0.00    -0.161 OA 
BRANCH   9  10
HETATM   10  C   UNL     1      -8.127   6.036  71.095  1.00  0.00    -0.121 C  
BRANCH  10  11
HETATM   11  C   UNL     1      -7.965   4.618  70.562  1.00  0.00    -0.061 C  
HETATM   12  O   UNL     1      -7.584   3.698  71.274  1.00  0.00    -0.046 OA 
HETATM   13  N   UNL     1      -8.346   4.447  69.222  1.00  0.00    -0.073 N  
HETATM   14  H   UNL     1      -8.764   5.231  68.722  1.00  0.00     0.000 HD 
BRANCH  13  15
HETATM   15  S   UNL     1      -8.134   3.003  68.428  1.00  0.00    -0.064 S  
HETATM   16  O   UNL     1      -8.381   3.189  67.023  1.00  0.00    -0.086 OA 
HETATM   17  C   UNL     1      -9.506   2.097  69.070  1.00  0.00    -0.086 C  
HETATM   18  O   UNL     1      -6.940   2.378  68.939  1.00  0.00    -0.039 OA 
ENDBRANCH  13  15
ENDBRANCH  10  11
ENDBRANCH   9  10
ENDBRANCH   8   9
ENDBRANCH   7   8
ENDBRANCH   6   7
ENDBRANCH   5   6
ENDBRANCH   4   5
BRANCH   4  19
HETATM   19  C   UNL     1     -10.256  12.568  67.302  1.00  0.00    -0.216 A  
HETATM   20  N   UNL     1      -9.627  14.833  66.629  1.00  0.00    -0.258 NA 
HETATM   21  N   UNL     1     -10.869  13.074  68.397  1.00  0.00    -0.249 NA 
HETATM   22  C   UNL     1     -10.231  15.320  67.758  1.00  0.00    -0.237 A  
HETATM   23  C   UNL     1     -10.884  14.430  68.636  1.00  0.00    -0.251 A  
HETATM   24  C   UNL     1      -9.668  13.484  66.438  1.00  0.00    -0.289 A  
BRANCH  23  25
HETATM   25  C   UNL     1     -11.579  14.800  69.901  1.00  0.00    -0.330 A  
HETATM   26  C   UNL     1     -10.972  15.670  70.827  1.00  0.00    -0.343 A  
HETATM   27  C   UNL     1     -13.623  14.961  71.241  1.00  0.00    -0.504 A  
HETATM   28  C   UNL     1     -12.882  14.371  70.214  1.00  0.00    -0.230 A  
HETATM   29  C   UNL     1     -13.022  15.879  72.090  1.00  0.00    -0.465 A  
HETATM   30  C   UNL     1     -11.677  16.190  71.918  1.00  0.00    -0.575 A  
ENDBRANCH  23  25
BRANCH  22  31
HETATM   31  C   UNL     1     -10.069  16.801  67.940  1.00  0.00    -0.284 A  
HETATM   32  C   UNL     1      -8.698  18.725  68.628  1.00  0.00    -0.360 A  
HETATM   33  C   UNL     1     -10.884  19.110  67.720  1.00  0.00    -0.398 A  
HETATM   34  C   UNL     1     -11.100  17.726  67.674  1.00  0.00     0.070 A  
HETATM   35  C   UNL     1      -8.876  17.343  68.467  1.00  0.00    -0.277 A  
HETATM   36  C   UNL     1      -9.678  19.609  68.193  1.00  0.00    -0.503 A  
ENDBRANCH  22  31
ENDBRANCH   4  19
ENDBRANCH   2   4
TORSDOF 12
ENDMDL
MODEL      237
REMARK 921   NORMALIZED FREE ENERGY PREDICTED BY IDOCK:   -3.96 KCAL/MOL
REMARK 922        TOTAL FREE ENERGY PREDICTED BY IDOCK:   -8.06 KCAL/MOL
REMARK 923 INTER-LIGAND FREE ENERGY PREDICTED BY IDOCK:   -7.09 KCAL/MOL
REMARK 924 INTRA-LIGAND FREE ENERGY PREDICTED BY IDOCK:   -0.97 KCAL/MOL
REMARK 927      BINDING AFFINITY PREDICTED BY RF-SCORE:    0.00 PKD
ROOT
HETATM    1  C   UNL     1      -7.851   4.952  73.501  1.00  0.00    -0.099 C  
HETATM    2  C   UNL     1      -7.607   6.126  72.549  1.00  0.00    -0.099 C  
HETATM    3  C   UNL     1      -6.379   5.839  71.683  1.00  0.00    -0.048 C  
ENDROOT
BRANCH   2   4
HETATM    4  N   UNL     1      -8.784   6.492  71.725  1.00  0.00    -0.131 NA 
BRANCH   4   5
HETATM    5  C   UNL     1     -10.152   6.494  72.273  1.00  0.00    -0.175 C  
BRANCH   5   6
HETATM    6  C   UNL     1     -10.547   7.845  72.881  1.00  0.00    -0.434 C  
BRANCH   6   7
HETATM    7  C   UNL     1     -11.281   8.781  71.902  1.00  0.00    -0.438 C  
BRANCH   7   8
HETATM    8  C   UNL     1     -12.741   9.066  72.253  1.00  0.00    -0.387 C  
BRANCH   8   9
HETATM    9  O   UNL     1     -13.136  10.303  71.664  1.00  0.00    -0.395 OA 
BRANCH   9  10
HETATM   10  C   UNL     1     -12.110  10.848  70.837  1.00  0.00    -0.349 C  
BRANCH  10  11
HETATM   11  C   UNL     1     -12.301  12.345  70.623  1.00  0.00    -0.279 C  
HETATM   12  O   UNL     1     -11.896  12.912  69.618  1.00  0.00    -0.311 OA 
HETATM   13  N   UNL     1     -13.029  12.993  71.633  1.00  0.00    -0.360 N  
HETATM   14  H   UNL     1     -13.437  12.438  72.385  1.00  0.00     0.000 HD 
BRANCH  13  15
HETATM   15  S   UNL     1     -13.242  14.641  71.639  1.00  0.00    -0.377 S  
HETATM   16  O   UNL     1     -13.049  15.153  70.308  1.00  0.00    -0.235 OA 
HETATM   17  C   UNL     1     -11.831  15.129  72.580  1.00  0.00    -0.381 C  
HETATM   18  O   UNL     1     -14.405  14.943  72.434  1.00  0.00    -0.449 OA 
ENDBRANCH  13  15
ENDBRANCH  10  11
ENDBRANCH   9  10
ENDBRANCH   8   9
ENDBRANCH   7   8
ENDBRANCH   6   7
ENDBRANCH   5   6
ENDBRANCH   4   5
BRANCH   4  19
HETATM   19  C   UNL     1      -8.529   6.761  70.376  1.00  0.00    -0.135 A  
HETATM   20  N   UNL     1      -7.839   8.287  68.595  1.00  0.00    -0.118 NA 
HETATM   21  N   UNL     1      -8.727   5.790  69.455  1.00  0.00    -0.110 NA 
HETATM   22  C   UNL     1      -8.071   7.297  67.677  1.00  0.00    -0.114 A  
HETATM   23  C   UNL     1      -8.494   6.026  68.118  1.00  0.00    -0.115 A  
HETATM   24  C   UNL     1      -8.066   7.983  69.905  1.00  0.00    -0.117 A  
BRANCH  23  25
HETATM   25  C   UNL     1      -8.793   4.852  67.250  1.00  0.00    -0.103 A  
HETATM   26  C   UNL     1      -9.931   4.843  66.421  1.00  0.00    -0.258 A  
HETATM   27  C   UNL     1      -8.081   2.795  66.125  1.00  0.00    -0.084 A  
HETATM   28  C   UNL     1      -7.945   3.734  67.152  1.00  0.00    -0.091 A  
HETATM   29  C   UNL     1      -9.170   2.859  65.270  1.00  0.00    -0.139 A  
HETATM   30  C   UNL     1     -10.128   3.851  65.454  1.00  0.00    -0.099 A  
ENDBRANCH  23  25
BRANCH  22  31
HETATM   31  C   UNL     1      -7.881   7.734  66.254  1.00  0.00    -0.091 A  
HETATM   32  C   UNL     1      -8.669   8.984  64.287  1.00  0.00    -0.140 A  
HETATM   33  C   UNL     1      -6.566   7.836  64.180  1.00  0.00    -0.057 A  
HETATM   34  C   UNL     1      -6.797   7.310  65.458  1.00  0.00    -0.052 A  
HETATM   35  C   UNL     1      -8.837   8.550  65.609  1.00  0.00    -0.214 A  
HETATM   36  C   UNL     1      -7.501   8.680  63.597  1.00  0.00    -0.110 A  
ENDBRANCH  22  31
ENDBRANCH   4  19
ENDBRANCH   2   4
TORSDOF 12
ENDMDL
MODEL      238
REMARK 921   NORMALIZED FREE ENERGY PREDICTED BY IDOCK:   -3.96 KCAL/MOL
REMARK 922        TOTAL FREE ENERGY PREDICTED BY IDOCK:   -8.05 KCAL/MOL
REMARK 923 INTER-LIGAND FREE ENERGY PREDICTED BY IDOCK:   -8.20 KCAL/MOL
REMARK 924 INTRA-LIGAND FREE ENERGY PREDICTED BY IDOCK:    0.15 KCAL/MOL
REMARK 927      BINDING AFFINITY PREDICTED BY RF-SCORE:    0.00 PKD
ROOT
HETATM    1  C   UNL     1     -12.771  15.511  69.889  1.00  0.00    -0.069 C  
HETATM    2  C   UNL     1     -12.113  14.281  70.517  1.00  0.00    -0.343 C  
HETATM    3  C   UNL     1     -13.122  13.556  71.409  1.00  0.00    -0.385 C  
ENDROOT
BRANCH   2   4
HETATM    4  N   UNL     1     -11.490  13.360  69.536  1.00  0.00    -0.265 NA 
BRANCH   4   5
HETATM    5  C   UNL     1     -11.033  13.819  68.212  1.00  0.00    -0.250 C  
BRANCH   5   6
HETATM    6  C   UNL     1     -12.099  13.645  67.123  1.00  0.00    -0.404 C  
BRANCH   6   7
HETATM    7  C   UNL     1     -12.014  12.303  66.374  1.00  0.00    -0.286 C  
BRANCH   7   8
HETATM    8  C   UNL     1     -11.576  12.405  64.913  1.00  0.00    -0.343 C  
BRANCH   8   9
HETATM    9  O   UNL     1     -10.201  12.039  64.805  1.00  0.00    -0.265 OA 
BRANCH   9  10
HETATM   10  C   UNL     1     -10.017  10.914  63.949  1.00  0.00    -0.343 C  
BRANCH  10  11
HETATM   11  C   UNL     1      -8.574  10.423  63.974  1.00  0.00    -0.175 C  
HETATM   12  O   UNL     1      -8.116   9.716  63.087  1.00  0.00    -0.130 OA 
HETATM   13  N   UNL     1      -7.811  10.901  65.050  1.00  0.00    -0.354 N  
HETATM   14  H   UNL     1      -8.224  11.581  65.688  1.00  0.00     0.000 HD 
BRANCH  13  15
HETATM   15  S   UNL     1      -6.253  10.388  65.314  1.00  0.00    -0.100 S  
HETATM   16  O   UNL     1      -6.213   8.950  65.297  1.00  0.00    -0.059 OA 
HETATM   17  C   UNL     1      -6.049  10.881  66.997  1.00  0.00    -0.074 C  
HETATM   18  O   UNL     1      -5.368  11.206  64.524  1.00  0.00    -0.137 OA 
ENDBRANCH  13  15
ENDBRANCH  10  11
ENDBRANCH   9  10
ENDBRANCH   8   9
ENDBRANCH   7   8
ENDBRANCH   6   7
ENDBRANCH   5   6
ENDBRANCH   4   5
BRANCH   4  19
HETATM   19  C   UNL     1     -11.433  12.013  69.909  1.00  0.00    -0.162 A  
HETATM   20  N   UNL     1     -11.995  10.197  71.448  1.00  0.00    -0.374 NA 
HETATM   21  N   UNL     1     -10.745  11.137  69.141  1.00  0.00    -0.222 NA 
HETATM   22  C   UNL     1     -11.271   9.333  70.669  1.00  0.00    -0.276 A  
HETATM   23  C   UNL     1     -10.664   9.806  69.487  1.00  0.00    -0.233 A  
HETATM   24  C   UNL     1     -12.057  11.496  71.038  1.00  0.00    -0.153 A  
BRANCH  23  25
HETATM   25  C   UNL     1      -9.844   8.999  68.540  1.00  0.00    -0.184 A  
HETATM   26  C   UNL     1      -8.511   8.663  68.850  1.00  0.00    -0.129 A  
HETATM   27  C   UNL     1      -9.674   7.484  66.622  1.00  0.00    -0.273 A  
HETATM   28  C   UNL     1     -10.352   8.475  67.338  1.00  0.00    -0.356 A  
HETATM   29  C   UNL     1      -8.392   7.113  67.000  1.00  0.00    -0.118 A  
HETATM   30  C   UNL     1      -7.787   7.745  68.081  1.00  0.00    -0.121 A  
ENDBRANCH  23  25
BRANCH  22  31
HETATM   31  C   UNL     1     -11.179   7.945  71.230  1.00  0.00    -0.283 A  
HETATM   32  C   UNL     1     -11.096   6.433  73.169  1.00  0.00    -0.194 A  
HETATM   33  C   UNL     1     -11.086   5.504  70.958  1.00  0.00    -0.115 A  
HETATM   34  C   UNL     1     -11.032   6.798  70.423  1.00  0.00    -0.330 A  
HETATM   35  C   UNL     1     -11.162   7.723  72.625  1.00  0.00    -0.438 A  
HETATM   36  C   UNL     1     -11.123   5.322  72.334  1.00  0.00    -0.260 A  
ENDBRANCH  22  31
ENDBRANCH   4  19
ENDBRANCH   2   4
TORSDOF 12
ENDMDL
MODEL      239
REMARK 921   NORMALIZED FREE ENERGY PREDICTED BY IDOCK:   -3.92 KCAL/MOL
REMARK 922        TOTAL FREE ENERGY PREDICTED BY IDOCK:   -7.98 KCAL/MOL
REMARK 923 INTER-LIGAND FREE ENERGY PREDICTED BY IDOCK:   -6.22 KCAL/MOL
REMARK 924 INTRA-LIGAND FREE ENERGY PREDICTED BY IDOCK:   -1.77 KCAL/MOL
REMARK 927      BINDING AFFINITY PREDICTED BY RF-SCORE:    0.00 PKD
ROOT
HETATM    1  C   UNL     1      -9.679   2.747  71.195  1.00  0.00    -0.184 C  
HETATM    2  C   UNL     1      -9.600   3.600  72.462  1.00  0.00    -0.135 C  
HETATM    3  C   UNL     1      -9.276   2.709  73.663  1.00  0.00    -0.094 C  
ENDROOT
BRANCH   2   4
HETATM    4  N   UNL     1      -8.663   4.746  72.363  1.00  0.00    -0.119 NA 
BRANCH   4   5
HETATM    5  C   UNL     1      -7.451   4.839  73.197  1.00  0.00    -0.087 C  
BRANCH   5   6
HETATM    6  C   UNL     1      -6.161   4.628  72.394  1.00  0.00    -0.017 C  
BRANCH   6   7
HETATM    7  C   UNL     1      -5.735   3.153  72.273  1.00  0.00    -0.008 C  
BRANCH   7   8
HETATM    8  C   UNL     1      -6.217   2.444  71.008  1.00  0.00    -0.019 C  
BRANCH   8   9
HETATM    9  O   UNL     1      -6.256   3.376  69.929  1.00  0.00    -0.026 OA 
BRANCH   9  10
HETATM   10  C   UNL     1      -7.030   2.888  68.835  1.00  0.00    -0.044 C  
BRANCH  10  11
HETATM   11  C   UNL     1      -6.868   3.770  67.601  1.00  0.00    -0.050 C  
HETATM   12  O   UNL     1      -6.394   4.895  67.669  1.00  0.00    -0.038 OA 
HETATM   13  N   UNL     1      -7.244   3.163  66.393  1.00  0.00    -0.068 N  
HETATM   14  H   UNL     1      -7.521   2.182  66.396  1.00  0.00     0.000 HD 
BRANCH  13  15
HETATM   15  S   UNL     1      -7.250   4.000  64.958  1.00  0.00    -0.068 S  
HETATM   16  O   UNL     1      -6.049   4.785  64.857  1.00  0.00    -0.028 OA 
HETATM   17  C   UNL     1      -8.571   5.129  65.268  1.00  0.00    -0.148 C  
HETATM   18  O   UNL     1      -7.693   3.107  63.916  1.00  0.00    -0.073 OA 
ENDBRANCH  13  15
ENDBRANCH  10  11
ENDBRANCH   9  10
ENDBRANCH   8   9
ENDBRANCH   7   8
ENDBRANCH   6   7
ENDBRANCH   5   6
ENDBRANCH   4   5
BRANCH   4  19
HETATM   19  C   UNL     1      -9.037   5.771  71.489  1.00  0.00    -0.140 A  
HETATM   20  N   UNL     1      -8.581   7.215  69.569  1.00  0.00    -0.134 NA 
HETATM   21  N   UNL     1     -10.224   6.397  71.665  1.00  0.00    -0.194 NA 
HETATM   22  C   UNL     1      -9.775   7.851  69.782  1.00  0.00    -0.176 A  
HETATM   23  C   UNL     1     -10.617   7.416  70.827  1.00  0.00    -0.223 A  
HETATM   24  C   UNL     1      -8.260   6.198  70.419  1.00  0.00    -0.117 A  
BRANCH  23  25
HETATM   25  C   UNL     1     -11.938   8.003  71.190  1.00  0.00    -0.297 A  
HETATM   26  C   UNL     1     -13.097   7.203  71.218  1.00  0.00    -0.361 A  
HETATM   27  C   UNL     1     -13.270   9.792  72.204  1.00  0.00    -0.530 A  
HETATM   28  C   UNL     1     -12.099   9.343  71.585  1.00  0.00    -0.462 A  
HETATM   29  C   UNL     1     -14.371   8.953  72.292  1.00  0.00    -0.418 A  
HETATM   30  C   UNL     1     -14.304   7.676  71.746  1.00  0.00    -0.586 A  
ENDBRANCH  23  25
BRANCH  22  31
HETATM   31  C   UNL     1     -10.016   9.011  68.861  1.00  0.00    -0.197 A  
HETATM   32  C   UNL     1     -10.769   9.883  66.687  1.00  0.00    -0.116 A  
HETATM   33  C   UNL     1     -10.054  11.421  68.382  1.00  0.00    -0.207 A  
HETATM   34  C   UNL     1      -9.696  10.341  69.200  1.00  0.00    -0.229 A  
HETATM   35  C   UNL     1     -10.519   8.811  67.556  1.00  0.00    -0.340 A  
HETATM   36  C   UNL     1     -10.597  11.191  67.125  1.00  0.00    -0.286 A  
ENDBRANCH  22  31
ENDBRANCH   4  19
ENDBRANCH   2   4
TORSDOF 12
ENDMDL
MODEL      240
REMARK 921   NORMALIZED FREE ENERGY PREDICTED BY IDOCK:   -3.88 KCAL/MOL
REMARK 922        TOTAL FREE ENERGY PREDICTED BY IDOCK:   -7.92 KCAL/MOL
REMARK 923 INTER-LIGAND FREE ENERGY PREDICTED BY IDOCK:   -7.34 KCAL/MOL
REMARK 924 INTRA-LIGAND FREE ENERGY PREDICTED BY IDOCK:   -0.59 KCAL/MOL
REMARK 927      BINDING AFFINITY PREDICTED BY RF-SCORE:    0.00 PKD
ROOT
HETATM    1  C   UNL     1      -9.581   8.027  73.240  1.00  0.00    -0.322 C  
HETATM    2  C   UNL     1      -9.501   8.820  71.934  1.00  0.00    -0.292 C  
HETATM    3  C   UNL     1      -8.230   8.433  71.175  1.00  0.00    -0.154 C  
ENDROOT
BRANCH   2   4
HETATM    4  N   UNL     1     -10.706   8.700  71.078  1.00  0.00    -0.217 NA 
BRANCH   4   5
HETATM    5  C   UNL     1     -11.696   7.625  71.267  1.00  0.00    -0.284 C  
BRANCH   5   6
HETATM    6  C   UNL     1     -11.048   6.245  71.443  1.00  0.00    -0.339 C  
BRANCH   6   7
HETATM    7  C   UNL     1     -10.384   5.699  70.166  1.00  0.00    -0.341 C  
BRANCH   7   8
HETATM    8  C   UNL     1      -9.291   4.657  70.402  1.00  0.00    -0.148 C  
BRANCH   8   9
HETATM    9  O   UNL     1      -9.631   3.452  69.718  1.00  0.00    -0.175 OA 
BRANCH   9  10
HETATM   10  C   UNL     1      -8.594   3.036  68.831  1.00  0.00    -0.074 C  
BRANCH  10  11
HETATM   11  C   UNL     1      -8.924   3.385  67.384  1.00  0.00    -0.150 C  
HETATM   12  O   UNL     1      -9.441   2.576  66.625  1.00  0.00    -0.029 OA 
HETATM   13  N   UNL     1      -8.649   4.713  67.024  1.00  0.00    -0.105 N  
HETATM   14  H   UNL     1      -8.328   5.365  67.740  1.00  0.00     0.000 HD 
BRANCH  13  15
HETATM   15  S   UNL     1      -8.831   5.253  65.463  1.00  0.00    -0.146 S  
HETATM   16  O   UNL     1     -10.063   4.743  64.921  1.00  0.00    -0.004 OA 
HETATM   17  C   UNL     1      -7.524   4.365  64.678  1.00  0.00    -0.072 C  
HETATM   18  O   UNL     1      -8.476   6.649  65.424  1.00  0.00    -0.150 OA 
ENDBRANCH  13  15
ENDBRANCH  10  11
ENDBRANCH   9  10
ENDBRANCH   8   9
ENDBRANCH   7   8
ENDBRANCH   6   7
ENDBRANCH   5   6
ENDBRANCH   4   5
BRANCH   4  19
HETATM   19  C   UNL     1     -10.809   9.621  70.030  1.00  0.00    -0.264 A  
HETATM   20  N   UNL     1     -12.007  11.403  68.862  1.00  0.00    -0.433 NA 
HETATM   21  N   UNL     1      -9.837   9.671  69.090  1.00  0.00    -0.178 NA 
HETATM   22  C   UNL     1     -11.024  11.419  67.908  1.00  0.00    -0.240 A  
HETATM   23  C   UNL     1      -9.913  10.560  68.041  1.00  0.00    -0.155 A  
HETATM   24  C   UNL     1     -11.861  10.517  69.888  1.00  0.00    -0.282 A  
BRANCH  23  25
HETATM   25  C   UNL     1      -8.770  10.453  67.091  1.00  0.00    -0.130 A  
HETATM   26  C   UNL     1      -7.442  10.517  67.556  1.00  0.00    -0.093 A  
HETATM   27  C   UNL     1      -7.867   9.824  64.903  1.00  0.00    -0.133 A  
HETATM   28  C   UNL     1      -8.935  10.219  65.714  1.00  0.00    -0.185 A  
HETATM   29  C   UNL     1      -6.577   9.817  65.411  1.00  0.00    -0.091 A  
HETATM   30  C   UNL     1      -6.357  10.220  66.723  1.00  0.00    -0.072 A  
ENDBRANCH  23  25
BRANCH  22  31
HETATM   31  C   UNL     1     -11.299  12.358  66.771  1.00  0.00    -0.391 A  
HETATM   32  C   UNL     1     -11.177  14.614  65.795  1.00  0.00    -0.336 A  
HETATM   33  C   UNL     1     -12.104  12.823  64.495  1.00  0.00    -0.478 A  
HETATM   34  C   UNL     1     -11.979  11.969  65.598  1.00  0.00    -0.151 A  
HETATM   35  C   UNL     1     -10.946  13.724  66.853  1.00  0.00    -0.296 A  
HETATM   36  C   UNL     1     -11.696  14.147  64.592  1.00  0.00    -0.427 A  
ENDBRANCH  22  31
ENDBRANCH   4  19
ENDBRANCH   2   4
TORSDOF 12
ENDMDL
MODEL      241
REMARK 921   NORMALIZED FREE ENERGY PREDICTED BY IDOCK:   -3.88 KCAL/MOL
REMARK 922        TOTAL FREE ENERGY PREDICTED BY IDOCK:   -7.92 KCAL/MOL
REMARK 923 INTER-LIGAND FREE ENERGY PREDICTED BY IDOCK:   -6.30 KCAL/MOL
REMARK 924 INTRA-LIGAND FREE ENERGY PREDICTED BY IDOCK:   -1.62 KCAL/MOL
REMARK 927      BINDING AFFINITY PREDICTED BY RF-SCORE:    0.00 PKD
ROOT
HETATM    1  C   UNL     1     -12.643  11.022  71.555  1.00  0.00    -0.461 C  
HETATM    2  C   UNL     1     -11.886   9.692  71.582  1.00  0.00    -0.384 C  
HETATM    3  C   UNL     1     -12.757   8.618  72.236  1.00  0.00    -0.450 C  
ENDROOT
BRANCH   2   4
HETATM    4  N   UNL     1     -11.382   9.256  70.257  1.00  0.00    -0.235 NA 
BRANCH   4   5
HETATM    5  C   UNL     1     -11.664  10.013  69.024  1.00  0.00     0.167 C  
BRANCH   5   6
HETATM    6  C   UNL     1     -10.723  11.209  68.833  1.00  0.00    -0.246 C  
BRANCH   6   7
HETATM    7  C   UNL     1      -9.454  10.882  68.025  1.00  0.00    -0.167 C  
BRANCH   7   8
HETATM    8  C   UNL     1      -8.166  11.501  68.568  1.00  0.00    -0.148 C  
BRANCH   8   9
HETATM    9  O   UNL     1      -7.775  12.589  67.733  1.00  0.00    -0.118 OA 
BRANCH   9  10
HETATM   10  C   UNL     1      -7.625  13.798  68.474  1.00  0.00    -0.134 C  
BRANCH  10  11
HETATM   11  C   UNL     1      -8.826  14.718  68.290  1.00  0.00    -0.179 C  
HETATM   12  O   UNL     1      -8.984  15.381  67.274  1.00  0.00    -0.184 OA 
HETATM   13  N   UNL     1      -9.754  14.688  69.342  1.00  0.00    -0.426 N  
HETATM   14  H   UNL     1      -9.618  14.024  70.104  1.00  0.00     0.000 HD 
BRANCH  13  15
HETATM   15  S   UNL     1     -11.069  15.704  69.380  1.00  0.00    -0.333 S  
HETATM   16  O   UNL     1     -10.618  17.065  69.505  1.00  0.00    -0.316 OA 
HETATM   17  C   UNL     1     -11.760  15.252  70.940  1.00  0.00    -0.344 C  
HETATM   18  O   UNL     1     -11.999  15.276  68.366  1.00  0.00    -0.303 OA 
ENDBRANCH  13  15
ENDBRANCH  10  11
ENDBRANCH   9  10
ENDBRANCH   8   9
ENDBRANCH   7   8
ENDBRANCH   6   7
ENDBRANCH   5   6
ENDBRANCH   4   5
BRANCH   4  19
HETATM   19  C   UNL     1     -10.689   8.040  70.234  1.00  0.00    -0.239 A  
HETATM   20  N   UNL     1     -10.318   5.810  69.304  1.00  0.00    -0.230 NA 
HETATM   21  N   UNL     1      -9.695   7.823  71.127  1.00  0.00    -0.159 NA 
HETATM   22  C   UNL     1      -9.333   5.603  70.233  1.00  0.00    -0.152 A  
HETATM   23  C   UNL     1      -9.001   6.634  71.136  1.00  0.00    -0.145 A  
HETATM   24  C   UNL     1     -10.952   7.018  69.332  1.00  0.00    -0.201 A  
BRANCH  23  25
HETATM   25  C   UNL     1      -7.964   6.564  72.203  1.00  0.00    -0.102 A  
HETATM   26  C   UNL     1      -8.328   6.346  73.546  1.00  0.00    -0.121 A  
HETATM   27  C   UNL     1      -5.632   6.274  72.894  1.00  0.00    -0.037 A  
HETATM   28  C   UNL     1      -6.584   6.640  71.939  1.00  0.00    -0.054 A  
HETATM   29  C   UNL     1      -6.028   5.984  74.191  1.00  0.00    -0.063 A  
HETATM   30  C   UNL     1      -7.373   6.077  74.532  1.00  0.00    -0.090 A  
ENDBRANCH  23  25
BRANCH  22  31
HETATM   31  C   UNL     1      -8.745   4.223  70.193  1.00  0.00    -0.115 A  
HETATM   32  C   UNL     1      -8.138   2.133  71.341  1.00  0.00    -0.051 A  
HETATM   33  C   UNL     1      -7.755   2.327  68.982  1.00  0.00    -0.045 A  
HETATM   34  C   UNL     1      -8.174   3.663  69.032  1.00  0.00    -0.074 A  
HETATM   35  C   UNL     1      -8.667   3.431  71.361  1.00  0.00    -0.120 A  
HETATM   36  C   UNL     1      -7.743   1.559  70.138  1.00  0.00    -0.039 A  
ENDBRANCH  22  31
ENDBRANCH   4  19
ENDBRANCH   2   4
TORSDOF 12
ENDMDL
MODEL      242
REMARK 921   NORMALIZED FREE ENERGY PREDICTED BY IDOCK:   -3.88 KCAL/MOL
REMARK 922        TOTAL FREE ENERGY PREDICTED BY IDOCK:   -7.91 KCAL/MOL
REMARK 923 INTER-LIGAND FREE ENERGY PREDICTED BY IDOCK:   -7.56 KCAL/MOL
REMARK 924 INTRA-LIGAND FREE ENERGY PREDICTED BY IDOCK:   -0.35 KCAL/MOL
REMARK 927      BINDING AFFINITY PREDICTED BY RF-SCORE:    0.00 PKD
ROOT
HETATM    1  C   UNL     1      -9.037  10.250  62.442  1.00  0.00    -0.311 C  
HETATM    2  C   UNL     1      -9.250  10.953  63.784  1.00  0.00    -0.215 C  
HETATM    3  C   UNL     1     -10.748  11.053  64.081  1.00  0.00    -0.344 C  
ENDROOT
BRANCH   2   4
HETATM    4  N   UNL     1      -8.509  10.340  64.913  1.00  0.00    -0.171 NA 
BRANCH   4   5
HETATM    5  C   UNL     1      -7.130   9.842  64.765  1.00  0.00    -0.133 C  
BRANCH   5   6
HETATM    6  C   UNL     1      -6.080  10.853  65.243  1.00  0.00     0.084 C  
BRANCH   6   7
HETATM    7  C   UNL     1      -5.748  10.749  66.742  1.00  0.00    -0.069 C  
BRANCH   7   8
HETATM    8  C   UNL     1      -5.375  12.070  67.415  1.00  0.00    -0.112 C  
BRANCH   8   9
HETATM    9  O   UNL     1      -6.449  12.997  67.265  1.00  0.00    -0.212 OA 
BRANCH   9  10
HETATM   10  C   UNL     1      -6.875  13.522  68.521  1.00  0.00    -0.099 C  
BRANCH  10  11
HETATM   11  C   UNL     1      -7.719  14.778  68.342  1.00  0.00    -0.122 C  
HETATM   12  O   UNL     1      -8.748  14.962  68.979  1.00  0.00    -0.191 OA 
HETATM   13  N   UNL     1      -7.189  15.720  67.447  1.00  0.00    -0.184 N  
HETATM   14  H   UNL     1      -6.269  15.553  67.040  1.00  0.00     0.000 HD 
BRANCH  13  15
HETATM   15  S   UNL     1      -8.019  17.099  67.032  1.00  0.00    -0.218 S  
HETATM   16  O   UNL     1      -9.160  16.747  66.229  1.00  0.00    -0.270 OA 
HETATM   17  C   UNL     1      -6.846  17.847  65.947  1.00  0.00    -0.280 C  
HETATM   18  O   UNL     1      -8.111  17.939  68.200  1.00  0.00    -0.250 OA 
ENDBRANCH  13  15
ENDBRANCH  10  11
ENDBRANCH   9  10
ENDBRANCH   8   9
ENDBRANCH   7   8
ENDBRANCH   6   7
ENDBRANCH   5   6
ENDBRANCH   4   5
BRANCH   4  19
HETATM   19  C   UNL     1      -9.224  10.189  66.106  1.00  0.00    -0.159 A  
HETATM   20  N   UNL     1     -10.532  11.129  67.946  1.00  0.00    -0.182 NA 
HETATM   21  N   UNL     1      -9.331   8.963  66.669  1.00  0.00    -0.170 NA 
HETATM   22  C   UNL     1     -10.605   9.883  68.511  1.00  0.00    -0.217 A  
HETATM   23  C   UNL     1     -10.020   8.784  67.848  1.00  0.00    -0.187 A  
HETATM   24  C   UNL     1      -9.856  11.236  66.767  1.00  0.00    -0.199 A  
BRANCH  23  25
HETATM   25  C   UNL     1     -10.008   7.375  68.330  1.00  0.00    -0.177 A  
HETATM   26  C   UNL     1      -8.887   6.550  68.112  1.00  0.00    -0.115 A  
HETATM   27  C   UNL     1     -10.903   5.606  69.770  1.00  0.00    -0.370 A  
HETATM   28  C   UNL     1     -11.058   6.810  69.077  1.00  0.00    -0.254 A  
HETATM   29  C   UNL     1      -9.751   4.853  69.599  1.00  0.00    -0.266 A  
HETATM   30  C   UNL     1      -8.767   5.297  68.723  1.00  0.00    -0.093 A  
ENDBRANCH  23  25
BRANCH  22  31
HETATM   31  C   UNL     1     -11.289   9.863  69.846  1.00  0.00    -0.273 A  
HETATM   32  C   UNL     1     -13.095  10.640  71.326  1.00  0.00    -0.456 A  
HETATM   33  C   UNL     1     -11.535   9.009  72.138  1.00  0.00    -0.328 A  
HETATM   34  C   UNL     1     -10.808   9.122  70.946  1.00  0.00    -0.345 A  
HETATM   35  C   UNL     1     -12.430  10.659  70.091  1.00  0.00    -0.342 A  
HETATM   36  C   UNL     1     -12.684   9.766  72.325  1.00  0.00    -0.333 A  
ENDBRANCH  22  31
ENDBRANCH   4  19
ENDBRANCH   2   4
TORSDOF 12
ENDMDL
MODEL      243
REMARK 921   NORMALIZED FREE ENERGY PREDICTED BY IDOCK:   -3.86 KCAL/MOL
REMARK 922        TOTAL FREE ENERGY PREDICTED BY IDOCK:   -7.88 KCAL/MOL
REMARK 923 INTER-LIGAND FREE ENERGY PREDICTED BY IDOCK:   -7.57 KCAL/MOL
REMARK 924 INTRA-LIGAND FREE ENERGY PREDICTED BY IDOCK:   -0.32 KCAL/MOL
REMARK 927      BINDING AFFINITY PREDICTED BY RF-SCORE:    0.00 PKD
ROOT
HETATM    1  C   UNL     1     -11.544  11.021  68.139  1.00  0.00    -0.345 C  
HETATM    2  C   UNL     1     -10.696  11.150  69.407  1.00  0.00    -0.175 C  
HETATM    3  C   UNL     1     -11.394  10.437  70.567  1.00  0.00    -0.424 C  
ENDROOT
BRANCH   2   4
HETATM    4  N   UNL     1      -9.295  10.691  69.247  1.00  0.00    -0.162 NA 
BRANCH   4   5
HETATM    5  C   UNL     1      -8.158  11.629  69.265  1.00  0.00     0.324 C  
BRANCH   5   6
HETATM    6  C   UNL     1      -7.469  11.753  67.900  1.00  0.00    -0.108 C  
BRANCH   6   7
HETATM    7  C   UNL     1      -7.663  13.123  67.225  1.00  0.00    -0.107 C  
BRANCH   7   8
HETATM    8  C   UNL     1      -9.110  13.612  67.159  1.00  0.00    -0.239 C  
BRANCH   8   9
HETATM    9  O   UNL     1      -9.129  15.038  67.194  1.00  0.00    -0.194 OA 
BRANCH   9  10
HETATM   10  C   UNL     1      -9.792  15.588  66.058  1.00  0.00    -0.335 C  
BRANCH  10  11
HETATM   11  C   UNL     1     -11.012  14.760  65.670  1.00  0.00    -0.344 C  
HETATM   12  O   UNL     1     -12.005  14.698  66.383  1.00  0.00    -0.356 OA 
HETATM   13  N   UNL     1     -10.925  14.140  64.414  1.00  0.00    -0.599 N  
HETATM   14  H   UNL     1     -10.117  14.330  63.822  1.00  0.00     0.000 HD 
BRANCH  13  15
HETATM   15  S   UNL     1     -12.103  13.104  63.865  1.00  0.00    -0.465 S  
HETATM   16  O   UNL     1     -12.841  12.583  64.985  1.00  0.00    -0.742 OA 
HETATM   17  C   UNL     1     -11.096  11.786  63.263  1.00  0.00    -0.286 C  
HETATM   18  O   UNL     1     -12.738  13.708  62.721  1.00  0.00    -0.420 OA 
ENDBRANCH  13  15
ENDBRANCH  10  11
ENDBRANCH   9  10
ENDBRANCH   8   9
ENDBRANCH   7   8
ENDBRANCH   6   7
ENDBRANCH   5   6
ENDBRANCH   4   5
BRANCH   4  19
HETATM   19  C   UNL     1      -9.121   9.325  69.000  1.00  0.00    -0.147 A  
HETATM   20  N   UNL     1      -8.718   7.468  67.462  1.00  0.00    -0.125 NA 
HETATM   21  N   UNL     1      -9.197   8.447  70.026  1.00  0.00    -0.157 NA 
HETATM   22  C   UNL     1      -8.825   6.595  68.512  1.00  0.00    -0.122 A  
HETATM   23  C   UNL     1      -9.039   7.096  69.813  1.00  0.00    -0.141 A  
HETATM   24  C   UNL     1      -8.860   8.795  67.742  1.00  0.00    -0.136 A  
BRANCH  23  25
HETATM   25  C   UNL     1      -9.183   6.282  71.053  1.00  0.00    -0.160 A  
HETATM   26  C   UNL     1      -8.113   6.159  71.960  1.00  0.00    -0.110 A  
HETATM   27  C   UNL     1     -10.589   5.160  72.716  1.00  0.00    -0.278 A  
HETATM   28  C   UNL     1     -10.387   5.655  71.425  1.00  0.00    -0.287 A  
HETATM   29  C   UNL     1      -9.536   5.126  73.617  1.00  0.00    -0.138 A  
HETATM   30  C   UNL     1      -8.281   5.573  73.220  1.00  0.00    -0.114 A  
ENDBRANCH  23  25
BRANCH  22  31
HETATM   31  C   UNL     1      -8.742   5.152  68.111  1.00  0.00    -0.103 A  
HETATM   32  C   UNL     1      -9.271   3.350  66.520  1.00  0.00    -0.178 A  
HETATM   33  C   UNL     1      -7.943   2.852  68.454  1.00  0.00    -0.063 A  
HETATM   34  C   UNL     1      -8.129   4.165  68.909  1.00  0.00    -0.074 A  
HETATM   35  C   UNL     1      -9.353   4.691  66.922  1.00  0.00    -0.150 A  
HETATM   36  C   UNL     1      -8.511   2.447  67.253  1.00  0.00    -0.106 A  
ENDBRANCH  22  31
ENDBRANCH   4  19
ENDBRANCH   2   4
TORSDOF 12
ENDMDL
MODEL      244
REMARK 921   NORMALIZED FREE ENERGY PREDICTED BY IDOCK:   -3.86 KCAL/MOL
REMARK 922        TOTAL FREE ENERGY PREDICTED BY IDOCK:   -7.88 KCAL/MOL
REMARK 923 INTER-LIGAND FREE ENERGY PREDICTED BY IDOCK:   -6.84 KCAL/MOL
REMARK 924 INTRA-LIGAND FREE ENERGY PREDICTED BY IDOCK:   -1.04 KCAL/MOL
REMARK 927      BINDING AFFINITY PREDICTED BY RF-SCORE:    0.00 PKD
ROOT
HETATM    1  C   UNL     1      -9.508   8.664  66.101  1.00  0.00    -0.308 C  
HETATM    2  C   UNL     1      -8.347   8.709  65.104  1.00  0.00    -0.168 C  
HETATM    3  C   UNL     1      -8.743   9.554  63.892  1.00  0.00    -0.238 C  
ENDROOT
BRANCH   2   4
HETATM    4  N   UNL     1      -7.063   9.162  65.691  1.00  0.00    -0.081 NA 
BRANCH   4   5
HETATM    5  C   UNL     1      -5.887   8.278  65.777  1.00  0.00    -0.041 C  
BRANCH   5   6
HETATM    6  C   UNL     1      -5.613   7.792  67.207  1.00  0.00    -0.036 C  
BRANCH   6   7
HETATM    7  C   UNL     1      -6.549   6.662  67.673  1.00  0.00    -0.054 C  
BRANCH   7   8
HETATM    8  C   UNL     1      -6.337   6.202  69.115  1.00  0.00    -0.041 C  
BRANCH   8   9
HETATM    9  O   UNL     1      -7.399   6.695  69.929  1.00  0.00    -0.081 OA 
BRANCH   9  10
HETATM   10  C   UNL     1      -8.664   6.176  69.522  1.00  0.00    -0.130 C  
BRANCH  10  11
HETATM   11  C   UNL     1      -9.700   6.297  70.634  1.00  0.00    -0.176 C  
HETATM   12  O   UNL     1     -10.020   5.341  71.327  1.00  0.00    -0.177 OA 
HETATM   13  N   UNL     1     -10.198   7.594  70.832  1.00  0.00    -0.199 N  
HETATM   14  H   UNL     1      -9.801   8.365  70.296  1.00  0.00     0.000 HD 
BRANCH  13  15
HETATM   15  S   UNL     1     -11.418   7.908  71.917  1.00  0.00    -0.300 S  
HETATM   16  O   UNL     1     -12.641   7.317  71.444  1.00  0.00    -0.355 OA 
HETATM   17  C   UNL     1     -11.579   9.652  71.700  1.00  0.00    -0.336 C  
HETATM   18  O   UNL     1     -10.905   7.693  73.247  1.00  0.00    -0.394 OA 
ENDBRANCH  13  15
ENDBRANCH  10  11
ENDBRANCH   9  10
ENDBRANCH   8   9
ENDBRANCH   7   8
ENDBRANCH   6   7
ENDBRANCH   5   6
ENDBRANCH   4   5
BRANCH   4  19
HETATM   19  C   UNL     1      -7.056  10.454  66.229  1.00  0.00    -0.123 A  
HETATM   20  N   UNL     1      -5.857  12.412  67.067  1.00  0.00    -0.303 NA 
HETATM   21  N   UNL     1      -8.231  11.072  66.491  1.00  0.00    -0.156 NA 
HETATM   22  C   UNL     1      -7.058  13.009  67.348  1.00  0.00    -0.117 A  
HETATM   23  C   UNL     1      -8.257  12.339  67.029  1.00  0.00    -0.155 A  
HETATM   24  C   UNL     1      -5.898  11.167  66.513  1.00  0.00    -0.143 A  
BRANCH  23  25
HETATM   25  C   UNL     1      -9.637  12.847  67.275  1.00  0.00    -0.220 A  
HETATM   26  C   UNL     1     -10.218  12.756  68.555  1.00  0.00    -0.206 A  
HETATM   27  C   UNL     1     -11.551  14.224  66.613  1.00  0.00    -0.397 A  
HETATM   28  C   UNL     1     -10.403  13.497  66.290  1.00  0.00    -0.293 A  
HETATM   29  C   UNL     1     -12.057  14.183  67.904  1.00  0.00    -0.309 A  
HETATM   30  C   UNL     1     -11.422  13.401  68.863  1.00  0.00    -0.347 A  
ENDBRANCH  23  25
BRANCH  22  31
HETATM   31  C   UNL     1      -6.928  14.337  68.033  1.00  0.00    -0.149 A  
HETATM   32  C   UNL     1      -7.021  16.795  67.949  1.00  0.00    -0.156 A  
HETATM   33  C   UNL     1      -6.562  15.711  70.039  1.00  0.00    -0.056 A  
HETATM   34  C   UNL     1      -6.544  14.472  69.383  1.00  0.00    -0.138 A  
HETATM   35  C   UNL     1      -7.118  15.544  67.323  1.00  0.00    -0.225 A  
HETATM   36  C   UNL     1      -6.807  16.874  69.320  1.00  0.00    -0.228 A  
ENDBRANCH  22  31
ENDBRANCH   4  19
ENDBRANCH   2   4
TORSDOF 12
ENDMDL
MODEL      245
REMARK 921   NORMALIZED FREE ENERGY PREDICTED BY IDOCK:   -3.84 KCAL/MOL
REMARK 922        TOTAL FREE ENERGY PREDICTED BY IDOCK:   -7.85 KCAL/MOL
REMARK 923 INTER-LIGAND FREE ENERGY PREDICTED BY IDOCK:   -7.87 KCAL/MOL
REMARK 924 INTRA-LIGAND FREE ENERGY PREDICTED BY IDOCK:    0.01 KCAL/MOL
REMARK 927      BINDING AFFINITY PREDICTED BY RF-SCORE:    0.00 PKD
ROOT
HETATM    1  C   UNL     1     -12.072  11.548  70.048  1.00  0.00    -0.408 C  
HETATM    2  C   UNL     1     -11.604  10.921  68.734  1.00  0.00    -0.309 C  
HETATM    3  C   UNL     1     -11.893  11.878  67.575  1.00  0.00    -0.249 C  
ENDROOT
BRANCH   2   4
HETATM    4  N   UNL     1     -10.187  10.485  68.741  1.00  0.00    -0.180 NA 
BRANCH   4   5
HETATM    5  C   UNL     1      -9.092  11.375  68.314  1.00  0.00    -0.179 C  
BRANCH   5   6
HETATM    6  C   UNL     1      -9.472  12.860  68.386  1.00  0.00    -0.162 C  
BRANCH   6   7
HETATM    7  C   UNL     1      -8.791  13.731  67.315  1.00  0.00    -0.225 C  
BRANCH   7   8
HETATM    8  C   UNL     1      -9.594  13.916  66.027  1.00  0.00    -0.187 C  
BRANCH   8   9
HETATM    9  O   UNL     1     -10.717  14.756  66.287  1.00  0.00    -0.299 OA 
BRANCH   9  10
HETATM   10  C   UNL     1     -10.958  15.665  65.214  1.00  0.00    -0.364 C  
BRANCH  10  11
HETATM   11  C   UNL     1     -10.874  17.114  65.681  1.00  0.00    -0.049 C  
HETATM   12  O   UNL     1     -11.146  18.049  64.941  1.00  0.00    -0.738 OA 
HETATM   13  N   UNL     1     -10.526  17.276  67.031  1.00  0.00    -0.314 N  
HETATM   14  H   UNL     1     -10.427  16.449  67.620  1.00  0.00     0.000 HD 
BRANCH  13  15
HETATM   15  S   UNL     1     -10.270  18.777  67.696  1.00  0.00    -0.422 S  
HETATM   16  O   UNL     1     -11.151  19.731  67.076  1.00  0.00    -0.371 OA 
HETATM   17  C   UNL     1      -8.649  19.111  67.083  1.00  0.00    -0.285 C  
HETATM   18  O   UNL     1     -10.159  18.626  69.125  1.00  0.00    -0.355 OA 
ENDBRANCH  13  15
ENDBRANCH  10  11
ENDBRANCH   9  10
ENDBRANCH   8   9
ENDBRANCH   7   8
ENDBRANCH   6   7
ENDBRANCH   5   6
ENDBRANCH   4   5
BRANCH   4  19
HETATM   19  C   UNL     1      -9.956   9.154  69.103  1.00  0.00    -0.187 A  
HETATM   20  N   UNL     1      -9.596   7.433  70.802  1.00  0.00    -0.171 NA 
HETATM   21  N   UNL     1      -9.831   8.213  68.138  1.00  0.00    -0.162 NA 
HETATM   22  C   UNL     1      -9.447   6.503  69.808  1.00  0.00    -0.150 A  
HETATM   23  C   UNL     1      -9.595   6.896  68.462  1.00  0.00    -0.131 A  
HETATM   24  C   UNL     1      -9.852   8.716  70.417  1.00  0.00    -0.183 A  
BRANCH  23  25
HETATM   25  C   UNL     1      -9.459   6.010  67.270  1.00  0.00    -0.119 A  
HETATM   26  C   UNL     1     -10.589   5.390  66.704  1.00  0.00    -0.359 A  
HETATM   27  C   UNL     1      -8.179   5.218  65.338  1.00  0.00    -0.127 A  
HETATM   28  C   UNL     1      -8.236   5.796  66.609  1.00  0.00    -0.106 A  
HETATM   29  C   UNL     1      -9.326   4.687  64.767  1.00  0.00    -0.109 A  
HETATM   30  C   UNL     1     -10.522   4.721  65.476  1.00  0.00    -0.168 A  
ENDBRANCH  23  25
BRANCH  22  31
HETATM   31  C   UNL     1      -9.084   5.136  70.307  1.00  0.00    -0.164 A  
HETATM   32  C   UNL     1      -7.422   3.342  70.584  1.00  0.00    -0.040 A  
HETATM   33  C   UNL     1      -9.617   3.059  71.509  1.00  0.00    -0.225 A  
HETATM   34  C   UNL     1     -10.009   4.273  70.930  1.00  0.00    -0.225 A  
HETATM   35  C   UNL     1      -7.788   4.609  70.108  1.00  0.00    -0.060 A  
HETATM   36  C   UNL     1      -8.319   2.596  71.341  1.00  0.00    -0.082 A  
ENDBRANCH  22  31
ENDBRANCH   4  19
ENDBRANCH   2   4
TORSDOF 12
ENDMDL
MODEL      246
REMARK 921   NORMALIZED FREE ENERGY PREDICTED BY IDOCK:   -3.80 KCAL/MOL
REMARK 922        TOTAL FREE ENERGY PREDICTED BY IDOCK:   -7.78 KCAL/MOL
REMARK 923 INTER-LIGAND FREE ENERGY PREDICTED BY IDOCK:   -8.16 KCAL/MOL
REMARK 924 INTRA-LIGAND FREE ENERGY PREDICTED BY IDOCK:    0.38 KCAL/MOL
REMARK 927      BINDING AFFINITY PREDICTED BY RF-SCORE:    0.00 PKD
ROOT
HETATM    1  C   UNL     1     -10.230   8.262  66.776  1.00  0.00    -0.375 C  
HETATM    2  C   UNL     1      -9.691   7.929  68.169  1.00  0.00    -0.159 C  
HETATM    3  C   UNL     1      -8.198   7.605  68.079  1.00  0.00    -0.124 C  
ENDROOT
BRANCH   2   4
HETATM    4  N   UNL     1      -9.964   8.970  69.189  1.00  0.00    -0.180 NA 
BRANCH   4   5
HETATM    5  C   UNL     1     -10.190   8.637  70.606  1.00  0.00    -0.198 C  
BRANCH   5   6
HETATM    6  C   UNL     1     -11.579   8.036  70.861  1.00  0.00    -0.284 C  
BRANCH   6   7
HETATM    7  C   UNL     1     -11.575   6.507  71.042  1.00  0.00    -0.405 C  
BRANCH   7   8
HETATM    8  C   UNL     1     -12.132   6.014  72.378  1.00  0.00    -0.115 C  
BRANCH   8   9
HETATM    9  O   UNL     1     -11.092   5.377  73.117  1.00  0.00    -0.277 OA 
BRANCH   9  10
HETATM   10  C   UNL     1     -10.506   6.256  74.075  1.00  0.00    -0.264 C  
BRANCH  10  11
HETATM   11  C   UNL     1      -9.019   6.458  73.811  1.00  0.00    -0.126 C  
HETATM   12  O   UNL     1      -8.399   7.398  74.290  1.00  0.00    -0.165 OA 
HETATM   13  N   UNL     1      -8.418   5.453  73.038  1.00  0.00    -0.118 N  
HETATM   14  H   UNL     1      -8.969   4.638  72.770  1.00  0.00     0.000 HD 
BRANCH  13  15
HETATM   15  S   UNL     1      -6.834   5.555  72.546  1.00  0.00    -0.079 S  
HETATM   16  O   UNL     1      -6.048   6.159  73.589  1.00  0.00    -0.060 OA 
HETATM   17  C   UNL     1      -6.988   6.759  71.265  1.00  0.00    -0.074 C  
HETATM   18  O   UNL     1      -6.476   4.310  71.915  1.00  0.00    -0.020 OA 
ENDBRANCH  13  15
ENDBRANCH  10  11
ENDBRANCH   9  10
ENDBRANCH   8   9
ENDBRANCH   7   8
ENDBRANCH   6   7
ENDBRANCH   5   6
ENDBRANCH   4   5
BRANCH   4  19
HETATM   19  C   UNL     1     -10.073  10.281  68.713  1.00  0.00    -0.187 A  
HETATM   20  N   UNL     1      -9.539  12.007  67.066  1.00  0.00    -0.192 NA 
HETATM   21  N   UNL     1     -10.799  11.185  69.411  1.00  0.00    -0.235 NA 
HETATM   22  C   UNL     1     -10.257  12.911  67.802  1.00  0.00    -0.224 A  
HETATM   23  C   UNL     1     -10.917  12.485  68.973  1.00  0.00    -0.188 A  
HETATM   24  C   UNL     1      -9.480  10.730  67.540  1.00  0.00    -0.154 A  
BRANCH  23  25
HETATM   25  C   UNL     1     -11.730  13.343  69.882  1.00  0.00    -0.337 A  
HETATM   26  C   UNL     1     -11.836  14.729  69.656  1.00  0.00    -0.362 A  
HETATM   27  C   UNL     1     -13.459  13.590  71.599  1.00  0.00    -0.385 A  
HETATM   28  C   UNL     1     -12.479  12.829  70.955  1.00  0.00    -0.369 A  
HETATM   29  C   UNL     1     -13.598  14.937  71.298  1.00  0.00    -0.504 A  
HETATM   30  C   UNL     1     -12.746  15.521  70.367  1.00  0.00    -0.382 A  
ENDBRANCH  23  25
BRANCH  22  31
HETATM   31  C   UNL     1     -10.204  14.310  67.262  1.00  0.00    -0.252 A  
HETATM   32  C   UNL     1      -9.262  16.583  67.324  1.00  0.00    -0.224 A  
HETATM   33  C   UNL     1     -10.885  16.033  65.646  1.00  0.00    -0.273 A  
HETATM   34  C   UNL     1     -11.045  14.767  66.226  1.00  0.00    -0.341 A  
HETATM   35  C   UNL     1      -9.341  15.276  67.826  1.00  0.00    -0.196 A  
HETATM   36  C   UNL     1      -9.987  16.940  66.193  1.00  0.00    -0.332 A  
ENDBRANCH  22  31
ENDBRANCH   4  19
ENDBRANCH   2   4
TORSDOF 12
ENDMDL
MODEL      247
REMARK 921   NORMALIZED FREE ENERGY PREDICTED BY IDOCK:   -3.78 KCAL/MOL
REMARK 922        TOTAL FREE ENERGY PREDICTED BY IDOCK:   -7.75 KCAL/MOL
REMARK 923 INTER-LIGAND FREE ENERGY PREDICTED BY IDOCK:   -7.01 KCAL/MOL
REMARK 924 INTRA-LIGAND FREE ENERGY PREDICTED BY IDOCK:   -0.74 KCAL/MOL
REMARK 927      BINDING AFFINITY PREDICTED BY RF-SCORE:    0.00 PKD
ROOT
HETATM    1  C   UNL     1      -7.469  11.061  69.584  1.00  0.00     0.029 C  
HETATM    2  C   UNL     1      -8.135  11.255  68.220  1.00  0.00    -0.137 C  
HETATM    3  C   UNL     1      -7.105  11.038  67.109  1.00  0.00    -0.104 C  
ENDROOT
BRANCH   2   4
HETATM    4  N   UNL     1      -9.346  10.424  68.013  1.00  0.00    -0.138 NA 
BRANCH   4   5
HETATM    5  C   UNL     1     -10.634  11.008  67.599  1.00  0.00    -0.217 C  
BRANCH   5   6
HETATM    6  C   UNL     1     -10.873  10.908  66.087  1.00  0.00    -0.166 C  
BRANCH   6   7
HETATM    7  C   UNL     1     -10.031  11.892  65.254  1.00  0.00    -0.280 C  
BRANCH   7   8
HETATM    8  C   UNL     1     -10.149  13.357  65.674  1.00  0.00    -0.274 C  
BRANCH   8   9
HETATM    9  O   UNL     1     -11.257  13.954  65.001  1.00  0.00    -0.317 OA 
BRANCH   9  10
HETATM   10  C   UNL     1     -12.233  14.444  65.918  1.00  0.00    -0.341 C  
BRANCH  10  11
HETATM   11  C   UNL     1     -11.621  14.728  67.285  1.00  0.00    -0.369 C  
HETATM   12  O   UNL     1     -11.965  14.115  68.287  1.00  0.00    -0.350 OA 
HETATM   13  N   UNL     1     -10.600  15.691  67.283  1.00  0.00    -0.300 N  
HETATM   14  H   UNL     1     -10.284  16.076  66.394  1.00  0.00     0.000 HD 
BRANCH  13  15
HETATM   15  S   UNL     1      -9.892  16.219  68.690  1.00  0.00    -0.240 S  
HETATM   16  O   UNL     1     -10.896  16.798  69.543  1.00  0.00    -0.317 OA 
HETATM   17  C   UNL     1      -8.926  17.557  68.063  1.00  0.00    -0.258 C  
HETATM   18  O   UNL     1      -8.970  15.207  69.140  1.00  0.00    -0.209 OA 
ENDBRANCH  13  15
ENDBRANCH  10  11
ENDBRANCH   9  10
ENDBRANCH   8   9
ENDBRANCH   7   8
ENDBRANCH   6   7
ENDBRANCH   5   6
ENDBRANCH   4   5
BRANCH   4  19
HETATM   19  C   UNL     1      -9.214   9.064  68.311  1.00  0.00    -0.136 A  
HETATM   20  N   UNL     1      -8.565   6.793  67.681  1.00  0.00    -0.121 NA 
HETATM   21  N   UNL     1      -9.617   8.604  69.518  1.00  0.00    -0.168 NA 
HETATM   22  C   UNL     1      -9.003   6.345  68.900  1.00  0.00    -0.123 A  
HETATM   23  C   UNL     1      -9.508   7.269  69.838  1.00  0.00    -0.157 A  
HETATM   24  C   UNL     1      -8.677   8.129  67.435  1.00  0.00    -0.124 A  
BRANCH  23  25
HETATM   25  C   UNL     1     -10.026   6.943  71.197  1.00  0.00    -0.187 A  
HETATM   26  C   UNL     1     -11.322   6.417  71.365  1.00  0.00    -0.354 A  
HETATM   27  C   UNL     1      -9.641   6.485  73.572  1.00  0.00    -0.175 A  
HETATM   28  C   UNL     1      -9.252   7.071  72.364  1.00  0.00    -0.148 A  
HETATM   29  C   UNL     1     -10.893   5.899  73.686  1.00  0.00    -0.197 A  
HETATM   30  C   UNL     1     -11.758   5.917  72.597  1.00  0.00    -0.247 A  
ENDBRANCH  23  25
BRANCH  22  31
HETATM   31  C   UNL     1      -8.926   4.856  69.061  1.00  0.00    -0.134 A  
HETATM   32  C   UNL     1      -8.627   2.882  70.501  1.00  0.00    -0.112 A  
HETATM   33  C   UNL     1      -9.074   2.571  68.165  1.00  0.00    -0.229 A  
HETATM   34  C   UNL     1      -9.012   3.959  67.977  1.00  0.00    -0.155 A  
HETATM   35  C   UNL     1      -8.684   4.272  70.326  1.00  0.00    -0.118 A  
HETATM   36  C   UNL     1      -8.887   2.033  69.432  1.00  0.00    -0.135 A  
ENDBRANCH  22  31
ENDBRANCH   4  19
ENDBRANCH   2   4
TORSDOF 12
ENDMDL
MODEL      248
REMARK 921   NORMALIZED FREE ENERGY PREDICTED BY IDOCK:   -3.78 KCAL/MOL
REMARK 922        TOTAL FREE ENERGY PREDICTED BY IDOCK:   -7.74 KCAL/MOL
REMARK 923 INTER-LIGAND FREE ENERGY PREDICTED BY IDOCK:   -6.57 KCAL/MOL
REMARK 924 INTRA-LIGAND FREE ENERGY PREDICTED BY IDOCK:   -1.17 KCAL/MOL
REMARK 927      BINDING AFFINITY PREDICTED BY RF-SCORE:    0.00 PKD
ROOT
HETATM    1  C   UNL     1     -11.169  14.671  70.995  1.00  0.00    -0.022 C  
HETATM    2  C   UNL     1     -11.889  14.974  69.680  1.00  0.00    -0.324 C  
HETATM    3  C   UNL     1     -11.501  16.371  69.190  1.00  0.00    -0.188 C  
ENDROOT
BRANCH   2   4
HETATM    4  N   UNL     1     -11.685  13.950  68.627  1.00  0.00    -0.339 NA 
BRANCH   4   5
HETATM    5  C   UNL     1     -11.796  14.269  67.193  1.00  0.00    -0.425 C  
BRANCH   5   6
HETATM    6  C   UNL     1     -10.858  13.422  66.322  1.00  0.00    -0.294 C  
BRANCH   6   7
HETATM    7  C   UNL     1      -9.617  14.181  65.820  1.00  0.00    -0.165 C  
BRANCH   7   8
HETATM    8  C   UNL     1      -8.486  14.316  66.839  1.00  0.00    -0.106 C  
BRANCH   8   9
HETATM    9  O   UNL     1      -7.665  15.430  66.491  1.00  0.00    -0.018 OA 
BRANCH   9  10
HETATM   10  C   UNL     1      -6.537  15.549  67.355  1.00  0.00    -0.139 C  
BRANCH  10  11
HETATM   11  C   UNL     1      -6.236  17.007  67.682  1.00  0.00    -0.147 C  
HETATM   12  O   UNL     1      -5.225  17.565  67.278  1.00  0.00    -0.120 OA 
HETATM   13  N   UNL     1      -7.236  17.662  68.418  1.00  0.00    -0.226 N  
HETATM   14  H   UNL     1      -8.105  17.169  68.621  1.00  0.00     0.000 HD 
BRANCH  13  15
HETATM   15  S   UNL     1      -7.040  19.217  68.969  1.00  0.00    -0.346 S  
HETATM   16  O   UNL     1      -6.223  19.206  70.154  1.00  0.00    -0.230 OA 
HETATM   17  C   UNL     1      -8.689  19.566  69.494  1.00  0.00     0.317 C  
HETATM   18  O   UNL     1      -6.768  20.067  67.837  1.00  0.00    -0.241 OA 
ENDBRANCH  13  15
ENDBRANCH  10  11
ENDBRANCH   9  10
ENDBRANCH   8   9
ENDBRANCH   7   8
ENDBRANCH   6   7
ENDBRANCH   5   6
ENDBRANCH   4   5
BRANCH   4  19
HETATM   19  C   UNL     1     -11.459  12.644  69.078  1.00  0.00    -0.303 A  
HETATM   20  N   UNL     1     -12.161  10.665  70.329  1.00  0.00    -0.312 NA 
HETATM   21  N   UNL     1     -10.303  12.019  68.754  1.00  0.00    -0.198 NA 
HETATM   22  C   UNL     1     -10.973  10.061  70.011  1.00  0.00    -0.300 A  
HETATM   23  C   UNL     1     -10.048  10.738  69.190  1.00  0.00    -0.205 A  
HETATM   24  C   UNL     1     -12.364  11.924  69.847  1.00  0.00    -0.099 A  
BRANCH  23  25
HETATM   25  C   UNL     1      -8.717  10.223  68.760  1.00  0.00    -0.144 A  
HETATM   26  C   UNL     1      -7.550  10.570  69.468  1.00  0.00    -0.148 A  
HETATM   27  C   UNL     1      -7.355   8.626  67.497  1.00  0.00    -0.089 A  
HETATM   28  C   UNL     1      -8.550   9.324  67.691  1.00  0.00    -0.116 A  
HETATM   29  C   UNL     1      -6.242   8.932  68.265  1.00  0.00    -0.054 A  
HETATM   30  C   UNL     1      -6.323   9.946  69.213  1.00  0.00    -0.044 A  
ENDBRANCH  23  25
BRANCH  22  31
HETATM   31  C   UNL     1     -10.789   8.715  70.647  1.00  0.00    -0.265 A  
HETATM   32  C   UNL     1      -9.724   7.291  72.349  1.00  0.00    -0.186 A  
HETATM   33  C   UNL     1     -11.345   6.330  70.865  1.00  0.00    -0.389 A  
HETATM   34  C   UNL     1     -11.424   7.547  70.175  1.00  0.00    -0.116 A  
HETATM   35  C   UNL     1      -9.896   8.537  71.728  1.00  0.00    -0.339 A  
HETATM   36  C   UNL     1     -10.498   6.204  71.958  1.00  0.00    -0.249 A  
ENDBRANCH  22  31
ENDBRANCH   4  19
ENDBRANCH   2   4
TORSDOF 12
ENDMDL
MODEL      249
REMARK 921   NORMALIZED FREE ENERGY PREDICTED BY IDOCK:   -3.71 KCAL/MOL
REMARK 922        TOTAL FREE ENERGY PREDICTED BY IDOCK:   -7.63 KCAL/MOL
REMARK 923 INTER-LIGAND FREE ENERGY PREDICTED BY IDOCK:   -6.54 KCAL/MOL
REMARK 924 INTRA-LIGAND FREE ENERGY PREDICTED BY IDOCK:   -1.08 KCAL/MOL
REMARK 927      BINDING AFFINITY PREDICTED BY RF-SCORE:    0.00 PKD
ROOT
HETATM    1  C   UNL     1     -12.180   9.993  70.973  1.00  0.00    -0.462 C  
HETATM    2  C   UNL     1     -12.197   8.807  71.938  1.00  0.00    -0.361 C  
HETATM    3  C   UNL     1     -13.402   7.914  71.635  1.00  0.00    -0.374 C  
ENDROOT
BRANCH   2   4
HETATM    4  N   UNL     1     -10.934   8.030  71.965  1.00  0.00    -0.262 NA 
BRANCH   4   5
HETATM    5  C   UNL     1      -9.962   8.154  73.066  1.00  0.00    -0.233 C  
BRANCH   5   6
HETATM    6  C   UNL     1      -8.548   7.720  72.661  1.00  0.00    -0.191 C  
BRANCH   6   7
HETATM    7  C   UNL     1      -7.449   8.182  73.635  1.00  0.00    -0.202 C  
BRANCH   7   8
HETATM    8  C   UNL     1      -6.076   8.405  73.001  1.00  0.00    -0.082 C  
BRANCH   8   9
HETATM    9  O   UNL     1      -6.122   8.023  71.628  1.00  0.00    -0.035 OA 
BRANCH   9  10
HETATM   10  C   UNL     1      -5.126   8.692  70.857  1.00  0.00    -0.024 C  
BRANCH  10  11
HETATM   11  C   UNL     1      -5.557  10.110  70.500  1.00  0.00    -0.073 C  
HETATM   12  O   UNL     1      -5.924  10.908  71.351  1.00  0.00    -0.339 OA 
HETATM   13  N   UNL     1      -5.434  10.435  69.140  1.00  0.00    -0.038 N  
HETATM   14  H   UNL     1      -5.010   9.759  68.505  1.00  0.00     0.000 HD 
BRANCH  13  15
HETATM   15  S   UNL     1      -5.961  11.891  68.537  1.00  0.00    -0.051 S  
HETATM   16  O   UNL     1      -5.673  12.934  69.485  1.00  0.00    -0.083 OA 
HETATM   17  C   UNL     1      -7.706  11.629  68.585  1.00  0.00    -0.134 C  
HETATM   18  O   UNL     1      -5.583  11.968  67.148  1.00  0.00    -0.119 OA 
ENDBRANCH  13  15
ENDBRANCH  10  11
ENDBRANCH   9  10
ENDBRANCH   8   9
ENDBRANCH   7   8
ENDBRANCH   6   7
ENDBRANCH   5   6
ENDBRANCH   4   5
BRANCH   4  19
HETATM   19  C   UNL     1     -10.683   7.230  70.845  1.00  0.00    -0.234 A  
HETATM   20  N   UNL     1     -10.606   5.042  69.757  1.00  0.00    -0.125 NA 
HETATM   21  N   UNL     1     -10.235   7.803  69.705  1.00  0.00    -0.201 NA 
HETATM   22  C   UNL     1     -10.129   5.641  68.621  1.00  0.00    -0.183 A  
HETATM   23  C   UNL     1      -9.969   7.041  68.588  1.00  0.00    -0.156 A  
HETATM   24  C   UNL     1     -10.873   5.854  70.819  1.00  0.00    -0.283 A  
BRANCH  23  25
HETATM   25  C   UNL     1      -9.459   7.839  67.437  1.00  0.00    -0.177 A  
HETATM   26  C   UNL     1     -10.319   8.687  66.714  1.00  0.00    -0.336 A  
HETATM   27  C   UNL     1      -7.599   8.817  66.179  1.00  0.00    -0.094 A  
HETATM   28  C   UNL     1      -8.106   7.849  67.050  1.00  0.00    -0.116 A  
HETATM   29  C   UNL     1      -8.462   9.696  65.542  1.00  0.00    -0.151 A  
HETATM   30  C   UNL     1      -9.830   9.593  65.765  1.00  0.00    -0.373 A  
ENDBRANCH  23  25
BRANCH  22  31
HETATM   31  C   UNL     1      -9.780   4.674  67.528  1.00  0.00    -0.213 A  
HETATM   32  C   UNL     1      -8.656   2.615  66.785  1.00  0.00    -0.116 A  
HETATM   33  C   UNL     1      -9.940   3.883  65.206  1.00  0.00    -0.154 A  
HETATM   34  C   UNL     1     -10.158   4.864  66.183  1.00  0.00    -0.280 A  
HETATM   35  C   UNL     1      -8.977   3.540  67.788  1.00  0.00    -0.171 A  
HETATM   36  C   UNL     1      -9.192   2.754  65.510  1.00  0.00    -0.113 A  
ENDBRANCH  22  31
ENDBRANCH   4  19
ENDBRANCH   2   4
TORSDOF 12
ENDMDL
MODEL      250
REMARK 921   NORMALIZED FREE ENERGY PREDICTED BY IDOCK:   -3.69 KCAL/MOL
REMARK 922        TOTAL FREE ENERGY PREDICTED BY IDOCK:   -7.59 KCAL/MOL
REMARK 923 INTER-LIGAND FREE ENERGY PREDICTED BY IDOCK:   -6.30 KCAL/MOL
REMARK 924 INTRA-LIGAND FREE ENERGY PREDICTED BY IDOCK:   -1.29 KCAL/MOL
REMARK 927      BINDING AFFINITY PREDICTED BY RF-SCORE:    0.00 PKD
ROOT
HETATM    1  C   UNL     1      -5.338  13.969  68.289  1.00  0.00    -0.112 C  
HETATM    2  C   UNL     1      -5.658  13.176  69.558  1.00  0.00    -0.088 C  
HETATM    3  C   UNL     1      -6.159  14.127  70.646  1.00  0.00    -0.170 C  
ENDROOT
BRANCH   2   4
HETATM    4  N   UNL     1      -6.596  12.046  69.346  1.00  0.00    -0.113 NA 
BRANCH   4   5
HETATM    5  C   UNL     1      -6.512  10.803  70.132  1.00  0.00    -0.155 C  
BRANCH   5   6
HETATM    6  C   UNL     1      -5.249   9.989  69.824  1.00  0.00    -0.037 C  
BRANCH   6   7
HETATM    7  C   UNL     1      -5.521   8.509  69.501  1.00  0.00    -0.030 C  
BRANCH   7   8
HETATM    8  C   UNL     1      -5.271   7.539  70.656  1.00  0.00    -0.023 C  
BRANCH   8   9
HETATM    9  O   UNL     1      -6.503   7.269  71.323  1.00  0.00    -0.040 OA 
BRANCH   9  10
HETATM   10  C   UNL     1      -7.496   6.779  70.424  1.00  0.00    -0.087 C  
BRANCH  10  11
HETATM   11  C   UNL     1      -8.894   7.216  70.845  1.00  0.00    -0.150 C  
HETATM   12  O   UNL     1      -9.344   8.316  70.550  1.00  0.00    -0.155 OA 
HETATM   13  N   UNL     1      -9.632   6.240  71.531  1.00  0.00    -0.156 N  
HETATM   14  H   UNL     1      -9.238   5.306  71.640  1.00  0.00     0.000 HD 
BRANCH  13  15
HETATM   15  S   UNL     1     -11.130   6.565  72.172  1.00  0.00    -0.274 S  
HETATM   16  O   UNL     1     -11.026   7.658  73.102  1.00  0.00    -0.392 OA 
HETATM   17  C   UNL     1     -11.376   5.104  73.131  1.00  0.00    -0.313 C  
HETATM   18  O   UNL     1     -12.095   6.536  71.102  1.00  0.00    -0.350 OA 
ENDBRANCH  13  15
ENDBRANCH  10  11
ENDBRANCH   9  10
ENDBRANCH   8   9
ENDBRANCH   7   8
ENDBRANCH   6   7
ENDBRANCH   5   6
ENDBRANCH   4   5
BRANCH   4  19
HETATM   19  C   UNL     1      -7.514  12.199  68.302  1.00  0.00    -0.107 A  
HETATM   20  N   UNL     1      -9.360  13.400  67.239  1.00  0.00    -0.224 NA 
HETATM   21  N   UNL     1      -7.528  11.301  67.290  1.00  0.00    -0.119 NA 
HETATM   22  C   UNL     1      -9.373  12.464  66.239  1.00  0.00    -0.189 A  
HETATM   23  C   UNL     1      -8.426  11.419  66.252  1.00  0.00    -0.138 A  
HETATM   24  C   UNL     1      -8.431  13.240  68.225  1.00  0.00    -0.160 A  
BRANCH  23  25
HETATM   25  C   UNL     1      -8.313  10.326  65.246  1.00  0.00    -0.165 A  
HETATM   26  C   UNL     1      -7.627  10.535  64.033  1.00  0.00     0.077 A  
HETATM   27  C   UNL     1      -8.435   7.953  64.653  1.00  0.00     0.029 A  
HETATM   28  C   UNL     1      -8.810   9.028  65.463  1.00  0.00    -0.233 A  
HETATM   29  C   UNL     1      -7.688   8.177  63.506  1.00  0.00    -0.143 A  
HETATM   30  C   UNL     1      -7.333   9.477  63.164  1.00  0.00    -0.110 A  
ENDBRANCH  23  25
BRANCH  22  31
HETATM   31  C   UNL     1     -10.476  12.661  65.241  1.00  0.00    -0.312 A  
HETATM   32  C   UNL     1     -12.018  14.154  64.037  1.00  0.00    -0.359 A  
HETATM   33  C   UNL     1     -12.032  11.807  63.540  1.00  0.00    -0.484 A  
HETATM   34  C   UNL     1     -11.101  11.593  64.565  1.00  0.00    -0.365 A  
HETATM   35  C   UNL     1     -11.001  13.946  64.979  1.00  0.00    -0.371 A  
HETATM   36  C   UNL     1     -12.487  13.092  63.272  1.00  0.00    -0.283 A  
ENDBRANCH  22  31
ENDBRANCH   4  19
ENDBRANCH   2   4
TORSDOF 12
ENDMDL
MODEL      251
REMARK 921   NORMALIZED FREE ENERGY PREDICTED BY IDOCK:   -3.67 KCAL/MOL
REMARK 922        TOTAL FREE ENERGY PREDICTED BY IDOCK:   -7.56 KCAL/MOL
REMARK 923 INTER-LIGAND FREE ENERGY PREDICTED BY IDOCK:   -6.94 KCAL/MOL
REMARK 924 INTRA-LIGAND FREE ENERGY PREDICTED BY IDOCK:   -0.62 KCAL/MOL
REMARK 927      BINDING AFFINITY PREDICTED BY RF-SCORE:    0.00 PKD
ROOT
HETATM    1  C   UNL     1      -7.785  11.429  66.427  1.00  0.00    -0.051 C  
HETATM    2  C   UNL     1      -8.533  11.156  67.733  1.00  0.00    -0.124 C  
HETATM    3  C   UNL     1      -7.683  11.617  68.919  1.00  0.00    -0.065 C  
ENDROOT
BRANCH   2   4
HETATM    4  N   UNL     1      -9.898  11.736  67.782  1.00  0.00    -0.178 NA 
BRANCH   4   5
HETATM    5  C   UNL     1     -11.104  10.892  67.855  1.00  0.00    -0.302 C  
BRANCH   5   6
HETATM    6  C   UNL     1     -10.804   9.468  68.339  1.00  0.00    -0.183 C  
BRANCH   6   7
HETATM    7  C   UNL     1     -11.088   9.244  69.835  1.00  0.00    -0.200 C  
BRANCH   7   8
HETATM    8  C   UNL     1      -9.847   9.047  70.706  1.00  0.00    -0.243 C  
BRANCH   8   9
HETATM    9  O   UNL     1     -10.194   8.276  71.855  1.00  0.00    -0.204 OA 
BRANCH   9  10
HETATM   10  C   UNL     1      -9.206   8.378  72.879  1.00  0.00    -0.218 C  
BRANCH  10  11
HETATM   11  C   UNL     1      -7.877   7.780  72.434  1.00  0.00    -0.106 C  
HETATM   12  O   UNL     1      -6.847   8.440  72.411  1.00  0.00    -0.091 OA 
HETATM   13  N   UNL     1      -7.924   6.413  72.120  1.00  0.00    -0.107 N  
HETATM   14  H   UNL     1      -8.791   5.899  72.273  1.00  0.00     0.000 HD 
BRANCH  13  15
HETATM   15  S   UNL     1      -6.605   5.610  71.504  1.00  0.00    -0.051 S  
HETATM   16  O   UNL     1      -6.345   6.073  70.167  1.00  0.00    -0.029 OA 
HETATM   17  C   UNL     1      -7.278   3.985  71.358  1.00  0.00    -0.039 C  
HETATM   18  O   UNL     1      -5.591   5.558  72.527  1.00  0.00    -0.020 OA 
ENDBRANCH  13  15
ENDBRANCH  10  11
ENDBRANCH   9  10
ENDBRANCH   8   9
ENDBRANCH   7   8
ENDBRANCH   6   7
ENDBRANCH   5   6
ENDBRANCH   4   5
BRANCH   4  19
HETATM   19  C   UNL     1      -9.977  13.129  67.675  1.00  0.00    -0.219 A  
HETATM   20  N   UNL     1     -11.284  15.190  67.545  1.00  0.00    -0.327 NA 
HETATM   21  N   UNL     1      -8.839  13.854  67.566  1.00  0.00    -0.185 NA 
HETATM   22  C   UNL     1     -10.121  15.902  67.411  1.00  0.00    -0.252 A  
HETATM   23  C   UNL     1      -8.885  15.225  67.450  1.00  0.00    -0.179 A  
HETATM   24  C   UNL     1     -11.171  13.838  67.680  1.00  0.00    -0.293 A  
BRANCH  23  25
HETATM   25  C   UNL     1      -7.539  15.851  67.314  1.00  0.00    -0.236 A  
HETATM   26  C   UNL     1      -7.303  16.842  66.341  1.00  0.00    -0.261 A  
HETATM   27  C   UNL     1      -5.319  16.354  68.220  1.00  0.00    -0.106 A  
HETATM   28  C   UNL     1      -6.463  15.552  68.169  1.00  0.00    -0.133 A  
HETATM   29  C   UNL     1      -5.150  17.378  67.299  1.00  0.00    -0.143 A  
HETATM   30  C   UNL     1      -6.117  17.585  66.321  1.00  0.00    -0.257 A  
ENDBRANCH  23  25
BRANCH  22  31
HETATM   31  C   UNL     1     -10.333  17.369  67.181  1.00  0.00    -0.325 A  
HETATM   32  C   UNL     1     -10.467  19.664  68.059  1.00  0.00    -0.537 A  
HETATM   33  C   UNL     1     -10.713  19.295  65.702  1.00  0.00    -0.335 A  
HETATM   34  C   UNL     1     -10.654  17.913  65.920  1.00  0.00    -0.216 A  
HETATM   35  C   UNL     1     -10.291  18.287  68.255  1.00  0.00    -0.379 A  
HETATM   36  C   UNL     1     -10.612  20.173  66.774  1.00  0.00    -0.347 A  
ENDBRANCH  22  31
ENDBRANCH   4  19
ENDBRANCH   2   4
TORSDOF 12
ENDMDL
MODEL      252
REMARK 921   NORMALIZED FREE ENERGY PREDICTED BY IDOCK:   -3.60 KCAL/MOL
REMARK 922        TOTAL FREE ENERGY PREDICTED BY IDOCK:   -7.44 KCAL/MOL
REMARK 923 INTER-LIGAND FREE ENERGY PREDICTED BY IDOCK:   -6.64 KCAL/MOL
REMARK 924 INTRA-LIGAND FREE ENERGY PREDICTED BY IDOCK:   -0.80 KCAL/MOL
REMARK 927      BINDING AFFINITY PREDICTED BY RF-SCORE:    0.00 PKD
ROOT
HETATM    1  C   UNL     1      -9.345   8.546  65.524  1.00  0.00    -0.039 C  
HETATM    2  C   UNL     1      -8.955   9.940  65.028  1.00  0.00    -0.201 C  
HETATM    3  C   UNL     1     -10.213  10.716  64.630  1.00  0.00    -0.404 C  
ENDROOT
BRANCH   2   4
HETATM    4  N   UNL     1      -8.117  10.709  65.980  1.00  0.00    -0.156 NA 
BRANCH   4   5
HETATM    5  C   UNL     1      -6.657  10.528  66.060  1.00  0.00    -0.127 C  
BRANCH   5   6
HETATM    6  C   UNL     1      -6.094  10.847  67.451  1.00  0.00    -0.055 C  
BRANCH   6   7
HETATM    7  C   UNL     1      -6.185   9.675  68.446  1.00  0.00    -0.047 C  
BRANCH   7   8
HETATM    8  C   UNL     1      -6.529   8.323  67.820  1.00  0.00    -0.057 C  
BRANCH   8   9
HETATM    9  O   UNL     1      -7.471   7.645  68.649  1.00  0.00    -0.098 OA 
BRANCH   9  10
HETATM   10  C   UNL     1      -6.948   6.416  69.151  1.00  0.00    -0.068 C  
BRANCH  10  11
HETATM   11  C   UNL     1      -8.059   5.414  69.440  1.00  0.00    -0.093 C  
HETATM   12  O   UNL     1      -9.216   5.614  69.096  1.00  0.00    -0.114 OA 
HETATM   13  N   UNL     1      -7.635   4.231  70.065  1.00  0.00    -0.049 N  
HETATM   14  H   UNL     1      -6.638   4.081  70.216  1.00  0.00     0.000 HD 
BRANCH  13  15
HETATM   15  S   UNL     1      -8.713   3.069  70.564  1.00  0.00    -0.080 S  
HETATM   16  O   UNL     1      -8.032   2.109  71.391  1.00  0.00    -0.040 OA 
HETATM   17  C   UNL     1      -9.038   2.271  69.024  1.00  0.00    -0.127 C  
HETATM   18  O   UNL     1      -9.931   3.726  70.965  1.00  0.00    -0.167 OA 
ENDBRANCH  13  15
ENDBRANCH  10  11
ENDBRANCH   9  10
ENDBRANCH   8   9
ENDBRANCH   7   8
ENDBRANCH   6   7
ENDBRANCH   5   6
ENDBRANCH   4   5
BRANCH   4  19
HETATM   19  C   UNL     1      -8.804  11.560  66.853  1.00  0.00    -0.182 A  
HETATM   20  N   UNL     1     -10.187  11.920  68.837  1.00  0.00    -0.134 NA 
HETATM   21  N   UNL     1      -8.821  12.891  66.611  1.00  0.00    -0.148 NA 
HETATM   22  C   UNL     1     -10.212  13.261  68.558  1.00  0.00    -0.220 A  
HETATM   23  C   UNL     1      -9.496  13.752  67.447  1.00  0.00    -0.224 A  
HETATM   24  C   UNL     1      -9.481  11.123  67.985  1.00  0.00    -0.174 A  
BRANCH  23  25
HETATM   25  C   UNL     1      -9.428  15.175  67.008  1.00  0.00    -0.237 A  
HETATM   26  C   UNL     1     -10.460  15.737  66.231  1.00  0.00    -0.315 A  
HETATM   27  C   UNL     1      -8.498  17.431  67.224  1.00  0.00    -0.220 A  
HETATM   28  C   UNL     1      -8.392  16.047  67.388  1.00  0.00    -0.188 A  
HETATM   29  C   UNL     1      -9.569  17.965  66.524  1.00  0.00    -0.318 A  
HETATM   30  C   UNL     1     -10.522  17.112  65.976  1.00  0.00    -0.271 A  
ENDBRANCH  23  25
BRANCH  22  31
HETATM   31  C   UNL     1     -11.077  14.057  69.490  1.00  0.00    -0.200 A  
HETATM   32  C   UNL     1     -11.471  16.095  70.811  1.00  0.00    -0.408 A  
HETATM   33  C   UNL     1     -13.150  14.383  70.770  1.00  0.00    -0.344 A  
HETATM   34  C   UNL     1     -12.294  13.573  70.013  1.00  0.00    -0.315 A  
HETATM   35  C   UNL     1     -10.669  15.327  69.956  1.00  0.00    -0.297 A  
HETATM   36  C   UNL     1     -12.739  15.649  71.165  1.00  0.00    -0.525 A  
ENDBRANCH  22  31
ENDBRANCH   4  19
ENDBRANCH   2   4
TORSDOF 12
ENDMDL
MODEL      253
REMARK 921   NORMALIZED FREE ENERGY PREDICTED BY IDOCK:   -3.59 KCAL/MOL
REMARK 922        TOTAL FREE ENERGY PREDICTED BY IDOCK:   -7.43 KCAL/MOL
REMARK 923 INTER-LIGAND FREE ENERGY PREDICTED BY IDOCK:   -6.90 KCAL/MOL
REMARK 924 INTRA-LIGAND FREE ENERGY PREDICTED BY IDOCK:   -0.53 KCAL/MOL
REMARK 927      BINDING AFFINITY PREDICTED BY RF-SCORE:    0.00 PKD
ROOT
HETATM    1  C   UNL     1      -5.473  13.807  71.091  1.00  0.00    -0.202 C  
HETATM    2  C   UNL     1      -5.159  12.544  70.285  1.00  0.00    -0.098 C  
HETATM    3  C   UNL     1      -5.302  11.313  71.183  1.00  0.00    -0.064 C  
ENDROOT
BRANCH   2   4
HETATM    4  N   UNL     1      -5.953  12.408  69.040  1.00  0.00    -0.066 NA 
BRANCH   4   5
HETATM    5  C   UNL     1      -5.878  11.205  68.193  1.00  0.00    -0.045 C  
BRANCH   5   6
HETATM    6  C   UNL     1      -6.670  10.023  68.767  1.00  0.00    -0.049 C  
BRANCH   6   7
HETATM    7  C   UNL     1      -7.929   9.662  67.959  1.00  0.00    -0.097 C  
BRANCH   7   8
HETATM    8  C   UNL     1      -9.244   9.764  68.731  1.00  0.00    -0.143 C  
BRANCH   8   9
HETATM    9  O   UNL     1      -9.407   8.601  69.541  1.00  0.00    -0.152 OA 
BRANCH   9  10
HETATM   10  C   UNL     1     -10.562   7.852  69.168  1.00  0.00    -0.173 C  
BRANCH  10  11
HETATM   11  C   UNL     1     -10.293   6.987  67.942  1.00  0.00    -0.199 C  
HETATM   12  O   UNL     1     -10.969   7.076  66.926  1.00  0.00    -0.371 OA 
HETATM   13  N   UNL     1      -9.179   6.140  68.054  1.00  0.00    -0.117 N  
HETATM   14  H   UNL     1      -8.591   6.203  68.885  1.00  0.00     0.000 HD 
BRANCH  13  15
HETATM   15  S   UNL     1      -8.793   5.039  66.871  1.00  0.00    -0.106 S  
HETATM   16  O   UNL     1      -8.816   3.712  67.426  1.00  0.00    -0.108 OA 
HETATM   17  C   UNL     1      -7.097   5.452  66.611  1.00  0.00    -0.069 C  
HETATM   18  O   UNL     1      -9.505   5.399  65.670  1.00  0.00    -0.137 OA 
ENDBRANCH  13  15
ENDBRANCH  10  11
ENDBRANCH   9  10
ENDBRANCH   8   9
ENDBRANCH   7   8
ENDBRANCH   6   7
ENDBRANCH   5   6
ENDBRANCH   4   5
BRANCH   4  19
HETATM   19  C   UNL     1      -6.718  13.521  68.675  1.00  0.00    -0.094 A  
HETATM   20  N   UNL     1      -6.942  15.687  67.564  1.00  0.00    -0.173 NA 
HETATM   21  N   UNL     1      -8.009  13.601  69.070  1.00  0.00     0.080 NA 
HETATM   22  C   UNL     1      -8.239  15.759  67.997  1.00  0.00    -0.140 A  
HETATM   23  C   UNL     1      -8.785  14.688  68.735  1.00  0.00    -0.166 A  
HETATM   24  C   UNL     1      -6.234  14.574  67.909  1.00  0.00    -0.155 A  
BRANCH  23  25
HETATM   25  C   UNL     1     -10.171  14.615  69.279  1.00  0.00    -0.156 A  
HETATM   26  C   UNL     1     -11.054  13.601  68.861  1.00  0.00    -0.292 A  
HETATM   27  C   UNL     1     -11.830  15.222  70.976  1.00  0.00    -0.394 A  
HETATM   28  C   UNL     1     -10.653  15.488  70.271  1.00  0.00    -0.324 A  
HETATM   29  C   UNL     1     -12.641  14.165  70.594  1.00  0.00    -0.421 A  
HETATM   30  C   UNL     1     -12.283  13.388  69.497  1.00  0.00    -0.260 A  
ENDBRANCH  23  25
BRANCH  22  31
HETATM   31  C   UNL     1      -8.923  17.048  67.651  1.00  0.00    -0.221 A  
HETATM   32  C   UNL     1     -10.257  18.398  66.084  1.00  0.00    -0.408 A  
HETATM   33  C   UNL     1      -9.636  19.335  68.203  1.00  0.00    -0.423 A  
HETATM   34  C   UNL     1      -8.880  18.189  68.479  1.00  0.00    -0.312 A  
HETATM   35  C   UNL     1      -9.596  17.208  66.418  1.00  0.00    -0.296 A  
HETATM   36  C   UNL     1     -10.331  19.437  67.005  1.00  0.00    -0.547 A  
ENDBRANCH  22  31
ENDBRANCH   4  19
ENDBRANCH   2   4
TORSDOF 12
ENDMDL
MODEL      254
REMARK 921   NORMALIZED FREE ENERGY PREDICTED BY IDOCK:   -3.58 KCAL/MOL
REMARK 922        TOTAL FREE ENERGY PREDICTED BY IDOCK:   -7.41 KCAL/MOL
REMARK 923 INTER-LIGAND FREE ENERGY PREDICTED BY IDOCK:   -5.76 KCAL/MOL
REMARK 924 INTRA-LIGAND FREE ENERGY PREDICTED BY IDOCK:   -1.65 KCAL/MOL
REMARK 927      BINDING AFFINITY PREDICTED BY RF-SCORE:    0.00 PKD
ROOT
HETATM    1  C   UNL     1     -11.810  14.680  71.030  1.00  0.00    -0.379 C  
HETATM    2  C   UNL     1     -11.712  14.061  69.634  1.00  0.00    -0.311 C  
HETATM    3  C   UNL     1     -10.358  14.407  69.011  1.00  0.00    -0.204 C  
ENDROOT
BRANCH   2   4
HETATM    4  N   UNL     1     -11.973  12.602  69.598  1.00  0.00    -0.309 NA 
BRANCH   4   5
HETATM    5  C   UNL     1     -12.905  11.951  70.537  1.00  0.00     0.103 C  
BRANCH   5   6
HETATM    6  C   UNL     1     -12.185  11.233  71.685  1.00  0.00     0.070 C  
BRANCH   6   7
HETATM    7  C   UNL     1     -12.958  10.026  72.249  1.00  0.00    -0.356 C  
BRANCH   7   8
HETATM    8  C   UNL     1     -13.280   8.933  71.231  1.00  0.00    -0.185 C  
BRANCH   8   9
HETATM    9  O   UNL     1     -12.797   7.680  71.714  1.00  0.00    -0.325 OA 
BRANCH   9  10
HETATM   10  C   UNL     1     -12.133   6.938  70.693  1.00  0.00    -0.311 C  
BRANCH  10  11
HETATM   11  C   UNL     1     -10.965   6.137  71.255  1.00  0.00    -0.282 C  
HETATM   12  O   UNL     1     -11.063   5.492  72.291  1.00  0.00    -0.250 OA 
HETATM   13  N   UNL     1      -9.809   6.148  70.461  1.00  0.00    -0.176 N  
HETATM   14  H   UNL     1      -9.836   6.610  69.552  1.00  0.00     0.000 HD 
BRANCH  13  15
HETATM   15  S   UNL     1      -8.395   5.431  70.961  1.00  0.00    -0.121 S  
HETATM   16  O   UNL     1      -7.870   6.147  72.092  1.00  0.00    -0.100 OA 
HETATM   17  C   UNL     1      -7.355   5.816  69.588  1.00  0.00    -0.071 C  
HETATM   18  O   UNL     1      -8.589   4.002  70.957  1.00  0.00    -0.074 OA 
ENDBRANCH  13  15
ENDBRANCH  10  11
ENDBRANCH   9  10
ENDBRANCH   8   9
ENDBRANCH   7   8
ENDBRANCH   6   7
ENDBRANCH   5   6
ENDBRANCH   4   5
BRANCH   4  19
HETATM   19  C   UNL     1     -11.224  11.867  68.674  1.00  0.00    -0.257 A  
HETATM   20  N   UNL     1     -10.987  10.785  66.494  1.00  0.00    -0.141 NA 
HETATM   21  N   UNL     1      -9.977  11.457  69.003  1.00  0.00    -0.127 NA 
HETATM   22  C   UNL     1      -9.737  10.358  66.858  1.00  0.00    -0.181 A  
HETATM   23  C   UNL     1      -9.218  10.724  68.118  1.00  0.00    -0.151 A  
HETATM   24  C   UNL     1     -11.678  11.527  67.406  1.00  0.00    -0.151 A  
BRANCH  23  25
HETATM   25  C   UNL     1      -7.885  10.338  68.661  1.00  0.00    -0.101 A  
HETATM   26  C   UNL     1      -6.702  10.718  67.999  1.00  0.00    -0.064 A  
HETATM   27  C   UNL     1      -6.481   9.563  70.513  1.00  0.00    -0.086 A  
HETATM   28  C   UNL     1      -7.722   9.648  69.876  1.00  0.00    -0.146 A  
HETATM   29  C   UNL     1      -5.340  10.020  69.869  1.00  0.00    -0.037 A  
HETATM   30  C   UNL     1      -5.443  10.545  68.586  1.00  0.00    -0.041 A  
ENDBRANCH  23  25
BRANCH  22  31
HETATM   31  C   UNL     1      -9.076   9.478  65.839  1.00  0.00    -0.230 A  
HETATM   32  C   UNL     1      -8.269   7.261  65.142  1.00  0.00    -0.112 A  
HETATM   33  C   UNL     1      -8.076   9.107  63.624  1.00  0.00    -0.160 A  
HETATM   34  C   UNL     1      -8.565   9.965  64.618  1.00  0.00    -0.195 A  
HETATM   35  C   UNL     1      -8.866   8.104  66.090  1.00  0.00    -0.194 A  
HETATM   36  C   UNL     1      -7.934   7.751  63.886  1.00  0.00    -0.103 A  
ENDBRANCH  22  31
ENDBRANCH   4  19
ENDBRANCH   2   4
TORSDOF 12
ENDMDL
MODEL      255
REMARK 921   NORMALIZED FREE ENERGY PREDICTED BY IDOCK:   -3.58 KCAL/MOL
REMARK 922        TOTAL FREE ENERGY PREDICTED BY IDOCK:   -7.41 KCAL/MOL
REMARK 923 INTER-LIGAND FREE ENERGY PREDICTED BY IDOCK:   -6.42 KCAL/MOL
REMARK 924 INTRA-LIGAND FREE ENERGY PREDICTED BY IDOCK:   -0.98 KCAL/MOL
REMARK 927      BINDING AFFINITY PREDICTED BY RF-SCORE:    0.00 PKD
ROOT
HETATM    1  C   UNL     1      -5.448  11.837  71.195  1.00  0.00    -0.013 C  
HETATM    2  C   UNL     1      -6.026  13.182  70.751  1.00  0.00    -0.017 C  
HETATM    3  C   UNL     1      -5.265  14.320  71.437  1.00  0.00    -0.160 C  
ENDROOT
BRANCH   2   4
HETATM    4  N   UNL     1      -6.074  13.365  69.281  1.00  0.00    -0.092 NA 
BRANCH   4   5
HETATM    5  C   UNL     1      -5.214  12.591  68.368  1.00  0.00    -0.057 C  
BRANCH   5   6
HETATM    6  C   UNL     1      -5.983  11.500  67.611  1.00  0.00    -0.058 C  
BRANCH   6   7
HETATM    7  C   UNL     1      -5.567  10.066  67.988  1.00  0.00    -0.038 C  
BRANCH   7   8
HETATM    8  C   UNL     1      -5.884   9.004  66.935  1.00  0.00    -0.049 C  
BRANCH   8   9
HETATM    9  O   UNL     1      -6.822   8.073  67.471  1.00  0.00    -0.067 OA 
BRANCH   9  10
HETATM   10  C   UNL     1      -7.527   8.612  68.587  1.00  0.00    -0.096 C  
BRANCH  10  11
HETATM   11  C   UNL     1      -8.446   7.575  69.221  1.00  0.00    -0.136 C  
HETATM   12  O   UNL     1      -8.960   7.750  70.317  1.00  0.00    -0.146 OA 
HETATM   13  N   UNL     1      -8.699   6.449  68.422  1.00  0.00    -0.114 N  
HETATM   14  H   UNL     1      -8.331   6.423  67.472  1.00  0.00     0.000 HD 
BRANCH  13  15
HETATM   15  S   UNL     1      -9.581   5.157  68.984  1.00  0.00    -0.158 S  
HETATM   16  O   UNL     1     -10.853   5.622  69.470  1.00  0.00    -0.324 OA 
HETATM   17  C   UNL     1      -8.623   4.725  70.401  1.00  0.00    -0.098 C  
HETATM   18  O   UNL     1      -9.450   4.076  68.039  1.00  0.00    -0.161 OA 
ENDBRANCH  13  15
ENDBRANCH  10  11
ENDBRANCH   9  10
ENDBRANCH   8   9
ENDBRANCH   7   8
ENDBRANCH   6   7
ENDBRANCH   5   6
ENDBRANCH   4   5
BRANCH   4  19
HETATM   19  C   UNL     1      -6.926  14.373  68.815  1.00  0.00    -0.100 A  
HETATM   20  N   UNL     1      -7.323  16.398  67.505  1.00  0.00    -0.134 NA 
HETATM   21  N   UNL     1      -8.221  14.383  69.206  1.00  0.00     0.042 NA 
HETATM   22  C   UNL     1      -8.623  16.403  67.934  1.00  0.00    -0.175 A  
HETATM   23  C   UNL     1      -9.082  15.366  68.773  1.00  0.00    -0.207 A  
HETATM   24  C   UNL     1      -6.527  15.385  67.951  1.00  0.00    -0.151 A  
BRANCH  23  25
HETATM   25  C   UNL     1     -10.459  15.232  69.327  1.00  0.00    -0.258 A  
HETATM   26  C   UNL     1     -11.134  13.997  69.281  1.00  0.00    -0.271 A  
HETATM   27  C   UNL     1     -12.276  16.059  70.746  1.00  0.00    -0.254 A  
HETATM   28  C   UNL     1     -11.131  16.283  69.977  1.00  0.00    -0.351 A  
HETATM   29  C   UNL     1     -12.876  14.808  70.747  1.00  0.00    -0.418 A  
HETATM   30  C   UNL     1     -12.337  13.791  69.967  1.00  0.00    -0.364 A  
ENDBRANCH  23  25
BRANCH  22  31
HETATM   31  C   UNL     1      -9.409  17.594  67.471  1.00  0.00    -0.248 A  
HETATM   32  C   UNL     1     -10.677  18.755  65.709  1.00  0.00    -0.263 A  
HETATM   33  C   UNL     1     -10.470  19.775  67.870  1.00  0.00    -0.531 A  
HETATM   34  C   UNL     1      -9.621  18.735  68.271  1.00  0.00    -0.395 A  
HETATM   35  C   UNL     1      -9.924  17.660  66.156  1.00  0.00    -0.281 A  
HETATM   36  C   UNL     1     -11.004  19.781  66.588  1.00  0.00    -0.284 A  
ENDBRANCH  22  31
ENDBRANCH   4  19
ENDBRANCH   2   4
TORSDOF 12
ENDMDL
MODEL      256
REMARK 921   NORMALIZED FREE ENERGY PREDICTED BY IDOCK:   -3.54 KCAL/MOL
REMARK 922        TOTAL FREE ENERGY PREDICTED BY IDOCK:   -7.33 KCAL/MOL
REMARK 923 INTER-LIGAND FREE ENERGY PREDICTED BY IDOCK:   -6.16 KCAL/MOL
REMARK 924 INTRA-LIGAND FREE ENERGY PREDICTED BY IDOCK:   -1.17 KCAL/MOL
REMARK 927      BINDING AFFINITY PREDICTED BY RF-SCORE:    0.00 PKD
ROOT
HETATM    1  C   UNL     1     -10.893  12.576  65.037  1.00  0.00    -0.324 C  
HETATM    2  C   UNL     1     -10.017  13.602  65.758  1.00  0.00    -0.261 C  
HETATM    3  C   UNL     1     -10.880  14.776  66.227  1.00  0.00    -0.322 C  
ENDROOT
BRANCH   2   4
HETATM    4  N   UNL     1      -9.212  13.038  66.868  1.00  0.00    -0.231 NA 
BRANCH   4   5
HETATM    5  C   UNL     1      -7.760  13.265  66.976  1.00  0.00     0.124 C  
BRANCH   5   6
HETATM    6  C   UNL     1      -7.009  12.052  67.540  1.00  0.00    -0.130 C  
BRANCH   6   7
HETATM    7  C   UNL     1      -6.345  11.172  66.466  1.00  0.00    -0.132 C  
BRANCH   7   8
HETATM    8  C   UNL     1      -7.317  10.445  65.536  1.00  0.00    -0.139 C  
BRANCH   8   9
HETATM    9  O   UNL     1      -7.352   9.061  65.878  1.00  0.00    -0.091 OA 
BRANCH   9  10
HETATM   10  C   UNL     1      -6.067   8.576  66.263  1.00  0.00    -0.052 C  
BRANCH  10  11
HETATM   11  C   UNL     1      -5.888   7.110  65.887  1.00  0.00    -0.036 C  
HETATM   12  O   UNL     1      -5.294   6.770  64.873  1.00  0.00    -0.025 OA 
HETATM   13  N   UNL     1      -6.398   6.198  66.824  1.00  0.00    -0.043 N  
HETATM   14  H   UNL     1      -6.776   6.550  67.703  1.00  0.00     0.000 HD 
BRANCH  13  15
HETATM   15  S   UNL     1      -6.402   4.561  66.539  1.00  0.00    -0.037 S  
HETATM   16  O   UNL     1      -5.150   4.176  65.945  1.00  0.00    -0.008 OA 
HETATM   17  C   UNL     1      -7.618   4.475  65.263  1.00  0.00    -0.081 C  
HETATM   18  O   UNL     1      -6.957   3.903  67.696  1.00  0.00    -0.053 OA 
ENDBRANCH  13  15
ENDBRANCH  10  11
ENDBRANCH   9  10
ENDBRANCH   8   9
ENDBRANCH   7   8
ENDBRANCH   6   7
ENDBRANCH   5   6
ENDBRANCH   4   5
BRANCH   4  19
HETATM   19  C   UNL     1      -9.898  12.211  67.765  1.00  0.00    -0.199 A  
HETATM   20  N   UNL     1     -11.348  11.908  69.709  1.00  0.00    -0.200 NA 
HETATM   21  N   UNL     1      -9.806  10.867  67.635  1.00  0.00    -0.169 NA 
HETATM   22  C   UNL     1     -11.220  10.550  69.575  1.00  0.00    -0.271 A  
HETATM   23  C   UNL     1     -10.462  10.027  68.507  1.00  0.00    -0.202 A  
HETATM   24  C   UNL     1     -10.694  12.685  68.800  1.00  0.00    -0.207 A  
BRANCH  23  25
HETATM   25  C   UNL     1     -10.223   8.583  68.227  1.00  0.00    -0.244 A  
HETATM   26  C   UNL     1      -9.380   7.820  69.059  1.00  0.00    -0.150 A  
HETATM   27  C   UNL     1     -10.860   6.491  67.124  1.00  0.00    -0.472 A  
HETATM   28  C   UNL     1     -10.860   7.887  67.184  1.00  0.00    -0.187 A  
HETATM   29  C   UNL     1     -10.083   5.760  68.010  1.00  0.00    -0.198 A  
HETATM   30  C   UNL     1      -9.296   6.428  68.941  1.00  0.00    -0.130 A  
ENDBRANCH  23  25
BRANCH  22  31
HETATM   31  C   UNL     1     -11.897   9.768  70.661  1.00  0.00    -0.360 A  
HETATM   32  C   UNL     1     -13.957   9.039  71.793  1.00  0.00    -0.415 A  
HETATM   33  C   UNL     1     -11.841   8.212  72.563  1.00  0.00    -0.438 A  
HETATM   34  C   UNL     1     -11.190   9.044  71.643  1.00  0.00    -0.431 A  
HETATM   35  C   UNL     1     -13.304   9.778  70.797  1.00  0.00    -0.135 A  
HETATM   36  C   UNL     1     -13.228   8.205  72.634  1.00  0.00     0.089 A  
ENDBRANCH  22  31
ENDBRANCH   4  19
ENDBRANCH   2   4
TORSDOF 12
ENDMDL
MODEL      257
REMARK 921   NORMALIZED FREE ENERGY PREDICTED BY IDOCK:   -3.53 KCAL/MOL
REMARK 922        TOTAL FREE ENERGY PREDICTED BY IDOCK:   -7.33 KCAL/MOL
REMARK 923 INTER-LIGAND FREE ENERGY PREDICTED BY IDOCK:   -7.04 KCAL/MOL
REMARK 924 INTRA-LIGAND FREE ENERGY PREDICTED BY IDOCK:   -0.29 KCAL/MOL
REMARK 927      BINDING AFFINITY PREDICTED BY RF-SCORE:    0.00 PKD
ROOT
HETATM    1  C   UNL     1     -10.550   6.110  68.145  1.00  0.00    -0.328 C  
HETATM    2  C   UNL     1      -9.643   5.679  66.990  1.00  0.00    -0.136 C  
HETATM    3  C   UNL     1     -10.483   5.016  65.897  1.00  0.00    -0.233 C  
ENDROOT
BRANCH   2   4
HETATM    4  N   UNL     1      -8.798   6.769  66.445  1.00  0.00    -0.140 NA 
BRANCH   4   5
HETATM    5  C   UNL     1      -7.434   6.524  65.944  1.00  0.00    -0.081 C  
BRANCH   5   6
HETATM    6  C   UNL     1      -6.352   7.140  66.841  1.00  0.00    -0.050 C  
BRANCH   6   7
HETATM    7  C   UNL     1      -6.662   7.049  68.346  1.00  0.00    -0.064 C  
BRANCH   7   8
HETATM    8  C   UNL     1      -6.134   5.794  69.040  1.00  0.00    -0.025 C  
BRANCH   8   9
HETATM    9  O   UNL     1      -7.209   5.133  69.705  1.00  0.00    -0.057 OA 
BRANCH   9  10
HETATM   10  C   UNL     1      -8.080   6.059  70.353  1.00  0.00    -0.111 C  
BRANCH  10  11
HETATM   11  C   UNL     1      -7.782   6.153  71.845  1.00  0.00    -0.097 C  
HETATM   12  O   UNL     1      -7.924   5.197  72.595  1.00  0.00    -0.100 OA 
HETATM   13  N   UNL     1      -7.278   7.394  72.265  1.00  0.00    -0.067 N  
HETATM   14  H   UNL     1      -7.074   8.108  71.567  1.00  0.00     0.000 HD 
BRANCH  13  15
HETATM   15  S   UNL     1      -7.002   7.729  73.870  1.00  0.00    -0.109 S  
HETATM   16  O   UNL     1      -6.429   6.574  74.508  1.00  0.00    -0.079 OA 
HETATM   17  C   UNL     1      -8.666   7.854  74.446  1.00  0.00    -0.041 C  
HETATM   18  O   UNL     1      -6.423   9.046  73.963  1.00  0.00    -0.324 OA 
ENDBRANCH  13  15
ENDBRANCH  10  11
ENDBRANCH   9  10
ENDBRANCH   8   9
ENDBRANCH   7   8
ENDBRANCH   6   7
ENDBRANCH   5   6
ENDBRANCH   4   5
BRANCH   4  19
HETATM   19  C   UNL     1      -9.341   8.057  66.507  1.00  0.00    -0.205 A  
HETATM   20  N   UNL     1      -9.761  10.249  65.510  1.00  0.00    -0.244 NA 
HETATM   21  N   UNL     1      -9.986   8.454  67.629  1.00  0.00    -0.177 NA 
HETATM   22  C   UNL     1     -10.386  10.638  66.664  1.00  0.00    -0.241 A  
HETATM   23  C   UNL     1     -10.523   9.718  67.724  1.00  0.00    -0.246 A  
HETATM   24  C   UNL     1      -9.271   8.977  65.469  1.00  0.00    -0.198 A  
BRANCH  23  25
HETATM   25  C   UNL     1     -11.170   9.987  69.040  1.00  0.00    -0.180 A  
HETATM   26  C   UNL     1     -10.784   9.271  70.190  1.00  0.00    -0.269 A  
HETATM   27  C   UNL     1     -12.499  11.430  70.507  1.00  0.00    -0.381 A  
HETATM   28  C   UNL     1     -12.133  10.995  69.231  1.00  0.00    -0.363 A  
HETATM   29  C   UNL     1     -12.037  10.755  71.627  1.00  0.00    -0.045 A  
HETATM   30  C   UNL     1     -11.225   9.637  71.466  1.00  0.00    -0.377 A  
ENDBRANCH  23  25
BRANCH  22  31
HETATM   31  C   UNL     1     -10.821  12.074  66.663  1.00  0.00    -0.311 A  
HETATM   32  C   UNL     1     -12.445  13.807  66.019  1.00  0.00    -0.491 A  
HETATM   33  C   UNL     1     -10.538  14.421  67.338  1.00  0.00    -0.270 A  
HETATM   34  C   UNL     1     -10.051  13.111  67.230  1.00  0.00    -0.233 A  
HETATM   35  C   UNL     1     -12.011  12.474  66.015  1.00  0.00    -0.456 A  
HETATM   36  C   UNL     1     -11.740  14.768  66.736  1.00  0.00    -0.309 A  
ENDBRANCH  22  31
ENDBRANCH   4  19
ENDBRANCH   2   4
TORSDOF 12
ENDMDL
MODEL      258
REMARK 921   NORMALIZED FREE ENERGY PREDICTED BY IDOCK:   -3.53 KCAL/MOL
REMARK 922        TOTAL FREE ENERGY PREDICTED BY IDOCK:   -7.32 KCAL/MOL
REMARK 923 INTER-LIGAND FREE ENERGY PREDICTED BY IDOCK:   -5.86 KCAL/MOL
REMARK 924 INTRA-LIGAND FREE ENERGY PREDICTED BY IDOCK:   -1.46 KCAL/MOL
REMARK 927      BINDING AFFINITY PREDICTED BY RF-SCORE:    0.00 PKD
ROOT
HETATM    1  C   UNL     1     -10.344   8.029  70.002  1.00  0.00    -0.218 C  
HETATM    2  C   UNL     1     -10.353   9.347  69.224  1.00  0.00    -0.208 C  
HETATM    3  C   UNL     1     -11.305  10.336  69.899  1.00  0.00    -0.354 C  
ENDROOT
BRANCH   2   4
HETATM    4  N   UNL     1      -9.008   9.937  69.017  1.00  0.00    -0.150 NA 
BRANCH   4   5
HETATM    5  C   UNL     1      -7.773   9.206  69.351  1.00  0.00    -0.080 C  
BRANCH   5   6
HETATM    6  C   UNL     1      -7.409   8.145  68.305  1.00  0.00    -0.095 C  
BRANCH   6   7
HETATM    7  C   UNL     1      -7.778   8.536  66.863  1.00  0.00    -0.091 C  
BRANCH   7   8
HETATM    8  C   UNL     1      -8.533   7.465  66.076  1.00  0.00    -0.148 C  
BRANCH   8   9
HETATM    9  O   UNL     1      -8.916   6.412  66.959  1.00  0.00    -0.116 OA 
BRANCH   9  10
HETATM   10  C   UNL     1      -9.513   5.323  66.258  1.00  0.00    -0.156 C  
BRANCH  10  11
HETATM   11  C   UNL     1      -9.083   3.982  66.841  1.00  0.00    -0.145 C  
HETATM   12  O   UNL     1      -8.775   3.036  66.128  1.00  0.00    -0.119 OA 
HETATM   13  N   UNL     1      -9.008   3.947  68.242  1.00  0.00    -0.111 N  
HETATM   14  H   UNL     1      -9.166   4.806  68.768  1.00  0.00     0.000 HD 
BRANCH  13  15
HETATM   15  S   UNL     1      -8.670   2.545  69.066  1.00  0.00    -0.096 S  
HETATM   16  O   UNL     1      -9.664   1.553  68.750  1.00  0.00    -0.139 OA 
HETATM   17  C   UNL     1      -8.990   3.076  70.718  1.00  0.00    -0.098 C  
HETATM   18  O   UNL     1      -7.254   2.294  68.969  1.00  0.00    -0.043 OA 
ENDBRANCH  13  15
ENDBRANCH  10  11
ENDBRANCH   9  10
ENDBRANCH   8   9
ENDBRANCH   7   8
ENDBRANCH   6   7
ENDBRANCH   5   6
ENDBRANCH   4   5
BRANCH   4  19
HETATM   19  C   UNL     1      -8.982  11.259  68.559  1.00  0.00    -0.166 A  
HETATM   20  N   UNL     1      -8.080  13.529  68.638  1.00  0.00    -0.102 NA 
HETATM   21  N   UNL     1      -9.841  11.644  67.587  1.00  0.00    -0.183 NA 
HETATM   22  C   UNL     1      -8.976  13.903  67.672  1.00  0.00    -0.192 A  
HETATM   23  C   UNL     1      -9.846  12.940  67.122  1.00  0.00    -0.225 A  
HETATM   24  C   UNL     1      -8.109  12.226  69.039  1.00  0.00     0.282 A  
BRANCH  23  25
HETATM   25  C   UNL     1     -10.876  13.187  66.073  1.00  0.00    -0.287 A  
HETATM   26  C   UNL     1     -12.216  13.438  66.427  1.00  0.00    -0.435 A  
HETATM   27  C   UNL     1     -11.478  13.776  63.773  1.00  0.00    -0.008 A  
HETATM   28  C   UNL     1     -10.574  13.252  64.701  1.00  0.00    -0.421 A  
HETATM   29  C   UNL     1     -12.769  14.093  64.168  1.00  0.00     0.092 A  
HETATM   30  C   UNL     1     -13.157  13.869  65.484  1.00  0.00    -0.232 A  
ENDBRANCH  23  25
BRANCH  22  31
HETATM   31  C   UNL     1      -8.940  15.368  67.347  1.00  0.00    -0.202 A  
HETATM   32  C   UNL     1      -9.941  17.610  67.507  1.00  0.00    -0.322 A  
HETATM   33  C   UNL     1      -7.851  17.339  66.362  1.00  0.00    -0.345 A  
HETATM   34  C   UNL     1      -7.942  15.952  66.539  1.00  0.00    -0.231 A  
HETATM   35  C   UNL     1      -9.966  16.236  67.784  1.00  0.00    -0.246 A  
HETATM   36  C   UNL     1      -8.850  18.170  66.852  1.00  0.00    -0.273 A  
ENDBRANCH  22  31
ENDBRANCH   4  19
ENDBRANCH   2   4
TORSDOF 12
ENDMDL
MODEL      259
REMARK 921   NORMALIZED FREE ENERGY PREDICTED BY IDOCK:   -3.50 KCAL/MOL
REMARK 922        TOTAL FREE ENERGY PREDICTED BY IDOCK:   -7.27 KCAL/MOL
REMARK 923 INTER-LIGAND FREE ENERGY PREDICTED BY IDOCK:   -7.08 KCAL/MOL
REMARK 924 INTRA-LIGAND FREE ENERGY PREDICTED BY IDOCK:   -0.19 KCAL/MOL
REMARK 927      BINDING AFFINITY PREDICTED BY RF-SCORE:    0.00 PKD
ROOT
HETATM    1  C   UNL     1      -5.910  11.104  66.374  1.00  0.00    -0.148 C  
HETATM    2  C   UNL     1      -6.641   9.762  66.466  1.00  0.00    -0.072 C  
HETATM    3  C   UNL     1      -6.467   9.177  67.868  1.00  0.00    -0.056 C  
ENDROOT
BRANCH   2   4
HETATM    4  N   UNL     1      -8.069   9.823  66.072  1.00  0.00    -0.112 NA 
BRANCH   4   5
HETATM    5  C   UNL     1      -8.593   9.083  64.910  1.00  0.00    -0.180 C  
BRANCH   5   6
HETATM    6  C   UNL     1      -7.573   8.096  64.326  1.00  0.00    -0.116 C  
BRANCH   6   7
HETATM    7  C   UNL     1      -7.359   6.838  65.187  1.00  0.00    -0.085 C  
BRANCH   7   8
HETATM    8  C   UNL     1      -8.399   5.735  64.990  1.00  0.00    -0.138 C  
BRANCH   8   9
HETATM    9  O   UNL     1      -9.532   6.002  65.814  1.00  0.00    -0.049 OA 
BRANCH   9  10
HETATM   10  C   UNL     1      -9.187   6.030  67.198  1.00  0.00    -0.117 C  
BRANCH  10  11
HETATM   11  C   UNL     1      -8.898   4.631  67.728  1.00  0.00    -0.106 C  
HETATM   12  O   UNL     1      -9.730   3.735  67.677  1.00  0.00    -0.178 OA 
HETATM   13  N   UNL     1      -7.593   4.444  68.211  1.00  0.00    -0.068 N  
HETATM   14  H   UNL     1      -6.917   5.201  68.115  1.00  0.00     0.000 HD 
BRANCH  13  15
HETATM   15  S   UNL     1      -7.122   3.025  68.936  1.00  0.00    -0.049 S  
HETATM   16  O   UNL     1      -7.886   2.826  70.139  1.00  0.00    -0.043 OA 
HETATM   17  C   UNL     1      -5.489   3.465  69.438  1.00  0.00    -0.016 C  
HETATM   18  O   UNL     1      -6.993   2.017  67.913  1.00  0.00    -0.041 OA 
ENDBRANCH  13  15
ENDBRANCH  10  11
ENDBRANCH   9  10
ENDBRANCH   8   9
ENDBRANCH   7   8
ENDBRANCH   6   7
ENDBRANCH   5   6
ENDBRANCH   4   5
BRANCH   4  19
HETATM   19  C   UNL     1      -8.876  10.687  66.821  1.00  0.00    -0.139 A  
HETATM   20  N   UNL     1      -9.723  12.925  67.318  1.00  0.00    -0.216 NA 
HETATM   21  N   UNL     1      -9.622  10.189  67.834  1.00  0.00    -0.148 NA 
HETATM   22  C   UNL     1     -10.450  12.404  68.355  1.00  0.00    -0.235 A  
HETATM   23  C   UNL     1     -10.419  11.015  68.596  1.00  0.00    -0.192 A  
HETATM   24  C   UNL     1      -8.973  12.052  66.587  1.00  0.00    -0.204 A  
BRANCH  23  25
HETATM   25  C   UNL     1     -11.146  10.298  69.681  1.00  0.00    -0.323 A  
HETATM   26  C   UNL     1     -10.444   9.522  70.625  1.00  0.00    -0.374 A  
HETATM   27  C   UNL     1     -13.148   9.974  71.054  1.00  0.00    -0.435 A  
HETATM   28  C   UNL     1     -12.536  10.400  69.873  1.00  0.00    -0.123 A  
HETATM   29  C   UNL     1     -12.413   9.283  72.005  1.00  0.00    -0.451 A  
HETATM   30  C   UNL     1     -11.072   9.006  71.764  1.00  0.00    -0.444 A  
ENDBRANCH  23  25
BRANCH  22  31
HETATM   31  C   UNL     1     -11.180  13.437  69.162  1.00  0.00    -0.300 A  
HETATM   32  C   UNL     1     -11.766  15.791  69.578  1.00  0.00    -0.369 A  
HETATM   33  C   UNL     1     -12.721  14.082  70.965  1.00  0.00    -0.431 A  
HETATM   34  C   UNL     1     -11.940  13.123  70.308  1.00  0.00    -0.366 A  
HETATM   35  C   UNL     1     -11.078  14.811  68.849  1.00  0.00    -0.264 A  
HETATM   36  C   UNL     1     -12.638  15.418  70.595  1.00  0.00    -0.491 A  
ENDBRANCH  22  31
ENDBRANCH   4  19
ENDBRANCH   2   4
TORSDOF 12
ENDMDL
MODEL      260
REMARK 921   NORMALIZED FREE ENERGY PREDICTED BY IDOCK:   -3.43 KCAL/MOL
REMARK 922        TOTAL FREE ENERGY PREDICTED BY IDOCK:   -7.15 KCAL/MOL
REMARK 923 INTER-LIGAND FREE ENERGY PREDICTED BY IDOCK:   -6.41 KCAL/MOL
REMARK 924 INTRA-LIGAND FREE ENERGY PREDICTED BY IDOCK:   -0.74 KCAL/MOL
REMARK 927      BINDING AFFINITY PREDICTED BY RF-SCORE:    0.00 PKD
ROOT
HETATM    1  C   UNL     1      -7.478  11.031  69.572  1.00  0.00    -0.031 C  
HETATM    2  C   UNL     1      -8.168  11.154  68.212  1.00  0.00    -0.134 C  
HETATM    3  C   UNL     1      -7.169  10.833  67.098  1.00  0.00    -0.100 C  
ENDROOT
BRANCH   2   4
HETATM    4  N   UNL     1      -9.406  10.348  68.085  1.00  0.00    -0.143 NA 
BRANCH   4   5
HETATM    5  C   UNL     1     -10.671  10.928  67.603  1.00  0.00    -0.242 C  
BRANCH   5   6
HETATM    6  C   UNL     1     -10.904  10.686  66.106  1.00  0.00    -0.069 C  
BRANCH   6   7
HETATM    7  C   UNL     1     -10.083  11.611  65.189  1.00  0.00    -0.304 C  
BRANCH   7   8
HETATM    8  C   UNL     1     -10.255  13.106  65.458  1.00  0.00    -0.287 C  
BRANCH   8   9
HETATM    9  O   UNL     1     -11.361  13.598  64.705  1.00  0.00    -0.340 OA 
BRANCH   9  10
HETATM   10  C   UNL     1     -12.406  14.077  65.549  1.00  0.00    -0.483 C  
BRANCH  10  11
HETATM   11  C   UNL     1     -11.880  14.456  66.928  1.00  0.00    -0.410 C  
HETATM   12  O   UNL     1     -12.230  13.862  67.939  1.00  0.00    -0.325 OA 
HETATM   13  N   UNL     1     -10.925  15.485  66.930  1.00  0.00    -0.302 N  
HETATM   14  H   UNL     1     -10.594  15.855  66.040  1.00  0.00     0.000 HD 
BRANCH  13  15
HETATM   15  S   UNL     1     -10.321  16.116  68.343  1.00  0.00    -0.270 S  
HETATM   16  O   UNL     1     -11.401  16.654  69.127  1.00  0.00    -0.218 OA 
HETATM   17  C   UNL     1      -9.422  17.493  67.704  1.00  0.00    -0.256 C  
HETATM   18  O   UNL     1      -9.353  15.189  68.874  1.00  0.00    -0.190 OA 
ENDBRANCH  13  15
ENDBRANCH  10  11
ENDBRANCH   9  10
ENDBRANCH   8   9
ENDBRANCH   7   8
ENDBRANCH   6   7
ENDBRANCH   5   6
ENDBRANCH   4   5
BRANCH   4  19
HETATM   19  C   UNL     1      -9.322   9.022  68.525  1.00  0.00    -0.139 A  
HETATM   20  N   UNL     1      -9.498   7.344  70.294  1.00  0.00    -0.165 NA 
HETATM   21  N   UNL     1      -8.957   8.053  67.654  1.00  0.00    -0.134 NA 
HETATM   22  C   UNL     1      -9.103   6.383  69.401  1.00  0.00    -0.140 A  
HETATM   23  C   UNL     1      -8.857   6.741  68.059  1.00  0.00    -0.119 A  
HETATM   24  C   UNL     1      -9.602   8.620  69.825  1.00  0.00    -0.171 A  
BRANCH  23  25
HETATM   25  C   UNL     1      -8.417   5.820  66.973  1.00  0.00    -0.107 A  
HETATM   26  C   UNL     1      -7.069   5.426  66.868  1.00  0.00    -0.066 A  
HETATM   27  C   UNL     1      -8.932   4.164  65.243  1.00  0.00    -0.134 A  
HETATM   28  C   UNL     1      -9.307   5.243  66.049  1.00  0.00    -0.167 A  
HETATM   29  C   UNL     1      -7.611   3.744  65.220  1.00  0.00    -0.081 A  
HETATM   30  C   UNL     1      -6.666   4.413  65.990  1.00  0.00    -0.053 A  
ENDBRANCH  23  25
BRANCH  22  31
HETATM   31  C   UNL     1      -8.930   5.024  70.012  1.00  0.00    -0.146 A  
HETATM   32  C   UNL     1      -9.040   2.573  69.819  1.00  0.00    -0.183 A  
HETATM   33  C   UNL     1      -8.268   3.553  71.867  1.00  0.00    -0.064 A  
HETATM   34  C   UNL     1      -8.555   4.826  71.357  1.00  0.00    -0.125 A  
HETATM   35  C   UNL     1      -9.213   3.853  69.273  1.00  0.00    -0.224 A  
HETATM   36  C   UNL     1      -8.506   2.425  71.093  1.00  0.00    -0.089 A  
ENDBRANCH  22  31
ENDBRANCH   4  19
ENDBRANCH   2   4
TORSDOF 12
ENDMDL
MODEL      261
REMARK 921   NORMALIZED FREE ENERGY PREDICTED BY IDOCK:   -3.43 KCAL/MOL
REMARK 922        TOTAL FREE ENERGY PREDICTED BY IDOCK:   -7.15 KCAL/MOL
REMARK 923 INTER-LIGAND FREE ENERGY PREDICTED BY IDOCK:   -6.52 KCAL/MOL
REMARK 924 INTRA-LIGAND FREE ENERGY PREDICTED BY IDOCK:   -0.62 KCAL/MOL
REMARK 927      BINDING AFFINITY PREDICTED BY RF-SCORE:    0.00 PKD
ROOT
HETATM    1  C   UNL     1      -8.795   8.746  71.148  1.00  0.00    -0.275 C  
HETATM    2  C   UNL     1      -7.844   8.849  69.954  1.00  0.00    -0.092 C  
HETATM    3  C   UNL     1      -6.956   7.604  69.895  1.00  0.00    -0.054 C  
ENDROOT
BRANCH   2   4
HETATM    4  N   UNL     1      -8.523   9.098  68.659  1.00  0.00    -0.126 NA 
BRANCH   4   5
HETATM    5  C   UNL     1      -8.916   7.999  67.759  1.00  0.00    -0.132 C  
BRANCH   5   6
HETATM    6  C   UNL     1      -8.407   8.196  66.325  1.00  0.00    -0.119 C  
BRANCH   6   7
HETATM    7  C   UNL     1      -7.006   7.609  66.073  1.00  0.00    -0.065 C  
BRANCH   7   8
HETATM    8  C   UNL     1      -6.826   6.157  66.517  1.00  0.00    -0.062 C  
BRANCH   8   9
HETATM    9  O   UNL     1      -6.230   5.410  65.457  1.00  0.00    -0.032 OA 
BRANCH   9  10
HETATM   10  C   UNL     1      -6.919   4.184  65.219  1.00  0.00    -0.058 C  
BRANCH  10  11
HETATM   11  C   UNL     1      -7.051   3.362  66.496  1.00  0.00    -0.062 C  
HETATM   12  O   UNL     1      -6.104   2.752  66.973  1.00  0.00    -0.023 OA 
HETATM   13  N   UNL     1      -8.316   3.418  67.102  1.00  0.00    -0.091 N  
HETATM   14  H   UNL     1      -9.024   4.040  66.713  1.00  0.00     0.000 HD 
BRANCH  13  15
HETATM   15  S   UNL     1      -8.690   2.499  68.435  1.00  0.00    -0.108 S  
HETATM   16  O   UNL     1      -9.624   1.471  68.059  1.00  0.00    -0.175 OA 
HETATM   17  C   UNL     1      -9.594   3.685  69.380  1.00  0.00    -0.126 C  
HETATM   18  O   UNL     1      -7.470   2.228  69.153  1.00  0.00    -0.044 OA 
ENDBRANCH  13  15
ENDBRANCH  10  11
ENDBRANCH   9  10
ENDBRANCH   8   9
ENDBRANCH   7   8
ENDBRANCH   6   7
ENDBRANCH   5   6
ENDBRANCH   4   5
BRANCH   4  19
HETATM   19  C   UNL     1      -8.697  10.440  68.306  1.00  0.00    -0.128 A  
HETATM   20  N   UNL     1      -8.290  12.820  68.689  1.00  0.00    -0.037 NA 
HETATM   21  N   UNL     1      -9.467  10.753  67.238  1.00  0.00    -0.158 NA 
HETATM   22  C   UNL     1      -9.094  13.115  67.620  1.00  0.00    -0.201 A  
HETATM   23  C   UNL     1      -9.665  12.066  66.870  1.00  0.00    -0.203 A  
HETATM   24  C   UNL     1      -8.114  11.501  68.987  1.00  0.00     0.042 A  
BRANCH  23  25
HETATM   25  C   UNL     1     -10.562  12.219  65.690  1.00  0.00    -0.295 A  
HETATM   26  C   UNL     1     -10.216  11.654  64.447  1.00  0.00    -0.346 A  
HETATM   27  C   UNL     1     -12.756  12.735  64.732  1.00  0.00    -0.469 A  
HETATM   28  C   UNL     1     -11.811  12.863  65.753  1.00  0.00    -0.469 A  
HETATM   29  C   UNL     1     -12.414  12.099  63.548  1.00  0.00    -0.666 A  
HETATM   30  C   UNL     1     -11.124  11.609  63.383  1.00  0.00    -0.422 A  
ENDBRANCH  23  25
BRANCH  22  31
HETATM   31  C   UNL     1      -9.305  14.585  67.409  1.00  0.00    -0.197 A  
HETATM   32  C   UNL     1      -8.904  16.628  66.097  1.00  0.00    -0.323 A  
HETATM   33  C   UNL     1     -10.342  16.730  68.015  1.00  0.00    -0.317 A  
HETATM   34  C   UNL     1     -10.042  15.392  68.301  1.00  0.00    -0.218 A  
HETATM   35  C   UNL     1      -8.703  15.259  66.323  1.00  0.00    -0.188 A  
HETATM   36  C   UNL     1      -9.776  17.347  66.907  1.00  0.00    -0.286 A  
ENDBRANCH  22  31
ENDBRANCH   4  19
ENDBRANCH   2   4
TORSDOF 12
ENDMDL
MODEL      262
REMARK 921   NORMALIZED FREE ENERGY PREDICTED BY IDOCK:   -3.42 KCAL/MOL
REMARK 922        TOTAL FREE ENERGY PREDICTED BY IDOCK:   -7.14 KCAL/MOL
REMARK 923 INTER-LIGAND FREE ENERGY PREDICTED BY IDOCK:   -5.91 KCAL/MOL
REMARK 924 INTRA-LIGAND FREE ENERGY PREDICTED BY IDOCK:   -1.23 KCAL/MOL
REMARK 927      BINDING AFFINITY PREDICTED BY RF-SCORE:    0.00 PKD
ROOT
HETATM    1  C   UNL     1      -9.226  15.641  69.506  1.00  0.00    -0.259 C  
HETATM    2  C   UNL     1      -8.416  15.385  68.233  1.00  0.00    -0.159 C  
HETATM    3  C   UNL     1      -7.814  16.700  67.732  1.00  0.00    -0.175 C  
ENDROOT
BRANCH   2   4
HETATM    4  N   UNL     1      -7.384  14.330  68.374  1.00  0.00    -0.110 NA 
BRANCH   4   5
HETATM    5  C   UNL     1      -6.228  14.482  69.275  1.00  0.00    -0.112 C  
BRANCH   5   6
HETATM    6  C   UNL     1      -6.282  13.529  70.476  1.00  0.00     0.005 C  
BRANCH   6   7
HETATM    7  C   UNL     1      -5.144  12.492  70.503  1.00  0.00    -0.114 C  
BRANCH   7   8
HETATM    8  C   UNL     1      -5.575  11.069  70.855  1.00  0.00    -0.083 C  
BRANCH   8   9
HETATM    9  O   UNL     1      -6.954  10.899  70.530  1.00  0.00    -0.167 OA 
BRANCH   9  10
HETATM   10  C   UNL     1      -7.219   9.599  70.006  1.00  0.00    -0.119 C  
BRANCH  10  11
HETATM   11  C   UNL     1      -7.471   8.589  71.119  1.00  0.00    -0.093 C  
HETATM   12  O   UNL     1      -8.122   8.874  72.116  1.00  0.00    -0.369 OA 
HETATM   13  N   UNL     1      -6.955   7.307  70.876  1.00  0.00    -0.056 N  
HETATM   14  H   UNL     1      -6.525   7.108  69.973  1.00  0.00     0.000 HD 
BRANCH  13  15
HETATM   15  S   UNL     1      -7.027   6.103  72.019  1.00  0.00    -0.079 S  
HETATM   16  O   UNL     1      -8.334   6.092  72.621  1.00  0.00    -0.121 OA 
HETATM   17  C   UNL     1      -5.918   6.759  73.225  1.00  0.00    -0.057 C  
HETATM   18  O   UNL     1      -6.406   4.923  71.472  1.00  0.00    -0.024 OA 
ENDBRANCH  13  15
ENDBRANCH  10  11
ENDBRANCH   9  10
ENDBRANCH   8   9
ENDBRANCH   7   8
ENDBRANCH   6   7
ENDBRANCH   5   6
ENDBRANCH   4   5
BRANCH   4  19
HETATM   19  C   UNL     1      -7.529  13.215  67.542  1.00  0.00    -0.160 A  
HETATM   20  N   UNL     1      -6.651  11.157  66.555  1.00  0.00    -0.131 NA 
HETATM   21  N   UNL     1      -8.678  13.047  66.846  1.00  0.00    -0.189 NA 
HETATM   22  C   UNL     1      -7.812  11.022  65.841  1.00  0.00    -0.034 A  
HETATM   23  C   UNL     1      -8.847  11.965  66.012  1.00  0.00    -0.007 A  
HETATM   24  C   UNL     1      -6.555  12.237  67.381  1.00  0.00    -0.154 A  
BRANCH  23  25
HETATM   25  C   UNL     1     -10.161  11.961  65.309  1.00  0.00    -0.309 A  
HETATM   26  C   UNL     1     -11.328  12.400  65.965  1.00  0.00    -0.397 A  
HETATM   27  C   UNL     1     -11.474  11.881  63.242  1.00  0.00    -0.376 A  
HETATM   28  C   UNL     1     -10.309  11.594  63.959  1.00  0.00    -0.405 A  
HETATM   29  C   UNL     1     -12.583  12.391  63.900  1.00  0.00    -0.528 A  
HETATM   30  C   UNL     1     -12.529  12.596  65.274  1.00  0.00    -0.483 A  
ENDBRANCH  23  25
BRANCH  22  31
HETATM   31  C   UNL     1      -7.808   9.859  64.892  1.00  0.00    -0.136 A  
HETATM   32  C   UNL     1      -8.217   7.474  64.445  1.00  0.00    -0.018 A  
HETATM   33  C   UNL     1      -7.488   8.894  62.655  1.00  0.00    -0.101 A  
HETATM   34  C   UNL     1      -7.356   9.955  63.560  1.00  0.00    -0.132 A  
HETATM   35  C   UNL     1      -8.196   8.570  65.320  1.00  0.00    -0.149 A  
HETATM   36  C   UNL     1      -7.925   7.652  63.098  1.00  0.00    -0.108 A  
ENDBRANCH  22  31
ENDBRANCH   4  19
ENDBRANCH   2   4
TORSDOF 12
ENDMDL
MODEL      263
REMARK 921   NORMALIZED FREE ENERGY PREDICTED BY IDOCK:   -3.42 KCAL/MOL
REMARK 922        TOTAL FREE ENERGY PREDICTED BY IDOCK:   -7.13 KCAL/MOL
REMARK 923 INTER-LIGAND FREE ENERGY PREDICTED BY IDOCK:   -7.12 KCAL/MOL
REMARK 924 INTRA-LIGAND FREE ENERGY PREDICTED BY IDOCK:   -0.01 KCAL/MOL
REMARK 927      BINDING AFFINITY PREDICTED BY RF-SCORE:    0.00 PKD
ROOT
HETATM    1  C   UNL     1     -10.120   6.323  74.493  1.00  0.00    -0.353 C  
HETATM    2  C   UNL     1     -10.422   7.317  73.369  1.00  0.00    -0.377 C  
HETATM    3  C   UNL     1      -9.125   7.990  72.915  1.00  0.00    -0.313 C  
ENDROOT
BRANCH   2   4
HETATM    4  N   UNL     1     -11.163   6.731  72.225  1.00  0.00    -0.250 NA 
BRANCH   4   5
HETATM    5  C   UNL     1     -12.528   6.197  72.369  1.00  0.00     0.075 C  
BRANCH   5   6
HETATM    6  C   UNL     1     -13.576   7.038  71.629  1.00  0.00    -0.346 C  
BRANCH   6   7
HETATM    7  C   UNL     1     -13.715   8.475  72.164  1.00  0.00    -0.418 C  
BRANCH   7   8
HETATM    8  C   UNL     1     -12.426   9.296  72.150  1.00  0.00    -0.351 C  
BRANCH   8   9
HETATM    9  O   UNL     1     -12.723  10.648  72.493  1.00  0.00     0.170 OA 
BRANCH   9  10
HETATM   10  C   UNL     1     -12.970  11.447  71.337  1.00  0.00    -0.365 C  
BRANCH  10  11
HETATM   11  C   UNL     1     -13.349  12.874  71.715  1.00  0.00    -0.359 C  
HETATM   12  O   UNL     1     -14.257  13.115  72.499  1.00  0.00    -0.654 OA 
HETATM   13  N   UNL     1     -12.538  13.867  71.146  1.00  0.00    -0.353 N  
HETATM   14  H   UNL     1     -11.726  13.589  70.595  1.00  0.00     0.000 HD 
BRANCH  13  15
HETATM   15  S   UNL     1     -12.863  15.484  71.346  1.00  0.00    -0.484 S  
HETATM   16  O   UNL     1     -14.117  15.801  70.716  1.00  0.00    -0.237 OA 
HETATM   17  C   UNL     1     -11.596  16.179  70.333  1.00  0.00    -0.277 C  
HETATM   18  O   UNL     1     -12.559  15.841  72.709  1.00  0.00    -0.370 OA 
ENDBRANCH  13  15
ENDBRANCH  10  11
ENDBRANCH   9  10
ENDBRANCH   8   9
ENDBRANCH   7   8
ENDBRANCH   6   7
ENDBRANCH   5   6
ENDBRANCH   4   5
BRANCH   4  19
HETATM   19  C   UNL     1     -10.459   6.643  71.019  1.00  0.00    -0.214 A  
HETATM   20  N   UNL     1      -9.633   7.649  68.950  1.00  0.00    -0.150 NA 
HETATM   21  N   UNL     1      -9.899   5.465  70.659  1.00  0.00    -0.179 NA 
HETATM   22  C   UNL     1      -9.096   6.440  68.593  1.00  0.00    -0.127 A  
HETATM   23  C   UNL     1      -9.208   5.344  69.474  1.00  0.00    -0.117 A  
HETATM   24  C   UNL     1     -10.284   7.709  70.146  1.00  0.00    -0.204 A  
BRANCH  23  25
HETATM   25  C   UNL     1      -8.685   3.969  69.233  1.00  0.00    -0.124 A  
HETATM   26  C   UNL     1      -9.454   3.023  68.528  1.00  0.00    -0.204 A  
HETATM   27  C   UNL     1      -6.820   2.385  69.127  1.00  0.00    -0.033 A  
HETATM   28  C   UNL     1      -7.398   3.558  69.621  1.00  0.00    -0.045 A  
HETATM   29  C   UNL     1      -7.577   1.508  68.366  1.00  0.00    -0.046 A  
HETATM   30  C   UNL     1      -8.914   1.799  68.114  1.00  0.00    -0.173 A  
ENDBRANCH  23  25
BRANCH  22  31
HETATM   31  C   UNL     1      -8.473   6.433  67.229  1.00  0.00    -0.111 A  
HETATM   32  C   UNL     1      -6.466   6.420  65.804  1.00  0.00    -0.043 A  
HETATM   33  C   UNL     1      -8.633   6.342  64.778  1.00  0.00     0.128 A  
HETATM   34  C   UNL     1      -9.227   6.487  66.038  1.00  0.00    -0.077 A  
HETATM   35  C   UNL     1      -7.069   6.445  67.070  1.00  0.00    -0.073 A  
HETATM   36  C   UNL     1      -7.249   6.302  64.662  1.00  0.00    -0.064 A  
ENDBRANCH  22  31
ENDBRANCH   4  19
ENDBRANCH   2   4
TORSDOF 12
ENDMDL
MODEL      264
REMARK 921   NORMALIZED FREE ENERGY PREDICTED BY IDOCK:   -3.41 KCAL/MOL
REMARK 922        TOTAL FREE ENERGY PREDICTED BY IDOCK:   -7.12 KCAL/MOL
REMARK 923 INTER-LIGAND FREE ENERGY PREDICTED BY IDOCK:   -6.57 KCAL/MOL
REMARK 924 INTRA-LIGAND FREE ENERGY PREDICTED BY IDOCK:   -0.55 KCAL/MOL
REMARK 927      BINDING AFFINITY PREDICTED BY RF-SCORE:    0.00 PKD
ROOT
HETATM    1  C   UNL     1     -10.322   8.341  72.471  1.00  0.00    -0.401 C  
HETATM    2  C   UNL     1     -11.392   7.817  71.512  1.00  0.00    -0.255 C  
HETATM    3  C   UNL     1     -12.251   8.981  71.012  1.00  0.00    -0.275 C  
ENDROOT
BRANCH   2   4
HETATM    4  N   UNL     1     -10.856   7.011  70.388  1.00  0.00    -0.245 NA 
BRANCH   4   5
HETATM    5  C   UNL     1     -10.504   5.589  70.543  1.00  0.00    -0.277 C  
BRANCH   5   6
HETATM    6  C   UNL     1      -9.061   5.383  71.021  1.00  0.00    -0.167 C  
BRANCH   6   7
HETATM    7  C   UNL     1      -8.013   6.154  70.197  1.00  0.00    -0.107 C  
BRANCH   7   8
HETATM    8  C   UNL     1      -6.568   5.699  70.402  1.00  0.00    -0.046 C  
BRANCH   8   9
HETATM    9  O   UNL     1      -5.986   5.392  69.137  1.00  0.00    -0.021 OA 
BRANCH   9  10
HETATM   10  C   UNL     1      -6.012   3.991  68.868  1.00  0.00    -0.023 C  
BRANCH  10  11
HETATM   11  C   UNL     1      -6.089   3.713  67.371  1.00  0.00    -0.028 C  
HETATM   12  O   UNL     1      -5.221   3.079  66.786  1.00  0.00    -0.010 OA 
HETATM   13  N   UNL     1      -7.254   4.182  66.746  1.00  0.00    -0.071 N  
HETATM   14  H   UNL     1      -7.990   4.599  67.316  1.00  0.00     0.000 HD 
BRANCH  13  15
HETATM   15  S   UNL     1      -7.469   4.077  65.101  1.00  0.00    -0.077 S  
HETATM   16  O   UNL     1      -8.778   4.566  64.757  1.00  0.00    -0.133 OA 
HETATM   17  C   UNL     1      -7.515   2.323  64.910  1.00  0.00    -0.067 C  
HETATM   18  O   UNL     1      -6.265   4.540  64.459  1.00  0.00    -0.028 OA 
ENDBRANCH  13  15
ENDBRANCH  10  11
ENDBRANCH   9  10
ENDBRANCH   8   9
ENDBRANCH   7   8
ENDBRANCH   6   7
ENDBRANCH   5   6
ENDBRANCH   4   5
BRANCH   4  19
HETATM   19  C   UNL     1     -10.630   7.702  69.192  1.00  0.00    -0.186 A  
HETATM   20  N   UNL     1     -10.512   7.764  66.751  1.00  0.00    -0.308 NA 
HETATM   21  N   UNL     1     -10.273   9.006  69.233  1.00  0.00    -0.199 NA 
HETATM   22  C   UNL     1     -10.127   9.077  66.818  1.00  0.00    -0.274 A  
HETATM   23  C   UNL     1     -10.035   9.710  68.074  1.00  0.00    -0.160 A  
HETATM   24  C   UNL     1     -10.757   7.129  67.933  1.00  0.00    -0.192 A  
BRANCH  23  25
HETATM   25  C   UNL     1      -9.627  11.124  68.315  1.00  0.00    -0.185 A  
HETATM   26  C   UNL     1      -8.275  11.508  68.216  1.00  0.00    -0.152 A  
HETATM   27  C   UNL     1     -10.185  13.501  68.505  1.00  0.00    -0.229 A  
HETATM   28  C   UNL     1     -10.547  12.153  68.582  1.00  0.00    -0.248 A  
HETATM   29  C   UNL     1      -8.855  13.851  68.324  1.00  0.00    -0.185 A  
HETATM   30  C   UNL     1      -7.890  12.853  68.238  1.00  0.00    -0.142 A  
ENDBRANCH  23  25
BRANCH  22  31
HETATM   31  C   UNL     1      -9.795   9.679  65.484  1.00  0.00    -0.352 A  
HETATM   32  C   UNL     1      -8.464   9.667  63.414  1.00  0.00    -0.188 A  
HETATM   33  C   UNL     1     -10.184  11.316  63.692  1.00  0.00    -0.446 A  
HETATM   34  C   UNL     1     -10.410  10.849  64.994  1.00  0.00    -0.356 A  
HETATM   35  C   UNL     1      -8.777   9.131  64.672  1.00  0.00    -0.199 A  
HETATM   36  C   UNL     1      -9.212  10.719  62.899  1.00  0.00    -0.336 A  
ENDBRANCH  22  31
ENDBRANCH   4  19
ENDBRANCH   2   4
TORSDOF 12
ENDMDL
MODEL      265
REMARK 921   NORMALIZED FREE ENERGY PREDICTED BY IDOCK:   -3.41 KCAL/MOL
REMARK 922        TOTAL FREE ENERGY PREDICTED BY IDOCK:   -7.12 KCAL/MOL
REMARK 923 INTER-LIGAND FREE ENERGY PREDICTED BY IDOCK:   -6.30 KCAL/MOL
REMARK 924 INTRA-LIGAND FREE ENERGY PREDICTED BY IDOCK:   -0.83 KCAL/MOL
REMARK 927      BINDING AFFINITY PREDICTED BY RF-SCORE:    0.00 PKD
ROOT
HETATM    1  C   UNL     1      -9.322   8.244  66.516  1.00  0.00    -0.263 C  
HETATM    2  C   UNL     1      -7.815   8.217  66.248  1.00  0.00    -0.098 C  
HETATM    3  C   UNL     1      -7.541   8.657  64.808  1.00  0.00    -0.102 C  
ENDROOT
BRANCH   2   4
HETATM    4  N   UNL     1      -7.013   8.998  67.221  1.00  0.00    -0.078 NA 
BRANCH   4   5
HETATM    5  C   UNL     1      -6.032   8.361  68.116  1.00  0.00    -0.046 C  
BRANCH   5   6
HETATM    6  C   UNL     1      -6.404   8.498  69.598  1.00  0.00    -0.039 C  
BRANCH   6   7
HETATM    7  C   UNL     1      -6.300   7.183  70.393  1.00  0.00    -0.035 C  
BRANCH   7   8
HETATM    8  C   UNL     1      -5.995   7.351  71.881  1.00  0.00    -0.036 C  
BRANCH   8   9
HETATM    9  O   UNL     1      -7.160   7.035  72.641  1.00  0.00    -0.069 OA 
BRANCH   9  10
HETATM   10  C   UNL     1      -7.944   8.194  72.917  1.00  0.00    -0.156 C  
BRANCH  10  11
HETATM   11  C   UNL     1      -9.222   8.214  72.085  1.00  0.00    -0.194 C  
HETATM   12  O   UNL     1      -9.697   9.256  71.655  1.00  0.00    -0.257 OA 
HETATM   13  N   UNL     1      -9.760   6.948  71.806  1.00  0.00    -0.160 N  
HETATM   14  H   UNL     1      -9.247   6.116  72.097  1.00  0.00     0.000 HD 
BRANCH  13  15
HETATM   15  S   UNL     1     -11.209   6.768  71.013  1.00  0.00    -0.309 S  
HETATM   16  O   UNL     1     -11.854   8.050  70.898  1.00  0.00    -0.288 OA 
HETATM   17  C   UNL     1     -12.109   5.854  72.225  1.00  0.00    -0.078 C  
HETATM   18  O   UNL     1     -11.003   5.891  69.888  1.00  0.00    -0.344 OA 
ENDBRANCH  13  15
ENDBRANCH  10  11
ENDBRANCH   9  10
ENDBRANCH   8   9
ENDBRANCH   7   8
ENDBRANCH   6   7
ENDBRANCH   5   6
ENDBRANCH   4   5
BRANCH   4  19
HETATM   19  C   UNL     1      -7.300  10.366  67.294  1.00  0.00    -0.090 A  
HETATM   20  N   UNL     1      -6.680  12.701  66.917  1.00  0.00     0.007 NA 
HETATM   21  N   UNL     1      -8.471  10.773  67.834  1.00  0.00    -0.120 NA 
HETATM   22  C   UNL     1      -7.861  13.091  67.491  1.00  0.00    -0.178 A  
HETATM   23  C   UNL     1      -8.778  12.113  67.928  1.00  0.00    -0.176 A  
HETATM   24  C   UNL     1      -6.446  11.360  66.831  1.00  0.00    -0.138 A  
BRANCH  23  25
HETATM   25  C   UNL     1     -10.096  12.373  68.574  1.00  0.00    -0.190 A  
HETATM   26  C   UNL     1     -10.676  11.418  69.431  1.00  0.00    -0.152 A  
HETATM   27  C   UNL     1     -11.861  13.923  69.268  1.00  0.00    -0.394 A  
HETATM   28  C   UNL     1     -10.796  13.584  68.429  1.00  0.00    -0.286 A  
HETATM   29  C   UNL     1     -12.361  12.988  70.163  1.00  0.00    -0.270 A  
HETATM   30  C   UNL     1     -11.805  11.714  70.203  1.00  0.00    -0.428 A  
ENDBRANCH  23  25
BRANCH  22  31
HETATM   31  C   UNL     1      -8.006  14.578  67.626  1.00  0.00    -0.190 A  
HETATM   32  C   UNL     1      -8.610  16.756  66.652  1.00  0.00    -0.287 A  
HETATM   33  C   UNL     1      -7.919  16.650  68.947  1.00  0.00    -0.236 A  
HETATM   34  C   UNL     1      -7.648  15.283  68.793  1.00  0.00    -0.139 A  
HETATM   35  C   UNL     1      -8.449  15.368  66.541  1.00  0.00    -0.248 A  
HETATM   36  C   UNL     1      -8.406  17.386  67.875  1.00  0.00    -0.230 A  
ENDBRANCH  22  31
ENDBRANCH   4  19
ENDBRANCH   2   4
TORSDOF 12
ENDMDL
MODEL      266
REMARK 921   NORMALIZED FREE ENERGY PREDICTED BY IDOCK:   -3.40 KCAL/MOL
REMARK 922        TOTAL FREE ENERGY PREDICTED BY IDOCK:   -7.11 KCAL/MOL
REMARK 923 INTER-LIGAND FREE ENERGY PREDICTED BY IDOCK:   -5.97 KCAL/MOL
REMARK 924 INTRA-LIGAND FREE ENERGY PREDICTED BY IDOCK:   -1.14 KCAL/MOL
REMARK 927      BINDING AFFINITY PREDICTED BY RF-SCORE:    0.00 PKD
ROOT
HETATM    1  C   UNL     1      -6.836   9.878  70.556  1.00  0.00    -0.122 C  
HETATM    2  C   UNL     1      -6.792  10.550  69.182  1.00  0.00    -0.074 C  
HETATM    3  C   UNL     1      -5.499  10.161  68.461  1.00  0.00    -0.038 C  
ENDROOT
BRANCH   2   4
HETATM    4  N   UNL     1      -7.985  10.288  68.341  1.00  0.00    -0.104 NA 
BRANCH   4   5
HETATM    5  C   UNL     1      -9.050  11.291  68.161  1.00  0.00    -0.166 C  
BRANCH   5   6
HETATM    6  C   UNL     1      -8.744  12.286  67.035  1.00  0.00    -0.199 C  
BRANCH   6   7
HETATM    7  C   UNL     1      -7.559  13.223  67.333  1.00  0.00    -0.137 C  
BRANCH   7   8
HETATM    8  C   UNL     1      -7.916  14.707  67.421  1.00  0.00    -0.201 C  
BRANCH   8   9
HETATM    9  O   UNL     1      -9.305  14.842  67.719  1.00  0.00    -0.191 OA 
BRANCH   9  10
HETATM   10  C   UNL     1      -9.531  15.767  68.782  1.00  0.00    -0.219 C  
BRANCH  10  11
HETATM   11  C   UNL     1      -9.098  17.176  68.396  1.00  0.00    -0.263 C  
HETATM   12  O   UNL     1      -8.208  17.765  68.995  1.00  0.00    -0.184 OA 
HETATM   13  N   UNL     1      -9.751  17.705  67.272  1.00  0.00    -0.277 N  
HETATM   14  H   UNL     1     -10.398  17.113  66.751  1.00  0.00     0.000 HD 
BRANCH  13  15
HETATM   15  S   UNL     1      -9.499  19.268  66.767  1.00  0.00    -0.348 S  
HETATM   16  O   UNL     1      -9.688  20.165  67.876  1.00  0.00    -0.370 OA 
HETATM   17  C   UNL     1     -10.891  19.474  65.703  1.00  0.00    -0.256 C  
HETATM   18  O   UNL     1      -8.323  19.289  65.934  1.00  0.00    -0.443 OA 
ENDBRANCH  13  15
ENDBRANCH  10  11
ENDBRANCH   9  10
ENDBRANCH   8   9
ENDBRANCH   7   8
ENDBRANCH   6   7
ENDBRANCH   5   6
ENDBRANCH   4   5
BRANCH   4  19
HETATM   19  C   UNL     1      -8.080   9.004  67.793  1.00  0.00    -0.109 A  
HETATM   20  N   UNL     1      -7.934   7.479  65.888  1.00  0.00    -0.110 NA 
HETATM   21  N   UNL     1      -8.438   7.967  68.585  1.00  0.00    -0.128 NA 
HETATM   22  C   UNL     1      -8.322   6.448  66.703  1.00  0.00    -0.113 A  
HETATM   23  C   UNL     1      -8.548   6.693  68.073  1.00  0.00    -0.118 A  
HETATM   24  C   UNL     1      -7.819   8.711  66.461  1.00  0.00    -0.099 A  
BRANCH  23  25
HETATM   25  C   UNL     1      -8.978   5.686  69.084  1.00  0.00    -0.120 A  
HETATM   26  C   UNL     1      -8.087   4.690  69.529  1.00  0.00    -0.065 A  
HETATM   27  C   UNL     1     -10.519   4.951  70.841  1.00  0.00    -0.162 A  
HETATM   28  C   UNL     1     -10.245   5.703  69.695  1.00  0.00    -0.321 A  
HETATM   29  C   UNL     1      -9.588   4.035  71.306  1.00  0.00    -0.245 A  
HETATM   30  C   UNL     1      -8.393   3.862  70.615  1.00  0.00    -0.090 A  
ENDBRANCH  23  25
BRANCH  22  31
HETATM   31  C   UNL     1      -8.507   5.145  65.983  1.00  0.00    -0.118 A  
HETATM   32  C   UNL     1      -9.983   3.507  64.890  1.00  0.00    -0.096 A  
HETATM   33  C   UNL     1      -7.619   3.104  64.939  1.00  0.00    -0.077 A  
HETATM   34  C   UNL     1      -7.449   4.248  65.730  1.00  0.00    -0.081 A  
HETATM   35  C   UNL     1      -9.791   4.712  65.581  1.00  0.00    -0.217 A  
HETATM   36  C   UNL     1      -8.889   2.737  64.514  1.00  0.00    -0.111 A  
ENDBRANCH  22  31
ENDBRANCH   4  19
ENDBRANCH   2   4
TORSDOF 12
ENDMDL
MODEL      267
REMARK 921   NORMALIZED FREE ENERGY PREDICTED BY IDOCK:   -3.36 KCAL/MOL
REMARK 922        TOTAL FREE ENERGY PREDICTED BY IDOCK:   -7.03 KCAL/MOL
REMARK 923 INTER-LIGAND FREE ENERGY PREDICTED BY IDOCK:   -6.20 KCAL/MOL
REMARK 924 INTRA-LIGAND FREE ENERGY PREDICTED BY IDOCK:   -0.83 KCAL/MOL
REMARK 927      BINDING AFFINITY PREDICTED BY RF-SCORE:    0.00 PKD
ROOT
HETATM    1  C   UNL     1      -8.252   4.684  73.186  1.00  0.00    -0.100 C  
HETATM    2  C   UNL     1      -7.817   5.421  71.918  1.00  0.00    -0.112 C  
HETATM    3  C   UNL     1      -6.700   4.637  71.225  1.00  0.00    -0.034 C  
ENDROOT
BRANCH   2   4
HETATM    4  N   UNL     1      -8.927   5.730  70.985  1.00  0.00    -0.141 NA 
BRANCH   4   5
HETATM    5  C   UNL     1     -10.321   5.347  71.274  1.00  0.00    -0.228 C  
BRANCH   5   6
HETATM    6  C   UNL     1     -10.997   6.285  72.282  1.00  0.00    -0.297 C  
BRANCH   6   7
HETATM    7  C   UNL     1     -11.421   7.640  71.687  1.00  0.00    -0.295 C  
BRANCH   7   8
HETATM    8  C   UNL     1     -10.578   8.834  72.136  1.00  0.00    -0.316 C  
BRANCH   8   9
HETATM    9  O   UNL     1     -10.220   9.615  70.998  1.00  0.00    -0.288 OA 
BRANCH   9  10
HETATM   10  C   UNL     1     -11.129   9.422  69.915  1.00  0.00    -0.200 C  
BRANCH  10  11
HETATM   11  C   UNL     1     -11.255  10.678  69.062  1.00  0.00    -0.265 C  
HETATM   12  O   UNL     1     -12.339  11.082  68.662  1.00  0.00    -0.539 OA 
HETATM   13  N   UNL     1     -10.048  11.358  68.836  1.00  0.00    -0.332 N  
HETATM   14  H   UNL     1      -9.201  11.030  69.297  1.00  0.00     0.000 HD 
BRANCH  13  15
HETATM   15  S   UNL     1      -9.964  12.682  67.835  1.00  0.00    -0.234 S  
HETATM   16  O   UNL     1      -9.973  13.882  68.629  1.00  0.00    -0.227 OA 
HETATM   17  C   UNL     1     -11.543  12.577  67.055  1.00  0.00    -0.368 C  
HETATM   18  O   UNL     1      -8.973  12.419  66.821  1.00  0.00    -0.207 OA 
ENDBRANCH  13  15
ENDBRANCH  10  11
ENDBRANCH   9  10
ENDBRANCH   8   9
ENDBRANCH   7   8
ENDBRANCH   6   7
ENDBRANCH   5   6
ENDBRANCH   4   5
BRANCH   4  19
HETATM   19  C   UNL     1      -8.564   6.335  69.777  1.00  0.00    -0.137 A  
HETATM   20  N   UNL     1      -7.720   8.254  68.519  1.00  0.00    -0.110 NA 
HETATM   21  N   UNL     1      -8.699   5.648  68.620  1.00  0.00    -0.107 NA 
HETATM   22  C   UNL     1      -7.890   7.549  67.357  1.00  0.00    -0.118 A  
HETATM   23  C   UNL     1      -8.359   6.220  67.414  1.00  0.00    -0.109 A  
HETATM   24  C   UNL     1      -8.053   7.624  69.681  1.00  0.00    -0.126 A  
BRANCH  23  25
HETATM   25  C   UNL     1      -8.601   5.325  66.247  1.00  0.00    -0.116 A  
HETATM   26  C   UNL     1      -7.579   4.486  65.761  1.00  0.00    -0.082 A  
HETATM   27  C   UNL     1     -10.136   4.164  64.732  1.00  0.00    -0.204 A  
HETATM   28  C   UNL     1      -9.851   5.212  65.613  1.00  0.00    -0.057 A  
HETATM   29  C   UNL     1      -9.127   3.301  64.333  1.00  0.00    -0.128 A  
HETATM   30  C   UNL     1      -7.833   3.498  64.803  1.00  0.00    -0.082 A  
ENDBRANCH  23  25
BRANCH  22  31
HETATM   31  C   UNL     1      -7.583   8.338  66.119  1.00  0.00    -0.085 A  
HETATM   32  C   UNL     1      -5.983   9.060  64.395  1.00  0.00    -0.070 A  
HETATM   33  C   UNL     1      -8.264   9.788  64.254  1.00  0.00    -0.160 A  
HETATM   34  C   UNL     1      -8.529   9.168  65.483  1.00  0.00    -0.160 A  
HETATM   35  C   UNL     1      -6.285   8.344  65.562  1.00  0.00    -0.045 A  
HETATM   36  C   UNL     1      -6.989   9.728  63.707  1.00  0.00    -0.119 A  
ENDBRANCH  22  31
ENDBRANCH   4  19
ENDBRANCH   2   4
TORSDOF 12
ENDMDL
MODEL      268
REMARK 921   NORMALIZED FREE ENERGY PREDICTED BY IDOCK:   -3.36 KCAL/MOL
REMARK 922        TOTAL FREE ENERGY PREDICTED BY IDOCK:   -7.03 KCAL/MOL
REMARK 923 INTER-LIGAND FREE ENERGY PREDICTED BY IDOCK:   -6.67 KCAL/MOL
REMARK 924 INTRA-LIGAND FREE ENERGY PREDICTED BY IDOCK:   -0.36 KCAL/MOL
REMARK 927      BINDING AFFINITY PREDICTED BY RF-SCORE:    0.00 PKD
ROOT
HETATM    1  C   UNL     1      -8.791   9.544  70.201  1.00  0.00    -0.266 C  
HETATM    2  C   UNL     1      -7.474  10.281  69.947  1.00  0.00    -0.158 C  
HETATM    3  C   UNL     1      -6.304   9.432  70.448  1.00  0.00    -0.066 C  
ENDROOT
BRANCH   2   4
HETATM    4  N   UNL     1      -7.278  10.705  68.539  1.00  0.00    -0.082 NA 
BRANCH   4   5
HETATM    5  C   UNL     1      -6.498   9.901  67.582  1.00  0.00    -0.064 C  
BRANCH   5   6
HETATM    6  C   UNL     1      -6.860  10.199  66.122  1.00  0.00    -0.108 C  
BRANCH   6   7
HETATM    7  C   UNL     1      -6.638   9.011  65.168  1.00  0.00    -0.072 C  
BRANCH   7   8
HETATM    8  C   UNL     1      -5.547   8.031  65.600  1.00  0.00    -0.036 C  
BRANCH   8   9
HETATM    9  O   UNL     1      -6.041   6.697  65.492  1.00  0.00    -0.035 OA 
BRANCH   9  10
HETATM   10  C   UNL     1      -7.298   6.542  66.148  1.00  0.00    -0.080 C  
BRANCH  10  11
HETATM   11  C   UNL     1      -7.584   5.079  66.466  1.00  0.00    -0.088 C  
HETATM   12  O   UNL     1      -7.935   4.286  65.603  1.00  0.00    -0.093 OA 
HETATM   13  N   UNL     1      -7.350   4.712  67.801  1.00  0.00    -0.072 N  
HETATM   14  H   UNL     1      -6.946   5.397  68.439  1.00  0.00     0.000 HD 
BRANCH  13  15
HETATM   15  S   UNL     1      -7.713   3.193  68.368  1.00  0.00    -0.058 S  
HETATM   16  O   UNL     1      -6.799   2.239  67.799  1.00  0.00    -0.038 OA 
HETATM   17  C   UNL     1      -9.271   2.937  67.580  1.00  0.00    -0.193 C  
HETATM   18  O   UNL     1      -7.966   3.289  69.784  1.00  0.00    -0.049 OA 
ENDBRANCH  13  15
ENDBRANCH  10  11
ENDBRANCH   9  10
ENDBRANCH   8   9
ENDBRANCH   7   8
ENDBRANCH   6   7
ENDBRANCH   5   6
ENDBRANCH   4   5
BRANCH   4  19
HETATM   19  C   UNL     1      -7.812  11.951  68.194  1.00  0.00    -0.134 A  
HETATM   20  N   UNL     1      -7.860  14.386  68.404  1.00  0.00    -0.130 NA 
HETATM   21  N   UNL     1      -8.840  12.015  67.317  1.00  0.00    -0.175 NA 
HETATM   22  C   UNL     1      -8.918  14.426  67.534  1.00  0.00    -0.190 A  
HETATM   23  C   UNL     1      -9.393  13.226  66.964  1.00  0.00    -0.242 A  
HETATM   24  C   UNL     1      -7.342  13.159  68.694  1.00  0.00    -0.102 A  
BRANCH  23  25
HETATM   25  C   UNL     1     -10.531  13.100  66.011  1.00  0.00    -0.291 A  
HETATM   26  C   UNL     1     -11.829  13.499  66.385  1.00  0.00    -0.435 A  
HETATM   27  C   UNL     1     -11.383  12.825  63.730  1.00  0.00    -0.520 A  
HETATM   28  C   UNL     1     -10.378  12.652  64.686  1.00  0.00    -0.354 A  
HETATM   29  C   UNL     1     -12.628  13.298  64.113  1.00  0.00    -0.231 A  
HETATM   30  C   UNL     1     -12.870  13.581  65.453  1.00  0.00    -0.420 A  
ENDBRANCH  23  25
BRANCH  22  31
HETATM   31  C   UNL     1      -9.484  15.800  67.332  1.00  0.00    -0.213 A  
HETATM   32  C   UNL     1     -10.137  17.990  68.245  1.00  0.00    -0.390 A  
HETATM   33  C   UNL     1     -10.369  17.585  65.892  1.00  0.00    -0.265 A  
HETATM   34  C   UNL     1      -9.972  16.256  66.090  1.00  0.00    -0.355 A  
HETATM   35  C   UNL     1      -9.627  16.695  68.416  1.00  0.00    -0.233 A  
HETATM   36  C   UNL     1     -10.446  18.455  66.972  1.00  0.00    -0.429 A  
ENDBRANCH  22  31
ENDBRANCH   4  19
ENDBRANCH   2   4
TORSDOF 12
ENDMDL
MODEL      269
REMARK 921   NORMALIZED FREE ENERGY PREDICTED BY IDOCK:   -3.35 KCAL/MOL
REMARK 922        TOTAL FREE ENERGY PREDICTED BY IDOCK:   -7.01 KCAL/MOL
REMARK 923 INTER-LIGAND FREE ENERGY PREDICTED BY IDOCK:   -5.88 KCAL/MOL
REMARK 924 INTRA-LIGAND FREE ENERGY PREDICTED BY IDOCK:   -1.13 KCAL/MOL
REMARK 927      BINDING AFFINITY PREDICTED BY RF-SCORE:    0.00 PKD
ROOT
HETATM    1  C   UNL     1      -5.968  14.240  68.895  1.00  0.00    -0.086 C  
HETATM    2  C   UNL     1      -5.276  13.053  69.568  1.00  0.00    -0.077 C  
HETATM    3  C   UNL     1      -5.132  13.324  71.067  1.00  0.00    -0.142 C  
ENDROOT
BRANCH   2   4
HETATM    4  N   UNL     1      -5.927  11.746  69.310  1.00  0.00    -0.069 NA 
BRANCH   4   5
HETATM    5  C   UNL     1      -5.407  10.488  69.874  1.00  0.00    -0.040 C  
BRANCH   5   6
HETATM    6  C   UNL     1      -5.401   9.339  68.857  1.00  0.00    -0.037 C  
BRANCH   6   7
HETATM    7  C   UNL     1      -5.971   8.017  69.405  1.00  0.00    -0.033 C  
BRANCH   7   8
HETATM    8  C   UNL     1      -5.235   7.451  70.619  1.00  0.00    -0.023 C  
BRANCH   8   9
HETATM    9  O   UNL     1      -6.176   7.173  71.654  1.00  0.00    -0.037 OA 
BRANCH   9  10
HETATM   10  C   UNL     1      -7.187   6.265  71.222  1.00  0.00    -0.079 C  
BRANCH  10  11
HETATM   11  C   UNL     1      -8.522   6.554  71.898  1.00  0.00    -0.119 C  
HETATM   12  O   UNL     1      -8.858   7.689  72.207  1.00  0.00    -0.121 OA 
HETATM   13  N   UNL     1      -9.347   5.432  72.071  1.00  0.00    -0.144 N  
HETATM   14  H   UNL     1      -9.053   4.536  71.683  1.00  0.00     0.000 HD 
BRANCH  13  15
HETATM   15  S   UNL     1     -10.790   5.524  72.890  1.00  0.00    -0.290 S  
HETATM   16  O   UNL     1     -10.553   6.012  74.223  1.00  0.00    -0.241 OA 
HETATM   17  C   UNL     1     -11.168   3.806  73.039  1.00  0.00     0.032 C  
HETATM   18  O   UNL     1     -11.775   6.098  72.008  1.00  0.00    -0.312 OA 
ENDBRANCH  13  15
ENDBRANCH  10  11
ENDBRANCH   9  10
ENDBRANCH   8   9
ENDBRANCH   7   8
ENDBRANCH   6   7
ENDBRANCH   5   6
ENDBRANCH   4   5
BRANCH   4  19
HETATM   19  C   UNL     1      -7.018  11.767  68.434  1.00  0.00    -0.080 A  
HETATM   20  N   UNL     1      -7.947  11.997  66.184  1.00  0.00     0.321 NA 
HETATM   21  N   UNL     1      -8.269  11.605  68.924  1.00  0.00    -0.046 NA 
HETATM   22  C   UNL     1      -9.206  11.856  66.705  1.00  0.00    -0.194 A  
HETATM   23  C   UNL     1      -9.363  11.629  68.088  1.00  0.00    -0.188 A  
HETATM   24  C   UNL     1      -6.903  11.939  67.060  1.00  0.00    -0.122 A  
BRANCH  23  25
HETATM   25  C   UNL     1     -10.658  11.462  68.806  1.00  0.00    -0.235 A  
HETATM   26  C   UNL     1     -11.166  10.177  69.082  1.00  0.00    -0.234 A  
HETATM   27  C   UNL     1     -12.442  12.361  70.223  1.00  0.00    -0.152 A  
HETATM   28  C   UNL     1     -11.406  12.544  69.304  1.00  0.00    -0.307 A  
HETATM   29  C   UNL     1     -12.868  11.080  70.540  1.00  0.00    -0.255 A  
HETATM   30  C   UNL     1     -12.268   9.988  69.924  1.00  0.00     0.040 A  
ENDBRANCH  23  25
BRANCH  22  31
HETATM   31  C   UNL     1     -10.301  12.017  65.693  1.00  0.00    -0.288 A  
HETATM   32  C   UNL     1     -11.186  11.621  63.431  1.00  0.00    -0.401 A  
HETATM   33  C   UNL     1     -12.549  12.765  65.038  1.00  0.00    -0.538 A  
HETATM   34  C   UNL     1     -11.483  12.743  65.947  1.00  0.00    -0.399 A  
HETATM   35  C   UNL     1     -10.166  11.498  64.386  1.00  0.00    -0.350 A  
HETATM   36  C   UNL     1     -12.402  12.197  63.780  1.00  0.00    -0.635 A  
ENDBRANCH  22  31
ENDBRANCH   4  19
ENDBRANCH   2   4
TORSDOF 12
ENDMDL
MODEL      270
REMARK 921   NORMALIZED FREE ENERGY PREDICTED BY IDOCK:   -3.31 KCAL/MOL
REMARK 922        TOTAL FREE ENERGY PREDICTED BY IDOCK:   -6.95 KCAL/MOL
REMARK 923 INTER-LIGAND FREE ENERGY PREDICTED BY IDOCK:   -7.63 KCAL/MOL
REMARK 924 INTRA-LIGAND FREE ENERGY PREDICTED BY IDOCK:    0.69 KCAL/MOL
REMARK 927      BINDING AFFINITY PREDICTED BY RF-SCORE:    0.00 PKD
ROOT
HETATM    1  C   UNL     1     -11.859  12.160  67.687  1.00  0.00    -0.316 C  
HETATM    2  C   UNL     1     -11.760  12.450  66.188  1.00  0.00    -0.400 C  
HETATM    3  C   UNL     1     -12.594  13.686  65.846  1.00  0.00    -0.478 C  
ENDROOT
BRANCH   2   4
HETATM    4  N   UNL     1     -10.370  12.573  65.686  1.00  0.00    -0.266 NA 
BRANCH   4   5
HETATM    5  C   UNL     1      -9.886  11.803  64.527  1.00  0.00    -0.202 C  
BRANCH   5   6
HETATM    6  C   UNL     1      -9.138  10.526  64.932  1.00  0.00    -0.235 C  
BRANCH   6   7
HETATM    7  C   UNL     1      -9.971   9.563  65.799  1.00  0.00    -0.316 C  
BRANCH   7   8
HETATM    8  C   UNL     1      -9.299   8.224  66.103  1.00  0.00    -0.188 C  
BRANCH   8   9
HETATM    9  O   UNL     1      -8.342   8.401  67.145  1.00  0.00    -0.120 OA 
BRANCH   9  10
HETATM   10  C   UNL     1      -7.453   7.289  67.244  1.00  0.00    -0.099 C  
BRANCH  10  11
HETATM   11  C   UNL     1      -8.198   5.966  67.112  1.00  0.00    -0.105 C  
HETATM   12  O   UNL     1      -8.403   5.241  68.076  1.00  0.00    -0.099 OA 
HETATM   13  N   UNL     1      -8.679   5.689  65.823  1.00  0.00    -0.147 N  
HETATM   14  H   UNL     1      -8.574   6.393  65.093  1.00  0.00     0.000 HD 
BRANCH  13  15
HETATM   15  S   UNL     1      -9.414   4.245  65.455  1.00  0.00    -0.189 S  
HETATM   16  O   UNL     1      -8.810   3.190  66.225  1.00  0.00    -0.128 OA 
HETATM   17  C   UNL     1      -8.864   4.037  63.791  1.00  0.00    -0.118 C  
HETATM   18  O   UNL     1     -10.838   4.463  65.405  1.00  0.00    -0.252 OA 
ENDBRANCH  13  15
ENDBRANCH  10  11
ENDBRANCH   9  10
ENDBRANCH   8   9
ENDBRANCH   7   8
ENDBRANCH   6   7
ENDBRANCH   5   6
ENDBRANCH   4   5
BRANCH   4  19
HETATM   19  C   UNL     1      -9.522  13.404  66.426  1.00  0.00    -0.219 A  
HETATM   20  N   UNL     1      -7.469  13.769  67.703  1.00  0.00    -0.165 NA 
HETATM   21  N   UNL     1      -9.880  14.689  66.653  1.00  0.00    -0.259 NA 
HETATM   22  C   UNL     1      -7.865  15.058  67.942  1.00  0.00    -0.138 A  
HETATM   23  C   UNL     1      -9.072  15.529  67.385  1.00  0.00    -0.199 A  
HETATM   24  C   UNL     1      -8.303  12.995  66.951  1.00  0.00    -0.022 A  
BRANCH  23  25
HETATM   25  C   UNL     1      -9.640  16.896  67.555  1.00  0.00    -0.245 A  
HETATM   26  C   UNL     1      -9.606  17.538  68.809  1.00  0.00    -0.277 A  
HETATM   27  C   UNL     1     -10.418  19.016  66.604  1.00  0.00    -0.517 A  
HETATM   28  C   UNL     1     -10.172  17.645  66.490  1.00  0.00    -0.355 A  
HETATM   29  C   UNL     1     -10.297  19.640  67.837  1.00  0.00    -0.583 A  
HETATM   30  C   UNL     1      -9.947  18.888  68.953  1.00  0.00    -0.437 A  
ENDBRANCH  23  25
BRANCH  22  31
HETATM   31  C   UNL     1      -6.939  15.818  68.846  1.00  0.00    -0.135 A  
HETATM   32  C   UNL     1      -5.521  17.782  69.278  1.00  0.00    -0.195 A  
HETATM   33  C   UNL     1      -5.766  16.116  70.986  1.00  0.00     0.270 A  
HETATM   34  C   UNL     1      -6.520  15.332  70.102  1.00  0.00    -0.089 A  
HETATM   35  C   UNL     1      -6.373  17.048  68.441  1.00  0.00    -0.150 A  
HETATM   36  C   UNL     1      -5.271  17.346  70.574  1.00  0.00    -0.263 A  
ENDBRANCH  22  31
ENDBRANCH   4  19
ENDBRANCH   2   4
TORSDOF 12
ENDMDL
MODEL      271
REMARK 921   NORMALIZED FREE ENERGY PREDICTED BY IDOCK:   -3.26 KCAL/MOL
REMARK 922        TOTAL FREE ENERGY PREDICTED BY IDOCK:   -6.87 KCAL/MOL
REMARK 923 INTER-LIGAND FREE ENERGY PREDICTED BY IDOCK:   -6.58 KCAL/MOL
REMARK 924 INTRA-LIGAND FREE ENERGY PREDICTED BY IDOCK:   -0.29 KCAL/MOL
REMARK 927      BINDING AFFINITY PREDICTED BY RF-SCORE:    0.00 PKD
ROOT
HETATM    1  C   UNL     1      -6.933  10.001  70.658  1.00  0.00    -0.031 C  
HETATM    2  C   UNL     1      -7.598  10.559  69.398  1.00  0.00    -0.145 C  
HETATM    3  C   UNL     1      -6.631  10.456  68.217  1.00  0.00    -0.060 C  
ENDROOT
BRANCH   2   4
HETATM    4  N   UNL     1      -8.911   9.944  69.085  1.00  0.00    -0.157 NA 
BRANCH   4   5
HETATM    5  C   UNL     1     -10.150  10.739  69.017  1.00  0.00    -0.211 C  
BRANCH   5   6
HETATM    6  C   UNL     1     -10.459  11.239  67.600  1.00  0.00    -0.225 C  
BRANCH   6   7
HETATM    7  C   UNL     1      -9.308  12.031  66.953  1.00  0.00    -0.200 C  
BRANCH   7   8
HETATM    8  C   UNL     1      -9.570  13.528  66.783  1.00  0.00    -0.267 C  
BRANCH   8   9
HETATM    9  O   UNL     1     -10.660  13.914  67.618  1.00  0.00    -0.243 OA 
BRANCH   9  10
HETATM   10  C   UNL     1     -10.225  14.696  68.730  1.00  0.00    -0.242 C  
BRANCH  10  11
HETATM   11  C   UNL     1      -9.298  15.823  68.290  1.00  0.00    -0.193 C  
HETATM   12  O   UNL     1      -8.111  15.837  68.588  1.00  0.00    -0.143 OA 
HETATM   13  N   UNL     1      -9.899  16.792  67.473  1.00  0.00    -0.250 N  
HETATM   14  H   UNL     1     -10.862  16.656  67.168  1.00  0.00     0.000 HD 
BRANCH  13  15
HETATM   15  S   UNL     1      -9.084  18.157  66.988  1.00  0.00    -0.269 S  
HETATM   16  O   UNL     1      -8.841  18.999  68.129  1.00  0.00    -0.295 OA 
HETATM   17  C   UNL     1     -10.343  18.944  66.035  1.00  0.00    -0.429 C  
HETATM   18  O   UNL     1      -8.045  17.760  66.071  1.00  0.00    -0.484 OA 
ENDBRANCH  13  15
ENDBRANCH  10  11
ENDBRANCH   9  10
ENDBRANCH   8   9
ENDBRANCH   7   8
ENDBRANCH   6   7
ENDBRANCH   5   6
ENDBRANCH   4   5
BRANCH   4  19
HETATM   19  C   UNL     1      -8.917   8.553  68.935  1.00  0.00    -0.146 A  
HETATM   20  N   UNL     1      -8.869   6.557  67.525  1.00  0.00    -0.113 NA 
HETATM   21  N   UNL     1      -9.002   7.766  70.032  1.00  0.00    -0.142 NA 
HETATM   22  C   UNL     1      -8.981   5.779  68.647  1.00  0.00    -0.112 A  
HETATM   23  C   UNL     1      -9.019   6.393  69.916  1.00  0.00    -0.142 A  
HETATM   24  C   UNL     1      -8.832   7.907  67.708  1.00  0.00    -0.122 A  
BRANCH  23  25
HETATM   25  C   UNL     1      -9.144   5.692  71.225  1.00  0.00    -0.156 A  
HETATM   26  C   UNL     1      -7.998   5.365  71.977  1.00  0.00    -0.113 A  
HETATM   27  C   UNL     1     -10.484   5.005  73.157  1.00  0.00    -0.255 A  
HETATM   28  C   UNL     1     -10.382   5.381  71.815  1.00  0.00    -0.271 A  
HETATM   29  C   UNL     1      -9.336   4.768  73.898  1.00  0.00    -0.118 A  
HETATM   30  C   UNL     1      -8.092   4.892  73.291  1.00  0.00    -0.101 A  
ENDBRANCH  23  25
BRANCH  22  31
HETATM   31  C   UNL     1      -9.100   4.312  68.358  1.00  0.00    -0.172 A  
HETATM   32  C   UNL     1      -9.372   2.475  66.744  1.00  0.00    -0.016 A  
HETATM   33  C   UNL     1      -9.092   1.959  69.069  1.00  0.00    -0.179 A  
HETATM   34  C   UNL     1      -9.117   3.328  69.368  1.00  0.00    -0.201 A  
HETATM   35  C   UNL     1      -9.277   3.843  67.037  1.00  0.00    -0.194 A  
HETATM   36  C   UNL     1      -9.214   1.533  67.753  1.00  0.00    -0.183 A  
ENDBRANCH  22  31
ENDBRANCH   4  19
ENDBRANCH   2   4
TORSDOF 12
ENDMDL
MODEL      272
REMARK 921   NORMALIZED FREE ENERGY PREDICTED BY IDOCK:   -3.24 KCAL/MOL
REMARK 922        TOTAL FREE ENERGY PREDICTED BY IDOCK:   -6.84 KCAL/MOL
REMARK 923 INTER-LIGAND FREE ENERGY PREDICTED BY IDOCK:   -6.76 KCAL/MOL
REMARK 924 INTRA-LIGAND FREE ENERGY PREDICTED BY IDOCK:   -0.07 KCAL/MOL
REMARK 927      BINDING AFFINITY PREDICTED BY RF-SCORE:    0.00 PKD
ROOT
HETATM    1  C   UNL     1      -9.458   9.638  66.665  1.00  0.00    -0.221 C  
HETATM    2  C   UNL     1     -10.638   9.394  67.608  1.00  0.00    -0.271 C  
HETATM    3  C   UNL     1     -10.718   7.907  67.959  1.00  0.00    -0.119 C  
ENDROOT
BRANCH   2   4
HETATM    4  N   UNL     1     -10.628  10.243  68.824  1.00  0.00    -0.197 NA 
BRANCH   4   5
HETATM    5  C   UNL     1     -10.701   9.669  70.179  1.00  0.00    -0.275 C  
BRANCH   5   6
HETATM    6  C   UNL     1      -9.322   9.495  70.826  1.00  0.00    -0.218 C  
BRANCH   6   7
HETATM    7  C   UNL     1      -8.156   9.490  69.820  1.00  0.00    -0.143 C  
BRANCH   7   8
HETATM    8  C   UNL     1      -6.928  10.292  70.251  1.00  0.00    -0.129 C  
BRANCH   8   9
HETATM    9  O   UNL     1      -5.909   9.397  70.693  1.00  0.00    -0.045 OA 
BRANCH   9  10
HETATM   10  C   UNL     1      -5.946   9.208  72.106  1.00  0.00    -0.021 C  
BRANCH  10  11
HETATM   11  C   UNL     1      -6.499   7.835  72.471  1.00  0.00    -0.063 C  
HETATM   12  O   UNL     1      -7.072   7.630  73.532  1.00  0.00    -0.080 OA 
HETATM   13  N   UNL     1      -6.355   6.860  71.472  1.00  0.00    -0.041 N  
HETATM   14  H   UNL     1      -5.972   7.131  70.567  1.00  0.00     0.000 HD 
BRANCH  13  15
HETATM   15  S   UNL     1      -6.790   5.276  71.725  1.00  0.00    -0.067 S  
HETATM   16  O   UNL     1      -5.955   4.709  72.751  1.00  0.00    -0.015 OA 
HETATM   17  C   UNL     1      -6.267   4.567  70.196  1.00  0.00    -0.022 C  
HETATM   18  O   UNL     1      -8.229   5.203  71.755  1.00  0.00    -0.113 OA 
ENDBRANCH  13  15
ENDBRANCH  10  11
ENDBRANCH   9  10
ENDBRANCH   8   9
ENDBRANCH   7   8
ENDBRANCH   6   7
ENDBRANCH   5   6
ENDBRANCH   4   5
BRANCH   4  19
HETATM   19  C   UNL     1     -10.623  11.625  68.607  1.00  0.00    -0.209 A  
HETATM   20  N   UNL     1     -10.038  13.572  67.249  1.00  0.00    -0.233 NA 
HETATM   21  N   UNL     1     -11.173  12.446  69.531  1.00  0.00    -0.158 NA 
HETATM   22  C   UNL     1     -10.577  14.386  68.210  1.00  0.00    -0.243 A  
HETATM   23  C   UNL     1     -11.176  13.812  69.351  1.00  0.00    -0.207 A  
HETATM   24  C   UNL     1     -10.088  12.229  67.476  1.00  0.00    -0.201 A  
BRANCH  23  25
HETATM   25  C   UNL     1     -11.798  14.555  70.482  1.00  0.00    -0.372 A  
HETATM   26  C   UNL     1     -13.198  14.588  70.637  1.00  0.00    -0.228 A  
HETATM   27  C   UNL     1     -11.630  15.625  72.680  1.00  0.00    -0.484 A  
HETATM   28  C   UNL     1     -11.048  15.199  71.482  1.00  0.00    -0.218 A  
HETATM   29  C   UNL     1     -13.007  15.569  72.838  1.00  0.00    -0.583 A  
HETATM   30  C   UNL     1     -13.797  15.104  71.792  1.00  0.00    -0.605 A  
ENDBRANCH  23  25
BRANCH  22  31
HETATM   31  C   UNL     1     -10.408  15.850  67.929  1.00  0.00    -0.269 A  
HETATM   32  C   UNL     1     -11.074  18.186  68.324  1.00  0.00     0.361 A  
HETATM   33  C   UNL     1      -9.252  17.723  66.834  1.00  0.00    -0.263 A  
HETATM   34  C   UNL     1      -9.490  16.350  66.983  1.00  0.00    -0.240 A  
HETATM   35  C   UNL     1     -11.228  16.812  68.559  1.00  0.00    -0.176 A  
HETATM   36  C   UNL     1     -10.042  18.642  67.512  1.00  0.00    -0.397 A  
ENDBRANCH  22  31
ENDBRANCH   4  19
ENDBRANCH   2   4
TORSDOF 12
ENDMDL
MODEL      273
REMARK 921   NORMALIZED FREE ENERGY PREDICTED BY IDOCK:   -3.23 KCAL/MOL
REMARK 922        TOTAL FREE ENERGY PREDICTED BY IDOCK:   -6.82 KCAL/MOL
REMARK 923 INTER-LIGAND FREE ENERGY PREDICTED BY IDOCK:   -6.01 KCAL/MOL
REMARK 924 INTRA-LIGAND FREE ENERGY PREDICTED BY IDOCK:   -0.81 KCAL/MOL
REMARK 927      BINDING AFFINITY PREDICTED BY RF-SCORE:    0.00 PKD
ROOT
HETATM    1  C   UNL     1      -7.531   3.647  69.362  1.00  0.00    -0.052 C  
HETATM    2  C   UNL     1      -6.278   4.443  69.735  1.00  0.00    -0.027 C  
HETATM    3  C   UNL     1      -5.138   4.084  68.779  1.00  0.00    -0.007 C  
ENDROOT
BRANCH   2   4
HETATM    4  N   UNL     1      -6.491   5.909  69.805  1.00  0.00    -0.040 NA 
BRANCH   4   5
HETATM    5  C   UNL     1      -6.326   6.664  71.060  1.00  0.00    -0.041 C  
BRANCH   5   6
HETATM    6  C   UNL     1      -7.270   6.185  72.170  1.00  0.00    -0.092 C  
BRANCH   6   7
HETATM    7  C   UNL     1      -8.761   6.425  71.869  1.00  0.00    -0.134 C  
BRANCH   7   8
HETATM    8  C   UNL     1      -9.674   6.434  73.095  1.00  0.00    -0.160 C  
BRANCH   8   9
HETATM    9  O   UNL     1     -10.543   7.563  73.028  1.00  0.00    -0.298 OA 
BRANCH   9  10
HETATM   10  C   UNL     1     -10.006   8.598  72.206  1.00  0.00    -0.291 C  
BRANCH  10  11
HETATM   11  C   UNL     1     -11.050   9.137  71.235  1.00  0.00    -0.335 C  
HETATM   12  O   UNL     1     -12.194   8.702  71.208  1.00  0.00    -0.294 OA 
HETATM   13  N   UNL     1     -10.612  10.202  70.434  1.00  0.00    -0.395 N  
HETATM   14  H   UNL     1      -9.683  10.591  70.592  1.00  0.00     0.000 HD 
BRANCH  13  15
HETATM   15  S   UNL     1     -11.566  10.847  69.235  1.00  0.00    -0.335 S  
HETATM   16  O   UNL     1     -11.242  10.223  67.980  1.00  0.00    -0.293 OA 
HETATM   17  C   UNL     1     -10.912  12.485  69.172  1.00  0.00    -0.144 C  
HETATM   18  O   UNL     1     -12.913  10.949  69.737  1.00  0.00    -0.121 OA 
ENDBRANCH  13  15
ENDBRANCH  10  11
ENDBRANCH   9  10
ENDBRANCH   8   9
ENDBRANCH   7   8
ENDBRANCH   6   7
ENDBRANCH   5   6
ENDBRANCH   4   5
BRANCH   4  19
HETATM   19  C   UNL     1      -6.935   6.522  68.628  1.00  0.00    -0.080 A  
HETATM   20  N   UNL     1      -7.256   8.513  67.247  1.00  0.00    -0.083 NA 
HETATM   21  N   UNL     1      -7.521   5.771  67.667  1.00  0.00    -0.077 NA 
HETATM   22  C   UNL     1      -7.869   7.738  66.298  1.00  0.00    -0.091 A  
HETATM   23  C   UNL     1      -7.976   6.346  66.501  1.00  0.00    -0.109 A  
HETATM   24  C   UNL     1      -6.806   7.880  68.368  1.00  0.00    -0.071 A  
BRANCH  23  25
HETATM   25  C   UNL     1      -8.616   5.372  65.573  1.00  0.00    -0.148 A  
HETATM   26  C   UNL     1      -9.948   4.960  65.770  1.00  0.00    -0.191 A  
HETATM   27  C   UNL     1      -8.678   4.202  63.422  1.00  0.00    -0.112 A  
HETATM   28  C   UNL     1      -7.972   4.865  64.429  1.00  0.00    -0.104 A  
HETATM   29  C   UNL     1     -10.014   3.881  63.609  1.00  0.00    -0.175 A  
HETATM   30  C   UNL     1     -10.635   4.209  64.809  1.00  0.00    -0.177 A  
ENDBRANCH  23  25
BRANCH  22  31
HETATM   31  C   UNL     1      -8.412   8.518  65.138  1.00  0.00    -0.193 A  
HETATM   32  C   UNL     1      -9.846  10.317  64.265  1.00  0.00    -0.357 A  
HETATM   33  C   UNL     1      -8.504   9.044  62.738  1.00  0.00    -0.206 A  
HETATM   34  C   UNL     1      -8.096   8.221  63.796  1.00  0.00    -0.126 A  
HETATM   35  C   UNL     1      -9.342   9.564  65.334  1.00  0.00    -0.324 A  
HETATM   36  C   UNL     1      -9.377  10.098  62.975  1.00  0.00    -0.330 A  
ENDBRANCH  22  31
ENDBRANCH   4  19
ENDBRANCH   2   4
TORSDOF 12
ENDMDL
MODEL      274
REMARK 921   NORMALIZED FREE ENERGY PREDICTED BY IDOCK:   -3.22 KCAL/MOL
REMARK 922        TOTAL FREE ENERGY PREDICTED BY IDOCK:   -6.79 KCAL/MOL
REMARK 923 INTER-LIGAND FREE ENERGY PREDICTED BY IDOCK:   -7.19 KCAL/MOL
REMARK 924 INTRA-LIGAND FREE ENERGY PREDICTED BY IDOCK:    0.40 KCAL/MOL
REMARK 927      BINDING AFFINITY PREDICTED BY RF-SCORE:    0.00 PKD
ROOT
HETATM    1  C   UNL     1     -10.969  15.012  70.314  1.00  0.00    -0.238 C  
HETATM    2  C   UNL     1     -10.885  14.587  68.847  1.00  0.00    -0.253 C  
HETATM    3  C   UNL     1      -9.473  14.847  68.316  1.00  0.00    -0.210 C  
ENDROOT
BRANCH   2   4
HETATM    4  N   UNL     1     -11.315  13.190  68.595  1.00  0.00    -0.269 NA 
BRANCH   4   5
HETATM    5  C   UNL     1     -12.385  12.548  69.378  1.00  0.00     0.096 C  
BRANCH   5   6
HETATM    6  C   UNL     1     -12.332  12.912  70.868  1.00  0.00    -0.365 C  
BRANCH   6   7
HETATM    7  C   UNL     1     -12.933  11.840  71.795  1.00  0.00    -0.466 C  
BRANCH   7   8
HETATM    8  C   UNL     1     -12.939  10.422  71.224  1.00  0.00    -0.419 C  
BRANCH   8   9
HETATM    9  O   UNL     1     -11.965   9.634  71.905  1.00  0.00    -0.370 OA 
BRANCH   9  10
HETATM   10  C   UNL     1     -11.631   8.456  71.174  1.00  0.00    -0.279 C  
BRANCH  10  11
HETATM   11  C   UNL     1     -10.940   7.426  72.061  1.00  0.00    -0.236 C  
HETATM   12  O   UNL     1     -10.580   7.692  73.200  1.00  0.00    -0.343 OA 
HETATM   13  N   UNL     1     -10.816   6.150  71.491  1.00  0.00    -0.251 N  
HETATM   14  H   UNL     1     -11.243   5.969  70.584  1.00  0.00     0.000 HD 
BRANCH  13  15
HETATM   15  S   UNL     1      -9.990   4.927  72.255  1.00  0.00    -0.185 S  
HETATM   16  O   UNL     1     -10.566   4.700  73.554  1.00  0.00    -0.189 OA 
HETATM   17  C   UNL     1      -8.438   5.724  72.520  1.00  0.00    -0.117 C  
HETATM   18  O   UNL     1      -9.765   3.870  71.301  1.00  0.00    -0.163 OA 
ENDBRANCH  13  15
ENDBRANCH  10  11
ENDBRANCH   9  10
ENDBRANCH   8   9
ENDBRANCH   7   8
ENDBRANCH   6   7
ENDBRANCH   5   6
ENDBRANCH   4   5
BRANCH   4  19
HETATM   19  C   UNL     1     -10.590  12.491  67.624  1.00  0.00    -0.217 A  
HETATM   20  N   UNL     1      -9.718  12.281  65.350  1.00  0.00    -0.188 NA 
HETATM   21  N   UNL     1     -10.035  11.298  67.938  1.00  0.00    -0.172 NA 
HETATM   22  C   UNL     1      -9.185  11.063  65.683  1.00  0.00    -0.210 A  
HETATM   23  C   UNL     1      -9.323  10.581  67.001  1.00  0.00    -0.155 A  
HETATM   24  C   UNL     1     -10.389  12.951  66.329  1.00  0.00    -0.268 A  
BRANCH  23  25
HETATM   25  C   UNL     1      -8.810   9.281  67.517  1.00  0.00    -0.123 A  
HETATM   26  C   UNL     1      -9.420   8.068  67.143  1.00  0.00    -0.207 A  
HETATM   27  C   UNL     1      -7.034   7.952  68.557  1.00  0.00    -0.071 A  
HETATM   28  C   UNL     1      -7.670   9.176  68.335  1.00  0.00    -0.094 A  
HETATM   29  C   UNL     1      -7.617   6.777  68.104  1.00  0.00    -0.107 A  
HETATM   30  C   UNL     1      -8.842   6.830  67.447  1.00  0.00    -0.117 A  
ENDBRANCH  23  25
BRANCH  22  31
HETATM   31  C   UNL     1      -8.537  10.351  64.532  1.00  0.00    -0.187 A  
HETATM   32  C   UNL     1      -6.509   9.538  63.401  1.00  0.00    -0.102 A  
HETATM   33  C   UNL     1      -8.655   9.064  62.441  1.00  0.00    -0.220 A  
HETATM   34  C   UNL     1      -9.263   9.843  63.435  1.00  0.00    -0.278 A  
HETATM   35  C   UNL     1      -7.133  10.216  64.457  1.00  0.00    -0.119 A  
HETATM   36  C   UNL     1      -7.275   8.907  62.428  1.00  0.00    -0.099 A  
ENDBRANCH  22  31
ENDBRANCH   4  19
ENDBRANCH   2   4
TORSDOF 12
ENDMDL
MODEL      275
REMARK 921   NORMALIZED FREE ENERGY PREDICTED BY IDOCK:   -3.22 KCAL/MOL
REMARK 922        TOTAL FREE ENERGY PREDICTED BY IDOCK:   -6.79 KCAL/MOL
REMARK 923 INTER-LIGAND FREE ENERGY PREDICTED BY IDOCK:   -5.96 KCAL/MOL
REMARK 924 INTRA-LIGAND FREE ENERGY PREDICTED BY IDOCK:   -0.83 KCAL/MOL
REMARK 927      BINDING AFFINITY PREDICTED BY RF-SCORE:    0.00 PKD
ROOT
HETATM    1  C   UNL     1      -5.909  11.070  66.124  1.00  0.00    -0.142 C  
HETATM    2  C   UNL     1      -6.598   9.704  66.135  1.00  0.00    -0.078 C  
HETATM    3  C   UNL     1      -6.351   9.014  67.478  1.00  0.00    -0.063 C  
ENDROOT
BRANCH   2   4
HETATM    4  N   UNL     1      -8.043   9.752  65.803  1.00  0.00    -0.116 NA 
BRANCH   4   5
HETATM    5  C   UNL     1      -8.617   8.968  64.695  1.00  0.00    -0.165 C  
BRANCH   5   6
HETATM    6  C   UNL     1      -7.588   8.053  64.019  1.00  0.00    -0.124 C  
BRANCH   6   7
HETATM    7  C   UNL     1      -7.338   6.732  64.769  1.00  0.00    -0.088 C  
BRANCH   7   8
HETATM    8  C   UNL     1      -8.248   5.574  64.359  1.00  0.00    -0.127 C  
BRANCH   8   9
HETATM    9  O   UNL     1      -9.440   5.611  65.141  1.00  0.00     0.136 OA 
BRANCH   9  10
HETATM   10  C   UNL     1      -9.156   5.631  66.539  1.00  0.00    -0.138 C  
BRANCH  10  11
HETATM   11  C   UNL     1      -8.621   4.287  67.019  1.00  0.00    -0.104 C  
HETATM   12  O   UNL     1      -9.202   3.236  66.779  1.00  0.00    -0.160 OA 
HETATM   13  N   UNL     1      -7.390   4.351  67.690  1.00  0.00    -0.068 N  
HETATM   14  H   UNL     1      -6.906   5.246  67.752  1.00  0.00     0.000 HD 
BRANCH  13  15
HETATM   15  S   UNL     1      -6.703   3.009  68.389  1.00  0.00    -0.041 S  
HETATM   16  O   UNL     1      -7.549   2.537  69.453  1.00  0.00    -0.044 OA 
HETATM   17  C   UNL     1      -5.293   3.749  69.150  1.00  0.00    -0.012 C  
HETATM   18  O   UNL     1      -6.214   2.153  67.337  1.00  0.00    -0.023 OA 
ENDBRANCH  13  15
ENDBRANCH  10  11
ENDBRANCH   9  10
ENDBRANCH   8   9
ENDBRANCH   7   8
ENDBRANCH   6   7
ENDBRANCH   5   6
ENDBRANCH   4   5
BRANCH   4  19
HETATM   19  C   UNL     1      -8.815  10.646  66.552  1.00  0.00    -0.151 A  
HETATM   20  N   UNL     1      -9.897  11.300  68.645  1.00  0.00    -0.203 NA 
HETATM   21  N   UNL     1      -9.300  11.764  65.963  1.00  0.00    -0.229 NA 
HETATM   22  C   UNL     1     -10.398  12.412  68.021  1.00  0.00    -0.216 A  
HETATM   23  C   UNL     1     -10.071  12.658  66.672  1.00  0.00    -0.241 A  
HETATM   24  C   UNL     1      -9.121  10.466  67.895  1.00  0.00    -0.132 A  
BRANCH  23  25
HETATM   25  C   UNL     1     -10.537  13.813  65.854  1.00  0.00    -0.289 A  
HETATM   26  C   UNL     1     -11.773  13.763  65.180  1.00  0.00    -0.354 A  
HETATM   27  C   UNL     1     -10.415  16.183  65.245  1.00  0.00    -0.356 A  
HETATM   28  C   UNL     1      -9.827  15.023  65.758  1.00  0.00    -0.386 A  
HETATM   29  C   UNL     1     -11.670  16.121  64.659  1.00  0.00    -0.010 A  
HETATM   30  C   UNL     1     -12.326  14.898  64.574  1.00  0.00    -0.330 A  
ENDBRANCH  23  25
BRANCH  22  31
HETATM   31  C   UNL     1     -11.310  13.232  68.886  1.00  0.00    -0.333 A  
HETATM   32  C   UNL     1     -12.561  13.524  70.985  1.00  0.00    -0.438 A  
HETATM   33  C   UNL     1     -12.597  15.275  69.345  1.00  0.00     0.045 A  
HETATM   34  C   UNL     1     -11.861  14.462  68.473  1.00  0.00    -0.369 A  
HETATM   35  C   UNL     1     -11.725  12.765  70.154  1.00  0.00    -0.239 A  
HETATM   36  C   UNL     1     -12.943  14.806  70.606  1.00  0.00    -0.376 A  
ENDBRANCH  22  31
ENDBRANCH   4  19
ENDBRANCH   2   4
TORSDOF 12
ENDMDL
MODEL      276
REMARK 921   NORMALIZED FREE ENERGY PREDICTED BY IDOCK:   -3.18 KCAL/MOL
REMARK 922        TOTAL FREE ENERGY PREDICTED BY IDOCK:   -6.72 KCAL/MOL
REMARK 923 INTER-LIGAND FREE ENERGY PREDICTED BY IDOCK:   -7.06 KCAL/MOL
REMARK 924 INTRA-LIGAND FREE ENERGY PREDICTED BY IDOCK:    0.34 KCAL/MOL
REMARK 927      BINDING AFFINITY PREDICTED BY RF-SCORE:    0.00 PKD
ROOT
HETATM    1  C   UNL     1      -6.741  16.983  69.018  1.00  0.00    -0.221 C  
HETATM    2  C   UNL     1      -7.795  17.339  67.968  1.00  0.00    -0.205 C  
HETATM    3  C   UNL     1      -7.187  17.223  66.569  1.00  0.00    -0.305 C  
ENDROOT
BRANCH   2   4
HETATM    4  N   UNL     1      -9.053  16.561  68.083  1.00  0.00    -0.203 NA 
BRANCH   4   5
HETATM    5  C   UNL     1     -10.323  17.185  68.492  1.00  0.00    -0.364 C  
BRANCH   5   6
HETATM    6  C   UNL     1     -11.420  16.156  68.795  1.00  0.00    -0.340 C  
BRANCH   6   7
HETATM    7  C   UNL     1     -11.862  16.129  70.270  1.00  0.00    -0.148 C  
BRANCH   7   8
HETATM    8  C   UNL     1     -10.924  15.373  71.211  1.00  0.00    -0.184 C  
BRANCH   8   9
HETATM    9  O   UNL     1     -11.621  15.051  72.413  1.00  0.00    -0.374 OA 
BRANCH   9  10
HETATM   10  C   UNL     1     -12.857  14.389  72.149  1.00  0.00    -0.342 C  
BRANCH  10  11
HETATM   11  C   UNL     1     -12.649  13.136  71.307  1.00  0.00    -0.290 C  
HETATM   12  O   UNL     1     -12.884  13.118  70.106  1.00  0.00     0.053 OA 
HETATM   13  N   UNL     1     -12.111  12.042  72.003  1.00  0.00     0.917 N  
HETATM   14  H   UNL     1     -11.830  12.164  72.976  1.00  0.00     0.000 HD 
BRANCH  13  15
HETATM   15  S   UNL     1     -11.921  10.555  71.286  1.00  0.00    -0.218 S  
HETATM   16  O   UNL     1     -10.751   9.912  71.823  1.00  0.00     0.176 OA 
HETATM   17  C   UNL     1     -11.515  11.057  69.644  1.00  0.00    -0.303 C  
HETATM   18  O   UNL     1     -13.210   9.914  71.227  1.00  0.00    -0.377 OA 
ENDBRANCH  13  15
ENDBRANCH  10  11
ENDBRANCH   9  10
ENDBRANCH   8   9
ENDBRANCH   7   8
ENDBRANCH   6   7
ENDBRANCH   5   6
ENDBRANCH   4   5
BRANCH   4  19
HETATM   19  C   UNL     1      -8.945  15.185  67.857  1.00  0.00    -0.174 A  
HETATM   20  N   UNL     1      -7.915  13.018  68.324  1.00  0.00    -0.146 NA 
HETATM   21  N   UNL     1      -9.735  14.599  66.928  1.00  0.00    -0.234 NA 
HETATM   22  C   UNL     1      -8.706  12.450  67.361  1.00  0.00    -0.183 A  
HETATM   23  C   UNL     1      -9.646  13.248  66.676  1.00  0.00    -0.262 A  
HETATM   24  C   UNL     1      -8.067  14.355  68.543  1.00  0.00    -0.146 A  
BRANCH  23  25
HETATM   25  C   UNL     1     -10.572  12.785  65.604  1.00  0.00    -0.297 A  
HETATM   26  C   UNL     1     -11.968  12.846  65.784  1.00  0.00    -0.496 A  
HETATM   27  C   UNL     1     -11.000  12.192  63.266  1.00  0.00    -0.398 A  
HETATM   28  C   UNL     1     -10.128  12.332  64.349  1.00  0.00    -0.296 A  
HETATM   29  C   UNL     1     -12.366  12.340  63.455  1.00  0.00    -0.624 A  
HETATM   30  C   UNL     1     -12.856  12.610  64.728  1.00  0.00    -0.349 A  
ENDBRANCH  23  25
BRANCH  22  31
HETATM   31  C   UNL     1      -8.420  10.997  67.121  1.00  0.00    -0.137 A  
HETATM   32  C   UNL     1      -7.390   9.227  65.758  1.00  0.00    -0.094 A  
HETATM   33  C   UNL     1      -8.525   8.633  67.785  1.00  0.00    -0.125 A  
HETATM   34  C   UNL     1      -8.916   9.968  67.948  1.00  0.00    -0.131 A  
HETATM   35  C   UNL     1      -7.684  10.578  65.990  1.00  0.00    -0.147 A  
HETATM   36  C   UNL     1      -7.755   8.263  66.690  1.00  0.00    -0.093 A  
ENDBRANCH  22  31
ENDBRANCH   4  19
ENDBRANCH   2   4
TORSDOF 12
ENDMDL
MODEL      277
REMARK 921   NORMALIZED FREE ENERGY PREDICTED BY IDOCK:   -3.16 KCAL/MOL
REMARK 922        TOTAL FREE ENERGY PREDICTED BY IDOCK:   -6.69 KCAL/MOL
REMARK 923 INTER-LIGAND FREE ENERGY PREDICTED BY IDOCK:   -6.63 KCAL/MOL
REMARK 924 INTRA-LIGAND FREE ENERGY PREDICTED BY IDOCK:   -0.06 KCAL/MOL
REMARK 927      BINDING AFFINITY PREDICTED BY RF-SCORE:    0.00 PKD
ROOT
HETATM    1  C   UNL     1     -13.230  14.063  65.159  1.00  0.00     0.097 C  
HETATM    2  C   UNL     1     -12.161  12.973  65.270  1.00  0.00    -0.466 C  
HETATM    3  C   UNL     1     -11.626  12.633  63.877  1.00  0.00    -0.521 C  
ENDROOT
BRANCH   2   4
HETATM    4  N   UNL     1     -11.064  13.295  66.214  1.00  0.00    -0.287 NA 
BRANCH   4   5
HETATM    5  C   UNL     1     -10.659  14.682  66.499  1.00  0.00    -0.300 C  
BRANCH   5   6
HETATM    6  C   UNL     1      -9.830  15.304  65.368  1.00  0.00    -0.318 C  
BRANCH   6   7
HETATM    7  C   UNL     1      -8.525  15.969  65.843  1.00  0.00     0.136 C  
BRANCH   7   8
HETATM    8  C   UNL     1      -8.514  16.395  67.311  1.00  0.00    -0.175 C  
BRANCH   8   9
HETATM    9  O   UNL     1      -7.487  15.685  68.001  1.00  0.00    -0.116 OA 
BRANCH   9  10
HETATM   10  C   UNL     1      -8.023  14.714  68.897  1.00  0.00    -0.149 C  
BRANCH  10  11
HETATM   11  C   UNL     1      -9.390  15.135  69.424  1.00  0.00    -0.175 C  
HETATM   12  O   UNL     1      -9.630  16.290  69.748  1.00  0.00    -0.096 OA 
HETATM   13  N   UNL     1     -10.352  14.113  69.441  1.00  0.00    -0.433 N  
HETATM   14  H   UNL     1     -10.116  13.203  69.047  1.00  0.00     0.000 HD 
BRANCH  13  15
HETATM   15  S   UNL     1     -11.865  14.346  70.088  1.00  0.00    -0.327 S  
HETATM   16  O   UNL     1     -12.825  13.566  69.353  1.00  0.00     0.284 OA 
HETATM   17  C   UNL     1     -12.132  16.033  69.641  1.00  0.00    -0.101 C  
HETATM   18  O   UNL     1     -11.753  14.303  71.525  1.00  0.00    -0.187 OA 
ENDBRANCH  13  15
ENDBRANCH  10  11
ENDBRANCH   9  10
ENDBRANCH   8   9
ENDBRANCH   7   8
ENDBRANCH   6   7
ENDBRANCH   5   6
ENDBRANCH   4   5
BRANCH   4  19
HETATM   19  C   UNL     1     -10.382  12.201  66.758  1.00  0.00    -0.213 A  
HETATM   20  N   UNL     1      -8.461  10.689  66.806  1.00  0.00    -0.131 NA 
HETATM   21  N   UNL     1     -10.941  11.507  67.777  1.00  0.00    -0.220 NA 
HETATM   22  C   UNL     1      -9.057   9.987  67.820  1.00  0.00    -0.131 A  
HETATM   23  C   UNL     1     -10.299  10.421  68.328  1.00  0.00    -0.171 A  
HETATM   24  C   UNL     1      -9.137  11.770  66.320  1.00  0.00    -0.206 A  
BRANCH  23  25
HETATM   25  C   UNL     1     -11.076   9.767  69.419  1.00  0.00    -0.205 A  
HETATM   26  C   UNL     1     -10.921   8.393  69.687  1.00  0.00    -0.094 A  
HETATM   27  C   UNL     1     -12.419   9.911  71.463  1.00  0.00    -0.506 A  
HETATM   28  C   UNL     1     -11.941  10.472  70.275  1.00  0.00    -0.411 A  
HETATM   29  C   UNL     1     -12.180   8.574  71.742  1.00  0.00    -0.388 A  
HETATM   30  C   UNL     1     -11.480   7.798  70.824  1.00  0.00    -0.285 A  
ENDBRANCH  23  25
BRANCH  22  31
HETATM   31  C   UNL     1      -8.294   8.766  68.240  1.00  0.00    -0.126 A  
HETATM   32  C   UNL     1      -6.770   7.644  69.813  1.00  0.00    -0.039 A  
HETATM   33  C   UNL     1      -7.676   6.402  67.972  1.00  0.00    -0.104 A  
HETATM   34  C   UNL     1      -8.283   7.570  67.493  1.00  0.00    -0.113 A  
HETATM   35  C   UNL     1      -7.476   8.780  69.392  1.00  0.00    -0.080 A  
HETATM   36  C   UNL     1      -6.923   6.438  69.138  1.00  0.00    -0.068 A  
ENDBRANCH  22  31
ENDBRANCH   4  19
ENDBRANCH   2   4
TORSDOF 12
ENDMDL
MODEL      278
REMARK 921   NORMALIZED FREE ENERGY PREDICTED BY IDOCK:   -3.08 KCAL/MOL
REMARK 922        TOTAL FREE ENERGY PREDICTED BY IDOCK:   -6.56 KCAL/MOL
REMARK 923 INTER-LIGAND FREE ENERGY PREDICTED BY IDOCK:   -7.48 KCAL/MOL
REMARK 924 INTRA-LIGAND FREE ENERGY PREDICTED BY IDOCK:    0.92 KCAL/MOL
REMARK 927      BINDING AFFINITY PREDICTED BY RF-SCORE:    0.00 PKD
ROOT
HETATM    1  C   UNL     1      -9.280   7.499  69.037  1.00  0.00    -0.146 C  
HETATM    2  C   UNL     1      -8.656   8.060  67.758  1.00  0.00    -0.128 C  
HETATM    3  C   UNL     1      -9.760   8.531  66.809  1.00  0.00    -0.303 C  
ENDROOT
BRANCH   2   4
HETATM    4  N   UNL     1      -7.647   9.122  67.992  1.00  0.00    -0.084 NA 
BRANCH   4   5
HETATM    5  C   UNL     1      -6.295   8.820  68.494  1.00  0.00    -0.054 C  
BRANCH   5   6
HETATM    6  C   UNL     1      -6.070   9.314  69.929  1.00  0.00    -0.038 C  
BRANCH   6   7
HETATM    7  C   UNL     1      -7.222   8.976  70.893  1.00  0.00    -0.106 C  
BRANCH   7   8
HETATM    8  C   UNL     1      -6.786   8.560  72.298  1.00  0.00    -0.082 C  
BRANCH   8   9
HETATM    9  O   UNL     1      -5.935   7.418  72.210  1.00  0.00    -0.040 OA 
BRANCH   9  10
HETATM   10  C   UNL     1      -6.681   6.204  72.157  1.00  0.00    -0.068 C  
BRANCH  10  11
HETATM   11  C   UNL     1      -7.911   6.265  73.054  1.00  0.00    -0.107 C  
HETATM   12  O   UNL     1      -7.821   6.398  74.268  1.00  0.00    -0.104 OA 
HETATM   13  N   UNL     1      -9.137   6.223  72.373  1.00  0.00    -0.139 N  
HETATM   14  H   UNL     1      -9.138   6.230  71.354  1.00  0.00     0.000 HD 
BRANCH  13  15
HETATM   15  S   UNL     1     -10.587   6.162  73.183  1.00  0.00    -0.261 S  
HETATM   16  O   UNL     1     -10.759   4.854  73.759  1.00  0.00    -0.253 OA 
HETATM   17  C   UNL     1     -11.703   6.266  71.819  1.00  0.00    -0.299 C  
HETATM   18  O   UNL     1     -10.732   7.378  73.942  1.00  0.00    -0.319 OA 
ENDBRANCH  13  15
ENDBRANCH  10  11
ENDBRANCH   9  10
ENDBRANCH   8   9
ENDBRANCH   7   8
ENDBRANCH   6   7
ENDBRANCH   5   6
ENDBRANCH   4   5
BRANCH   4  19
HETATM   19  C   UNL     1      -8.080  10.436  67.783  1.00  0.00    -0.103 A  
HETATM   20  N   UNL     1      -8.074  12.807  68.379  1.00  0.00    -0.148 NA 
HETATM   21  N   UNL     1      -8.966  10.697  66.794  1.00  0.00    -0.138 NA 
HETATM   22  C   UNL     1      -8.990  13.043  67.388  1.00  0.00    -0.204 A  
HETATM   23  C   UNL     1      -9.418  11.978  66.570  1.00  0.00    -0.228 A  
HETATM   24  C   UNL     1      -7.647  11.522  68.535  1.00  0.00    -0.130 A  
BRANCH  23  25
HETATM   25  C   UNL     1     -10.408  12.069  65.459  1.00  0.00    -0.298 A  
HETATM   26  C   UNL     1     -11.772  12.290  65.730  1.00  0.00    -0.445 A  
HETATM   27  C   UNL     1     -10.928  12.395  63.088  1.00  0.00    -0.126 A  
HETATM   28  C   UNL     1     -10.046  12.011  64.101  1.00  0.00    -0.340 A  
HETATM   29  C   UNL     1     -12.249  12.688  63.394  1.00  0.00    -0.610 A  
HETATM   30  C   UNL     1     -12.686  12.579  64.710  1.00  0.00    -0.415 A  
ENDBRANCH  23  25
BRANCH  22  31
HETATM   31  C   UNL     1      -9.473  14.463  67.336  1.00  0.00    -0.207 A  
HETATM   32  C   UNL     1     -10.763  16.311  68.323  1.00  0.00    -0.322 A  
HETATM   33  C   UNL     1      -9.530  16.692  66.302  1.00  0.00    -0.321 A  
HETATM   34  C   UNL     1      -9.186  15.334  66.266  1.00  0.00    -0.350 A  
HETATM   35  C   UNL     1     -10.317  14.982  68.344  1.00  0.00    -0.231 A  
HETATM   36  C   UNL     1     -10.316  17.182  67.337  1.00  0.00    -0.333 A  
ENDBRANCH  22  31
ENDBRANCH   4  19
ENDBRANCH   2   4
TORSDOF 12
ENDMDL
MODEL      279
REMARK 921   NORMALIZED FREE ENERGY PREDICTED BY IDOCK:   -3.07 KCAL/MOL
REMARK 922        TOTAL FREE ENERGY PREDICTED BY IDOCK:   -6.54 KCAL/MOL
REMARK 923 INTER-LIGAND FREE ENERGY PREDICTED BY IDOCK:   -6.24 KCAL/MOL
REMARK 924 INTRA-LIGAND FREE ENERGY PREDICTED BY IDOCK:   -0.31 KCAL/MOL
REMARK 927      BINDING AFFINITY PREDICTED BY RF-SCORE:    0.00 PKD
ROOT
HETATM    1  C   UNL     1     -10.741   6.142  68.651  1.00  0.00    -0.370 C  
HETATM    2  C   UNL     1      -9.678   5.514  67.748  1.00  0.00    -0.130 C  
HETATM    3  C   UNL     1     -10.357   4.729  66.623  1.00  0.00    -0.258 C  
ENDROOT
BRANCH   2   4
HETATM    4  N   UNL     1      -8.686   6.480  67.217  1.00  0.00    -0.110 NA 
BRANCH   4   5
HETATM    5  C   UNL     1      -7.299   6.088  66.911  1.00  0.00    -0.076 C  
BRANCH   5   6
HETATM    6  C   UNL     1      -6.386   6.122  68.143  1.00  0.00    -0.043 C  
BRANCH   6   7
HETATM    7  C   UNL     1      -7.144   6.178  69.482  1.00  0.00    -0.069 C  
BRANCH   7   8
HETATM    8  C   UNL     1      -6.258   6.300  70.722  1.00  0.00    -0.039 C  
BRANCH   8   9
HETATM    9  O   UNL     1      -6.339   5.095  71.480  1.00  0.00    -0.028 OA 
BRANCH   9  10
HETATM   10  C   UNL     1      -7.602   4.451  71.319  1.00  0.00    -0.064 C  
BRANCH  10  11
HETATM   11  C   UNL     1      -8.592   4.889  72.392  1.00  0.00    -0.123 C  
HETATM   12  O   UNL     1      -8.354   4.756  73.585  1.00  0.00    -0.105 OA 
HETATM   13  N   UNL     1      -9.753   5.507  71.902  1.00  0.00    -0.159 N  
HETATM   14  H   UNL     1      -9.832   5.690  70.902  1.00  0.00     0.000 HD 
BRANCH  13  15
HETATM   15  S   UNL     1     -11.001   5.948  72.907  1.00  0.00    -0.268 S  
HETATM   16  O   UNL     1     -10.481   6.719  74.005  1.00  0.00    -0.364 OA 
HETATM   17  C   UNL     1     -11.442   4.369  73.559  1.00  0.00    -0.184 C  
HETATM   18  O   UNL     1     -12.103   6.391  72.090  1.00  0.00    -0.326 OA 
ENDBRANCH  13  15
ENDBRANCH  10  11
ENDBRANCH   9  10
ENDBRANCH   8   9
ENDBRANCH   7   8
ENDBRANCH   6   7
ENDBRANCH   5   6
ENDBRANCH   4   5
BRANCH   4  19
HETATM   19  C   UNL     1      -9.121   7.804  67.100  1.00  0.00    -0.134 A  
HETATM   20  N   UNL     1     -10.843   9.443  66.531  1.00  0.00     0.063 NA 
HETATM   21  N   UNL     1      -8.274   8.814  67.406  1.00  0.00    -0.109 NA 
HETATM   22  C   UNL     1      -9.960  10.450  66.822  1.00  0.00    -0.206 A  
HETATM   23  C   UNL     1      -8.670  10.128  67.291  1.00  0.00    -0.129 A  
HETATM   24  C   UNL     1     -10.398   8.164  66.687  1.00  0.00    -0.213 A  
BRANCH  23  25
HETATM   25  C   UNL     1      -7.598  11.101  67.644  1.00  0.00    -0.105 A  
HETATM   26  C   UNL     1      -6.318  11.001  67.064  1.00  0.00    -0.088 A  
HETATM   27  C   UNL     1      -6.895  13.251  68.583  1.00  0.00    -0.099 A  
HETATM   28  C   UNL     1      -7.806  12.195  68.503  1.00  0.00    -0.122 A  
HETATM   29  C   UNL     1      -5.673  13.161  67.933  1.00  0.00    -0.129 A  
HETATM   30  C   UNL     1      -5.360  12.009  67.220  1.00  0.00    -0.119 A  
ENDBRANCH  23  25
BRANCH  22  31
HETATM   31  C   UNL     1     -10.495  11.824  66.543  1.00  0.00    -0.265 A  
HETATM   32  C   UNL     1     -11.955  13.706  67.160  1.00  0.00    -0.434 A  
HETATM   33  C   UNL     1     -10.543  13.902  65.232  1.00  0.00    -0.372 A  
HETATM   34  C   UNL     1     -10.139  12.571  65.402  1.00  0.00    -0.284 A  
HETATM   35  C   UNL     1     -11.457  12.416  67.392  1.00  0.00    -0.418 A  
HETATM   36  C   UNL     1     -11.448  14.472  66.117  1.00  0.00    -0.357 A  
ENDBRANCH  22  31
ENDBRANCH   4  19
ENDBRANCH   2   4
TORSDOF 12
ENDMDL
MODEL      280
REMARK 921   NORMALIZED FREE ENERGY PREDICTED BY IDOCK:   -2.87 KCAL/MOL
REMARK 922        TOTAL FREE ENERGY PREDICTED BY IDOCK:   -6.21 KCAL/MOL
REMARK 923 INTER-LIGAND FREE ENERGY PREDICTED BY IDOCK:   -5.51 KCAL/MOL
REMARK 924 INTRA-LIGAND FREE ENERGY PREDICTED BY IDOCK:   -0.69 KCAL/MOL
REMARK 927      BINDING AFFINITY PREDICTED BY RF-SCORE:    0.00 PKD
ROOT
HETATM    1  C   UNL     1     -10.771  12.608  65.001  1.00  0.00    -0.321 C  
HETATM    2  C   UNL     1      -9.836  13.576  65.729  1.00  0.00    -0.201 C  
HETATM    3  C   UNL     1     -10.633  14.782  66.231  1.00  0.00    -0.306 C  
ENDROOT
BRANCH   2   4
HETATM    4  N   UNL     1      -9.047  12.951  66.819  1.00  0.00    -0.227 NA 
BRANCH   4   5
HETATM    5  C   UNL     1      -7.581  13.082  66.897  1.00  0.00     0.267 C  
BRANCH   5   6
HETATM    6  C   UNL     1      -6.879  11.744  67.160  1.00  0.00    -0.148 C  
BRANCH   6   7
HETATM    7  C   UNL     1      -6.442  11.005  65.881  1.00  0.00    -0.002 C  
BRANCH   7   8
HETATM    8  C   UNL     1      -7.588  10.480  65.016  1.00  0.00    -0.026 C  
BRANCH   8   9
HETATM    9  O   UNL     1      -7.760   9.085  65.256  1.00  0.00    -0.095 OA 
BRANCH   9  10
HETATM   10  C   UNL     1      -6.883   8.296  64.454  1.00  0.00    -0.069 C  
BRANCH  10  11
HETATM   11  C   UNL     1      -7.654   7.296  63.601  1.00  0.00    -0.114 C  
HETATM   12  O   UNL     1      -7.756   7.423  62.388  1.00  0.00    -0.103 OA 
HETATM   13  N   UNL     1      -8.174   6.200  64.308  1.00  0.00    -0.264 N  
HETATM   14  H   UNL     1      -7.951   6.098  65.298  1.00  0.00     0.000 HD 
BRANCH  13  15
HETATM   15  S   UNL     1      -9.141   5.065  63.575  1.00  0.00     0.208 S  
HETATM   16  O   UNL     1     -10.003   4.465  64.559  1.00  0.00    -0.128 OA 
HETATM   17  C   UNL     1      -7.928   3.853  63.157  1.00  0.00    -0.079 C  
HETATM   18  O   UNL     1      -9.629   5.619  62.337  1.00  0.00     0.418 OA 
ENDBRANCH  13  15
ENDBRANCH  10  11
ENDBRANCH   9  10
ENDBRANCH   8   9
ENDBRANCH   7   8
ENDBRANCH   6   7
ENDBRANCH   5   6
ENDBRANCH   4   5
BRANCH   4  19
HETATM   19  C   UNL     1      -9.767  12.164  67.724  1.00  0.00    -0.197 A  
HETATM   20  N   UNL     1     -11.385  11.940  69.542  1.00  0.00    -0.257 NA 
HETATM   21  N   UNL     1      -9.578  10.825  67.739  1.00  0.00    -0.161 NA 
HETATM   22  C   UNL     1     -11.159  10.589  69.557  1.00  0.00    -0.268 A  
HETATM   23  C   UNL     1     -10.265  10.024  68.624  1.00  0.00    -0.180 A  
HETATM   24  C   UNL     1     -10.692  12.674  68.626  1.00  0.00    -0.242 A  
BRANCH  23  25
HETATM   25  C   UNL     1      -9.909   8.581  68.515  1.00  0.00    -0.186 A  
HETATM   26  C   UNL     1     -10.781   7.672  67.886  1.00  0.00    -0.176 A  
HETATM   27  C   UNL     1      -8.244   6.785  68.581  1.00  0.00    -0.120 A  
HETATM   28  C   UNL     1      -8.681   8.058  68.959  1.00  0.00    -0.137 A  
HETATM   29  C   UNL     1      -9.097   5.938  67.889  1.00  0.00    -0.109 A  
HETATM   30  C   UNL     1     -10.388   6.361  67.591  1.00  0.00    -0.243 A  
ENDBRANCH  23  25
BRANCH  22  31
HETATM   31  C   UNL     1     -11.893   9.864  70.647  1.00  0.00    -0.386 A  
HETATM   32  C   UNL     1     -11.904   8.220  72.478  1.00  0.00    -0.439 A  
HETATM   33  C   UNL     1     -13.902   9.460  72.005  1.00  0.00    -0.409 A  
HETATM   34  C   UNL     1     -13.269  10.043  70.899  1.00  0.00    -0.336 A  
HETATM   35  C   UNL     1     -11.242   8.894  71.442  1.00  0.00    -0.382 A  
HETATM   36  C   UNL     1     -13.215   8.551  72.799  1.00  0.00    -0.091 A  
ENDBRANCH  22  31
ENDBRANCH   4  19
ENDBRANCH   2   4
TORSDOF 12
ENDMDL
MODEL      281
REMARK 921   NORMALIZED FREE ENERGY PREDICTED BY IDOCK:   -2.87 KCAL/MOL
REMARK 922        TOTAL FREE ENERGY PREDICTED BY IDOCK:   -6.19 KCAL/MOL
REMARK 923 INTER-LIGAND FREE ENERGY PREDICTED BY IDOCK:   -6.72 KCAL/MOL
REMARK 924 INTRA-LIGAND FREE ENERGY PREDICTED BY IDOCK:    0.53 KCAL/MOL
REMARK 927      BINDING AFFINITY PREDICTED BY RF-SCORE:    0.00 PKD
ROOT
HETATM    1  C   UNL     1     -11.090   6.287  67.453  1.00  0.00    -0.384 C  
HETATM    2  C   UNL     1      -9.676   5.704  67.498  1.00  0.00    -0.124 C  
HETATM    3  C   UNL     1      -9.606   4.456  66.616  1.00  0.00    -0.213 C  
ENDROOT
BRANCH   2   4
HETATM    4  N   UNL     1      -8.610   6.676  67.156  1.00  0.00    -0.112 NA 
BRANCH   4   5
HETATM    5  C   UNL     1      -7.180   6.327  67.231  1.00  0.00    -0.078 C  
BRANCH   5   6
HETATM    6  C   UNL     1      -6.946   4.839  67.520  1.00  0.00    -0.061 C  
BRANCH   6   7
HETATM    7  C   UNL     1      -6.417   4.553  68.937  1.00  0.00    -0.037 C  
BRANCH   7   8
HETATM    8  C   UNL     1      -6.721   5.637  69.971  1.00  0.00    -0.048 C  
BRANCH   8   9
HETATM    9  O   UNL     1      -7.279   5.035  71.138  1.00  0.00    -0.059 OA 
BRANCH   9  10
HETATM   10  C   UNL     1      -6.604   3.828  71.486  1.00  0.00    -0.026 C  
BRANCH  10  11
HETATM   11  C   UNL     1      -7.543   2.840  72.169  1.00  0.00    -0.052 C  
HETATM   12  O   UNL     1      -7.175   1.722  72.501  1.00  0.00    -0.026 OA 
HETATM   13  N   UNL     1      -8.825   3.342  72.439  1.00  0.00    -0.083 N  
HETATM   14  H   UNL     1      -9.027   4.321  72.241  1.00  0.00     0.000 HD 
BRANCH  13  15
HETATM   15  S   UNL     1     -10.025   2.382  73.074  1.00  0.00    -0.126 S  
HETATM   16  O   UNL     1     -10.639   1.623  72.017  1.00  0.00    -0.123 OA 
HETATM   17  C   UNL     1     -11.188   3.621  73.551  1.00  0.00    -0.188 C  
HETATM   18  O   UNL     1      -9.528   1.780  74.285  1.00  0.00    -0.067 OA 
ENDBRANCH  13  15
ENDBRANCH  10  11
ENDBRANCH   9  10
ENDBRANCH   8   9
ENDBRANCH   7   8
ENDBRANCH   6   7
ENDBRANCH   5   6
ENDBRANCH   4   5
BRANCH   4  19
HETATM   19  C   UNL     1      -9.038   7.968  66.835  1.00  0.00    -0.152 A  
HETATM   20  N   UNL     1      -9.092   9.885  65.318  1.00  0.00    -0.193 NA 
HETATM   21  N   UNL     1      -9.816   8.649  67.708  1.00  0.00    -0.166 NA 
HETATM   22  C   UNL     1      -9.858  10.565  66.228  1.00  0.00    -0.217 A  
HETATM   23  C   UNL     1     -10.246   9.926  67.424  1.00  0.00    -0.222 A  
HETATM   24  C   UNL     1      -8.719   8.616  65.647  1.00  0.00    -0.182 A  
BRANCH  23  25
HETATM   25  C   UNL     1     -11.069  10.528  68.511  1.00  0.00    -0.329 A  
HETATM   26  C   UNL     1     -11.100   9.946  69.793  1.00  0.00    -0.294 A  
HETATM   27  C   UNL     1     -12.306  12.422  69.449  1.00  0.00     0.041 A  
HETATM   28  C   UNL     1     -11.795  11.722  68.353  1.00  0.00    -0.347 A  
HETATM   29  C   UNL     1     -12.249  11.861  70.716  1.00  0.00    -0.401 A  
HETATM   30  C   UNL     1     -11.697  10.595  70.880  1.00  0.00    -0.387 A  
ENDBRANCH  23  25
BRANCH  22  31
HETATM   31  C   UNL     1     -10.155  11.981  65.831  1.00  0.00    -0.264 A  
HETATM   32  C   UNL     1      -9.856  14.398  66.181  1.00  0.00    -0.340 A  
HETATM   33  C   UNL     1     -11.198  13.638  64.345  1.00  0.00    -0.382 A  
HETATM   34  C   UNL     1     -11.041  12.318  64.787  1.00  0.00    -0.356 A  
HETATM   35  C   UNL     1      -9.606  13.068  66.548  1.00  0.00    -0.260 A  
HETATM   36  C   UNL     1     -10.599  14.680  65.041  1.00  0.00    -0.461 A  
ENDBRANCH  22  31
ENDBRANCH   4  19
ENDBRANCH   2   4
TORSDOF 12
ENDMDL
MODEL      282
REMARK 921   NORMALIZED FREE ENERGY PREDICTED BY IDOCK:   -2.73 KCAL/MOL
REMARK 922        TOTAL FREE ENERGY PREDICTED BY IDOCK:   -5.97 KCAL/MOL
REMARK 923 INTER-LIGAND FREE ENERGY PREDICTED BY IDOCK:   -6.23 KCAL/MOL
REMARK 924 INTRA-LIGAND FREE ENERGY PREDICTED BY IDOCK:    0.27 KCAL/MOL
REMARK 927      BINDING AFFINITY PREDICTED BY RF-SCORE:    0.00 PKD
ROOT
HETATM    1  C   UNL     1     -10.073   9.383  71.213  1.00  0.00    -0.309 C  
HETATM    2  C   UNL     1      -9.060   8.965  70.145  1.00  0.00    -0.176 C  
HETATM    3  C   UNL     1      -8.494   7.585  70.485  1.00  0.00    -0.133 C  
ENDROOT
BRANCH   2   4
HETATM    4  N   UNL     1      -9.587   9.013  68.760  1.00  0.00    -0.151 NA 
BRANCH   4   5
HETATM    5  C   UNL     1     -10.786   9.792  68.406  1.00  0.00    -0.201 C  
BRANCH   5   6
HETATM    6  C   UNL     1     -10.850  10.140  66.913  1.00  0.00    -0.176 C  
BRANCH   6   7
HETATM    7  C   UNL     1     -10.650  11.636  66.611  1.00  0.00    -0.281 C  
BRANCH   7   8
HETATM    8  C   UNL     1     -11.881  12.352  66.055  1.00  0.00    -0.395 C  
BRANCH   8   9
HETATM    9  O   UNL     1     -11.849  13.722  66.450  1.00  0.00    -0.361 OA 
BRANCH   9  10
HETATM   10  C   UNL     1     -10.946  13.941  67.532  1.00  0.00    -0.276 C  
BRANCH  10  11
HETATM   11  C   UNL     1      -9.933  15.031  67.200  1.00  0.00    -0.237 C  
HETATM   12  O   UNL     1      -8.882  14.783  66.625  1.00  0.00    -0.255 OA 
HETATM   13  N   UNL     1     -10.334  16.330  67.547  1.00  0.00    -0.282 N  
HETATM   14  H   UNL     1     -11.272  16.477  67.918  1.00  0.00     0.000 HD 
BRANCH  13  15
HETATM   15  S   UNL     1      -9.320  17.636  67.372  1.00  0.00    -0.250 S  
HETATM   16  O   UNL     1      -8.463  17.734  68.524  1.00  0.00    -0.290 OA 
HETATM   17  C   UNL     1     -10.491  18.951  67.496  1.00  0.00    -0.450 C  
HETATM   18  O   UNL     1      -8.821  17.641  66.020  1.00  0.00    -0.502 OA 
ENDBRANCH  13  15
ENDBRANCH  10  11
ENDBRANCH   9  10
ENDBRANCH   8   9
ENDBRANCH   7   8
ENDBRANCH   6   7
ENDBRANCH   5   6
ENDBRANCH   4   5
BRANCH   4  19
HETATM   19  C   UNL     1      -8.924   8.213  67.823  1.00  0.00    -0.132 A  
HETATM   20  N   UNL     1      -7.683   7.952  65.733  1.00  0.00    -0.086 NA 
HETATM   21  N   UNL     1      -8.855   6.876  68.020  1.00  0.00    -0.124 NA 
HETATM   22  C   UNL     1      -7.648   6.599  65.939  1.00  0.00    -0.087 A  
HETATM   23  C   UNL     1      -8.217   6.060  67.112  1.00  0.00    -0.105 A  
HETATM   24  C   UNL     1      -8.308   8.708  66.680  1.00  0.00    -0.108 A  
BRANCH  23  25
HETATM   25  C   UNL     1      -8.265   4.616  67.479  1.00  0.00    -0.101 A  
HETATM   26  C   UNL     1      -7.269   4.051  68.298  1.00  0.00    -0.059 A  
HETATM   27  C   UNL     1      -9.498   2.511  67.695  1.00  0.00    -0.128 A  
HETATM   28  C   UNL     1      -9.316   3.762  67.099  1.00  0.00    -0.223 A  
HETATM   29  C   UNL     1      -8.539   2.012  68.564  1.00  0.00    -0.100 A  
HETATM   30  C   UNL     1      -7.394   2.758  68.821  1.00  0.00    -0.048 A  
ENDBRANCH  23  25
BRANCH  22  31
HETATM   31  C   UNL     1      -7.020   5.831  64.814  1.00  0.00    -0.052 A  
HETATM   32  C   UNL     1      -5.466   4.092  64.028  1.00  0.00    -0.013 A  
HETATM   33  C   UNL     1      -6.802   5.279  62.428  1.00  0.00    -0.026 A  
HETATM   34  C   UNL     1      -7.293   6.095  63.456  1.00  0.00    -0.070 A  
HETATM   35  C   UNL     1      -6.050   4.834  65.064  1.00  0.00    -0.030 A  
HETATM   36  C   UNL     1      -5.891   4.271  62.717  1.00  0.00    -0.017 A  
ENDBRANCH  22  31
ENDBRANCH   4  19
ENDBRANCH   2   4
TORSDOF 12
ENDMDL
MODEL      283
REMARK 921   NORMALIZED FREE ENERGY PREDICTED BY IDOCK:   -2.52 KCAL/MOL
REMARK 922        TOTAL FREE ENERGY PREDICTED BY IDOCK:   -5.61 KCAL/MOL
REMARK 923 INTER-LIGAND FREE ENERGY PREDICTED BY IDOCK:   -5.84 KCAL/MOL
REMARK 924 INTRA-LIGAND FREE ENERGY PREDICTED BY IDOCK:    0.22 KCAL/MOL
REMARK 927      BINDING AFFINITY PREDICTED BY RF-SCORE:    0.00 PKD
ROOT
HETATM    1  C   UNL     1     -10.759   5.385  68.781  1.00  0.00    -0.111 C  
HETATM    2  C   UNL     1      -9.323   4.862  68.712  1.00  0.00    -0.135 C  
HETATM    3  C   UNL     1      -9.338   3.347  68.499  1.00  0.00    -0.231 C  
ENDROOT
BRANCH   2   4
HETATM    4  N   UNL     1      -8.477   5.547  67.705  1.00  0.00    -0.099 NA 
BRANCH   4   5
HETATM    5  C   UNL     1      -7.185   4.993  67.262  1.00  0.00    -0.077 C  
BRANCH   5   6
HETATM    6  C   UNL     1      -6.451   4.233  68.375  1.00  0.00    -0.037 C  
BRANCH   6   7
HETATM    7  C   UNL     1      -5.771   5.146  69.411  1.00  0.00    -0.016 C  
BRANCH   7   8
HETATM    8  C   UNL     1      -5.665   6.616  69.005  1.00  0.00    -0.017 C  
BRANCH   8   9
HETATM    9  O   UNL     1      -6.410   7.414  69.924  1.00  0.00    -0.030 OA 
BRANCH   9  10
HETATM   10  C   UNL     1      -5.775   7.488  71.199  1.00  0.00    -0.035 C  
BRANCH  10  11
HETATM   11  C   UNL     1      -6.797   7.541  72.328  1.00  0.00    -0.060 C  
HETATM   12  O   UNL     1      -6.621   8.224  73.328  1.00  0.00    -0.097 OA 
HETATM   13  N   UNL     1      -7.968   6.803  72.096  1.00  0.00    -0.096 N  
HETATM   14  H   UNL     1      -8.098   6.352  71.191  1.00  0.00     0.000 HD 
BRANCH  13  15
HETATM   15  S   UNL     1      -9.147   6.643  73.256  1.00  0.00    -0.130 S  
HETATM   16  O   UNL     1      -8.577   6.056  74.439  1.00  0.00    -0.115 OA 
HETATM   17  C   UNL     1     -10.149   5.400  72.504  1.00  0.00    -0.175 C  
HETATM   18  O   UNL     1      -9.925   7.857  73.279  1.00  0.00    -0.303 OA 
ENDBRANCH  13  15
ENDBRANCH  10  11
ENDBRANCH   9  10
ENDBRANCH   8   9
ENDBRANCH   7   8
ENDBRANCH   6   7
ENDBRANCH   5   6
ENDBRANCH   4   5
BRANCH   4  19
HETATM   19  C   UNL     1      -8.938   6.790  67.259  1.00  0.00    -0.117 A  
HETATM   20  N   UNL     1     -10.730   8.431  66.988  1.00  0.00    -0.234 NA 
HETATM   21  N   UNL     1      -8.088   7.627  66.620  1.00  0.00    -0.116 NA 
HETATM   22  C   UNL     1      -9.859   9.251  66.321  1.00  0.00    -0.291 A  
HETATM   23  C   UNL     1      -8.515   8.853  66.162  1.00  0.00    -0.125 A  
HETATM   24  C   UNL     1     -10.240   7.241  67.438  1.00  0.00    -0.236 A  
BRANCH  23  25
HETATM   25  C   UNL     1      -7.450   9.624  65.460  1.00  0.00    -0.106 A  
HETATM   26  C   UNL     1      -6.554  10.434  66.185  1.00  0.00    -0.112 A  
HETATM   27  C   UNL     1      -6.059  10.027  63.485  1.00  0.00    -0.130 A  
HETATM   28  C   UNL     1      -7.231   9.544  64.073  1.00  0.00    -0.111 A  
HETATM   29  C   UNL     1      -5.152  10.752  64.243  1.00  0.00    -0.128 A  
HETATM   30  C   UNL     1      -5.428  11.006  65.582  1.00  0.00    -0.082 A  
ENDBRANCH  23  25
BRANCH  22  31
HETATM   31  C   UNL     1     -10.493  10.500  65.784  1.00  0.00    -0.214 A  
HETATM   32  C   UNL     1     -11.099  11.928  63.874  1.00  0.00    -0.483 A  
HETATM   33  C   UNL     1     -11.758  12.586  66.085  1.00  0.00    -0.466 A  
HETATM   34  C   UNL     1     -11.051  11.496  66.611  1.00  0.00    -0.355 A  
HETATM   35  C   UNL     1     -10.495  10.777  64.398  1.00  0.00    -0.344 A  
HETATM   36  C   UNL     1     -11.786  12.798  64.713  1.00  0.00    -0.423 A  
ENDBRANCH  22  31
ENDBRANCH   4  19
ENDBRANCH   2   4
TORSDOF 12
ENDMDL
MODEL      284
REMARK 921   NORMALIZED FREE ENERGY PREDICTED BY IDOCK:   -2.46 KCAL/MOL
REMARK 922        TOTAL FREE ENERGY PREDICTED BY IDOCK:   -5.50 KCAL/MOL
REMARK 923 INTER-LIGAND FREE ENERGY PREDICTED BY IDOCK:   -6.24 KCAL/MOL
REMARK 924 INTRA-LIGAND FREE ENERGY PREDICTED BY IDOCK:    0.73 KCAL/MOL
REMARK 927      BINDING AFFINITY PREDICTED BY RF-SCORE:    0.00 PKD
ROOT
HETATM    1  C   UNL     1      -9.805   9.964  66.987  1.00  0.00    -0.241 C  
HETATM    2  C   UNL     1     -11.119   9.614  67.690  1.00  0.00     0.008 C  
HETATM    3  C   UNL     1     -11.154   8.115  67.998  1.00  0.00     0.313 C  
ENDROOT
BRANCH   2   4
HETATM    4  N   UNL     1     -11.394  10.427  68.899  1.00  0.00    -0.241 NA 
BRANCH   4   5
HETATM    5  C   UNL     1     -12.000   9.847  70.111  1.00  0.00    -0.077 C  
BRANCH   5   6
HETATM    6  C   UNL     1     -10.967   9.538  71.202  1.00  0.00    -0.438 C  
BRANCH   6   7
HETATM    7  C   UNL     1      -9.795   8.662  70.724  1.00  0.00    -0.236 C  
BRANCH   7   8
HETATM    8  C   UNL     1      -8.452   8.959  71.392  1.00  0.00    -0.153 C  
BRANCH   8   9
HETATM    9  O   UNL     1      -8.118   7.891  72.277  1.00  0.00    -0.108 OA 
BRANCH   9  10
HETATM   10  C   UNL     1      -8.828   7.982  73.510  1.00  0.00    -0.268 C  
BRANCH  10  11
HETATM   11  C   UNL     1      -9.798   6.820  73.682  1.00  0.00    -0.243 C  
HETATM   12  O   UNL     1     -10.842   6.936  74.310  1.00  0.00    -0.015 OA 
HETATM   13  N   UNL     1      -9.429   5.643  73.012  1.00  0.00    -0.150 N  
HETATM   14  H   UNL     1      -8.606   5.652  72.411  1.00  0.00     0.000 HD 
BRANCH  13  15
HETATM   15  S   UNL     1     -10.297   4.235  73.172  1.00  0.00    -0.183 S  
HETATM   16  O   UNL     1     -10.742   4.100  74.534  1.00  0.00    -0.217 OA 
HETATM   17  C   UNL     1      -9.008   3.052  72.939  1.00  0.00    -0.087 C  
HETATM   18  O   UNL     1     -11.185   4.120  72.042  1.00  0.00     0.461 OA 
ENDBRANCH  13  15
ENDBRANCH  10  11
ENDBRANCH   9  10
ENDBRANCH   8   9
ENDBRANCH   7   8
ENDBRANCH   6   7
ENDBRANCH   5   6
ENDBRANCH   4   5
BRANCH   4  19
HETATM   19  C   UNL     1     -11.117  11.794  68.795  1.00  0.00    -0.241 A  
HETATM   20  N   UNL     1     -10.188  13.698  67.575  1.00  0.00    -0.239 NA 
HETATM   21  N   UNL     1     -11.464  12.623  69.806  1.00  0.00    -0.186 NA 
HETATM   22  C   UNL     1     -10.526  14.515  68.622  1.00  0.00    -0.247 A  
HETATM   23  C   UNL     1     -11.197  13.972  69.737  1.00  0.00    -0.119 A  
HETATM   24  C   UNL     1     -10.501  12.377  67.694  1.00  0.00    -0.216 A  
BRANCH  23  25
HETATM   25  C   UNL     1     -11.625  14.722  70.952  1.00  0.00    -0.316 A  
HETATM   26  C   UNL     1     -12.100  14.038  72.088  1.00  0.00     0.172 A  
HETATM   27  C   UNL     1     -11.641  16.767  72.301  1.00  0.00     0.101 A  
HETATM   28  C   UNL     1     -11.523  16.120  71.067  1.00  0.00    -0.424 A  
HETATM   29  C   UNL     1     -12.031  16.051  73.423  1.00  0.00    -0.515 A  
HETATM   30  C   UNL     1     -12.317  14.696  73.304  1.00  0.00    -0.369 A  
ENDBRANCH  23  25
BRANCH  22  31
HETATM   31  C   UNL     1     -10.072  15.935  68.453  1.00  0.00    -0.223 A  
HETATM   32  C   UNL     1     -10.541  18.254  67.775  1.00  0.00    -0.415 A  
HETATM   33  C   UNL     1      -8.395  17.715  68.700  1.00  0.00    -0.267 A  
HETATM   34  C   UNL     1      -8.758  16.362  68.735  1.00  0.00    -0.246 A  
HETATM   35  C   UNL     1     -10.939  16.918  67.923  1.00  0.00    -0.251 A  
HETATM   36  C   UNL     1      -9.291  18.663  68.225  1.00  0.00    -0.359 A  
ENDBRANCH  22  31
ENDBRANCH   4  19
ENDBRANCH   2   4
TORSDOF 12
ENDMDL
MODEL      285
REMARK 921   NORMALIZED FREE ENERGY PREDICTED BY IDOCK:   -2.45 KCAL/MOL
REMARK 922        TOTAL FREE ENERGY PREDICTED BY IDOCK:   -5.49 KCAL/MOL
REMARK 923 INTER-LIGAND FREE ENERGY PREDICTED BY IDOCK:   -5.54 KCAL/MOL
REMARK 924 INTRA-LIGAND FREE ENERGY PREDICTED BY IDOCK:    0.05 KCAL/MOL
REMARK 927      BINDING AFFINITY PREDICTED BY RF-SCORE:    0.00 PKD
ROOT
HETATM    1  C   UNL     1     -11.569  14.742  70.759  1.00  0.00    -0.318 C  
HETATM    2  C   UNL     1     -11.384  14.372  69.285  1.00  0.00    -0.284 C  
HETATM    3  C   UNL     1      -9.985  14.786  68.823  1.00  0.00    -0.234 C  
ENDROOT
BRANCH   2   4
HETATM    4  N   UNL     1     -11.662  12.948  68.979  1.00  0.00    -0.311 NA 
BRANCH   4   5
HETATM    5  C   UNL     1     -12.674  12.172  69.717  1.00  0.00     0.482 C  
BRANCH   5   6
HETATM    6  C   UNL     1     -12.557  12.339  71.238  1.00  0.00    -0.336 C  
BRANCH   6   7
HETATM    7  C   UNL     1     -12.674  11.019  72.022  1.00  0.00    -0.177 C  
BRANCH   7   8
HETATM    8  C   UNL     1     -12.140   9.786  71.293  1.00  0.00    -0.382 C  
BRANCH   8   9
HETATM    9  O   UNL     1     -11.028   9.256  72.013  1.00  0.00    -0.315 OA 
BRANCH   9  10
HETATM   10  C   UNL     1     -10.256   8.363  71.213  1.00  0.00    -0.212 C  
BRANCH  10  11
HETATM   11  C   UNL     1      -9.093   7.772  72.001  1.00  0.00    -0.137 C  
HETATM   12  O   UNL     1      -9.248   6.844  72.783  1.00  0.00    -0.135 OA 
HETATM   13  N   UNL     1      -7.840   8.332  71.707  1.00  0.00    -0.108 N  
HETATM   14  H   UNL     1      -7.768   9.022  70.960  1.00  0.00     0.000 HD 
BRANCH  13  15
HETATM   15  S   UNL     1      -6.471   7.902  72.545  1.00  0.00    -0.074 S  
HETATM   16  O   UNL     1      -6.184   6.512  72.311  1.00  0.00    -0.044 OA 
HETATM   17  C   UNL     1      -7.073   8.025  74.199  1.00  0.00    -0.149 C  
HETATM   18  O   UNL     1      -5.490   8.945  72.373  1.00  0.00    -0.053 OA 
ENDBRANCH  13  15
ENDBRANCH  10  11
ENDBRANCH   9  10
ENDBRANCH   8   9
ENDBRANCH   7   8
ENDBRANCH   6   7
ENDBRANCH   5   6
ENDBRANCH   4   5
BRANCH   4  19
HETATM   19  C   UNL     1     -10.852  12.362  68.000  1.00  0.00    -0.221 A  
HETATM   20  N   UNL     1     -10.352  11.862  65.660  1.00  0.00    -0.238 NA 
HETATM   21  N   UNL     1      -9.750  11.671  68.374  1.00  0.00    -0.196 NA 
HETATM   22  C   UNL     1      -9.256  11.146  66.062  1.00  0.00    -0.205 A  
HETATM   23  C   UNL     1      -8.938  11.075  67.435  1.00  0.00    -0.141 A  
HETATM   24  C   UNL     1     -11.102  12.449  66.636  1.00  0.00    -0.289 A  
BRANCH  23  25
HETATM   25  C   UNL     1      -7.790  10.336  68.031  1.00  0.00    -0.100 A  
HETATM   26  C   UNL     1      -7.849   8.940  68.210  1.00  0.00    -0.101 A  
HETATM   27  C   UNL     1      -5.423  10.214  68.651  1.00  0.00    -0.038 A  
HETATM   28  C   UNL     1      -6.577  10.955  68.382  1.00  0.00    -0.058 A  
HETATM   29  C   UNL     1      -5.494   8.832  68.740  1.00  0.00    -0.040 A  
HETATM   30  C   UNL     1      -6.721   8.197  68.577  1.00  0.00    -0.063 A  
ENDBRANCH  23  25
BRANCH  22  31
HETATM   31  C   UNL     1      -8.533  10.462  64.939  1.00  0.00    -0.179 A  
HETATM   32  C   UNL     1      -8.574   9.360  62.740  1.00  0.00    -0.221 A  
HETATM   33  C   UNL     1      -6.473   9.675  63.854  1.00  0.00    -0.111 A  
HETATM   34  C   UNL     1      -7.150  10.190  64.967  1.00  0.00    -0.135 A  
HETATM   35  C   UNL     1      -9.233   9.984  63.808  1.00  0.00    -0.314 A  
HETATM   36  C   UNL     1      -7.187   9.265  62.735  1.00  0.00    -0.100 A  
ENDBRANCH  22  31
ENDBRANCH   4  19
ENDBRANCH   2   4
TORSDOF 12
ENDMDL
MODEL      286
REMARK 921   NORMALIZED FREE ENERGY PREDICTED BY IDOCK:   -2.41 KCAL/MOL
REMARK 922        TOTAL FREE ENERGY PREDICTED BY IDOCK:   -5.42 KCAL/MOL
REMARK 923 INTER-LIGAND FREE ENERGY PREDICTED BY IDOCK:   -4.73 KCAL/MOL
REMARK 924 INTRA-LIGAND FREE ENERGY PREDICTED BY IDOCK:   -0.69 KCAL/MOL
REMARK 927      BINDING AFFINITY PREDICTED BY RF-SCORE:    0.00 PKD
ROOT
HETATM    1  C   UNL     1     -11.080   2.417  72.471  1.00  0.00     0.317 C  
HETATM    2  C   UNL     1     -10.314   3.037  73.642  1.00  0.00    -0.141 C  
HETATM    3  C   UNL     1      -9.797   1.929  74.562  1.00  0.00    -0.131 C  
ENDROOT
BRANCH   2   4
HETATM    4  N   UNL     1      -9.227   3.960  73.235  1.00  0.00    -0.105 NA 
BRANCH   4   5
HETATM    5  C   UNL     1      -7.931   3.999  73.935  1.00  0.00    -0.084 C  
BRANCH   5   6
HETATM    6  C   UNL     1      -6.743   4.154  72.976  1.00  0.00    -0.047 C  
BRANCH   6   7
HETATM    7  C   UNL     1      -5.493   3.361  73.398  1.00  0.00     0.000 C  
BRANCH   7   8
HETATM    8  C   UNL     1      -5.357   1.981  72.756  1.00  0.00     0.000 C  
BRANCH   8   9
HETATM    9  O   UNL     1      -6.011   1.983  71.488  1.00  0.00    -0.012 OA 
BRANCH   9  10
HETATM   10  C   UNL     1      -5.272   2.713  70.511  1.00  0.00    -0.004 C  
BRANCH  10  11
HETATM   11  C   UNL     1      -6.120   3.014  69.281  1.00  0.00    -0.024 C  
HETATM   12  O   UNL     1      -7.206   2.480  69.097  1.00  0.00    -0.044 OA 
HETATM   13  N   UNL     1      -5.587   3.991  68.426  1.00  0.00    -0.013 N  
HETATM   14  H   UNL     1      -4.736   4.480  68.701  1.00  0.00     0.000 HD 
BRANCH  13  15
HETATM   15  S   UNL     1      -6.306   4.373  66.977  1.00  0.00    -0.041 S  
HETATM   16  O   UNL     1      -7.709   4.613  67.188  1.00  0.00    -0.089 OA 
HETATM   17  C   UNL     1      -6.175   2.819  66.151  1.00  0.00    -0.024 C  
HETATM   18  O   UNL     1      -5.449   5.298  66.278  1.00  0.00    -0.012 OA 
ENDBRANCH  13  15
ENDBRANCH  10  11
ENDBRANCH   9  10
ENDBRANCH   8   9
ENDBRANCH   7   8
ENDBRANCH   6   7
ENDBRANCH   5   6
ENDBRANCH   4   5
BRANCH   4  19
HETATM   19  C   UNL     1      -9.533   4.846  72.196  1.00  0.00    -0.145 A  
HETATM   20  N   UNL     1      -9.050   5.818  70.006  1.00  0.00    -0.141 NA 
HETATM   21  N   UNL     1     -10.604   5.664  72.313  1.00  0.00    -0.213 NA 
HETATM   22  C   UNL     1     -10.125   6.654  70.156  1.00  0.00    -0.178 A  
HETATM   23  C   UNL     1     -10.926   6.554  71.312  1.00  0.00    -0.262 A  
HETATM   24  C   UNL     1      -8.799   4.943  71.021  1.00  0.00    -0.126 A  
BRANCH  23  25
HETATM   25  C   UNL     1     -12.119   7.390  71.626  1.00  0.00    -0.349 A  
HETATM   26  C   UNL     1     -12.022   8.473  72.522  1.00  0.00    -0.401 A  
HETATM   27  C   UNL     1     -14.379   8.168  71.090  1.00  0.00    -0.270 A  
HETATM   28  C   UNL     1     -13.371   7.203  71.013  1.00  0.00    -0.130 A  
HETATM   29  C   UNL     1     -14.222   9.268  71.919  1.00  0.00    -0.210 A  
HETATM   30  C   UNL     1     -13.066   9.391  72.681  1.00  0.00    -0.248 A  
ENDBRANCH  23  25
BRANCH  22  31
HETATM   31  C   UNL     1     -10.284   7.642  69.038  1.00  0.00    -0.211 A  
HETATM   32  C   UNL     1     -10.761   9.931  68.271  1.00  0.00    -0.276 A  
HETATM   33  C   UNL     1     -10.194   8.249  66.658  1.00  0.00    -0.333 A  
HETATM   34  C   UNL     1     -10.178   7.288  67.677  1.00  0.00    -0.257 A  
HETATM   35  C   UNL     1     -10.626   8.988  69.300  1.00  0.00    -0.226 A  
HETATM   36  C   UNL     1     -10.481   9.575  66.957  1.00  0.00    -0.302 A  
ENDBRANCH  22  31
ENDBRANCH   4  19
ENDBRANCH   2   4
TORSDOF 12
ENDMDL
MODEL      287
REMARK 921   NORMALIZED FREE ENERGY PREDICTED BY IDOCK:   -2.35 KCAL/MOL
REMARK 922        TOTAL FREE ENERGY PREDICTED BY IDOCK:   -5.32 KCAL/MOL
REMARK 923 INTER-LIGAND FREE ENERGY PREDICTED BY IDOCK:   -5.34 KCAL/MOL
REMARK 924 INTRA-LIGAND FREE ENERGY PREDICTED BY IDOCK:    0.02 KCAL/MOL
REMARK 927      BINDING AFFINITY PREDICTED BY RF-SCORE:    0.00 PKD
ROOT
HETATM    1  C   UNL     1      -8.279   5.118  66.403  1.00  0.00    -0.108 C  
HETATM    2  C   UNL     1      -7.741   6.190  65.452  1.00  0.00    -0.093 C  
HETATM    3  C   UNL     1      -8.529   6.157  64.142  1.00  0.00     0.136 C  
ENDROOT
BRANCH   2   4
HETATM    4  N   UNL     1      -7.706   7.553  66.035  1.00  0.00    -0.091 NA 
BRANCH   4   5
HETATM    5  C   UNL     1      -7.598   8.759  65.196  1.00  0.00    -0.096 C  
BRANCH   5   6
HETATM    6  C   UNL     1      -8.659   8.810  64.089  1.00  0.00    -0.085 C  
BRANCH   6   7
HETATM    7  C   UNL     1      -9.831   9.761  64.389  1.00  0.00     0.092 C  
BRANCH   7   8
HETATM    8  C   UNL     1      -9.549  11.239  64.117  1.00  0.00    -0.225 C  
BRANCH   8   9
HETATM    9  O   UNL     1     -10.086  12.026  65.178  1.00  0.00    -0.259 OA 
BRANCH   9  10
HETATM   10  C   UNL     1      -9.067  12.731  65.884  1.00  0.00     0.229 C  
BRANCH  10  11
HETATM   11  C   UNL     1      -9.604  13.349  67.170  1.00  0.00    -0.241 C  
HETATM   12  O   UNL     1     -10.436  12.779  67.863  1.00  0.00    -0.211 OA 
HETATM   13  N   UNL     1      -9.022  14.577  67.518  1.00  0.00    -0.180 N  
HETATM   14  H   UNL     1      -8.251  14.937  66.957  1.00  0.00     0.000 HD 
BRANCH  13  15
HETATM   15  S   UNL     1      -9.556  15.461  68.820  1.00  0.00    -0.221 S  
HETATM   16  O   UNL     1     -10.342  14.617  69.681  1.00  0.00    -0.136 OA 
HETATM   17  C   UNL     1     -10.683  16.551  68.009  1.00  0.00    -0.343 C  
HETATM   18  O   UNL     1      -8.460  16.266  69.299  1.00  0.00    -0.238 OA 
ENDBRANCH  13  15
ENDBRANCH  10  11
ENDBRANCH   9  10
ENDBRANCH   8   9
ENDBRANCH   7   8
ENDBRANCH   6   7
ENDBRANCH   5   6
ENDBRANCH   4   5
BRANCH   4  19
HETATM   19  C   UNL     1      -7.701   7.623  67.432  1.00  0.00    -0.117 A  
HETATM   20  N   UNL     1      -6.510   7.608  69.567  1.00  0.00    -0.031 NA 
HETATM   21  N   UNL     1      -8.872   7.753  68.097  1.00  0.00    -0.126 NA 
HETATM   22  C   UNL     1      -7.710   7.714  70.220  1.00  0.00    -0.091 A  
HETATM   23  C   UNL     1      -8.901   7.816  69.472  1.00  0.00    -0.139 A  
HETATM   24  C   UNL     1      -6.547   7.575  68.205  1.00  0.00    -0.050 A  
BRANCH  23  25
HETATM   25  C   UNL     1     -10.279   7.931  70.029  1.00  0.00    -0.208 A  
HETATM   26  C   UNL     1     -11.149   6.824  70.028  1.00  0.00    -0.366 A  
HETATM   27  C   UNL     1     -11.928   9.098  71.414  1.00  0.00    -0.410 A  
HETATM   28  C   UNL     1     -10.765   9.102  70.639  1.00  0.00    -0.313 A  
HETATM   29  C   UNL     1     -12.725   7.965  71.461  1.00  0.00    -0.342 A  
HETATM   30  C   UNL     1     -12.365   6.844  70.719  1.00  0.00    -0.314 A  
ENDBRANCH  23  25
BRANCH  22  31
HETATM   31  C   UNL     1      -7.593   7.658  71.715  1.00  0.00    -0.086 A  
HETATM   32  C   UNL     1      -6.398   8.255  73.782  1.00  0.00    -0.129 A  
HETATM   33  C   UNL     1      -8.441   7.007  73.928  1.00  0.00    -0.172 A  
HETATM   34  C   UNL     1      -8.488   6.935  72.530  1.00  0.00    -0.124 A  
HETATM   35  C   UNL     1      -6.515   8.280  72.385  1.00  0.00    -0.085 A  
HETATM   36  C   UNL     1      -7.397   7.674  74.555  1.00  0.00    -0.165 A  
ENDBRANCH  22  31
ENDBRANCH   4  19
ENDBRANCH   2   4
TORSDOF 12
ENDMDL
MODEL      288
REMARK 921   NORMALIZED FREE ENERGY PREDICTED BY IDOCK:   -2.28 KCAL/MOL
REMARK 922        TOTAL FREE ENERGY PREDICTED BY IDOCK:   -5.20 KCAL/MOL
REMARK 923 INTER-LIGAND FREE ENERGY PREDICTED BY IDOCK:   -5.00 KCAL/MOL
REMARK 924 INTRA-LIGAND FREE ENERGY PREDICTED BY IDOCK:   -0.19 KCAL/MOL
REMARK 927      BINDING AFFINITY PREDICTED BY RF-SCORE:    0.00 PKD
ROOT
HETATM    1  C   UNL     1     -11.025  10.119  67.129  1.00  0.00    -0.204 C  
HETATM    2  C   UNL     1     -10.050   9.011  66.725  1.00  0.00    -0.274 C  
HETATM    3  C   UNL     1      -8.615   9.537  66.800  1.00  0.00    -0.133 C  
ENDROOT
BRANCH   2   4
HETATM    4  N   UNL     1     -10.211   7.753  67.493  1.00  0.00    -0.213 NA 
BRANCH   4   5
HETATM    5  C   UNL     1     -11.105   6.671  67.043  1.00  0.00    -0.325 C  
BRANCH   5   6
HETATM    6  C   UNL     1     -10.345   5.406  66.627  1.00  0.00    -0.325 C  
BRANCH   6   7
HETATM    7  C   UNL     1      -9.169   5.670  65.669  1.00  0.00    -0.070 C  
BRANCH   7   8
HETATM    8  C   UNL     1      -7.956   4.760  65.869  1.00  0.00    -0.103 C  
BRANCH   8   9
HETATM    9  O   UNL     1      -6.777   5.557  65.953  1.00  0.00    -0.053 OA 
BRANCH   9  10
HETATM   10  C   UNL     1      -5.904   5.331  64.847  1.00  0.00    -0.021 C  
BRANCH  10  11
HETATM   11  C   UNL     1      -6.001   6.454  63.821  1.00  0.00    -0.023 C  
HETATM   12  O   UNL     1      -5.885   6.245  62.621  1.00  0.00    -0.025 OA 
HETATM   13  N   UNL     1      -6.296   7.716  64.359  1.00  0.00    -0.048 N  
HETATM   14  H   UNL     1      -6.496   7.796  65.355  1.00  0.00     0.000 HD 
BRANCH  13  15
HETATM   15  S   UNL     1      -6.328   9.084  63.415  1.00  0.00    -0.090 S  
HETATM   16  O   UNL     1      -6.383  10.247  64.261  1.00  0.00    -0.132 OA 
HETATM   17  C   UNL     1      -7.925   8.913  62.683  1.00  0.00    -0.145 C  
HETATM   18  O   UNL     1      -5.360   8.927  62.359  1.00  0.00    -0.077 OA 
ENDBRANCH  13  15
ENDBRANCH  10  11
ENDBRANCH   9  10
ENDBRANCH   8   9
ENDBRANCH   7   8
ENDBRANCH   6   7
ENDBRANCH   5   6
ENDBRANCH   4   5
BRANCH   4  19
HETATM   19  C   UNL     1      -9.524   7.684  68.710  1.00  0.00    -0.152 A  
HETATM   20  N   UNL     1      -7.751   8.451  70.208  1.00  0.00    -0.077 NA 
HETATM   21  N   UNL     1      -9.900   6.773  69.637  1.00  0.00    -0.164 NA 
HETATM   22  C   UNL     1      -8.132   7.504  71.121  1.00  0.00    -0.100 A  
HETATM   23  C   UNL     1      -9.238   6.675  70.840  1.00  0.00    -0.157 A  
HETATM   24  C   UNL     1      -8.461   8.513  69.046  1.00  0.00    -0.126 A  
BRANCH  23  25
HETATM   25  C   UNL     1      -9.773   5.599  71.722  1.00  0.00    -0.192 A  
HETATM   26  C   UNL     1      -9.624   4.243  71.372  1.00  0.00    -0.239 A  
HETATM   27  C   UNL     1     -10.601   4.842  73.900  1.00  0.00    -0.342 A  
HETATM   28  C   UNL     1     -10.383   5.856  72.963  1.00  0.00    -0.225 A  
HETATM   29  C   UNL     1     -10.367   3.519  73.554  1.00  0.00    -0.236 A  
HETATM   30  C   UNL     1      -9.934   3.214  72.268  1.00  0.00    -0.236 A  
ENDBRANCH  23  25
BRANCH  22  31
HETATM   31  C   UNL     1      -7.251   7.442  72.333  1.00  0.00    -0.072 A  
HETATM   32  C   UNL     1      -5.554   6.268  73.674  1.00  0.00    -0.045 A  
HETATM   33  C   UNL     1      -6.339   8.416  74.398  1.00  0.00    -0.150 A  
HETATM   34  C   UNL     1      -7.265   8.423  73.346  1.00  0.00    -0.116 A  
HETATM   35  C   UNL     1      -6.399   6.337  72.558  1.00  0.00    -0.058 A  
HETATM   36  C   UNL     1      -5.478   7.338  74.558  1.00  0.00    -0.059 A  
ENDBRANCH  22  31
ENDBRANCH   4  19
ENDBRANCH   2   4
TORSDOF 12
ENDMDL
MODEL      289
REMARK 921   NORMALIZED FREE ENERGY PREDICTED BY IDOCK:   -1.29 KCAL/MOL
REMARK 922        TOTAL FREE ENERGY PREDICTED BY IDOCK:   -3.52 KCAL/MOL
REMARK 923 INTER-LIGAND FREE ENERGY PREDICTED BY IDOCK:   -4.76 KCAL/MOL
REMARK 924 INTRA-LIGAND FREE ENERGY PREDICTED BY IDOCK:    1.24 KCAL/MOL
REMARK 927      BINDING AFFINITY PREDICTED BY RF-SCORE:    0.00 PKD
ROOT
HETATM    1  C   UNL     1      -9.347   9.316  71.480  1.00  0.00    -0.052 C  
HETATM    2  C   UNL     1      -8.475   8.570  70.467  1.00  0.00    -0.137 C  
HETATM    3  C   UNL     1      -7.964   7.268  71.089  1.00  0.00    -0.101 C  
ENDROOT
BRANCH   2   4
HETATM    4  N   UNL     1      -9.135   8.330  69.161  1.00  0.00    -0.147 NA 
BRANCH   4   5
HETATM    5  C   UNL     1     -10.332   9.078  68.741  1.00  0.00    -0.215 C  
BRANCH   5   6
HETATM    6  C   UNL     1     -10.588   8.991  67.231  1.00  0.00    -0.301 C  
BRANCH   6   7
HETATM    7  C   UNL     1      -9.599   9.810  66.381  1.00  0.00    -0.256 C  
BRANCH   7   8
HETATM    8  C   UNL     1     -10.238  10.645  65.272  1.00  0.00    -0.282 C  
BRANCH   8   9
HETATM    9  O   UNL     1      -9.850  12.009  65.424  1.00  0.00    -0.240 OA 
BRANCH   9  10
HETATM   10  C   UNL     1     -10.384  12.583  66.615  1.00  0.00    -0.227 C  
BRANCH  10  11
HETATM   11  C   UNL     1      -9.278  13.088  67.535  1.00  0.00    -0.195 C  
HETATM   12  O   UNL     1      -9.510  13.476  68.672  1.00  0.00    -0.166 OA 
HETATM   13  N   UNL     1      -7.985  13.007  66.997  1.00  0.00    -0.389 N  
HETATM   14  H   UNL     1      -7.853  12.563  66.089  1.00  0.00     0.000 HD 
BRANCH  13  15
HETATM   15  S   UNL     1      -6.663  13.614  67.801  1.00  0.00    -0.175 S  
HETATM   16  O   UNL     1      -6.344  14.917  67.280  1.00  0.00    -0.310 OA 
HETATM   17  C   UNL     1      -5.415  12.512  67.213  1.00  0.00    -0.052 C  
HETATM   18  O   UNL     1      -6.830  13.351  69.208  1.00  0.00    -0.100 OA 
ENDBRANCH  13  15
ENDBRANCH  10  11
ENDBRANCH   9  10
ENDBRANCH   8   9
ENDBRANCH   7   8
ENDBRANCH   6   7
ENDBRANCH   5   6
ENDBRANCH   4   5
BRANCH   4  19
HETATM   19  C   UNL     1      -8.601   7.295  68.385  1.00  0.00    -0.124 A  
HETATM   20  N   UNL     1      -7.650   6.469  66.290  1.00  0.00    -0.088 NA 
HETATM   21  N   UNL     1      -8.504   6.052  68.909  1.00  0.00    -0.116 NA 
HETATM   22  C   UNL     1      -7.585   5.213  66.832  1.00  0.00    -0.088 A  
HETATM   23  C   UNL     1      -7.991   5.011  68.168  1.00  0.00    -0.087 A  
HETATM   24  C   UNL     1      -8.145   7.462  67.084  1.00  0.00    -0.114 A  
BRANCH  23  25
HETATM   25  C   UNL     1      -7.987   3.711  68.898  1.00  0.00    -0.062 A  
HETATM   26  C   UNL     1      -6.776   3.050  69.179  1.00  0.00    -0.037 A  
HETATM   27  C   UNL     1      -9.102   2.066  70.330  1.00  0.00    -0.161 A  
HETATM   28  C   UNL     1      -9.154   3.110  69.401  1.00  0.00    -0.198 A  
HETATM   29  C   UNL     1      -7.884   1.487  70.651  1.00  0.00    -0.037 A  
HETATM   30  C   UNL     1      -6.725   1.940  70.031  1.00  0.00    -0.033 A  
ENDBRANCH  23  25
BRANCH  22  31
HETATM   31  C   UNL     1      -7.111   4.163  65.871  1.00  0.00    -0.067 A  
HETATM   32  C   UNL     1      -7.559   2.635  63.995  1.00  0.00    -0.067 A  
HETATM   33  C   UNL     1      -5.347   2.743  64.915  1.00  0.00    -0.009 A  
HETATM   34  C   UNL     1      -5.810   3.620  65.905  1.00  0.00    -0.019 A  
HETATM   35  C   UNL     1      -7.987   3.603  64.914  1.00  0.00    -0.090 A  
HETATM   36  C   UNL     1      -6.223   2.254  63.955  1.00  0.00    -0.014 A  
ENDBRANCH  22  31
ENDBRANCH   4  19
ENDBRANCH   2   4
TORSDOF 12
ENDMDL
MODEL      290
REMARK 921   NORMALIZED FREE ENERGY PREDICTED BY IDOCK:   -0.12 KCAL/MOL
REMARK 922        TOTAL FREE ENERGY PREDICTED BY IDOCK:   -1.53 KCAL/MOL
REMARK 923 INTER-LIGAND FREE ENERGY PREDICTED BY IDOCK:   -3.00 KCAL/MOL
REMARK 924 INTRA-LIGAND FREE ENERGY PREDICTED BY IDOCK:    1.48 KCAL/MOL
REMARK 927      BINDING AFFINITY PREDICTED BY RF-SCORE:    0.00 PKD
ROOT
HETATM    1  C   UNL     1      -9.679  14.973  71.544  1.00  0.00     2.762 C  
HETATM    2  C   UNL     1     -10.916  15.155  70.661  1.00  0.00    -0.225 C  
HETATM    3  C   UNL     1     -11.923  16.064  71.368  1.00  0.00    -0.507 C  
ENDROOT
BRANCH   2   4
HETATM    4  N   UNL     1     -10.615  15.635  69.290  1.00  0.00    -0.221 NA 
BRANCH   4   5
HETATM    5  C   UNL     1     -10.778  17.047  68.902  1.00  0.00    -0.300 C  
BRANCH   5   6
HETATM    6  C   UNL     1      -9.882  17.993  69.712  1.00  0.00     0.626 C  
BRANCH   6   7
HETATM    7  C   UNL     1      -8.848  18.755  68.863  1.00  0.00    -0.237 C  
BRANCH   7   8
HETATM    8  C   UNL     1      -7.548  17.996  68.595  1.00  0.00    -0.290 C  
BRANCH   8   9
HETATM    9  O   UNL     1      -6.566  18.903  68.098  1.00  0.00    -0.219 OA 
BRANCH   9  10
HETATM   10  C   UNL     1      -6.582  18.975  66.674  1.00  0.00    -0.191 C  
BRANCH  10  11
HETATM   11  C   UNL     1      -7.915  18.500  66.107  1.00  0.00    -0.187 C  
HETATM   12  O   UNL     1      -8.041  17.399  65.587  1.00  0.00    -0.485 OA 
HETATM   13  N   UNL     1      -8.982  19.393  66.290  1.00  0.00    -0.355 N  
HETATM   14  H   UNL     1      -8.831  20.241  66.835  1.00  0.00     0.000 HD 
BRANCH  13  15
HETATM   15  S   UNL     1     -10.485  19.106  65.641  1.00  0.00    -0.007 S  
HETATM   16  O   UNL     1     -10.752  20.072  64.608  1.00  0.00     0.341 OA 
HETATM   17  C   UNL     1     -11.501  19.541  67.017  1.00  0.00     0.615 C  
HETATM   18  O   UNL     1     -10.627  17.686  65.442  1.00  0.00    -0.657 OA 
ENDBRANCH  13  15
ENDBRANCH  10  11
ENDBRANCH   9  10
ENDBRANCH   8   9
ENDBRANCH   7   8
ENDBRANCH   6   7
ENDBRANCH   5   6
ENDBRANCH   4   5
BRANCH   4  19
HETATM   19  C   UNL     1     -10.243  14.654  68.365  1.00  0.00    -0.235 A  
HETATM   20  N   UNL     1      -9.551  13.992  66.115  1.00  0.00    -0.272 NA 
HETATM   21  N   UNL     1     -10.212  13.356  68.746  1.00  0.00    -0.174 NA 
HETATM   22  C   UNL     1      -9.551  12.682  66.516  1.00  0.00    -0.248 A  
HETATM   23  C   UNL     1      -9.859  12.366  67.856  1.00  0.00    -0.202 A  
HETATM   24  C   UNL     1      -9.886  14.927  67.050  1.00  0.00    -0.237 A  
BRANCH  23  25
HETATM   25  C   UNL     1      -9.908  10.998  68.444  1.00  0.00    -0.186 A  
HETATM   26  C   UNL     1      -8.755  10.418  69.009  1.00  0.00    -0.170 A  
HETATM   27  C   UNL     1     -11.180   9.110  69.349  1.00  0.00     0.065 A  
HETATM   28  C   UNL     1     -11.091  10.243  68.535  1.00  0.00    -0.294 A  
HETATM   29  C   UNL     1     -10.041   8.606  69.960  1.00  0.00    -0.195 A  
HETATM   30  C   UNL     1      -8.816   9.227  69.743  1.00  0.00    -0.174 A  
ENDBRANCH  23  25
BRANCH  22  31
HETATM   31  C   UNL     1      -9.256  11.711  65.412  1.00  0.00    -0.077 A  
HETATM   32  C   UNL     1      -7.846   9.933  64.460  1.00  0.00    -0.142 A  
HETATM   33  C   UNL     1      -9.813  10.629  63.276  1.00  0.00    -0.364 A  
HETATM   34  C   UNL     1     -10.023  11.632  64.231  1.00  0.00    -0.303 A  
HETATM   35  C   UNL     1      -8.129  10.861  65.472  1.00  0.00    -0.025 A  
HETATM   36  C   UNL     1      -8.725   9.773  63.395  1.00  0.00    -0.235 A  
ENDBRANCH  22  31
ENDBRANCH   4  19
ENDBRANCH   2   4
TORSDOF 12
ENDMDL
MODEL      291
REMARK 921   NORMALIZED FREE ENERGY PREDICTED BY IDOCK:    0.18 KCAL/MOL
REMARK 922        TOTAL FREE ENERGY PREDICTED BY IDOCK:   -1.01 KCAL/MOL
REMARK 923 INTER-LIGAND FREE ENERGY PREDICTED BY IDOCK:   -2.78 KCAL/MOL
REMARK 924 INTRA-LIGAND FREE ENERGY PREDICTED BY IDOCK:    1.77 KCAL/MOL
REMARK 927      BINDING AFFINITY PREDICTED BY RF-SCORE:    0.00 PKD
ROOT
HETATM    1  C   UNL     1     -11.165  10.683  66.387  1.00  0.00     0.192 C  
HETATM    2  C   UNL     1     -10.071   9.613  66.347  1.00  0.00    -0.247 C  
HETATM    3  C   UNL     1      -8.698  10.278  66.463  1.00  0.00    -0.139 C  
ENDROOT
BRANCH   2   4
HETATM    4  N   UNL     1     -10.243   8.534  67.349  1.00  0.00    -0.239 NA 
BRANCH   4   5
HETATM    5  C   UNL     1     -11.229   7.453  67.173  1.00  0.00     0.269 C  
BRANCH   5   6
HETATM    6  C   UNL     1     -10.576   6.073  67.020  1.00  0.00    -0.385 C  
BRANCH   6   7
HETATM    7  C   UNL     1      -9.116   6.123  66.533  1.00  0.00    -0.156 C  
BRANCH   7   8
HETATM    8  C   UNL     1      -8.121   5.345  67.395  1.00  0.00    -0.101 C  
BRANCH   8   9
HETATM    9  O   UNL     1      -7.031   6.196  67.743  1.00  0.00    -0.067 OA 
BRANCH   9  10
HETATM   10  C   UNL     1      -5.905   5.990  66.891  1.00  0.00    -0.017 C  
BRANCH  10  11
HETATM   11  C   UNL     1      -6.336   5.624  65.476  1.00  0.00    -0.038 C  
HETATM   12  O   UNL     1      -6.395   4.461  65.098  1.00  0.00    -0.033 OA 
HETATM   13  N   UNL     1      -6.716   6.713  64.678  1.00  0.00    -0.041 N  
HETATM   14  H   UNL     1      -6.755   7.643  65.094  1.00  0.00     0.000 HD 
BRANCH  13  15
HETATM   15  S   UNL     1      -7.106   6.530  63.073  1.00  0.00    -0.054 S  
HETATM   16  O   UNL     1      -7.706   5.238  62.871  1.00  0.00    -0.064 OA 
HETATM   17  C   UNL     1      -5.488   6.453  62.372  1.00  0.00    -0.023 C  
HETATM   18  O   UNL     1      -7.708   7.755  62.611  1.00  0.00    -0.114 OA 
ENDBRANCH  13  15
ENDBRANCH  10  11
ENDBRANCH   9  10
ENDBRANCH   8   9
ENDBRANCH   7   8
ENDBRANCH   6   7
ENDBRANCH   5   6
ENDBRANCH   4   5
BRANCH   4  19
HETATM   19  C   UNL     1      -9.469   8.646  68.510  1.00  0.00    -0.142 A  
HETATM   20  N   UNL     1      -7.528   9.526  69.706  1.00  0.00    -0.084 NA 
HETATM   21  N   UNL     1      -9.841   7.977  69.625  1.00  0.00    -0.181 NA 
HETATM   22  C   UNL     1      -7.909   8.820  70.816  1.00  0.00    -0.109 A  
HETATM   23  C   UNL     1      -9.096   8.059  70.780  1.00  0.00    -0.145 A  
HETATM   24  C   UNL     1      -8.321   9.422  68.602  1.00  0.00    -0.117 A  
BRANCH  23  25
HETATM   25  C   UNL     1      -9.642   7.235  71.896  1.00  0.00    -0.164 A  
HETATM   26  C   UNL     1      -9.360   5.858  71.976  1.00  0.00    -0.160 A  
HETATM   27  C   UNL     1     -10.639   7.059  74.126  1.00  0.00     0.118 A  
HETATM   28  C   UNL     1     -10.398   7.777  72.951  1.00  0.00    -0.396 A  
HETATM   29  C   UNL     1     -10.276   5.723  74.208  1.00  0.00    -0.294 A  
HETATM   30  C   UNL     1      -9.688   5.105  73.110  1.00  0.00    -0.165 A  
ENDBRANCH  23  25
BRANCH  22  31
HETATM   31  C   UNL     1      -6.942   8.918  71.958  1.00  0.00     0.023 A  
HETATM   32  C   UNL     1      -5.140  10.121  73.126  1.00  0.00     0.074 A  
HETATM   33  C   UNL     1      -6.008   8.099  74.079  1.00  0.00    -0.095 A  
HETATM   34  C   UNL     1      -6.818   7.923  72.950  1.00  0.00    -0.092 A  
HETATM   35  C   UNL     1      -6.039  10.001  72.056  1.00  0.00     0.528 A  
HETATM   36  C   UNL     1      -5.172   9.204  74.169  1.00  0.00    -0.117 A  
ENDBRANCH  22  31
ENDBRANCH   4  19
ENDBRANCH   2   4
TORSDOF 12
ENDMDL
MODEL      292
REMARK 921   NORMALIZED FREE ENERGY PREDICTED BY IDOCK:    0.62 KCAL/MOL
REMARK 922        TOTAL FREE ENERGY PREDICTED BY IDOCK:   -0.26 KCAL/MOL
REMARK 923 INTER-LIGAND FREE ENERGY PREDICTED BY IDOCK:   -1.70 KCAL/MOL
REMARK 924 INTRA-LIGAND FREE ENERGY PREDICTED BY IDOCK:    1.44 KCAL/MOL
REMARK 927      BINDING AFFINITY PREDICTED BY RF-SCORE:    0.00 PKD
ROOT
HETATM    1  C   UNL     1     -12.114  18.571  67.332  1.00  0.00     3.133 C  
HETATM    2  C   UNL     1     -10.998  17.561  67.059  1.00  0.00     0.080 C  
HETATM    3  C   UNL     1     -10.350  17.863  65.706  1.00  0.00    -0.182 C  
ENDROOT
BRANCH   2   4
HETATM    4  N   UNL     1      -9.988  17.467  68.140  1.00  0.00    -0.291 NA 
BRANCH   4   5
HETATM    5  C   UNL     1      -9.682  18.604  69.026  1.00  0.00    -0.259 C  
BRANCH   5   6
HETATM    6  C   UNL     1      -8.376  19.316  68.649  1.00  0.00    -0.407 C  
BRANCH   6   7
HETATM    7  C   UNL     1      -7.380  19.452  69.815  1.00  0.00     0.066 C  
BRANCH   7   8
HETATM    8  C   UNL     1      -5.917  19.607  69.399  1.00  0.00    -0.269 C  
BRANCH   8   9
HETATM    9  O   UNL     1      -5.658  20.974  69.083  1.00  0.00    -0.364 OA 
BRANCH   9  10
HETATM   10  C   UNL     1      -6.313  21.373  67.880  1.00  0.00    -0.097 C  
BRANCH  10  11
HETATM   11  C   UNL     1      -5.901  20.497  66.703  1.00  0.00    -0.180 C  
HETATM   12  O   UNL     1      -5.167  20.909  65.815  1.00  0.00    -0.184 OA 
HETATM   13  N   UNL     1      -6.376  19.177  66.760  1.00  0.00    -0.186 N  
HETATM   14  H   UNL     1      -6.886  18.869  67.587  1.00  0.00     0.000 HD 
BRANCH  13  15
HETATM   15  S   UNL     1      -6.131  18.104  65.515  1.00  0.00    -0.171 S  
HETATM   16  O   UNL     1      -7.383  17.489  65.161  1.00  0.00     0.427 OA 
HETATM   17  C   UNL     1      -5.180  16.876  66.352  1.00  0.00     0.106 C  
HETATM   18  O   UNL     1      -5.262  18.726  64.548  1.00  0.00    -0.177 OA 
ENDBRANCH  13  15
ENDBRANCH  10  11
ENDBRANCH   9  10
ENDBRANCH   8   9
ENDBRANCH   7   8
ENDBRANCH   6   7
ENDBRANCH   5   6
ENDBRANCH   4   5
BRANCH   4  19
HETATM   19  C   UNL     1      -9.285  16.260  68.220  1.00  0.00    -0.197 A  
HETATM   20  N   UNL     1      -7.282  14.989  68.812  1.00  0.00    -0.117 NA 
HETATM   21  N   UNL     1      -9.863  15.121  67.772  1.00  0.00    -0.222 NA 
HETATM   22  C   UNL     1      -7.877  13.854  68.328  1.00  0.00    -0.146 A  
HETATM   23  C   UNL     1      -9.194  13.919  67.828  1.00  0.00    -0.197 A  
HETATM   24  C   UNL     1      -8.006  16.143  68.749  1.00  0.00    -0.216 A  
BRANCH  23  25
HETATM   25  C   UNL     1      -9.974  12.782  67.265  1.00  0.00    -0.219 A  
HETATM   26  C   UNL     1     -10.360  12.776  65.910  1.00  0.00    -0.298 A  
HETATM   27  C   UNL     1     -10.768  10.468  67.396  1.00  0.00    -0.334 A  
HETATM   28  C   UNL     1     -10.310  11.637  68.010  1.00  0.00    -0.208 A  
HETATM   29  C   UNL     1     -11.063  10.468  66.041  1.00  0.00     0.241 A  
HETATM   30  C   UNL     1     -10.913  11.640  65.308  1.00  0.00    -0.327 A  
ENDBRANCH  23  25
BRANCH  22  31
HETATM   31  C   UNL     1      -6.987  12.647  68.353  1.00  0.00    -0.094 A  
HETATM   32  C   UNL     1      -5.950  10.741  67.192  1.00  0.00    -0.062 A  
HETATM   33  C   UNL     1      -5.424  11.134  69.499  1.00  0.00    -0.046 A  
HETATM   34  C   UNL     1      -6.356  12.180  69.525  1.00  0.00    -0.122 A  
HETATM   35  C   UNL     1      -6.792  11.861  67.194  1.00  0.00    -0.144 A  
HETATM   36  C   UNL     1      -5.216  10.417  68.328  1.00  0.00    -0.034 A  
ENDBRANCH  22  31
ENDBRANCH   4  19
ENDBRANCH   2   4
TORSDOF 12
ENDMDL
MODEL      293
REMARK 921   NORMALIZED FREE ENERGY PREDICTED BY IDOCK:    1.23 KCAL/MOL
REMARK 922        TOTAL FREE ENERGY PREDICTED BY IDOCK:    0.77 KCAL/MOL
REMARK 923 INTER-LIGAND FREE ENERGY PREDICTED BY IDOCK:   -0.66 KCAL/MOL
REMARK 924 INTRA-LIGAND FREE ENERGY PREDICTED BY IDOCK:    1.43 KCAL/MOL
REMARK 927      BINDING AFFINITY PREDICTED BY RF-SCORE:    0.00 PKD
ROOT
HETATM    1  C   UNL     1      -9.585  15.250  65.142  1.00  0.00     0.134 C  
HETATM    2  C   UNL     1      -8.460  14.574  65.927  1.00  0.00     1.372 C  
HETATM    3  C   UNL     1      -7.619  15.637  66.639  1.00  0.00     0.007 C  
ENDROOT
BRANCH   2   4
HETATM    4  N   UNL     1      -8.922  13.524  66.866  1.00  0.00    -0.229 NA 
BRANCH   4   5
HETATM    5  C   UNL     1      -8.713  12.090  66.600  1.00  0.00    -0.171 C  
BRANCH   5   6
HETATM    6  C   UNL     1     -10.028  11.306  66.501  1.00  0.00    -0.247 C  
BRANCH   6   7
HETATM    7  C   UNL     1     -10.062  10.286  65.348  1.00  0.00    -0.354 C  
BRANCH   7   8
HETATM    8  C   UNL     1      -8.798   9.439  65.198  1.00  0.00    -0.195 C  
BRANCH   8   9
HETATM    9  O   UNL     1      -8.252   9.171  66.488  1.00  0.00    -0.109 OA 
BRANCH   9  10
HETATM   10  C   UNL     1      -8.882   8.053  67.110  1.00  0.00    -0.131 C  
BRANCH  10  11
HETATM   11  C   UNL     1      -9.723   8.480  68.307  1.00  0.00    -0.155 C  
HETATM   12  O   UNL     1     -10.864   8.901  68.179  1.00  0.00    -0.136 OA 
HETATM   13  N   UNL     1      -9.107   8.289  69.554  1.00  0.00    -0.153 N  
HETATM   14  H   UNL     1      -8.200   7.825  69.593  1.00  0.00     0.000 HD 
BRANCH  13  15
HETATM   15  S   UNL     1      -9.815   8.800  70.968  1.00  0.00    -0.255 S  
HETATM   16  O   UNL     1      -8.811   8.916  71.992  1.00  0.00    -0.367 OA 
HETATM   17  C   UNL     1     -10.778   7.373  71.360  1.00  0.00    -0.219 C  
HETATM   18  O   UNL     1     -10.740   9.860  70.653  1.00  0.00    -0.296 OA 
ENDBRANCH  13  15
ENDBRANCH  10  11
ENDBRANCH   9  10
ENDBRANCH   8   9
ENDBRANCH   7   8
ENDBRANCH   6   7
ENDBRANCH   5   6
ENDBRANCH   4   5
BRANCH   4  19
HETATM   19  C   UNL     1      -9.640  13.971  67.981  1.00  0.00    -0.217 A  
HETATM   20  N   UNL     1     -11.089  13.538  69.902  1.00  0.00     0.078 NA 
HETATM   21  N   UNL     1      -9.651  15.290  68.281  1.00  0.00    -0.203 NA 
HETATM   22  C   UNL     1     -11.106  14.881  70.172  1.00  0.00    -0.213 A  
HETATM   23  C   UNL     1     -10.354  15.761  69.367  1.00  0.00    -0.263 A  
HETATM   24  C   UNL     1     -10.353  13.132  68.828  1.00  0.00    -0.130 A  
BRANCH  23  25
HETATM   25  C   UNL     1     -10.274  17.241  69.526  1.00  0.00    -0.046 A  
HETATM   26  C   UNL     1     -10.039  18.071  68.412  1.00  0.00    -0.392 A  
HETATM   27  C   UNL     1     -10.707  19.273  70.823  1.00  0.00     2.656 A  
HETATM   28  C   UNL     1     -10.489  17.895  70.752  1.00  0.00     2.146 A  
HETATM   29  C   UNL     1     -10.549  20.058  69.690  1.00  0.00     0.492 A  
HETATM   30  C   UNL     1     -10.157  19.463  68.495  1.00  0.00    -0.527 A  
ENDBRANCH  23  25
BRANCH  22  31
HETATM   31  C   UNL     1     -12.003  15.257  71.315  1.00  0.00    -0.409 A  
HETATM   32  C   UNL     1     -12.310  15.772  73.701  1.00  0.00    -0.689 A  
HETATM   33  C   UNL     1     -14.196  15.898  72.224  1.00  0.00    -0.235 A  
HETATM   34  C   UNL     1     -13.398  15.415  71.178  1.00  0.00    -0.580 A  
HETATM   35  C   UNL     1     -11.493  15.403  72.624  1.00  0.00    -0.401 A  
HETATM   36  C   UNL     1     -13.648  16.082  73.487  1.00  0.00    -0.223 A  
ENDBRANCH  22  31
ENDBRANCH   4  19
ENDBRANCH   2   4
TORSDOF 12
ENDMDL
MODEL      294
REMARK 921   NORMALIZED FREE ENERGY PREDICTED BY IDOCK:    1.43 KCAL/MOL
REMARK 922        TOTAL FREE ENERGY PREDICTED BY IDOCK:    1.12 KCAL/MOL
REMARK 923 INTER-LIGAND FREE ENERGY PREDICTED BY IDOCK:   -1.11 KCAL/MOL
REMARK 924 INTRA-LIGAND FREE ENERGY PREDICTED BY IDOCK:    2.23 KCAL/MOL
REMARK 927      BINDING AFFINITY PREDICTED BY RF-SCORE:    0.00 PKD
ROOT
HETATM    1  C   UNL     1      -5.693  11.238  66.660  1.00  0.00    -0.130 C  
HETATM    2  C   UNL     1      -6.329   9.900  66.278  1.00  0.00    -0.072 C  
HETATM    3  C   UNL     1      -6.072   8.874  67.383  1.00  0.00    -0.051 C  
ENDROOT
BRANCH   2   4
HETATM    4  N   UNL     1      -7.770   9.989  65.939  1.00  0.00    -0.111 NA 
BRANCH   4   5
HETATM    5  C   UNL     1      -8.361   9.224  64.827  1.00  0.00    -0.162 C  
BRANCH   5   6
HETATM    6  C   UNL     1      -9.844   8.899  65.052  1.00  0.00     0.787 C  
BRANCH   6   7
HETATM    7  C   UNL     1     -10.807   9.983  64.536  1.00  0.00     1.880 C  
BRANCH   7   8
HETATM    8  C   UNL     1     -10.611  10.377  63.072  1.00  0.00     1.032 C  
BRANCH   8   9
HETATM    9  O   UNL     1      -9.304  10.921  62.900  1.00  0.00    -0.280 OA 
BRANCH   9  10
HETATM   10  C   UNL     1      -9.289  12.335  63.085  1.00  0.00     0.881 C  
BRANCH  10  11
HETATM   11  C   UNL     1     -10.661  12.858  63.495  1.00  0.00    -0.062 C  
HETATM   12  O   UNL     1     -11.688  12.237  63.255  1.00  0.00    -0.433 OA 
HETATM   13  N   UNL     1     -10.639  14.061  64.217  1.00  0.00    -0.547 N  
HETATM   14  H   UNL     1      -9.740  14.463  64.483  1.00  0.00     0.000 HD 
BRANCH  13  15
HETATM   15  S   UNL     1     -12.036  14.848  64.651  1.00  0.00    -0.309 S  
HETATM   16  O   UNL     1     -12.428  15.744  63.596  1.00  0.00    -0.537 OA 
HETATM   17  C   UNL     1     -11.426  15.852  65.968  1.00  0.00     0.360 C  
HETATM   18  O   UNL     1     -12.935  13.884  65.236  1.00  0.00    -0.747 OA 
ENDBRANCH  13  15
ENDBRANCH  10  11
ENDBRANCH   9  10
ENDBRANCH   8   9
ENDBRANCH   7   8
ENDBRANCH   6   7
ENDBRANCH   5   6
ENDBRANCH   4   5
BRANCH   4  19
HETATM   19  C   UNL     1      -8.520  10.902  66.688  1.00  0.00    -0.151 A  
HETATM   20  N   UNL     1      -9.205  13.193  67.199  1.00  0.00    -0.219 NA 
HETATM   21  N   UNL     1      -9.316  10.452  67.685  1.00  0.00    -0.148 NA 
HETATM   22  C   UNL     1      -9.983  12.717  68.220  1.00  0.00    -0.229 A  
HETATM   23  C   UNL     1     -10.060  11.327  68.446  1.00  0.00    -0.195 A  
HETATM   24  C   UNL     1      -8.512  12.274  66.468  1.00  0.00     0.015 A  
BRANCH  23  25
HETATM   25  C   UNL     1     -10.853  10.654  69.513  1.00  0.00    -0.303 A  
HETATM   26  C   UNL     1     -10.209   9.985  70.572  1.00  0.00    -0.160 A  
HETATM   27  C   UNL     1     -12.959  10.332  70.722  1.00  0.00    -0.408 A  
HETATM   28  C   UNL     1     -12.257  10.701  69.571  1.00  0.00    -0.230 A  
HETATM   29  C   UNL     1     -12.286   9.748  71.785  1.00  0.00    -0.470 A  
HETATM   30  C   UNL     1     -10.918   9.521  71.686  1.00  0.00    -0.285 A  
ENDBRANCH  23  25
BRANCH  22  31
HETATM   31  C   UNL     1     -10.645  13.793  69.030  1.00  0.00    -0.161 A  
HETATM   32  C   UNL     1     -10.677  15.253  71.011  1.00  0.00    -0.058 A  
HETATM   33  C   UNL     1     -12.412  15.468  69.369  1.00  0.00    -0.030 A  
HETATM   34  C   UNL     1     -11.881  14.372  68.676  1.00  0.00    -0.366 A  
HETATM   35  C   UNL     1     -10.085  14.235  70.249  1.00  0.00     1.163 A  
HETATM   36  C   UNL     1     -11.805  15.912  70.536  1.00  0.00    -0.374 A  
ENDBRANCH  22  31
ENDBRANCH   4  19
ENDBRANCH   2   4
TORSDOF 12
ENDMDL
MODEL      295
REMARK 921   NORMALIZED FREE ENERGY PREDICTED BY IDOCK:    2.41 KCAL/MOL
REMARK 922        TOTAL FREE ENERGY PREDICTED BY IDOCK:    2.79 KCAL/MOL
REMARK 923 INTER-LIGAND FREE ENERGY PREDICTED BY IDOCK:    0.39 KCAL/MOL
REMARK 924 INTRA-LIGAND FREE ENERGY PREDICTED BY IDOCK:    2.39 KCAL/MOL
REMARK 927      BINDING AFFINITY PREDICTED BY RF-SCORE:    0.00 PKD
ROOT
HETATM    1  C   UNL     1      -8.422   5.159  66.577  1.00  0.00    -0.111 C  
HETATM    2  C   UNL     1      -8.192   6.343  65.636  1.00  0.00    -0.140 C  
HETATM    3  C   UNL     1      -9.234   6.321  64.517  1.00  0.00     0.983 C  
ENDROOT
BRANCH   2   4
HETATM    4  N   UNL     1      -8.150   7.659  66.318  1.00  0.00    -0.107 NA 
BRANCH   4   5
HETATM    5  C   UNL     1      -8.473   8.914  65.617  1.00  0.00    -0.157 C  
BRANCH   5   6
HETATM    6  C   UNL     1      -9.866   8.894  64.975  1.00  0.00     0.787 C  
BRANCH   6   7
HETATM    7  C   UNL     1     -11.022   9.006  65.986  1.00  0.00     1.704 C  
BRANCH   7   8
HETATM    8  C   UNL     1     -11.392  10.434  66.387  1.00  0.00     0.684 C  
BRANCH   8   9
HETATM    9  O   UNL     1     -10.879  10.707  67.690  1.00  0.00    -0.248 OA 
BRANCH   9  10
HETATM   10  C   UNL     1      -9.555  11.236  67.638  1.00  0.00    -0.171 C  
BRANCH  10  11
HETATM   11  C   UNL     1      -9.548  12.744  67.858  1.00  0.00    -0.211 C  
HETATM   12  O   UNL     1      -8.840  13.270  68.706  1.00  0.00    -0.021 OA 
HETATM   13  N   UNL     1     -10.360  13.470  66.973  1.00  0.00    -0.251 N  
HETATM   14  H   UNL     1     -10.832  12.977  66.216  1.00  0.00     0.000 HD 
BRANCH  13  15
HETATM   15  S   UNL     1     -10.574  15.111  67.127  1.00  0.00    -0.300 S  
HETATM   16  O   UNL     1     -11.581  15.370  68.122  1.00  0.00    -0.347 OA 
HETATM   17  C   UNL     1     -11.303  15.472  65.561  1.00  0.00    -0.095 C  
HETATM   18  O   UNL     1      -9.276  15.736  67.144  1.00  0.00    -0.202 OA 
ENDBRANCH  13  15
ENDBRANCH  10  11
ENDBRANCH   9  10
ENDBRANCH   8   9
ENDBRANCH   7   8
ENDBRANCH   6   7
ENDBRANCH   5   6
ENDBRANCH   4   5
BRANCH   4  19
HETATM   19  C   UNL     1      -7.708   7.648  67.646  1.00  0.00    -0.122 A  
HETATM   20  N   UNL     1      -7.381   6.499  69.779  1.00  0.00    -0.077 NA 
HETATM   21  N   UNL     1      -7.176   8.771  68.180  1.00  0.00    -0.082 NA 
HETATM   22  C   UNL     1      -6.870   7.655  70.306  1.00  0.00    -0.047 A  
HETATM   23  C   UNL     1      -6.741   8.795  69.487  1.00  0.00    -0.047 A  
HETATM   24  C   UNL     1      -7.772   6.534  68.473  1.00  0.00    -0.105 A  
BRANCH  23  25
HETATM   25  C   UNL     1      -6.211  10.122  69.909  1.00  0.00    -0.063 A  
HETATM   26  C   UNL     1      -6.463  11.274  69.138  1.00  0.00    -0.081 A  
HETATM   27  C   UNL     1      -5.281  11.598  71.629  1.00  0.00     0.091 A  
HETATM   28  C   UNL     1      -5.502  10.320  71.108  1.00  0.00    -0.080 A  
HETATM   29  C   UNL     1      -5.615  12.717  70.881  1.00  0.00    -0.154 A  
HETATM   30  C   UNL     1      -6.153  12.555  69.609  1.00  0.00    -0.133 A  
ENDBRANCH  23  25
BRANCH  22  31
HETATM   31  C   UNL     1      -6.543   7.560  71.768  1.00  0.00    -0.042 A  
HETATM   32  C   UNL     1      -5.259   6.539  73.602  1.00  0.00    -0.041 A  
HETATM   33  C   UNL     1      -6.788   8.321  74.093  1.00  0.00    -0.170 A  
HETATM   34  C   UNL     1      -7.201   8.324  72.754  1.00  0.00    -0.136 A  
HETATM   35  C   UNL     1      -5.592   6.629  72.243  1.00  0.00    -0.037 A  
HETATM   36  C   UNL     1      -5.810   7.430  74.515  1.00  0.00    -0.077 A  
ENDBRANCH  22  31
ENDBRANCH   4  19
ENDBRANCH   2   4
TORSDOF 12
ENDMDL
MODEL      296
REMARK 921   NORMALIZED FREE ENERGY PREDICTED BY IDOCK:    2.88 KCAL/MOL
REMARK 922        TOTAL FREE ENERGY PREDICTED BY IDOCK:    3.59 KCAL/MOL
REMARK 923 INTER-LIGAND FREE ENERGY PREDICTED BY IDOCK:   -2.40 KCAL/MOL
REMARK 924 INTRA-LIGAND FREE ENERGY PREDICTED BY IDOCK:    5.98 KCAL/MOL
REMARK 927      BINDING AFFINITY PREDICTED BY RF-SCORE:    0.00 PKD
ROOT
HETATM    1  C   UNL     1      -9.911   8.575  72.967  1.00  0.00    -0.004 C  
HETATM    2  C   UNL     1     -11.008   8.794  71.923  1.00  0.00    -0.365 C  
HETATM    3  C   UNL     1     -11.146  10.288  71.626  1.00  0.00     0.874 C  
ENDROOT
BRANCH   2   4
HETATM    4  N   UNL     1     -10.828   8.004  70.681  1.00  0.00    -0.230 NA 
BRANCH   4   5
HETATM    5  C   UNL     1     -10.509   6.566  70.708  1.00  0.00    -0.220 C  
BRANCH   5   6
HETATM    6  C   UNL     1      -9.020   6.293  70.957  1.00  0.00    -0.143 C  
BRANCH   6   7
HETATM    7  C   UNL     1      -8.074   7.233  70.188  1.00  0.00    -0.129 C  
BRANCH   7   8
HETATM    8  C   UNL     1      -6.590   6.884  70.293  1.00  0.00    -0.048 C  
BRANCH   8   9
HETATM    9  O   UNL     1      -6.173   6.226  69.098  1.00  0.00    -0.030 OA 
BRANCH   9  10
HETATM   10  C   UNL     1      -6.534   4.846  69.099  1.00  0.00    -0.039 C  
BRANCH  10  11
HETATM   11  C   UNL     1      -7.568   4.540  68.021  1.00  0.00    -0.077 C  
HETATM   12  O   UNL     1      -7.431   3.610  67.239  1.00  0.00    -0.069 OA 
HETATM   13  N   UNL     1      -8.704   5.364  68.047  1.00  0.00    -0.106 N  
HETATM   14  H   UNL     1      -8.806   6.044  68.800  1.00  0.00     0.000 HD 
BRANCH  13  15
HETATM   15  S   UNL     1      -9.886   5.262  66.883  1.00  0.00    -0.193 S  
HETATM   16  O   UNL     1      -9.502   4.290  65.895  1.00  0.00    -0.149 OA 
HETATM   17  C   UNL     1      -9.712   6.848  66.130  1.00  0.00     0.112 C  
HETATM   18  O   UNL     1     -11.168   5.246  67.543  1.00  0.00     0.493 OA 
ENDBRANCH  13  15
ENDBRANCH  10  11
ENDBRANCH   9  10
ENDBRANCH   8   9
ENDBRANCH   7   8
ENDBRANCH   6   7
ENDBRANCH   5   6
ENDBRANCH   4   5
BRANCH   4  19
HETATM   19  C   UNL     1     -10.902   8.721  69.482  1.00  0.00    -0.142 A  
HETATM   20  N   UNL     1     -11.057   8.796  67.044  1.00  0.00     0.276 NA 
HETATM   21  N   UNL     1     -10.869  10.074  69.512  1.00  0.00    -0.239 NA 
HETATM   22  C   UNL     1     -10.997  10.163  67.096  1.00  0.00    -0.134 A  
HETATM   23  C   UNL     1     -10.930  10.808  68.349  1.00  0.00    -0.248 A  
HETATM   24  C   UNL     1     -11.016   8.128  68.231  1.00  0.00     0.226 A  
BRANCH  23  25
HETATM   25  C   UNL     1     -10.854  12.279  68.574  1.00  0.00    -0.267 A  
HETATM   26  C   UNL     1      -9.930  13.068  67.861  1.00  0.00    -0.230 A  
HETATM   27  C   UNL     1     -11.836  14.362  69.409  1.00  0.00    -0.369 A  
HETATM   28  C   UNL     1     -11.722  12.969  69.439  1.00  0.00    -0.386 A  
HETATM   29  C   UNL     1     -10.964  15.111  68.633  1.00  0.00    -0.256 A  
HETATM   30  C   UNL     1      -9.971  14.466  67.903  1.00  0.00    -0.228 A  
ENDBRANCH  23  25
BRANCH  22  31
HETATM   31  C   UNL     1     -10.960  10.820  65.748  1.00  0.00     0.021 A  
HETATM   32  C   UNL     1     -11.224  12.827  64.348  1.00  0.00    -0.390 A  
HETATM   33  C   UNL     1     -10.530  10.770  63.328  1.00  0.00    -0.019 A  
HETATM   34  C   UNL     1     -10.694  10.115  64.556  1.00  0.00     1.074 A  
HETATM   35  C   UNL     1     -11.270  12.190  65.597  1.00  0.00    -0.381 A  
HETATM   36  C   UNL     1     -10.790  12.131  63.226  1.00  0.00    -0.381 A  
ENDBRANCH  22  31
ENDBRANCH   4  19
ENDBRANCH   2   4
TORSDOF 12
ENDMDL
MODEL      297
REMARK 921   NORMALIZED FREE ENERGY PREDICTED BY IDOCK:    2.98 KCAL/MOL
REMARK 922        TOTAL FREE ENERGY PREDICTED BY IDOCK:    3.75 KCAL/MOL
REMARK 923 INTER-LIGAND FREE ENERGY PREDICTED BY IDOCK:    0.61 KCAL/MOL
REMARK 924 INTRA-LIGAND FREE ENERGY PREDICTED BY IDOCK:    3.13 KCAL/MOL
REMARK 927      BINDING AFFINITY PREDICTED BY RF-SCORE:    0.00 PKD
ROOT
HETATM    1  C   UNL     1     -11.251   3.999  68.934  1.00  0.00     5.420 C  
HETATM    2  C   UNL     1      -9.732   3.883  69.070  1.00  0.00    -0.059 C  
HETATM    3  C   UNL     1      -9.325   2.409  69.051  1.00  0.00    -0.203 C  
ENDROOT
BRANCH   2   4
HETATM    4  N   UNL     1      -8.972   4.673  68.071  1.00  0.00    -0.110 NA 
BRANCH   4   5
HETATM    5  C   UNL     1      -7.865   4.092  67.292  1.00  0.00    -0.091 C  
BRANCH   5   6
HETATM    6  C   UNL     1      -7.160   2.944  68.027  1.00  0.00    -0.049 C  
BRANCH   6   7
HETATM    7  C   UNL     1      -6.338   3.395  69.248  1.00  0.00    -0.029 C  
BRANCH   7   8
HETATM    8  C   UNL     1      -5.134   4.280  68.924  1.00  0.00     0.000 C  
BRANCH   8   9
HETATM    9  O   UNL     1      -5.488   5.649  69.115  1.00  0.00    -0.007 OA 
BRANCH   9  10
HETATM   10  C   UNL     1      -6.836   5.791  69.559  1.00  0.00    -0.061 C  
BRANCH  10  11
HETATM   11  C   UNL     1      -6.911   6.530  70.889  1.00  0.00    -0.063 C  
HETATM   12  O   UNL     1      -5.908   6.949  71.453  1.00  0.00    -0.035 OA 
HETATM   13  N   UNL     1      -8.212   6.744  71.370  1.00  0.00    -0.111 N  
HETATM   14  H   UNL     1      -9.005   6.472  70.791  1.00  0.00     0.000 HD 
BRANCH  13  15
HETATM   15  S   UNL     1      -8.494   7.429  72.858  1.00  0.00    -0.122 S  
HETATM   16  O   UNL     1      -8.247   6.455  73.887  1.00  0.00    -0.108 OA 
HETATM   17  C   UNL     1     -10.243   7.643  72.769  1.00  0.00    -0.279 C  
HETATM   18  O   UNL     1      -7.907   8.746  72.867  1.00  0.00    -0.381 OA 
ENDBRANCH  13  15
ENDBRANCH  10  11
ENDBRANCH   9  10
ENDBRANCH   8   9
ENDBRANCH   7   8
ENDBRANCH   6   7
ENDBRANCH   5   6
ENDBRANCH   4   5
BRANCH   4  19
HETATM   19  C   UNL     1      -9.318   6.025  67.967  1.00  0.00    -0.114 A  
HETATM   20  N   UNL     1     -10.757   7.913  68.550  1.00  0.00    -0.091 NA 
HETATM   21  N   UNL     1      -8.593   6.838  67.164  1.00  0.00    -0.119 NA 
HETATM   22  C   UNL     1     -10.025   8.711  67.712  1.00  0.00    -0.190 A  
HETATM   23  C   UNL     1      -8.913   8.171  67.034  1.00  0.00    -0.141 A  
HETATM   24  C   UNL     1     -10.375   6.608  68.654  1.00  0.00    -0.188 A  
BRANCH  23  25
HETATM   25  C   UNL     1      -8.023   8.902  66.088  1.00  0.00    -0.106 A  
HETATM   26  C   UNL     1      -7.805   8.415  64.785  1.00  0.00    -0.128 A  
HETATM   27  C   UNL     1      -6.839  10.939  65.417  1.00  0.00     0.166 A  
HETATM   28  C   UNL     1      -7.413  10.130  66.402  1.00  0.00    -0.108 A  
HETATM   29  C   UNL     1      -6.711  10.465  64.120  1.00  0.00     0.006 A  
HETATM   30  C   UNL     1      -7.142   9.178  63.817  1.00  0.00    -0.093 A  
ENDBRANCH  23  25
BRANCH  22  31
HETATM   31  C   UNL     1     -10.559  10.108  67.586  1.00  0.00    -0.316 A  
HETATM   32  C   UNL     1     -11.564  12.104  68.616  1.00  0.00    -0.372 A  
HETATM   33  C   UNL     1     -11.019  12.139  66.280  1.00  0.00    -0.332 A  
HETATM   34  C   UNL     1     -10.646  10.790  66.355  1.00  0.00    -0.266 A  
HETATM   35  C   UNL     1     -11.078  10.792  68.708  1.00  0.00    -0.312 A  
HETATM   36  C   UNL     1     -11.473  12.798  67.415  1.00  0.00    -0.396 A  
ENDBRANCH  22  31
ENDBRANCH   4  19
ENDBRANCH   2   4
TORSDOF 12
ENDMDL
MODEL      298
REMARK 921   NORMALIZED FREE ENERGY PREDICTED BY IDOCK:    3.41 KCAL/MOL
REMARK 922        TOTAL FREE ENERGY PREDICTED BY IDOCK:    4.49 KCAL/MOL
REMARK 923 INTER-LIGAND FREE ENERGY PREDICTED BY IDOCK:   -2.46 KCAL/MOL
REMARK 924 INTRA-LIGAND FREE ENERGY PREDICTED BY IDOCK:    6.95 KCAL/MOL
REMARK 927      BINDING AFFINITY PREDICTED BY RF-SCORE:    0.00 PKD
ROOT
HETATM    1  C   UNL     1      -9.914   8.583  72.988  1.00  0.00     0.049 C  
HETATM    2  C   UNL     1     -11.018   8.950  71.993  1.00  0.00    -0.342 C  
HETATM    3  C   UNL     1     -10.992  10.457  71.729  1.00  0.00     1.849 C  
ENDROOT
BRANCH   2   4
HETATM    4  N   UNL     1     -10.978   8.173  70.731  1.00  0.00    -0.240 NA 
BRANCH   4   5
HETATM    5  C   UNL     1     -10.914   6.701  70.720  1.00  0.00    -0.270 C  
BRANCH   5   6
HETATM    6  C   UNL     1      -9.485   6.168  70.879  1.00  0.00    -0.187 C  
BRANCH   6   7
HETATM    7  C   UNL     1      -8.410   7.054  70.224  1.00  0.00    -0.133 C  
BRANCH   7   8
HETATM    8  C   UNL     1      -7.839   8.149  71.125  1.00  0.00    -0.093 C  
BRANCH   8   9
HETATM    9  O   UNL     1      -6.539   7.766  71.569  1.00  0.00    -0.044 OA 
BRANCH   9  10
HETATM   10  C   UNL     1      -6.598   6.751  72.570  1.00  0.00    -0.058 C  
BRANCH  10  11
HETATM   11  C   UNL     1      -6.333   5.371  71.981  1.00  0.00    -0.039 C  
HETATM   12  O   UNL     1      -5.477   4.626  72.439  1.00  0.00    -0.007 OA 
HETATM   13  N   UNL     1      -7.186   5.008  70.927  1.00  0.00    -0.058 N  
HETATM   14  H   UNL     1      -7.953   5.631  70.674  1.00  0.00     0.000 HD 
BRANCH  13  15
HETATM   15  S   UNL     1      -6.980   3.593  70.081  1.00  0.00    -0.038 S  
HETATM   16  O   UNL     1      -5.766   2.952  70.510  1.00  0.00    -0.015 OA 
HETATM   17  C   UNL     1      -6.671   4.243  68.470  1.00  0.00    -0.047 C  
HETATM   18  O   UNL     1      -8.249   2.912  70.025  1.00  0.00    -0.044 OA 
ENDBRANCH  13  15
ENDBRANCH  10  11
ENDBRANCH   9  10
ENDBRANCH   8   9
ENDBRANCH   7   8
ENDBRANCH   6   7
ENDBRANCH   5   6
ENDBRANCH   4   5
BRANCH   4  19
HETATM   19  C   UNL     1     -10.925   8.923  69.550  1.00  0.00    -0.084 A  
HETATM   20  N   UNL     1     -11.078   9.087  67.116  1.00  0.00     0.185 NA 
HETATM   21  N   UNL     1     -10.645  10.245  69.613  1.00  0.00    -0.240 NA 
HETATM   22  C   UNL     1     -10.768  10.419  67.201  1.00  0.00    -0.256 A  
HETATM   23  C   UNL     1     -10.577  11.008  68.468  1.00  0.00    -0.190 A  
HETATM   24  C   UNL     1     -11.154   8.393  68.287  1.00  0.00     0.391 A  
BRANCH  23  25
HETATM   25  C   UNL     1     -10.231  12.434  68.729  1.00  0.00    -0.103 A  
HETATM   26  C   UNL     1      -9.200  13.066  68.007  1.00  0.00    -0.212 A  
HETATM   27  C   UNL     1     -10.799  14.632  69.648  1.00  0.00    -0.211 A  
HETATM   28  C   UNL     1     -10.937  13.241  69.638  1.00  0.00     0.103 A  
HETATM   29  C   UNL     1      -9.828  15.236  68.864  1.00  0.00    -0.221 A  
HETATM   30  C   UNL     1      -8.987  14.447  68.086  1.00  0.00    -0.185 A  
ENDBRANCH  23  25
BRANCH  22  31
HETATM   31  C   UNL     1     -10.619  11.092  65.869  1.00  0.00    -0.294 A  
HETATM   32  C   UNL     1     -10.497  13.150  64.524  1.00  0.00    -0.425 A  
HETATM   33  C   UNL     1     -10.238  11.025  63.441  1.00  0.00    -0.404 A  
HETATM   34  C   UNL     1     -10.513  10.382  64.655  1.00  0.00    -0.047 A  
HETATM   35  C   UNL     1     -10.653  12.500  65.757  1.00  0.00    -0.299 A  
HETATM   36  C   UNL     1     -10.225  12.413  63.378  1.00  0.00    -0.252 A  
ENDBRANCH  22  31
ENDBRANCH   4  19
ENDBRANCH   2   4
TORSDOF 12
ENDMDL
MODEL      299
REMARK 921   NORMALIZED FREE ENERGY PREDICTED BY IDOCK:    4.35 KCAL/MOL
REMARK 922        TOTAL FREE ENERGY PREDICTED BY IDOCK:    6.08 KCAL/MOL
REMARK 923 INTER-LIGAND FREE ENERGY PREDICTED BY IDOCK:    4.17 KCAL/MOL
REMARK 924 INTRA-LIGAND FREE ENERGY PREDICTED BY IDOCK:    1.91 KCAL/MOL
REMARK 927      BINDING AFFINITY PREDICTED BY RF-SCORE:    0.00 PKD
ROOT
HETATM    1  C   UNL     1     -10.659   6.704  74.206  1.00  0.00     0.024 C  
HETATM    2  C   UNL     1     -11.325   7.658  73.211  1.00  0.00     0.001 C  
HETATM    3  C   UNL     1     -10.660   9.033  73.293  1.00  0.00     2.489 C  
ENDROOT
BRANCH   2   4
HETATM    4  N   UNL     1     -11.363   7.150  71.818  1.00  0.00    -0.246 NA 
BRANCH   4   5
HETATM    5  C   UNL     1     -12.354   6.153  71.376  1.00  0.00     0.288 C  
BRANCH   5   6
HETATM    6  C   UNL     1     -13.026   6.531  70.050  1.00  0.00     2.310 C  
BRANCH   6   7
HETATM    7  C   UNL     1     -13.200   8.047  69.847  1.00  0.00     2.826 C  
BRANCH   7   8
HETATM    8  C   UNL     1     -13.696   8.810  71.076  1.00  0.00     0.088 C  
BRANCH   8   9
HETATM    9  O   UNL     1     -13.906  10.177  70.730  1.00  0.00     0.004 OA 
BRANCH   9  10
HETATM   10  C   UNL     1     -12.974  11.039  71.380  1.00  0.00    -0.414 C  
BRANCH  10  11
HETATM   11  C   UNL     1     -12.735  12.311  70.576  1.00  0.00     0.021 C  
HETATM   12  O   UNL     1     -12.710  12.308  69.352  1.00  0.00     0.348 OA 
HETATM   13  N   UNL     1     -12.614  13.478  71.346  1.00  0.00    -0.339 N  
HETATM   14  H   UNL     1     -12.762  13.425  72.353  1.00  0.00     0.000 HD 
BRANCH  13  15
HETATM   15  S   UNL     1     -12.236  14.944  70.660  1.00  0.00    -0.348 S  
HETATM   16  O   UNL     1     -13.271  15.896  70.966  1.00  0.00    -0.519 OA 
HETATM   17  C   UNL     1     -12.409  14.537  68.952  1.00  0.00    -0.056 C  
HETATM   18  O   UNL     1     -10.837  15.204  70.893  1.00  0.00    -0.252 OA 
ENDBRANCH  13  15
ENDBRANCH  10  11
ENDBRANCH   9  10
ENDBRANCH   8   9
ENDBRANCH   7   8
ENDBRANCH   6   7
ENDBRANCH   5   6
ENDBRANCH   4   5
BRANCH   4  19
HETATM   19  C   UNL     1     -10.354   7.615  70.969  1.00  0.00    -0.202 A  
HETATM   20  N   UNL     1      -8.925   9.414  70.134  1.00  0.00    -0.209 NA 
HETATM   21  N   UNL     1      -9.778   6.762  70.089  1.00  0.00    -0.168 NA 
HETATM   22  C   UNL     1      -8.374   8.540  69.234  1.00  0.00    -0.120 A  
HETATM   23  C   UNL     1      -8.788   7.192  69.234  1.00  0.00    -0.136 A  
HETATM   24  C   UNL     1      -9.883   8.922  70.970  1.00  0.00    -0.253 A  
BRANCH  23  25
HETATM   25  C   UNL     1      -8.293   6.124  68.320  1.00  0.00    -0.114 A  
HETATM   26  C   UNL     1      -7.249   5.266  68.717  1.00  0.00    -0.065 A  
HETATM   27  C   UNL     1      -8.595   4.685  66.361  1.00  0.00    -0.112 A  
HETATM   28  C   UNL     1      -8.866   5.863  67.062  1.00  0.00    -0.112 A  
HETATM   29  C   UNL     1      -7.617   3.816  66.819  1.00  0.00    -0.080 A  
HETATM   30  C   UNL     1      -6.901   4.136  67.968  1.00  0.00    -0.048 A  
ENDBRANCH  23  25
BRANCH  22  31
HETATM   31  C   UNL     1      -7.392   9.176  68.295  1.00  0.00    -0.079 A  
HETATM   32  C   UNL     1      -6.911  10.314  66.167  1.00  0.00    -0.115 A  
HETATM   33  C   UNL     1      -5.127   9.945  67.728  1.00  0.00    -0.035 A  
HETATM   34  C   UNL     1      -6.006   9.228  68.551  1.00  0.00    -0.044 A  
HETATM   35  C   UNL     1      -7.809   9.699  67.050  1.00  0.00    -0.098 A  
HETATM   36  C   UNL     1      -5.583  10.494  66.537  1.00  0.00    -0.063 A  
ENDBRANCH  22  31
ENDBRANCH   4  19
ENDBRANCH   2   4
TORSDOF 12
ENDMDL
MODEL      300
REMARK 921   NORMALIZED FREE ENERGY PREDICTED BY IDOCK:    5.21 KCAL/MOL
REMARK 922        TOTAL FREE ENERGY PREDICTED BY IDOCK:    7.54 KCAL/MOL
REMARK 923 INTER-LIGAND FREE ENERGY PREDICTED BY IDOCK:    3.48 KCAL/MOL
REMARK 924 INTRA-LIGAND FREE ENERGY PREDICTED BY IDOCK:    4.06 KCAL/MOL
REMARK 927      BINDING AFFINITY PREDICTED BY RF-SCORE:    0.00 PKD
ROOT
HETATM    1  C   UNL     1      -8.975  15.225  64.935  1.00  0.00     2.881 C  
HETATM    2  C   UNL     1      -8.106  14.375  65.864  1.00  0.00     2.488 C  
HETATM    3  C   UNL     1      -7.369  15.282  66.852  1.00  0.00     0.090 C  
ENDROOT
BRANCH   2   4
HETATM    4  N   UNL     1      -8.843  13.292  66.560  1.00  0.00    -0.065 NA 
BRANCH   4   5
HETATM    5  C   UNL     1      -8.823  11.899  66.081  1.00  0.00    -0.063 C  
BRANCH   5   6
HETATM    6  C   UNL     1     -10.228  11.343  65.815  1.00  0.00    -0.295 C  
BRANCH   6   7
HETATM    7  C   UNL     1     -10.304  10.385  64.612  1.00  0.00    -0.190 C  
BRANCH   7   8
HETATM    8  C   UNL     1      -9.267   9.261  64.616  1.00  0.00    -0.046 C  
BRANCH   8   9
HETATM    9  O   UNL     1      -8.997   8.872  65.961  1.00  0.00    -0.167 OA 
BRANCH   9  10
HETATM   10  C   UNL     1     -10.022   8.030  66.486  1.00  0.00    -0.213 C  
BRANCH  10  11
HETATM   11  C   UNL     1      -9.582   7.355  67.780  1.00  0.00    -0.140 C  
HETATM   12  O   UNL     1      -9.783   7.863  68.875  1.00  0.00    -0.154 OA 
HETATM   13  N   UNL     1      -8.996   6.091  67.613  1.00  0.00    -0.112 N  
HETATM   14  H   UNL     1      -8.966   5.678  66.681  1.00  0.00     0.000 HD 
BRANCH  13  15
HETATM   15  S   UNL     1      -8.348   5.250  68.891  1.00  0.00    -0.092 S  
HETATM   16  O   UNL     1      -7.663   6.164  69.767  1.00  0.00    -0.093 OA 
HETATM   17  C   UNL     1      -7.104   4.324  68.049  1.00  0.00    -0.060 C  
HETATM   18  O   UNL     1      -9.334   4.308  69.358  1.00  0.00    -0.133 OA 
ENDBRANCH  13  15
ENDBRANCH  10  11
ENDBRANCH   9  10
ENDBRANCH   8   9
ENDBRANCH   7   8
ENDBRANCH   6   7
ENDBRANCH   5   6
ENDBRANCH   4   5
BRANCH   4  19
HETATM   19  C   UNL     1      -9.622  13.686  67.654  1.00  0.00    -0.221 A  
HETATM   20  N   UNL     1     -11.281  13.196  69.381  1.00  0.00    -0.193 NA 
HETATM   21  N   UNL     1      -9.544  14.960  68.102  1.00  0.00    -0.206 NA 
HETATM   22  C   UNL     1     -11.206  14.498  69.801  1.00  0.00    -0.234 A  
HETATM   23  C   UNL     1     -10.305  15.380  69.171  1.00  0.00    -0.240 A  
HETATM   24  C   UNL     1     -10.485  12.836  68.334  1.00  0.00    -0.243 A  
BRANCH  23  25
HETATM   25  C   UNL     1     -10.109  16.819  69.505  1.00  0.00    -0.107 A  
HETATM   26  C   UNL     1      -9.446  17.681  68.610  1.00  0.00    -0.284 A  
HETATM   27  C   UNL     1     -10.690  18.800  70.825  1.00  0.00     2.653 A  
HETATM   28  C   UNL     1     -10.620  17.412  70.674  1.00  0.00     1.353 A  
HETATM   29  C   UNL     1     -10.099  19.629  69.883  1.00  0.00     0.288 A  
HETATM   30  C   UNL     1      -9.425  19.067  68.804  1.00  0.00    -0.433 A  
ENDBRANCH  23  25
BRANCH  22  31
HETATM   31  C   UNL     1     -12.172  14.836  70.898  1.00  0.00    -0.384 A  
HETATM   32  C   UNL     1     -14.183  14.292  72.208  1.00  0.00    -0.587 A  
HETATM   33  C   UNL     1     -12.914  16.249  72.768  1.00  0.00    -0.241 A  
HETATM   34  C   UNL     1     -12.086  16.019  71.661  1.00  0.00    -0.537 A  
HETATM   35  C   UNL     1     -13.280  14.004  71.175  1.00  0.00    -0.337 A  
HETATM   36  C   UNL     1     -13.962  15.380  73.044  1.00  0.00    -0.198 A  
ENDBRANCH  22  31
ENDBRANCH   4  19
ENDBRANCH   2   4
TORSDOF 12
ENDMDL
MODEL      301
REMARK 921   NORMALIZED FREE ENERGY PREDICTED BY IDOCK:   12.55 KCAL/MOL
REMARK 922        TOTAL FREE ENERGY PREDICTED BY IDOCK:   20.03 KCAL/MOL
REMARK 923 INTER-LIGAND FREE ENERGY PREDICTED BY IDOCK:    5.58 KCAL/MOL
REMARK 924 INTRA-LIGAND FREE ENERGY PREDICTED BY IDOCK:   14.45 KCAL/MOL
REMARK 927      BINDING AFFINITY PREDICTED BY RF-SCORE:    0.00 PKD
ROOT
HETATM    1  C   UNL     1      -7.858  15.078  70.698  1.00  0.00     1.346 C  
HETATM    2  C   UNL     1      -9.351  15.126  70.363  1.00  0.00     0.829 C  
HETATM    3  C   UNL     1     -10.137  15.595  71.590  1.00  0.00     2.086 C  
ENDROOT
BRANCH   2   4
HETATM    4  N   UNL     1      -9.677  15.935  69.164  1.00  0.00    -0.234 NA 
BRANCH   4   5
HETATM    5  C   UNL     1      -9.594  17.406  69.165  1.00  0.00    -0.069 C  
BRANCH   5   6
HETATM    6  C   UNL     1      -8.590  17.945  68.138  1.00  0.00    -0.265 C  
BRANCH   6   7
HETATM    7  C   UNL     1      -8.908  17.548  66.685  1.00  0.00    -0.284 C  
BRANCH   7   8
HETATM    8  C   UNL     1      -7.786  16.808  65.958  1.00  0.00    -0.034 C  
BRANCH   8   9
HETATM    9  O   UNL     1      -6.528  17.348  66.356  1.00  0.00    -0.210 OA 
BRANCH   9  10
HETATM   10  C   UNL     1      -6.603  18.753  66.588  1.00  0.00    -0.191 C  
BRANCH  10  11
HETATM   11  C   UNL     1      -7.882  19.346  66.008  1.00  0.00    -0.281 C  
HETATM   12  O   UNL     1      -7.883  19.984  64.964  1.00  0.00    -0.087 OA 
HETATM   13  N   UNL     1      -9.048  19.046  66.729  1.00  0.00    -0.308 N  
HETATM   14  H   UNL     1      -8.989  18.411  67.525  1.00  0.00     0.000 HD 
BRANCH  13  15
HETATM   15  S   UNL     1     -10.522  19.696  66.322  1.00  0.00    -0.510 S  
HETATM   16  O   UNL     1     -10.636  19.761  64.889  1.00  0.00     0.075 OA 
HETATM   17  C   UNL     1     -10.293  21.352  66.889  1.00  0.00     2.361 C  
HETATM   18  O   UNL     1     -11.528  19.097  67.162  1.00  0.00     0.118 OA 
ENDBRANCH  13  15
ENDBRANCH  10  11
ENDBRANCH   9  10
ENDBRANCH   8   9
ENDBRANCH   7   8
ENDBRANCH   6   7
ENDBRANCH   5   6
ENDBRANCH   4   5
BRANCH   4  19
HETATM   19  C   UNL     1     -10.144  15.223  68.053  1.00  0.00    -0.229 A  
HETATM   20  N   UNL     1     -11.752  14.912  66.238  1.00  0.00    -0.245 NA 
HETATM   21  N   UNL     1      -9.496  14.103  67.658  1.00  0.00    -0.207 NA 
HETATM   22  C   UNL     1     -11.095  13.768  65.871  1.00  0.00    -0.286 A  
HETATM   23  C   UNL     1      -9.936  13.376  66.575  1.00  0.00    -0.286 A  
HETATM   24  C   UNL     1     -11.252  15.600  67.304  1.00  0.00    -0.184 A  
BRANCH  23  25
HETATM   25  C   UNL     1      -9.116  12.162  66.305  1.00  0.00    -0.141 A  
HETATM   26  C   UNL     1      -9.699  11.013  65.736  1.00  0.00    -0.268 A  
HETATM   27  C   UNL     1      -6.937  11.086  65.998  1.00  0.00    -0.014 A  
HETATM   28  C   UNL     1      -7.729  12.107  66.531  1.00  0.00     0.228 A  
HETATM   29  C   UNL     1      -7.534  10.004  65.369  1.00  0.00    -0.139 A  
HETATM   30  C   UNL     1      -8.921   9.939  65.289  1.00  0.00    -0.228 A  
ENDBRANCH  23  25
BRANCH  22  31
HETATM   31  C   UNL     1     -11.754  13.024  64.748  1.00  0.00    -0.389 A  
HETATM   32  C   UNL     1     -11.679  12.116  62.462  1.00  0.00     1.471 A  
HETATM   33  C   UNL     1     -13.628  11.741  63.808  1.00  0.00     0.946 A  
HETATM   34  C   UNL     1     -13.080  12.549  64.813  1.00  0.00     0.106 A  
HETATM   35  C   UNL     1     -11.088  12.825  63.517  1.00  0.00    -0.377 A  
HETATM   36  C   UNL     1     -12.923  11.519  62.633  1.00  0.00     1.481 A  
ENDBRANCH  22  31
ENDBRANCH   4  19
ENDBRANCH   2   4
TORSDOF 12
ENDMDL
MODEL      302
REMARK 921   NORMALIZED FREE ENERGY PREDICTED BY IDOCK:   77.68 KCAL/MOL
REMARK 922        TOTAL FREE ENERGY PREDICTED BY IDOCK:  130.86 KCAL/MOL
REMARK 923 INTER-LIGAND FREE ENERGY PREDICTED BY IDOCK:   95.80 KCAL/MOL
REMARK 924 INTRA-LIGAND FREE ENERGY PREDICTED BY IDOCK:   35.05 KCAL/MOL
REMARK 927      BINDING AFFINITY PREDICTED BY RF-SCORE:    0.00 PKD
ROOT
HETATM    1  C   UNL     1     -12.399  16.167  71.810  1.00  0.00    -0.398 C  
HETATM    2  C   UNL     1     -12.025  17.012  70.591  1.00  0.00     2.210 C  
HETATM    3  C   UNL     1     -12.671  18.394  70.706  1.00  0.00    17.348 C  
ENDROOT
BRANCH   2   4
HETATM    4  N   UNL     1     -10.565  17.110  70.347  1.00  0.00     0.453 NA 
BRANCH   4   5
HETATM    5  C   UNL     1      -9.839  18.388  70.452  1.00  0.00     2.025 C  
BRANCH   5   6
HETATM    6  C   UNL     1      -8.340  18.199  70.721  1.00  0.00     5.325 C  
BRANCH   6   7
HETATM    7  C   UNL     1      -7.570  19.517  70.923  1.00  0.00     1.775 C  
BRANCH   7   8
HETATM    8  C   UNL     1      -8.441  20.773  70.966  1.00  0.00     2.784 C  
BRANCH   8   9
HETATM    9  O   UNL     1      -8.943  21.045  69.658  1.00  0.00     2.199 OA 
BRANCH   9  10
HETATM   10  C   UNL     1     -10.118  20.289  69.374  1.00  0.00     0.138 C  
BRANCH  10  11
HETATM   11  C   UNL     1      -9.776  18.924  68.789  1.00  0.00    -0.400 C  
HETATM   12  O   UNL     1     -10.402  17.916  69.088  1.00  0.00    -0.340 OA 
HETATM   13  N   UNL     1      -8.739  18.934  67.843  1.00  0.00    -0.292 N  
HETATM   14  H   UNL     1      -8.340  19.827  67.555  1.00  0.00     0.000 HD 
BRANCH  13  15
HETATM   15  S   UNL     1      -8.144  17.531  67.180  1.00  0.00    -0.218 S  
HETATM   16  O   UNL     1      -8.313  17.568  65.752  1.00  0.00    -0.538 OA 
HETATM   17  C   UNL     1      -9.324  16.375  67.802  1.00  0.00    -0.213 C  
HETATM   18  O   UNL     1      -6.884  17.231  67.814  1.00  0.00    -0.154 OA 
ENDBRANCH  13  15
ENDBRANCH  10  11
ENDBRANCH   9  10
ENDBRANCH   8   9
ENDBRANCH   7   8
ENDBRANCH   6   7
ENDBRANCH   5   6
ENDBRANCH   4   5
BRANCH   4  19
HETATM   19  C   UNL     1      -9.932  15.933  69.934  1.00  0.00    -0.142 A  
HETATM   20  N   UNL     1      -9.204  14.405  68.170  1.00  0.00    -0.192 NA 
HETATM   21  N   UNL     1      -9.415  15.094  70.861  1.00  0.00     1.333 NA 
HETATM   22  C   UNL     1      -8.711  13.559  69.127  1.00  0.00     0.544 A  
HETATM   23  C   UNL     1      -8.794  13.924  70.486  1.00  0.00     3.838 A  
HETATM   24  C   UNL     1      -9.786  15.560  68.604  1.00  0.00    -0.208 A  
BRANCH  23  25
HETATM   25  C   UNL     1      -8.312  13.115  71.642  1.00  0.00    13.019 A  
HETATM   26  C   UNL     1      -8.402  11.710  71.622  1.00  0.00    12.593 A  
HETATM   27  C   UNL     1      -6.982  12.901  73.688  1.00  0.00     6.300 A  
HETATM   28  C   UNL     1      -7.689  13.681  72.769  1.00  0.00     9.006 A  
HETATM   29  C   UNL     1      -7.020  11.518  73.596  1.00  0.00     8.258 A  
HETATM   30  C   UNL     1      -7.780  10.920  72.596  1.00  0.00    10.350 A  
ENDBRANCH  23  25
BRANCH  22  31
HETATM   31  C   UNL     1      -8.164  12.275  68.576  1.00  0.00    -0.096 A  
HETATM   32  C   UNL     1      -6.293  10.700  68.300  1.00  0.00    -0.054 A  
HETATM   33  C   UNL     1      -8.435  10.148  67.372  1.00  0.00    -0.122 A  
HETATM   34  C   UNL     1      -8.919  11.404  67.762  1.00  0.00    -0.147 A  
HETATM   35  C   UNL     1      -6.818  11.905  68.790  1.00  0.00    -0.093 A  
HETATM   36  C   UNL     1      -7.121   9.794  67.648  1.00  0.00    -0.088 A  
ENDBRANCH  22  31
ENDBRANCH   4  19
ENDBRANCH   2   4
TORSDOF 12
ENDMDL
