MODEL        1
REMARK 921   NORMALIZED FREE ENERGY PREDICTED BY IDOCK:   -3.91 KCAL/MOL
REMARK 922        TOTAL FREE ENERGY PREDICTED BY IDOCK:   -4.84 KCAL/MOL
REMARK 923 INTER-LIGAND FREE ENERGY PREDICTED BY IDOCK:   -4.60 KCAL/MOL
REMARK 924 INTRA-LIGAND FREE ENERGY PREDICTED BY IDOCK:   -0.24 KCAL/MOL
REMARK 927      BINDING AFFINITY PREDICTED BY RF-SCORE:    0.00 PKD
ROOT
HETATM    1  C   UNL     1     -11.490  15.318  68.387  1.00  0.00    -0.345 C  
HETATM    2 SE   UNL     1     -10.214  13.863  68.177  1.00  0.00    -0.254 Se 
ENDROOT
BRANCH   2   3
HETATM    3  C   UNL     1      -9.413  14.647  66.576  1.00  0.00    -0.297 C  
BRANCH   3   4
HETATM    4  C   UNL     1     -10.417  15.632  65.961  1.00  0.00    -0.343 C  
BRANCH   4   5
HETATM    5  CA  UNL     1     -11.034  15.197  64.610  1.00  0.00    -0.303 C  
HETATM    6  C   UNL     1     -12.039  14.073  64.758  1.00  0.00    -0.437 C  
HETATM    7  N   UNL     1     -11.650  16.334  63.926  1.00  0.00    -1.573 NA 
HETATM    8  O   UNL     1     -11.807  12.866  64.201  1.00  0.00    -0.359 OA 
HETATM    9  OXT UNL     1     -13.083  14.254  65.362  1.00  0.00    -0.685 OA 
HETATM   10  H1  UNL     1     -12.057  16.047  63.035  1.00  0.00     0.000 HD 
HETATM   11  H2  UNL     1     -10.993  17.105  63.808  1.00  0.00     0.000 HD 
ENDBRANCH   4   5
ENDBRANCH   3   4
ENDBRANCH   2   3
TORSDOF 3
ENDMDL
MODEL        2
REMARK 921   NORMALIZED FREE ENERGY PREDICTED BY IDOCK:   -3.84 KCAL/MOL
REMARK 922        TOTAL FREE ENERGY PREDICTED BY IDOCK:   -4.75 KCAL/MOL
REMARK 923 INTER-LIGAND FREE ENERGY PREDICTED BY IDOCK:   -4.64 KCAL/MOL
REMARK 924 INTRA-LIGAND FREE ENERGY PREDICTED BY IDOCK:   -0.11 KCAL/MOL
REMARK 927      BINDING AFFINITY PREDICTED BY RF-SCORE:    0.00 PKD
ROOT
HETATM    1  C   UNL     1     -11.893  11.822  69.499  1.00  0.00    -0.337 C  
HETATM    2 SE   UNL     1     -11.588  13.571  68.699  1.00  0.00    -0.353 Se 
ENDROOT
BRANCH   2   3
HETATM    3  C   UNL     1     -11.881  12.915  66.881  1.00  0.00    -0.379 C  
BRANCH   3   4
HETATM    4  C   UNL     1     -12.427  14.069  66.029  1.00  0.00    -0.489 C  
BRANCH   4   5
HETATM    5  CA  UNL     1     -11.767  14.240  64.640  1.00  0.00    -0.430 C  
HETATM    6  C   UNL     1     -11.796  12.970  63.815  1.00  0.00    -0.502 C  
HETATM    7  N   UNL     1     -12.392  15.335  63.895  1.00  0.00    -1.003 NA 
HETATM    8  O   UNL     1     -10.648  12.351  63.467  1.00  0.00    -0.438 OA 
HETATM    9  OXT UNL     1     -12.858  12.504  63.435  1.00  0.00    -0.711 OA 
HETATM   10  H1  UNL     1     -11.957  15.448  62.979  1.00  0.00     0.000 HD 
HETATM   11  H2  UNL     1     -12.382  16.206  64.426  1.00  0.00     0.000 HD 
ENDBRANCH   4   5
ENDBRANCH   3   4
ENDBRANCH   2   3
TORSDOF 3
ENDMDL
MODEL        3
REMARK 921   NORMALIZED FREE ENERGY PREDICTED BY IDOCK:   -3.79 KCAL/MOL
REMARK 922        TOTAL FREE ENERGY PREDICTED BY IDOCK:   -4.69 KCAL/MOL
REMARK 923 INTER-LIGAND FREE ENERGY PREDICTED BY IDOCK:   -4.53 KCAL/MOL
REMARK 924 INTRA-LIGAND FREE ENERGY PREDICTED BY IDOCK:   -0.16 KCAL/MOL
REMARK 927      BINDING AFFINITY PREDICTED BY RF-SCORE:    0.00 PKD
ROOT
HETATM    1  C   UNL     1     -11.553  14.433  68.036  1.00  0.00    -0.327 C  
HETATM    2 SE   UNL     1     -11.647  12.492  67.920  1.00  0.00    -0.359 Se 
ENDROOT
BRANCH   2   3
HETATM    3  C   UNL     1     -12.123  12.516  66.024  1.00  0.00    -0.321 C  
BRANCH   3   4
HETATM    4  C   UNL     1     -12.728  13.887  65.691  1.00  0.00    -0.534 C  
BRANCH   4   5
HETATM    5  CA  UNL     1     -12.282  14.501  64.344  1.00  0.00    -0.458 C  
HETATM    6  C   UNL     1     -11.219  15.568  64.508  1.00  0.00    -0.315 C  
HETATM    7  N   UNL     1     -11.812  13.464  63.424  1.00  0.00    -0.755 NA 
HETATM    8  O   UNL     1     -11.473  16.849  64.167  1.00  0.00    -1.174 OA 
HETATM    9  OXT UNL     1     -10.111  15.277  64.929  1.00  0.00    -0.286 OA 
HETATM   10  H1  UNL     1     -11.517  13.869  62.536  1.00  0.00     0.000 HD 
HETATM   11  H2  UNL     1     -12.511  12.733  63.291  1.00  0.00     0.000 HD 
ENDBRANCH   4   5
ENDBRANCH   3   4
ENDBRANCH   2   3
TORSDOF 3
ENDMDL
MODEL        4
REMARK 921   NORMALIZED FREE ENERGY PREDICTED BY IDOCK:   -3.76 KCAL/MOL
REMARK 922        TOTAL FREE ENERGY PREDICTED BY IDOCK:   -4.66 KCAL/MOL
REMARK 923 INTER-LIGAND FREE ENERGY PREDICTED BY IDOCK:   -4.59 KCAL/MOL
REMARK 924 INTRA-LIGAND FREE ENERGY PREDICTED BY IDOCK:   -0.07 KCAL/MOL
REMARK 927      BINDING AFFINITY PREDICTED BY RF-SCORE:    0.00 PKD
ROOT
HETATM    1  C   UNL     1     -11.692  15.553  68.896  1.00  0.00    -0.370 C  
HETATM    2 SE   UNL     1     -12.016  13.635  68.816  1.00  0.00    -0.316 Se 
ENDROOT
BRANCH   2   3
HETATM    3  C   UNL     1     -11.206  13.458  67.046  1.00  0.00    -0.305 C  
BRANCH   3   4
HETATM    4  C   UNL     1     -12.219  13.937  65.997  1.00  0.00    -0.495 C  
BRANCH   4   5
HETATM    5  CA  UNL     1     -11.770  13.791  64.524  1.00  0.00    -0.407 C  
HETATM    6  C   UNL     1     -12.086  12.427  63.946  1.00  0.00    -0.499 C  
HETATM    7  N   UNL     1     -12.363  14.838  63.689  1.00  0.00    -1.067 NA 
HETATM    8  O   UNL     1     -11.092  11.598  63.560  1.00  0.00    -0.405 OA 
HETATM    9  OXT UNL     1     -13.243  12.071  63.799  1.00  0.00    -0.723 OA 
HETATM   10  H1  UNL     1     -12.066  14.742  62.718  1.00  0.00     0.000 HD 
HETATM   11  H2  UNL     1     -12.161  15.769  64.053  1.00  0.00     0.000 HD 
ENDBRANCH   4   5
ENDBRANCH   3   4
ENDBRANCH   2   3
TORSDOF 3
ENDMDL
MODEL        5
REMARK 921   NORMALIZED FREE ENERGY PREDICTED BY IDOCK:   -3.73 KCAL/MOL
REMARK 922        TOTAL FREE ENERGY PREDICTED BY IDOCK:   -4.62 KCAL/MOL
REMARK 923 INTER-LIGAND FREE ENERGY PREDICTED BY IDOCK:   -4.58 KCAL/MOL
REMARK 924 INTRA-LIGAND FREE ENERGY PREDICTED BY IDOCK:   -0.05 KCAL/MOL
REMARK 927      BINDING AFFINITY PREDICTED BY RF-SCORE:    0.00 PKD
ROOT
HETATM    1  C   UNL     1      -8.762  17.010  68.333  1.00  0.00    -0.247 C  
HETATM    2 SE   UNL     1     -10.222  18.230  67.918  1.00  0.00    -0.400 Se 
ENDROOT
BRANCH   2   3
HETATM    3  C   UNL     1     -10.412  17.560  66.092  1.00  0.00    -0.288 C  
BRANCH   3   4
HETATM    4  C   UNL     1     -10.691  16.052  66.153  1.00  0.00    -0.246 C  
BRANCH   4   5
HETATM    5  CA  UNL     1     -11.002  15.376  64.796  1.00  0.00    -0.393 C  
HETATM    6  C   UNL     1     -11.930  14.187  64.931  1.00  0.00    -0.417 C  
HETATM    7  N   UNL     1     -11.557  16.341  63.846  1.00  0.00    -1.573 NA 
HETATM    8  O   UNL     1     -11.506  12.945  64.615  1.00  0.00    -0.305 OA 
HETATM    9  OXT UNL     1     -13.082  14.342  65.302  1.00  0.00    -0.707 OA 
HETATM   10  H1  UNL     1     -11.761  15.896  62.951  1.00  0.00     0.000 HD 
HETATM   11  H2  UNL     1     -10.948  17.152  63.733  1.00  0.00     0.000 HD 
ENDBRANCH   4   5
ENDBRANCH   3   4
ENDBRANCH   2   3
TORSDOF 3
ENDMDL
MODEL        6
REMARK 921   NORMALIZED FREE ENERGY PREDICTED BY IDOCK:   -3.70 KCAL/MOL
REMARK 922        TOTAL FREE ENERGY PREDICTED BY IDOCK:   -4.58 KCAL/MOL
REMARK 923 INTER-LIGAND FREE ENERGY PREDICTED BY IDOCK:   -4.34 KCAL/MOL
REMARK 924 INTRA-LIGAND FREE ENERGY PREDICTED BY IDOCK:   -0.24 KCAL/MOL
REMARK 927      BINDING AFFINITY PREDICTED BY RF-SCORE:    0.00 PKD
ROOT
HETATM    1  C   UNL     1     -10.409  10.924  65.417  1.00  0.00    -0.261 C  
HETATM    2 SE   UNL     1     -10.390  11.356  63.519  1.00  0.00    -0.439 Se 
ENDROOT
BRANCH   2   3
HETATM    3  C   UNL     1     -12.167  12.167  63.570  1.00  0.00    -0.567 C  
BRANCH   3   4
HETATM    4  C   UNL     1     -12.415  12.708  64.985  1.00  0.00    -0.556 C  
BRANCH   4   5
HETATM    5  CA  UNL     1     -12.338  14.246  65.132  1.00  0.00    -0.424 C  
HETATM    6  C   UNL     1     -11.105  14.703  65.885  1.00  0.00    -0.338 C  
HETATM    7  N   UNL     1     -12.399  14.901  63.825  1.00  0.00    -1.071 NA 
HETATM    8  O   UNL     1     -11.220  15.333  67.073  1.00  0.00    -0.330 OA 
HETATM    9  OXT UNL     1      -9.994  14.529  65.412  1.00  0.00    -0.352 OA 
HETATM   10  H1  UNL     1     -12.348  15.915  63.922  1.00  0.00     0.000 HD 
HETATM   11  H2  UNL     1     -13.224  14.614  63.298  1.00  0.00     0.000 HD 
ENDBRANCH   4   5
ENDBRANCH   3   4
ENDBRANCH   2   3
TORSDOF 3
ENDMDL
MODEL        7
REMARK 921   NORMALIZED FREE ENERGY PREDICTED BY IDOCK:   -3.65 KCAL/MOL
REMARK 922        TOTAL FREE ENERGY PREDICTED BY IDOCK:   -4.52 KCAL/MOL
REMARK 923 INTER-LIGAND FREE ENERGY PREDICTED BY IDOCK:   -4.42 KCAL/MOL
REMARK 924 INTRA-LIGAND FREE ENERGY PREDICTED BY IDOCK:   -0.10 KCAL/MOL
REMARK 927      BINDING AFFINITY PREDICTED BY RF-SCORE:    0.00 PKD
ROOT
HETATM    1  C   UNL     1     -10.668  11.975  63.545  1.00  0.00    -0.455 C  
HETATM    2 SE   UNL     1     -10.102  11.463  65.336  1.00  0.00    -0.274 Se 
ENDROOT
BRANCH   2   3
HETATM    3  C   UNL     1     -10.497  13.225  66.086  1.00  0.00    -0.293 C  
BRANCH   3   4
HETATM    4  C   UNL     1     -10.240  14.284  65.004  1.00  0.00    -0.402 C  
BRANCH   4   5
HETATM    5  CA  UNL     1     -10.995  15.621  65.190  1.00  0.00    -0.398 C  
HETATM    6  C   UNL     1     -10.233  16.612  66.045  1.00  0.00    -0.351 C  
HETATM    7  N   UNL     1     -11.321  16.223  63.896  1.00  0.00    -1.442 NA 
HETATM    8  O   UNL     1     -10.727  17.016  67.234  1.00  0.00    -0.299 OA 
HETATM    9  OXT UNL     1      -9.173  17.076  65.657  1.00  0.00    -0.508 OA 
HETATM   10  H1  UNL     1     -11.819  17.105  64.018  1.00  0.00     0.000 HD 
HETATM   11  H2  UNL     1     -11.840  15.578  63.300  1.00  0.00     0.000 HD 
ENDBRANCH   4   5
ENDBRANCH   3   4
ENDBRANCH   2   3
TORSDOF 3
ENDMDL
MODEL        8
REMARK 921   NORMALIZED FREE ENERGY PREDICTED BY IDOCK:   -3.59 KCAL/MOL
REMARK 922        TOTAL FREE ENERGY PREDICTED BY IDOCK:   -4.46 KCAL/MOL
REMARK 923 INTER-LIGAND FREE ENERGY PREDICTED BY IDOCK:   -4.31 KCAL/MOL
REMARK 924 INTRA-LIGAND FREE ENERGY PREDICTED BY IDOCK:   -0.15 KCAL/MOL
REMARK 927      BINDING AFFINITY PREDICTED BY RF-SCORE:    0.00 PKD
ROOT
HETATM    1  C   UNL     1      -8.934  11.929  66.791  1.00  0.00    -0.196 C  
HETATM    2 SE   UNL     1     -10.383  12.680  67.852  1.00  0.00    -0.223 Se 
ENDROOT
BRANCH   2   3
HETATM    3  C   UNL     1     -11.753  12.146  66.564  1.00  0.00    -0.321 C  
BRANCH   3   4
HETATM    4  C   UNL     1     -12.245  13.400  65.828  1.00  0.00    -0.507 C  
BRANCH   4   5
HETATM    5  CA  UNL     1     -11.683  13.597  64.400  1.00  0.00    -0.411 C  
HETATM    6  C   UNL     1     -11.767  12.341  63.557  1.00  0.00    -0.499 C  
HETATM    7  N   UNL     1     -12.359  14.703  63.720  1.00  0.00    -1.092 NA 
HETATM    8  O   UNL     1     -10.645  11.731  63.120  1.00  0.00    -0.359 OA 
HETATM    9  OXT UNL     1     -12.852  11.880  63.242  1.00  0.00    -0.702 OA 
HETATM   10  H1  UNL     1     -11.988  14.834  62.778  1.00  0.00     0.000 HD 
HETATM   11  H2  UNL     1     -12.313  15.565  64.264  1.00  0.00     0.000 HD 
ENDBRANCH   4   5
ENDBRANCH   3   4
ENDBRANCH   2   3
TORSDOF 3
ENDMDL
MODEL        9
REMARK 921   NORMALIZED FREE ENERGY PREDICTED BY IDOCK:   -3.59 KCAL/MOL
REMARK 922        TOTAL FREE ENERGY PREDICTED BY IDOCK:   -4.45 KCAL/MOL
REMARK 923 INTER-LIGAND FREE ENERGY PREDICTED BY IDOCK:   -4.34 KCAL/MOL
REMARK 924 INTRA-LIGAND FREE ENERGY PREDICTED BY IDOCK:   -0.12 KCAL/MOL
REMARK 927      BINDING AFFINITY PREDICTED BY RF-SCORE:    0.00 PKD
ROOT
HETATM    1  C   UNL     1      -8.999  10.579  64.762  1.00  0.00    -0.205 C  
HETATM    2 SE   UNL     1     -10.395  11.764  65.422  1.00  0.00    -0.279 Se 
ENDROOT
BRANCH   2   3
HETATM    3  C   UNL     1     -11.295  11.854  63.689  1.00  0.00    -0.450 C  
BRANCH   3   4
HETATM    4  C   UNL     1     -12.157  13.124  63.652  1.00  0.00    -0.583 C  
BRANCH   4   5
HETATM    5  CA  UNL     1     -11.997  14.071  64.865  1.00  0.00    -0.404 C  
HETATM    6  C   UNL     1     -11.499  15.447  64.473  1.00  0.00    -0.311 C  
HETATM    7  N   UNL     1     -13.252  14.186  65.609  1.00  0.00    -0.652 NA 
HETATM    8  O   UNL     1     -10.299  15.892  64.903  1.00  0.00    -0.517 OA 
HETATM    9  OXT UNL     1     -12.188  16.181  63.784  1.00  0.00    -0.934 OA 
HETATM   10  H1  UNL     1     -13.146  14.810  66.409  1.00  0.00     0.000 HD 
HETATM   11  H2  UNL     1     -13.608  13.272  65.890  1.00  0.00     0.000 HD 
ENDBRANCH   4   5
ENDBRANCH   3   4
ENDBRANCH   2   3
TORSDOF 3
ENDMDL
MODEL       10
REMARK 921   NORMALIZED FREE ENERGY PREDICTED BY IDOCK:   -3.57 KCAL/MOL
REMARK 922        TOTAL FREE ENERGY PREDICTED BY IDOCK:   -4.43 KCAL/MOL
REMARK 923 INTER-LIGAND FREE ENERGY PREDICTED BY IDOCK:   -4.37 KCAL/MOL
REMARK 924 INTRA-LIGAND FREE ENERGY PREDICTED BY IDOCK:   -0.07 KCAL/MOL
REMARK 927      BINDING AFFINITY PREDICTED BY RF-SCORE:    0.00 PKD
ROOT
HETATM    1  C   UNL     1      -9.760  18.208  68.755  1.00  0.00    -0.325 C  
HETATM    2 SE   UNL     1     -10.312  18.164  66.889  1.00  0.00    -0.366 Se 
ENDROOT
BRANCH   2   3
HETATM    3  C   UNL     1     -10.522  16.220  66.880  1.00  0.00    -0.302 C  
BRANCH   3   4
HETATM    4  C   UNL     1     -10.370  15.721  65.437  1.00  0.00    -0.417 C  
BRANCH   4   5
HETATM    5  CA  UNL     1     -10.928  14.304  65.161  1.00  0.00    -0.363 C  
HETATM    6  C   UNL     1     -12.365  14.323  64.683  1.00  0.00    -0.415 C  
HETATM    7  N   UNL     1     -10.089  13.589  64.198  1.00  0.00    -0.761 NA 
HETATM    8  O   UNL     1     -13.343  13.762  65.426  1.00  0.00    -0.669 OA 
HETATM    9  OXT UNL     1     -12.653  14.822  63.608  1.00  0.00    -0.749 OA 
HETATM   10  H1  UNL     1     -10.457  12.655  64.016  1.00  0.00     0.000 HD 
HETATM   11  H2  UNL     1      -9.114  13.558  64.498  1.00  0.00     0.000 HD 
ENDBRANCH   4   5
ENDBRANCH   3   4
ENDBRANCH   2   3
TORSDOF 3
ENDMDL
MODEL       11
REMARK 921   NORMALIZED FREE ENERGY PREDICTED BY IDOCK:   -3.55 KCAL/MOL
REMARK 922        TOTAL FREE ENERGY PREDICTED BY IDOCK:   -4.41 KCAL/MOL
REMARK 923 INTER-LIGAND FREE ENERGY PREDICTED BY IDOCK:   -4.29 KCAL/MOL
REMARK 924 INTRA-LIGAND FREE ENERGY PREDICTED BY IDOCK:   -0.12 KCAL/MOL
REMARK 927      BINDING AFFINITY PREDICTED BY RF-SCORE:    0.00 PKD
ROOT
HETATM    1  C   UNL     1     -10.860  10.437  68.221  1.00  0.00    -0.254 C  
HETATM    2 SE   UNL     1     -11.198  12.333  67.933  1.00  0.00    -0.297 Se 
ENDROOT
BRANCH   2   3
HETATM    3  C   UNL     1     -11.507  12.102  66.017  1.00  0.00    -0.370 C  
BRANCH   3   4
HETATM    4  C   UNL     1     -12.077  13.412  65.454  1.00  0.00    -0.457 C  
BRANCH   4   5
HETATM    5  CA  UNL     1     -11.148  14.178  64.482  1.00  0.00    -0.330 C  
HETATM    6  C   UNL     1     -10.814  15.573  64.966  1.00  0.00    -0.450 C  
HETATM    7  N   UNL     1      -9.918  13.426  64.231  1.00  0.00    -0.746 NA 
HETATM    8  O   UNL     1     -11.216  16.657  64.269  1.00  0.00    -1.098 OA 
HETATM    9  OXT UNL     1     -10.154  15.734  65.980  1.00  0.00    -0.290 OA 
HETATM   10  H1  UNL     1      -9.306  13.931  63.590  1.00  0.00     0.000 HD 
HETATM   11  H2  UNL     1     -10.114  12.482  63.899  1.00  0.00     0.000 HD 
ENDBRANCH   4   5
ENDBRANCH   3   4
ENDBRANCH   2   3
TORSDOF 3
ENDMDL
MODEL       12
REMARK 921   NORMALIZED FREE ENERGY PREDICTED BY IDOCK:   -3.53 KCAL/MOL
REMARK 922        TOTAL FREE ENERGY PREDICTED BY IDOCK:   -4.38 KCAL/MOL
REMARK 923 INTER-LIGAND FREE ENERGY PREDICTED BY IDOCK:   -4.28 KCAL/MOL
REMARK 924 INTRA-LIGAND FREE ENERGY PREDICTED BY IDOCK:   -0.11 KCAL/MOL
REMARK 927      BINDING AFFINITY PREDICTED BY RF-SCORE:    0.00 PKD
ROOT
HETATM    1  C   UNL     1     -11.431  15.341  68.913  1.00  0.00    -0.332 C  
HETATM    2 SE   UNL     1      -9.893  14.916  67.799  1.00  0.00    -0.218 Se 
ENDROOT
BRANCH   2   3
HETATM    3  C   UNL     1     -10.764  15.537  66.163  1.00  0.00    -0.313 C  
BRANCH   3   4
HETATM    4  C   UNL     1     -10.101  14.844  64.964  1.00  0.00    -0.300 C  
BRANCH   4   5
HETATM    5  CA  UNL     1     -10.657  13.444  64.614  1.00  0.00    -0.415 C  
HETATM    6  C   UNL     1     -12.128  13.470  64.252  1.00  0.00    -0.431 C  
HETATM    7  N   UNL     1      -9.886  12.828  63.533  1.00  0.00    -0.661 NA 
HETATM    8  O   UNL     1     -13.036  12.829  65.018  1.00  0.00    -0.811 OA 
HETATM    9  OXT UNL     1     -12.507  14.050  63.248  1.00  0.00    -0.795 OA 
HETATM   10  H1  UNL     1     -10.253  11.905  63.303  1.00  0.00     0.000 HD 
HETATM   11  H2  UNL     1      -8.891  12.793  63.753  1.00  0.00     0.000 HD 
ENDBRANCH   4   5
ENDBRANCH   3   4
ENDBRANCH   2   3
TORSDOF 3
ENDMDL
MODEL       13
REMARK 921   NORMALIZED FREE ENERGY PREDICTED BY IDOCK:   -3.48 KCAL/MOL
REMARK 922        TOTAL FREE ENERGY PREDICTED BY IDOCK:   -4.32 KCAL/MOL
REMARK 923 INTER-LIGAND FREE ENERGY PREDICTED BY IDOCK:   -4.27 KCAL/MOL
REMARK 924 INTRA-LIGAND FREE ENERGY PREDICTED BY IDOCK:   -0.05 KCAL/MOL
REMARK 927      BINDING AFFINITY PREDICTED BY RF-SCORE:    0.00 PKD
ROOT
HETATM    1  C   UNL     1     -12.152  13.752  70.236  1.00  0.00    -0.355 C  
HETATM    2 SE   UNL     1     -10.750  14.130  68.939  1.00  0.00    -0.241 Se 
ENDROOT
BRANCH   2   3
HETATM    3  C   UNL     1     -11.415  12.804  67.666  1.00  0.00    -0.334 C  
BRANCH   3   4
HETATM    4  C   UNL     1     -11.837  13.531  66.381  1.00  0.00    -0.435 C  
BRANCH   4   5
HETATM    5  CA  UNL     1     -11.380  12.868  65.061  1.00  0.00    -0.305 C  
HETATM    6  C   UNL     1     -12.381  13.046  63.937  1.00  0.00    -0.375 C  
HETATM    7  N   UNL     1     -10.069  13.371  64.648  1.00  0.00    -0.622 NA 
HETATM    8  O   UNL     1     -13.005  11.977  63.398  1.00  0.00    -0.772 OA 
HETATM    9  OXT UNL     1     -12.615  14.156  63.488  1.00  0.00    -0.834 OA 
HETATM   10  H1  UNL     1      -9.767  12.934  63.777  1.00  0.00     0.000 HD 
HETATM   11  H2  UNL     1      -9.373  13.260  65.386  1.00  0.00     0.000 HD 
ENDBRANCH   4   5
ENDBRANCH   3   4
ENDBRANCH   2   3
TORSDOF 3
ENDMDL
MODEL       14
REMARK 921   NORMALIZED FREE ENERGY PREDICTED BY IDOCK:   -3.46 KCAL/MOL
REMARK 922        TOTAL FREE ENERGY PREDICTED BY IDOCK:   -4.31 KCAL/MOL
REMARK 923 INTER-LIGAND FREE ENERGY PREDICTED BY IDOCK:   -4.24 KCAL/MOL
REMARK 924 INTRA-LIGAND FREE ENERGY PREDICTED BY IDOCK:   -0.07 KCAL/MOL
REMARK 927      BINDING AFFINITY PREDICTED BY RF-SCORE:    0.00 PKD
ROOT
HETATM    1  C   UNL     1      -8.866  17.674  66.657  1.00  0.00    -0.263 C  
HETATM    2 SE   UNL     1      -8.865  15.768  66.263  1.00  0.00    -0.311 Se 
ENDROOT
BRANCH   2   3
HETATM    3  C   UNL     1     -10.806  15.696  66.050  1.00  0.00    -0.275 C  
BRANCH   3   4
HETATM    4  C   UNL     1     -11.124  15.346  64.590  1.00  0.00    -0.361 C  
BRANCH   4   5
HETATM    5  CA  UNL     1     -11.620  13.902  64.344  1.00  0.00    -0.382 C  
HETATM    6  C   UNL     1     -12.565  13.414  65.422  1.00  0.00    -0.475 C  
HETATM    7  N   UNL     1     -12.253  13.782  63.030  1.00  0.00    -0.977 NA 
HETATM    8  O   UNL     1     -12.225  12.377  66.216  1.00  0.00    -0.620 OA 
HETATM    9  OXT UNL     1     -13.658  13.938  65.569  1.00  0.00    -0.579 OA 
HETATM   10  H1  UNL     1     -12.580  12.829  62.868  1.00  0.00     0.000 HD 
HETATM   11  H2  UNL     1     -11.635  14.099  62.283  1.00  0.00     0.000 HD 
ENDBRANCH   4   5
ENDBRANCH   3   4
ENDBRANCH   2   3
TORSDOF 3
ENDMDL
MODEL       15
REMARK 921   NORMALIZED FREE ENERGY PREDICTED BY IDOCK:   -3.43 KCAL/MOL
REMARK 922        TOTAL FREE ENERGY PREDICTED BY IDOCK:   -4.27 KCAL/MOL
REMARK 923 INTER-LIGAND FREE ENERGY PREDICTED BY IDOCK:   -4.11 KCAL/MOL
REMARK 924 INTRA-LIGAND FREE ENERGY PREDICTED BY IDOCK:   -0.15 KCAL/MOL
REMARK 927      BINDING AFFINITY PREDICTED BY RF-SCORE:    0.00 PKD
ROOT
HETATM    1  C   UNL     1      -9.652   9.731  64.993  1.00  0.00    -0.264 C  
HETATM    2 SE   UNL     1     -10.509  11.296  64.214  1.00  0.00    -0.375 Se 
ENDROOT
BRANCH   2   3
HETATM    3  C   UNL     1     -10.234  12.383  65.815  1.00  0.00    -0.260 C  
BRANCH   3   4
HETATM    4  C   UNL     1     -10.076  13.849  65.387  1.00  0.00    -0.328 C  
BRANCH   4   5
HETATM    5  CA  UNL     1     -11.332  14.734  65.570  1.00  0.00    -0.343 C  
HETATM    6  C   UNL     1     -11.979  15.113  64.254  1.00  0.00    -0.262 C  
HETATM    7  N   UNL     1     -12.311  14.081  66.440  1.00  0.00    -0.461 NA 
HETATM    8  O   UNL     1     -12.031  16.404  63.860  1.00  0.00    -1.023 OA 
HETATM    9  OXT UNL     1     -12.485  14.258  63.545  1.00  0.00    -0.798 OA 
HETATM   10  H1  UNL     1     -13.139  14.665  66.561  1.00  0.00     0.000 HD 
HETATM   11  H2  UNL     1     -11.902  13.819  67.337  1.00  0.00     0.000 HD 
ENDBRANCH   4   5
ENDBRANCH   3   4
ENDBRANCH   2   3
TORSDOF 3
ENDMDL
MODEL       16
REMARK 921   NORMALIZED FREE ENERGY PREDICTED BY IDOCK:   -3.41 KCAL/MOL
REMARK 922        TOTAL FREE ENERGY PREDICTED BY IDOCK:   -4.24 KCAL/MOL
REMARK 923 INTER-LIGAND FREE ENERGY PREDICTED BY IDOCK:   -4.12 KCAL/MOL
REMARK 924 INTRA-LIGAND FREE ENERGY PREDICTED BY IDOCK:   -0.12 KCAL/MOL
REMARK 927      BINDING AFFINITY PREDICTED BY RF-SCORE:    0.00 PKD
ROOT
HETATM    1  C   UNL     1     -10.882  10.789  68.851  1.00  0.00    -0.227 C  
HETATM    2 SE   UNL     1     -10.987  11.255  66.964  1.00  0.00    -0.287 Se 
ENDROOT
BRANCH   2   3
HETATM    3  C   UNL     1     -11.882  12.956  67.318  1.00  0.00    -0.356 C  
BRANCH   3   4
HETATM    4  C   UNL     1     -11.759  13.840  66.069  1.00  0.00    -0.383 C  
BRANCH   4   5
HETATM    5  CA  UNL     1     -11.227  13.132  64.801  1.00  0.00    -0.324 C  
HETATM    6  C   UNL     1     -12.244  13.095  63.679  1.00  0.00    -0.479 C  
HETATM    7  N   UNL     1      -9.987  13.754  64.334  1.00  0.00    -0.728 NA 
HETATM    8  O   UNL     1     -12.736  11.919  63.236  1.00  0.00    -0.654 OA 
HETATM    9  OXT UNL     1     -12.611  14.129  63.145  1.00  0.00    -0.686 OA 
HETATM   10  H1  UNL     1      -9.636  13.286  63.498  1.00  0.00     0.000 HD 
HETATM   11  H2  UNL     1      -9.282  13.787  65.070  1.00  0.00     0.000 HD 
ENDBRANCH   4   5
ENDBRANCH   3   4
ENDBRANCH   2   3
TORSDOF 3
ENDMDL
MODEL       17
REMARK 921   NORMALIZED FREE ENERGY PREDICTED BY IDOCK:   -3.40 KCAL/MOL
REMARK 922        TOTAL FREE ENERGY PREDICTED BY IDOCK:   -4.23 KCAL/MOL
REMARK 923 INTER-LIGAND FREE ENERGY PREDICTED BY IDOCK:   -4.13 KCAL/MOL
REMARK 924 INTRA-LIGAND FREE ENERGY PREDICTED BY IDOCK:   -0.10 KCAL/MOL
REMARK 927      BINDING AFFINITY PREDICTED BY RF-SCORE:    0.00 PKD
ROOT
HETATM    1  C   UNL     1      -8.321   8.753  62.905  1.00  0.00    -0.182 C  
HETATM    2 SE   UNL     1      -8.651  10.638  62.543  1.00  0.00    -0.272 Se 
ENDROOT
BRANCH   2   3
HETATM    3  C   UNL     1     -10.026  10.777  63.926  1.00  0.00    -0.343 C  
BRANCH   3   4
HETATM    4  C   UNL     1     -11.085  11.785  63.459  1.00  0.00    -0.503 C  
BRANCH   4   5
HETATM    5  CA  UNL     1     -11.140  13.110  64.256  1.00  0.00    -0.396 C  
HETATM    6  C   UNL     1     -12.258  13.134  65.278  1.00  0.00    -0.455 C  
HETATM    7  N   UNL     1      -9.859  13.383  64.908  1.00  0.00    -0.586 NA 
HETATM    8  O   UNL     1     -13.274  14.016  65.165  1.00  0.00    -0.768 OA 
HETATM    9  OXT UNL     1     -12.240  12.372  66.231  1.00  0.00    -0.620 OA 
HETATM   10  H1  UNL     1      -9.895  14.256  65.434  1.00  0.00     0.000 HD 
HETATM   11  H2  UNL     1      -9.088  13.377  64.241  1.00  0.00     0.000 HD 
ENDBRANCH   4   5
ENDBRANCH   3   4
ENDBRANCH   2   3
TORSDOF 3
ENDMDL
MODEL       18
REMARK 921   NORMALIZED FREE ENERGY PREDICTED BY IDOCK:   -3.32 KCAL/MOL
REMARK 922        TOTAL FREE ENERGY PREDICTED BY IDOCK:   -4.14 KCAL/MOL
REMARK 923 INTER-LIGAND FREE ENERGY PREDICTED BY IDOCK:   -4.04 KCAL/MOL
REMARK 924 INTRA-LIGAND FREE ENERGY PREDICTED BY IDOCK:   -0.10 KCAL/MOL
REMARK 927      BINDING AFFINITY PREDICTED BY RF-SCORE:    0.00 PKD
ROOT
HETATM    1  C   UNL     1     -10.126  15.460  69.300  1.00  0.00    -0.253 C  
HETATM    2 SE   UNL     1     -11.999  15.746  68.855  1.00  0.00    -0.109 Se 
ENDROOT
BRANCH   2   3
HETATM    3  C   UNL     1     -12.053  14.232  67.621  1.00  0.00    -0.297 C  
BRANCH   3   4
HETATM    4  C   UNL     1     -11.050  14.490  66.488  1.00  0.00    -0.332 C  
BRANCH   4   5
HETATM    5  CA  UNL     1     -11.084  13.472  65.324  1.00  0.00    -0.297 C  
HETATM    6  C   UNL     1     -12.360  13.551  64.511  1.00  0.00    -0.355 C  
HETATM    7  N   UNL     1      -9.922  13.637  64.449  1.00  0.00    -0.738 NA 
HETATM    8  O   UNL     1     -13.217  12.508  64.474  1.00  0.00    -0.832 OA 
HETATM    9  OXT UNL     1     -12.617  14.551  63.860  1.00  0.00    -0.827 OA 
HETATM   10  H1  UNL     1      -9.945  12.966  63.681  1.00  0.00     0.000 HD 
HETATM   11  H2  UNL     1      -9.047  13.583  64.971  1.00  0.00     0.000 HD 
ENDBRANCH   4   5
ENDBRANCH   3   4
ENDBRANCH   2   3
TORSDOF 3
ENDMDL
MODEL       19
REMARK 921   NORMALIZED FREE ENERGY PREDICTED BY IDOCK:   -3.29 KCAL/MOL
REMARK 922        TOTAL FREE ENERGY PREDICTED BY IDOCK:   -4.10 KCAL/MOL
REMARK 923 INTER-LIGAND FREE ENERGY PREDICTED BY IDOCK:   -4.00 KCAL/MOL
REMARK 924 INTRA-LIGAND FREE ENERGY PREDICTED BY IDOCK:   -0.10 KCAL/MOL
REMARK 927      BINDING AFFINITY PREDICTED BY RF-SCORE:    0.00 PKD
ROOT
HETATM    1  C   UNL     1     -13.696  15.665  72.819  1.00  0.00    -0.578 C  
HETATM    2 SE   UNL     1     -11.816  15.700  72.316  1.00  0.00    -0.518 Se 
ENDROOT
BRANCH   2   3
HETATM    3  C   UNL     1     -12.206  15.477  70.413  1.00  0.00    -0.406 C  
BRANCH   3   4
HETATM    4  C   UNL     1     -12.378  13.979  70.124  1.00  0.00    -0.409 C  
BRANCH   4   5
HETATM    5  CA  UNL     1     -11.334  13.362  69.164  1.00  0.00    -0.280 C  
HETATM    6  C   UNL     1     -11.850  13.220  67.747  1.00  0.00    -0.353 C  
HETATM    7  N   UNL     1     -10.094  14.140  69.169  1.00  0.00    -0.426 NA 
HETATM    8  O   UNL     1     -11.997  11.999  67.189  1.00  0.00    -0.601 OA 
HETATM    9  OXT UNL     1     -12.116  14.209  67.083  1.00  0.00    -0.426 OA 
HETATM   10  H1  UNL     1      -9.405  13.733  68.536  1.00  0.00     0.000 HD 
HETATM   11  H2  UNL     1      -9.720  14.248  70.112  1.00  0.00     0.000 HD 
ENDBRANCH   4   5
ENDBRANCH   3   4
ENDBRANCH   2   3
TORSDOF 3
ENDMDL
MODEL       20
REMARK 921   NORMALIZED FREE ENERGY PREDICTED BY IDOCK:   -3.27 KCAL/MOL
REMARK 922        TOTAL FREE ENERGY PREDICTED BY IDOCK:   -4.08 KCAL/MOL
REMARK 923 INTER-LIGAND FREE ENERGY PREDICTED BY IDOCK:   -3.98 KCAL/MOL
REMARK 924 INTRA-LIGAND FREE ENERGY PREDICTED BY IDOCK:   -0.11 KCAL/MOL
REMARK 927      BINDING AFFINITY PREDICTED BY RF-SCORE:    0.00 PKD
ROOT
HETATM    1  C   UNL     1     -10.364  11.582  68.094  1.00  0.00    -0.195 C  
HETATM    2 SE   UNL     1     -11.854  11.930  69.297  1.00  0.00    -0.302 Se 
ENDROOT
BRANCH   2   3
HETATM    3  C   UNL     1     -11.623  10.240  70.253  1.00  0.00    -0.316 C  
BRANCH   3   4
HETATM    4  C   UNL     1     -12.485  10.277  71.523  1.00  0.00    -0.524 C  
BRANCH   4   5
HETATM    5  CA  UNL     1     -13.232   8.965  71.858  1.00  0.00    -0.393 C  
HETATM    6  C   UNL     1     -12.318   7.758  71.881  1.00  0.00    -0.310 C  
HETATM    7  N   UNL     1     -13.945   9.078  73.132  1.00  0.00    -1.215 NA 
HETATM    8  O   UNL     1     -12.479   6.757  70.990  1.00  0.00    -0.367 OA 
HETATM    9  OXT UNL     1     -11.440   7.664  72.723  1.00  0.00    -0.355 OA 
HETATM   10  H1  UNL     1     -14.438   8.213  73.353  1.00  0.00     0.000 HD 
HETATM   11  H2  UNL     1     -14.572   9.882  73.142  1.00  0.00     0.000 HD 
ENDBRANCH   4   5
ENDBRANCH   3   4
ENDBRANCH   2   3
TORSDOF 3
ENDMDL
MODEL       21
REMARK 921   NORMALIZED FREE ENERGY PREDICTED BY IDOCK:   -3.23 KCAL/MOL
REMARK 922        TOTAL FREE ENERGY PREDICTED BY IDOCK:   -4.03 KCAL/MOL
REMARK 923 INTER-LIGAND FREE ENERGY PREDICTED BY IDOCK:   -3.95 KCAL/MOL
REMARK 924 INTRA-LIGAND FREE ENERGY PREDICTED BY IDOCK:   -0.09 KCAL/MOL
REMARK 927      BINDING AFFINITY PREDICTED BY RF-SCORE:    0.00 PKD
ROOT
HETATM    1  C   UNL     1     -11.336  12.628  68.063  1.00  0.00    -0.290 C  
HETATM    2 SE   UNL     1     -11.564  14.416  67.329  1.00  0.00    -0.392 Se 
ENDROOT
BRANCH   2   3
HETATM    3  C   UNL     1     -12.330  13.754  65.657  1.00  0.00    -0.482 C  
BRANCH   3   4
HETATM    4  C   UNL     1     -11.230  13.743  64.587  1.00  0.00    -0.383 C  
BRANCH   4   5
HETATM    5  CA  UNL     1     -11.384  12.669  63.484  1.00  0.00    -0.463 C  
HETATM    6  C   UNL     1     -10.413  11.518  63.645  1.00  0.00    -0.427 C  
HETATM    7  N   UNL     1     -12.757  12.163  63.435  1.00  0.00    -0.810 NA 
HETATM    8  O   UNL     1      -9.466  11.283  62.711  1.00  0.00    -0.352 OA 
HETATM    9  OXT UNL     1     -10.491  10.773  64.608  1.00  0.00    -0.344 OA 
HETATM   10  H1  UNL     1     -12.859  11.455  62.707  1.00  0.00     0.000 HD 
HETATM   11  H2  UNL     1     -13.433  12.918  63.322  1.00  0.00     0.000 HD 
ENDBRANCH   4   5
ENDBRANCH   3   4
ENDBRANCH   2   3
TORSDOF 3
ENDMDL
MODEL       22
REMARK 921   NORMALIZED FREE ENERGY PREDICTED BY IDOCK:   -3.22 KCAL/MOL
REMARK 922        TOTAL FREE ENERGY PREDICTED BY IDOCK:   -4.02 KCAL/MOL
REMARK 923 INTER-LIGAND FREE ENERGY PREDICTED BY IDOCK:   -3.98 KCAL/MOL
REMARK 924 INTRA-LIGAND FREE ENERGY PREDICTED BY IDOCK:   -0.04 KCAL/MOL
REMARK 927      BINDING AFFINITY PREDICTED BY RF-SCORE:    0.00 PKD
ROOT
HETATM    1  C   UNL     1      -8.340   9.059  66.411  1.00  0.00    -0.115 C  
HETATM    2 SE   UNL     1      -9.204  10.802  66.485  1.00  0.00    -0.172 Se 
ENDROOT
BRANCH   2   3
HETATM    3  C   UNL     1      -9.920  10.649  64.673  1.00  0.00    -0.337 C  
BRANCH   3   4
HETATM    4  C   UNL     1     -10.485  12.014  64.256  1.00  0.00    -0.369 C  
BRANCH   4   5
HETATM    5  CA  UNL     1     -12.028  12.120  64.242  1.00  0.00    -0.380 C  
HETATM    6  C   UNL     1     -12.520  13.549  64.352  1.00  0.00    -0.267 C  
HETATM    7  N   UNL     1     -12.586  11.488  63.045  1.00  0.00    -0.904 NA 
HETATM    8  O   UNL     1     -13.237  13.948  65.424  1.00  0.00    -0.750 OA 
HETATM    9  OXT UNL     1     -12.295  14.350  63.460  1.00  0.00    -0.689 OA 
HETATM   10  H1  UNL     1     -13.604  11.558  63.037  1.00  0.00     0.000 HD 
HETATM   11  H2  UNL     1     -12.274  10.522  62.949  1.00  0.00     0.000 HD 
ENDBRANCH   4   5
ENDBRANCH   3   4
ENDBRANCH   2   3
TORSDOF 3
ENDMDL
MODEL       23
REMARK 921   NORMALIZED FREE ENERGY PREDICTED BY IDOCK:   -3.21 KCAL/MOL
REMARK 922        TOTAL FREE ENERGY PREDICTED BY IDOCK:   -4.02 KCAL/MOL
REMARK 923 INTER-LIGAND FREE ENERGY PREDICTED BY IDOCK:   -3.93 KCAL/MOL
REMARK 924 INTRA-LIGAND FREE ENERGY PREDICTED BY IDOCK:   -0.09 KCAL/MOL
REMARK 927      BINDING AFFINITY PREDICTED BY RF-SCORE:    0.00 PKD
ROOT
HETATM    1  C   UNL     1     -10.655  16.321  67.934  1.00  0.00    -0.318 C  
HETATM    2 SE   UNL     1     -10.040  17.140  66.279  1.00  0.00    -0.310 Se 
ENDROOT
BRANCH   2   3
HETATM    3  C   UNL     1     -10.903  15.790  65.159  1.00  0.00    -0.428 C  
BRANCH   3   4
HETATM    4  C   UNL     1     -11.281  14.593  66.042  1.00  0.00    -0.342 C  
BRANCH   4   5
HETATM    5  CA  UNL     1     -12.188  13.533  65.374  1.00  0.00    -0.447 C  
HETATM    6  C   UNL     1     -11.792  13.241  63.941  1.00  0.00    -0.465 C  
HETATM    7  N   UNL     1     -12.205  12.293  66.152  1.00  0.00    -0.585 NA 
HETATM    8  O   UNL     1     -12.632  13.530  62.924  1.00  0.00    -0.607 OA 
HETATM    9  OXT UNL     1     -10.719  12.717  63.691  1.00  0.00    -0.425 OA 
HETATM   10  H1  UNL     1     -12.804  11.594  65.711  1.00  0.00     0.000 HD 
HETATM   11  H2  UNL     1     -12.474  12.460  67.121  1.00  0.00     0.000 HD 
ENDBRANCH   4   5
ENDBRANCH   3   4
ENDBRANCH   2   3
TORSDOF 3
ENDMDL
MODEL       24
REMARK 921   NORMALIZED FREE ENERGY PREDICTED BY IDOCK:   -3.16 KCAL/MOL
REMARK 922        TOTAL FREE ENERGY PREDICTED BY IDOCK:   -3.95 KCAL/MOL
REMARK 923 INTER-LIGAND FREE ENERGY PREDICTED BY IDOCK:   -3.81 KCAL/MOL
REMARK 924 INTRA-LIGAND FREE ENERGY PREDICTED BY IDOCK:   -0.14 KCAL/MOL
REMARK 927      BINDING AFFINITY PREDICTED BY RF-SCORE:    0.00 PKD
ROOT
HETATM    1  C   UNL     1     -10.087  10.686  68.481  1.00  0.00    -0.172 C  
HETATM    2 SE   UNL     1      -9.920  12.313  67.424  1.00  0.00    -0.202 Se 
ENDROOT
BRANCH   2   3
HETATM    3  C   UNL     1     -11.839  12.680  67.481  1.00  0.00    -0.334 C  
BRANCH   3   4
HETATM    4  C   UNL     1     -12.080  14.096  66.938  1.00  0.00    -0.466 C  
BRANCH   4   5
HETATM    5  CA  UNL     1     -12.628  14.171  65.494  1.00  0.00    -0.479 C  
HETATM    6  C   UNL     1     -11.724  14.952  64.563  1.00  0.00    -0.382 C  
HETATM    7  N   UNL     1     -12.866  12.831  64.954  1.00  0.00    -0.825 NA 
HETATM    8  O   UNL     1     -12.149  16.102  63.998  1.00  0.00    -0.889 OA 
HETATM    9  OXT UNL     1     -10.609  14.537  64.292  1.00  0.00    -0.063 OA 
HETATM   10  H1  UNL     1     -13.227  12.881  64.001  1.00  0.00     0.000 HD 
HETATM   11  H2  UNL     1     -13.476  12.284  65.560  1.00  0.00     0.000 HD 
ENDBRANCH   4   5
ENDBRANCH   3   4
ENDBRANCH   2   3
TORSDOF 3
ENDMDL
MODEL       25
REMARK 921   NORMALIZED FREE ENERGY PREDICTED BY IDOCK:   -3.15 KCAL/MOL
REMARK 922        TOTAL FREE ENERGY PREDICTED BY IDOCK:   -3.94 KCAL/MOL
REMARK 923 INTER-LIGAND FREE ENERGY PREDICTED BY IDOCK:   -3.85 KCAL/MOL
REMARK 924 INTRA-LIGAND FREE ENERGY PREDICTED BY IDOCK:   -0.09 KCAL/MOL
REMARK 927      BINDING AFFINITY PREDICTED BY RF-SCORE:    0.00 PKD
ROOT
HETATM    1  C   UNL     1      -7.712  12.185  67.659  1.00  0.00    -0.148 C  
HETATM    2 SE   UNL     1      -9.569  11.942  68.190  1.00  0.00    -0.197 Se 
ENDROOT
BRANCH   2   3
HETATM    3  C   UNL     1     -10.195  13.436  67.096  1.00  0.00    -0.247 C  
BRANCH   3   4
HETATM    4  C   UNL     1     -11.376  12.953  66.243  1.00  0.00    -0.364 C  
BRANCH   4   5
HETATM    5  CA  UNL     1     -11.045  12.644  64.763  1.00  0.00    -0.300 C  
HETATM    6  C   UNL     1     -12.179  12.994  63.822  1.00  0.00    -0.460 C  
HETATM    7  N   UNL     1      -9.819  13.327  64.347  1.00  0.00    -0.653 NA 
HETATM    8  O   UNL     1     -12.808  12.030  63.116  1.00  0.00    -0.661 OA 
HETATM    9  OXT UNL     1     -12.522  14.156  63.672  1.00  0.00    -0.819 OA 
HETATM   10  H1  UNL     1      -9.601  13.123  63.371  1.00  0.00     0.000 HD 
HETATM   11  H2  UNL     1      -9.037  13.105  64.962  1.00  0.00     0.000 HD 
ENDBRANCH   4   5
ENDBRANCH   3   4
ENDBRANCH   2   3
TORSDOF 3
ENDMDL
MODEL       26
REMARK 921   NORMALIZED FREE ENERGY PREDICTED BY IDOCK:   -3.14 KCAL/MOL
REMARK 922        TOTAL FREE ENERGY PREDICTED BY IDOCK:   -3.93 KCAL/MOL
REMARK 923 INTER-LIGAND FREE ENERGY PREDICTED BY IDOCK:   -3.89 KCAL/MOL
REMARK 924 INTRA-LIGAND FREE ENERGY PREDICTED BY IDOCK:   -0.04 KCAL/MOL
REMARK 927      BINDING AFFINITY PREDICTED BY RF-SCORE:    0.00 PKD
ROOT
HETATM    1  C   UNL     1     -10.374   9.831  70.260  1.00  0.00    -0.291 C  
HETATM    2 SE   UNL     1     -11.720  11.126  69.714  1.00  0.00    -0.376 Se 
ENDROOT
BRANCH   2   3
HETATM    3  C   UNL     1     -10.770  11.589  68.070  1.00  0.00    -0.202 C  
BRANCH   3   4
HETATM    4  C   UNL     1     -11.668  12.509  67.231  1.00  0.00    -0.431 C  
BRANCH   4   5
HETATM    5  CA  UNL     1     -11.482  12.403  65.698  1.00  0.00    -0.367 C  
HETATM    6  C   UNL     1     -12.673  12.931  64.925  1.00  0.00    -0.403 C  
HETATM    7  N   UNL     1     -10.262  13.089  65.270  1.00  0.00    -0.347 NA 
HETATM    8  O   UNL     1     -13.410  12.105  64.152  1.00  0.00    -0.750 OA 
HETATM    9  OXT UNL     1     -12.965  14.114  64.971  1.00  0.00    -0.721 OA 
HETATM   10  H1  UNL     1     -10.140  13.019  64.259  1.00  0.00     0.000 HD 
HETATM   11  H2  UNL     1      -9.442  12.749  65.773  1.00  0.00     0.000 HD 
ENDBRANCH   4   5
ENDBRANCH   3   4
ENDBRANCH   2   3
TORSDOF 3
ENDMDL
MODEL       27
REMARK 921   NORMALIZED FREE ENERGY PREDICTED BY IDOCK:   -3.12 KCAL/MOL
REMARK 922        TOTAL FREE ENERGY PREDICTED BY IDOCK:   -3.90 KCAL/MOL
REMARK 923 INTER-LIGAND FREE ENERGY PREDICTED BY IDOCK:   -3.84 KCAL/MOL
REMARK 924 INTRA-LIGAND FREE ENERGY PREDICTED BY IDOCK:   -0.06 KCAL/MOL
REMARK 927      BINDING AFFINITY PREDICTED BY RF-SCORE:    0.00 PKD
ROOT
HETATM    1  C   UNL     1      -9.933   8.784  66.489  1.00  0.00    -0.290 C  
HETATM    2 SE   UNL     1      -9.800   9.919  68.065  1.00  0.00    -0.151 Se 
ENDROOT
BRANCH   2   3
HETATM    3  C   UNL     1      -9.727  11.565  67.013  1.00  0.00    -0.184 C  
BRANCH   3   4
HETATM    4  C   UNL     1     -11.111  11.811  66.397  1.00  0.00    -0.360 C  
BRANCH   4   5
HETATM    5  CA  UNL     1     -11.108  12.328  64.939  1.00  0.00    -0.311 C  
HETATM    6  C   UNL     1     -12.474  12.792  64.478  1.00  0.00    -0.428 C  
HETATM    7  N   UNL     1     -10.129  13.403  64.767  1.00  0.00    -0.596 NA 
HETATM    8  O   UNL     1     -13.112  12.157  63.472  1.00  0.00    -0.785 OA 
HETATM    9  OXT UNL     1     -13.003  13.764  64.993  1.00  0.00    -0.732 OA 
HETATM   10  H1  UNL     1     -10.127  13.743  63.805  1.00  0.00     0.000 HD 
HETATM   11  H2  UNL     1      -9.197  13.115  65.066  1.00  0.00     0.000 HD 
ENDBRANCH   4   5
ENDBRANCH   3   4
ENDBRANCH   2   3
TORSDOF 3
ENDMDL
MODEL       28
REMARK 921   NORMALIZED FREE ENERGY PREDICTED BY IDOCK:   -3.10 KCAL/MOL
REMARK 922        TOTAL FREE ENERGY PREDICTED BY IDOCK:   -3.88 KCAL/MOL
REMARK 923 INTER-LIGAND FREE ENERGY PREDICTED BY IDOCK:   -3.84 KCAL/MOL
REMARK 924 INTRA-LIGAND FREE ENERGY PREDICTED BY IDOCK:   -0.04 KCAL/MOL
REMARK 927      BINDING AFFINITY PREDICTED BY RF-SCORE:    0.00 PKD
ROOT
HETATM    1  C   UNL     1     -13.246   9.566  71.144  1.00  0.00    -0.264 C  
HETATM    2 SE   UNL     1     -12.111  11.037  70.562  1.00  0.00    -0.399 Se 
ENDROOT
BRANCH   2   3
HETATM    3  C   UNL     1     -13.022  12.339  71.701  1.00  0.00    -0.311 C  
BRANCH   3   4
HETATM    4  C   UNL     1     -12.444  13.731  71.408  1.00  0.00    -0.404 C  
BRANCH   4   5
HETATM    5  CA  UNL     1     -13.195  14.914  72.064  1.00  0.00    -0.350 C  
HETATM    6  C   UNL     1     -12.270  16.042  72.472  1.00  0.00    -0.519 C  
HETATM    7  N   UNL     1     -14.246  15.422  71.181  1.00  0.00    -0.808 NA 
HETATM    8  O   UNL     1     -12.123  16.373  73.772  1.00  0.00    -0.464 OA 
HETATM    9  OXT UNL     1     -11.666  16.682  71.627  1.00  0.00    -0.321 OA 
HETATM   10  H1  UNL     1     -14.741  16.202  71.614  1.00  0.00     0.000 HD 
HETATM   11  H2  UNL     1     -14.887  14.682  70.894  1.00  0.00     0.000 HD 
ENDBRANCH   4   5
ENDBRANCH   3   4
ENDBRANCH   2   3
TORSDOF 3
ENDMDL
MODEL       29
REMARK 921   NORMALIZED FREE ENERGY PREDICTED BY IDOCK:   -3.09 KCAL/MOL
REMARK 922        TOTAL FREE ENERGY PREDICTED BY IDOCK:   -3.87 KCAL/MOL
REMARK 923 INTER-LIGAND FREE ENERGY PREDICTED BY IDOCK:   -3.71 KCAL/MOL
REMARK 924 INTRA-LIGAND FREE ENERGY PREDICTED BY IDOCK:   -0.15 KCAL/MOL
REMARK 927      BINDING AFFINITY PREDICTED BY RF-SCORE:    0.00 PKD
ROOT
HETATM    1  C   UNL     1     -10.274  11.491  64.180  1.00  0.00    -0.325 C  
HETATM    2 SE   UNL     1     -12.060  12.108  63.710  1.00  0.00    -0.535 Se 
ENDROOT
BRANCH   2   3
HETATM    3  C   UNL     1     -11.721  13.925  64.345  1.00  0.00    -0.404 C  
BRANCH   3   4
HETATM    4  C   UNL     1     -11.033  13.842  65.715  1.00  0.00    -0.285 C  
BRANCH   4   5
HETATM    5  CA  UNL     1     -11.943  13.422  66.893  1.00  0.00    -0.385 C  
HETATM    6  C   UNL     1     -11.351  12.301  67.721  1.00  0.00    -0.301 C  
HETATM    7  N   UNL     1     -12.254  14.567  67.749  1.00  0.00    -0.623 NA 
HETATM    8  O   UNL     1     -11.960  11.097  67.784  1.00  0.00    -0.630 OA 
HETATM    9  OXT UNL     1     -10.328  12.480  68.362  1.00  0.00    -0.223 OA 
HETATM   10  H1  UNL     1     -12.854  14.290  68.526  1.00  0.00     0.000 HD 
HETATM   11  H2  UNL     1     -12.659  15.337  67.217  1.00  0.00     0.000 HD 
ENDBRANCH   4   5
ENDBRANCH   3   4
ENDBRANCH   2   3
TORSDOF 3
ENDMDL
MODEL       30
REMARK 921   NORMALIZED FREE ENERGY PREDICTED BY IDOCK:   -3.08 KCAL/MOL
REMARK 922        TOTAL FREE ENERGY PREDICTED BY IDOCK:   -3.86 KCAL/MOL
REMARK 923 INTER-LIGAND FREE ENERGY PREDICTED BY IDOCK:   -3.75 KCAL/MOL
REMARK 924 INTRA-LIGAND FREE ENERGY PREDICTED BY IDOCK:   -0.12 KCAL/MOL
REMARK 927      BINDING AFFINITY PREDICTED BY RF-SCORE:    0.00 PKD
ROOT
HETATM    1  C   UNL     1     -11.729  13.084  67.916  1.00  0.00    -0.357 C  
HETATM    2 SE   UNL     1     -10.520  14.312  68.822  1.00  0.00    -0.240 Se 
ENDROOT
BRANCH   2   3
HETATM    3  C   UNL     1     -11.980  15.383  69.558  1.00  0.00    -0.334 C  
BRANCH   3   4
HETATM    4  C   UNL     1     -11.651  15.716  71.020  1.00  0.00    -0.434 C  
BRANCH   4   5
HETATM    5  CA  UNL     1     -12.223  14.735  72.071  1.00  0.00    -0.331 C  
HETATM    6  C   UNL     1     -12.936  15.440  73.206  1.00  0.00    -0.531 C  
HETATM    7  N   UNL     1     -13.119  13.761  71.445  1.00  0.00    -0.347 NA 
HETATM    8  O   UNL     1     -12.464  15.360  74.469  1.00  0.00    -0.609 OA 
HETATM    9  OXT UNL     1     -13.960  16.069  72.997  1.00  0.00    -0.564 OA 
HETATM   10  H1  UNL     1     -13.496  13.114  72.138  1.00  0.00     0.000 HD 
HETATM   11  H2  UNL     1     -12.662  13.267  70.678  1.00  0.00     0.000 HD 
ENDBRANCH   4   5
ENDBRANCH   3   4
ENDBRANCH   2   3
TORSDOF 3
ENDMDL
MODEL       31
REMARK 921   NORMALIZED FREE ENERGY PREDICTED BY IDOCK:   -3.07 KCAL/MOL
REMARK 922        TOTAL FREE ENERGY PREDICTED BY IDOCK:   -3.85 KCAL/MOL
REMARK 923 INTER-LIGAND FREE ENERGY PREDICTED BY IDOCK:   -3.77 KCAL/MOL
REMARK 924 INTRA-LIGAND FREE ENERGY PREDICTED BY IDOCK:   -0.08 KCAL/MOL
REMARK 927      BINDING AFFINITY PREDICTED BY RF-SCORE:    0.00 PKD
ROOT
HETATM    1  C   UNL     1      -9.494  15.689  69.272  1.00  0.00    -0.264 C  
HETATM    2 SE   UNL     1     -11.254  15.994  68.497  1.00  0.00    -0.375 Se 
ENDROOT
BRANCH   2   3
HETATM    3  C   UNL     1     -10.548  16.173  66.683  1.00  0.00    -0.274 C  
BRANCH   3   4
HETATM    4  C   UNL     1     -11.336  15.234  65.759  1.00  0.00    -0.180 C  
BRANCH   4   5
HETATM    5  CA  UNL     1     -10.838  13.770  65.717  1.00  0.00    -0.277 C  
HETATM    6  C   UNL     1     -11.941  12.766  65.983  1.00  0.00    -0.432 C  
HETATM    7  N   UNL     1     -10.189  13.474  64.438  1.00  0.00    -0.669 NA 
HETATM    8  O   UNL     1     -11.899  11.973  67.075  1.00  0.00    -0.573 OA 
HETATM    9  OXT UNL     1     -12.868  12.644  65.199  1.00  0.00    -0.721 OA 
HETATM   10  H1  UNL     1      -9.861  12.508  64.410  1.00  0.00     0.000 HD 
HETATM   11  H2  UNL     1      -9.438  14.133  64.235  1.00  0.00     0.000 HD 
ENDBRANCH   4   5
ENDBRANCH   3   4
ENDBRANCH   2   3
TORSDOF 3
ENDMDL
MODEL       32
REMARK 921   NORMALIZED FREE ENERGY PREDICTED BY IDOCK:   -3.06 KCAL/MOL
REMARK 922        TOTAL FREE ENERGY PREDICTED BY IDOCK:   -3.84 KCAL/MOL
REMARK 923 INTER-LIGAND FREE ENERGY PREDICTED BY IDOCK:   -3.76 KCAL/MOL
REMARK 924 INTRA-LIGAND FREE ENERGY PREDICTED BY IDOCK:   -0.08 KCAL/MOL
REMARK 927      BINDING AFFINITY PREDICTED BY RF-SCORE:    0.00 PKD
ROOT
HETATM    1  C   UNL     1     -10.637  14.145  68.715  1.00  0.00    -0.253 C  
HETATM    2 SE   UNL     1     -11.457  14.212  66.951  1.00  0.00    -0.375 Se 
ENDROOT
BRANCH   2   3
HETATM    3  C   UNL     1      -9.755  14.543  66.049  1.00  0.00    -0.303 C  
BRANCH   3   4
HETATM    4  C   UNL     1      -9.355  16.006  66.283  1.00  0.00    -0.356 C  
BRANCH   4   5
HETATM    5  CA  UNL     1     -10.490  17.043  66.103  1.00  0.00    -0.271 C  
HETATM    6  C   UNL     1     -10.085  18.438  66.532  1.00  0.00    -0.388 C  
HETATM    7  N   UNL     1     -10.966  17.063  64.719  1.00  0.00    -0.905 NA 
HETATM    8  O   UNL     1     -10.698  19.042  67.572  1.00  0.00    -0.455 OA 
HETATM    9  OXT UNL     1      -9.215  19.042  65.926  1.00  0.00    -0.450 OA 
HETATM   10  H1  UNL     1     -11.715  17.746  64.600  1.00  0.00     0.000 HD 
HETATM   11  H2  UNL     1     -11.251  16.135  64.405  1.00  0.00     0.000 HD 
ENDBRANCH   4   5
ENDBRANCH   3   4
ENDBRANCH   2   3
TORSDOF 3
ENDMDL
MODEL       33
REMARK 921   NORMALIZED FREE ENERGY PREDICTED BY IDOCK:   -3.05 KCAL/MOL
REMARK 922        TOTAL FREE ENERGY PREDICTED BY IDOCK:   -3.82 KCAL/MOL
REMARK 923 INTER-LIGAND FREE ENERGY PREDICTED BY IDOCK:   -3.77 KCAL/MOL
REMARK 924 INTRA-LIGAND FREE ENERGY PREDICTED BY IDOCK:   -0.05 KCAL/MOL
REMARK 927      BINDING AFFINITY PREDICTED BY RF-SCORE:    0.00 PKD
ROOT
HETATM    1  C   UNL     1     -10.853   5.857  69.652  1.00  0.00    -0.374 C  
HETATM    2 SE   UNL     1     -10.444   6.090  71.541  1.00  0.00    -0.236 Se 
ENDROOT
BRANCH   2   3
HETATM    3  C   UNL     1     -12.203   6.840  71.946  1.00  0.00    -0.335 C  
BRANCH   3   4
HETATM    4  C   UNL     1     -12.034   8.333  72.261  1.00  0.00    -0.448 C  
BRANCH   4   5
HETATM    5  CA  UNL     1     -13.307   9.197  72.092  1.00  0.00    -0.463 C  
HETATM    6  C   UNL     1     -13.017  10.558  71.493  1.00  0.00    -0.460 C  
HETATM    7  N   UNL     1     -14.311   8.498  71.287  1.00  0.00    -0.618 NA 
HETATM    8  O   UNL     1     -13.240  11.683  72.205  1.00  0.00    -0.504 OA 
HETATM    9  OXT UNL     1     -12.603  10.654  70.349  1.00  0.00    -0.335 OA 
HETATM   10  H1  UNL     1     -15.150   9.068  71.176  1.00  0.00     0.000 HD 
HETATM   11  H2  UNL     1     -14.528   7.579  71.671  1.00  0.00     0.000 HD 
ENDBRANCH   4   5
ENDBRANCH   3   4
ENDBRANCH   2   3
TORSDOF 3
ENDMDL
MODEL       34
REMARK 921   NORMALIZED FREE ENERGY PREDICTED BY IDOCK:   -3.04 KCAL/MOL
REMARK 922        TOTAL FREE ENERGY PREDICTED BY IDOCK:   -3.81 KCAL/MOL
REMARK 923 INTER-LIGAND FREE ENERGY PREDICTED BY IDOCK:   -3.74 KCAL/MOL
REMARK 924 INTRA-LIGAND FREE ENERGY PREDICTED BY IDOCK:   -0.07 KCAL/MOL
REMARK 927      BINDING AFFINITY PREDICTED BY RF-SCORE:    0.00 PKD
ROOT
HETATM    1  C   UNL     1     -10.403  12.792  66.189  1.00  0.00    -0.269 C  
HETATM    2 SE   UNL     1     -11.890  13.959  66.657  1.00  0.00    -0.441 Se 
ENDROOT
BRANCH   2   3
HETATM    3  C   UNL     1     -10.809  15.034  67.879  1.00  0.00    -0.280 C  
BRANCH   3   4
HETATM    4  C   UNL     1     -11.735  15.644  68.941  1.00  0.00    -0.396 C  
BRANCH   4   5
HETATM    5  CA  UNL     1     -11.548  15.102  70.378  1.00  0.00    -0.292 C  
HETATM    6  C   UNL     1     -12.475  15.760  71.379  1.00  0.00    -0.455 C  
HETATM    7  N   UNL     1     -11.720  13.649  70.416  1.00  0.00    -0.521 NA 
HETATM    8  O   UNL     1     -11.977  16.509  72.386  1.00  0.00    -0.513 OA 
HETATM    9  OXT UNL     1     -13.682  15.601  71.301  1.00  0.00    -0.568 OA 
HETATM   10  H1  UNL     1     -11.597  13.291  71.363  1.00  0.00     0.000 HD 
HETATM   11  H2  UNL     1     -11.104  13.179  69.753  1.00  0.00     0.000 HD 
ENDBRANCH   4   5
ENDBRANCH   3   4
ENDBRANCH   2   3
TORSDOF 3
ENDMDL
MODEL       35
REMARK 921   NORMALIZED FREE ENERGY PREDICTED BY IDOCK:   -3.03 KCAL/MOL
REMARK 922        TOTAL FREE ENERGY PREDICTED BY IDOCK:   -3.80 KCAL/MOL
REMARK 923 INTER-LIGAND FREE ENERGY PREDICTED BY IDOCK:   -3.72 KCAL/MOL
REMARK 924 INTRA-LIGAND FREE ENERGY PREDICTED BY IDOCK:   -0.09 KCAL/MOL
REMARK 927      BINDING AFFINITY PREDICTED BY RF-SCORE:    0.00 PKD
ROOT
HETATM    1  C   UNL     1     -11.584  12.860  67.576  1.00  0.00    -0.356 C  
HETATM    2 SE   UNL     1     -10.363  14.372  67.695  1.00  0.00    -0.238 Se 
ENDROOT
BRANCH   2   3
HETATM    3  C   UNL     1     -11.312  15.162  69.211  1.00  0.00    -0.300 C  
BRANCH   3   4
HETATM    4  C   UNL     1     -11.917  14.029  70.051  1.00  0.00    -0.404 C  
BRANCH   4   5
HETATM    5  CA  UNL     1     -13.260  14.359  70.745  1.00  0.00    -0.231 C  
HETATM    6  C   UNL     1     -13.280  13.961  72.206  1.00  0.00    -0.473 C  
HETATM    7  N   UNL     1     -13.584  15.780  70.608  1.00  0.00    -0.700 NA 
HETATM    8  O   UNL     1     -14.131  13.010  72.647  1.00  0.00    -0.643 OA 
HETATM    9  OXT UNL     1     -12.544  14.513  73.007  1.00  0.00    -0.372 OA 
HETATM   10  H1  UNL     1     -14.470  15.998  71.066  1.00  0.00     0.000 HD 
HETATM   11  H2  UNL     1     -13.582  16.075  69.632  1.00  0.00     0.000 HD 
ENDBRANCH   4   5
ENDBRANCH   3   4
ENDBRANCH   2   3
TORSDOF 3
ENDMDL
MODEL       36
REMARK 921   NORMALIZED FREE ENERGY PREDICTED BY IDOCK:   -3.03 KCAL/MOL
REMARK 922        TOTAL FREE ENERGY PREDICTED BY IDOCK:   -3.80 KCAL/MOL
REMARK 923 INTER-LIGAND FREE ENERGY PREDICTED BY IDOCK:   -3.67 KCAL/MOL
REMARK 924 INTRA-LIGAND FREE ENERGY PREDICTED BY IDOCK:   -0.13 KCAL/MOL
REMARK 927      BINDING AFFINITY PREDICTED BY RF-SCORE:    0.00 PKD
ROOT
HETATM    1  C   UNL     1     -10.472  11.864  63.822  1.00  0.00    -0.423 C  
HETATM    2 SE   UNL     1     -12.280  12.548  63.592  1.00  0.00    -0.557 Se 
ENDROOT
BRANCH   2   3
HETATM    3  C   UNL     1     -11.954  14.110  64.722  1.00  0.00    -0.431 C  
BRANCH   3   4
HETATM    4  C   UNL     1     -12.509  13.821  66.124  1.00  0.00    -0.466 C  
BRANCH   4   5
HETATM    5  CA  UNL     1     -11.503  13.202  67.123  1.00  0.00    -0.334 C  
HETATM    6  C   UNL     1     -11.411  13.979  68.420  1.00  0.00    -0.291 C  
HETATM    7  N   UNL     1     -11.833  11.803  67.400  1.00  0.00    -0.624 NA 
HETATM    8  O   UNL     1     -10.260  14.589  68.775  1.00  0.00    -0.235 OA 
HETATM    9  OXT UNL     1     -12.369  14.042  69.173  1.00  0.00    -0.313 OA 
HETATM   10  H1  UNL     1     -11.169  11.395  68.058  1.00  0.00     0.000 HD 
HETATM   11  H2  UNL     1     -11.897  11.255  66.542  1.00  0.00     0.000 HD 
ENDBRANCH   4   5
ENDBRANCH   3   4
ENDBRANCH   2   3
TORSDOF 3
ENDMDL
MODEL       37
REMARK 921   NORMALIZED FREE ENERGY PREDICTED BY IDOCK:   -3.00 KCAL/MOL
REMARK 922        TOTAL FREE ENERGY PREDICTED BY IDOCK:   -3.76 KCAL/MOL
REMARK 923 INTER-LIGAND FREE ENERGY PREDICTED BY IDOCK:   -3.55 KCAL/MOL
REMARK 924 INTRA-LIGAND FREE ENERGY PREDICTED BY IDOCK:   -0.21 KCAL/MOL
REMARK 927      BINDING AFFINITY PREDICTED BY RF-SCORE:    0.00 PKD
ROOT
HETATM    1  C   UNL     1     -10.549  14.098  68.193  1.00  0.00    -0.246 C  
HETATM    2 SE   UNL     1      -9.831  12.339  67.768  1.00  0.00    -0.207 Se 
ENDROOT
BRANCH   2   3
HETATM    3  C   UNL     1     -11.478  11.755  66.893  1.00  0.00    -0.293 C  
BRANCH   3   4
HETATM    4  C   UNL     1     -11.243  11.732  65.376  1.00  0.00    -0.310 C  
BRANCH   4   5
HETATM    5  CA  UNL     1     -12.303  12.474  64.527  1.00  0.00    -0.467 C  
HETATM    6  C   UNL     1     -12.397  13.948  64.862  1.00  0.00    -0.420 C  
HETATM    7  N   UNL     1     -12.043  12.301  63.097  1.00  0.00    -0.730 NA 
HETATM    8  O   UNL     1     -13.529  14.462  65.388  1.00  0.00    -0.485 OA 
HETATM    9  OXT UNL     1     -11.458  14.694  64.637  1.00  0.00    -0.393 OA 
HETATM   10  H1  UNL     1     -12.742  12.789  62.537  1.00  0.00     0.000 HD 
HETATM   11  H2  UNL     1     -11.979  11.315  62.842  1.00  0.00     0.000 HD 
ENDBRANCH   4   5
ENDBRANCH   3   4
ENDBRANCH   2   3
TORSDOF 3
ENDMDL
MODEL       38
REMARK 921   NORMALIZED FREE ENERGY PREDICTED BY IDOCK:   -3.00 KCAL/MOL
REMARK 922        TOTAL FREE ENERGY PREDICTED BY IDOCK:   -3.76 KCAL/MOL
REMARK 923 INTER-LIGAND FREE ENERGY PREDICTED BY IDOCK:   -3.68 KCAL/MOL
REMARK 924 INTRA-LIGAND FREE ENERGY PREDICTED BY IDOCK:   -0.08 KCAL/MOL
REMARK 927      BINDING AFFINITY PREDICTED BY RF-SCORE:    0.00 PKD
ROOT
HETATM    1  C   UNL     1      -7.170  19.687  66.788  1.00  0.00    -0.224 C  
HETATM    2 SE   UNL     1      -7.832  18.151  67.784  1.00  0.00    -0.239 Se 
ENDROOT
BRANCH   2   3
HETATM    3  C   UNL     1      -7.672  16.947  66.253  1.00  0.00    -0.297 C  
BRANCH   3   4
HETATM    4  C   UNL     1      -8.620  15.759  66.466  1.00  0.00    -0.343 C  
BRANCH   4   5
HETATM    5  CA  UNL     1     -10.130  16.095  66.415  1.00  0.00    -0.308 C  
HETATM    6  C   UNL     1     -10.757  15.777  65.073  1.00  0.00    -0.421 C  
HETATM    7  N   UNL     1     -10.856  15.407  67.484  1.00  0.00    -0.299 NA 
HETATM    8  O   UNL     1     -11.264  16.762  64.301  1.00  0.00    -1.163 OA 
HETATM    9  OXT UNL     1     -10.835  14.623  64.686  1.00  0.00    -0.385 OA 
HETATM   10  H1  UNL     1     -11.851  15.629  67.450  1.00  0.00     0.000 HD 
HETATM   11  H2  UNL     1     -10.456  15.608  68.400  1.00  0.00     0.000 HD 
ENDBRANCH   4   5
ENDBRANCH   3   4
ENDBRANCH   2   3
TORSDOF 3
ENDMDL
MODEL       39
REMARK 921   NORMALIZED FREE ENERGY PREDICTED BY IDOCK:   -3.00 KCAL/MOL
REMARK 922        TOTAL FREE ENERGY PREDICTED BY IDOCK:   -3.76 KCAL/MOL
REMARK 923 INTER-LIGAND FREE ENERGY PREDICTED BY IDOCK:   -3.70 KCAL/MOL
REMARK 924 INTRA-LIGAND FREE ENERGY PREDICTED BY IDOCK:   -0.06 KCAL/MOL
REMARK 927      BINDING AFFINITY PREDICTED BY RF-SCORE:    0.00 PKD
ROOT
HETATM    1  C   UNL     1      -8.996   9.709  63.982  1.00  0.00    -0.223 C  
HETATM    2 SE   UNL     1      -9.490   9.031  65.739  1.00  0.00    -0.198 Se 
ENDROOT
BRANCH   2   3
HETATM    3  C   UNL     1     -10.153  10.766  66.347  1.00  0.00    -0.227 C  
BRANCH   3   4
HETATM    4  C   UNL     1     -10.507  11.611  65.115  1.00  0.00    -0.329 C  
BRANCH   4   5
HETATM    5  CA  UNL     1     -11.495  12.774  65.368  1.00  0.00    -0.327 C  
HETATM    6  C   UNL     1     -12.567  12.876  64.302  1.00  0.00    -0.286 C  
HETATM    7  N   UNL     1     -12.112  12.660  66.690  1.00  0.00    -0.539 NA 
HETATM    8  O   UNL     1     -12.641  13.963  63.504  1.00  0.00    -0.842 OA 
HETATM    9  OXT UNL     1     -13.393  11.988  64.170  1.00  0.00    -0.725 OA 
HETATM   10  H1  UNL     1     -12.763  13.428  66.857  1.00  0.00     0.000 HD 
HETATM   11  H2  UNL     1     -11.411  12.594  67.428  1.00  0.00     0.000 HD 
ENDBRANCH   4   5
ENDBRANCH   3   4
ENDBRANCH   2   3
TORSDOF 3
ENDMDL
MODEL       40
REMARK 921   NORMALIZED FREE ENERGY PREDICTED BY IDOCK:   -2.99 KCAL/MOL
REMARK 922        TOTAL FREE ENERGY PREDICTED BY IDOCK:   -3.75 KCAL/MOL
REMARK 923 INTER-LIGAND FREE ENERGY PREDICTED BY IDOCK:   -3.67 KCAL/MOL
REMARK 924 INTRA-LIGAND FREE ENERGY PREDICTED BY IDOCK:   -0.08 KCAL/MOL
REMARK 927      BINDING AFFINITY PREDICTED BY RF-SCORE:    0.00 PKD
ROOT
HETATM    1  C   UNL     1      -7.748  11.724  68.117  1.00  0.00    -0.124 C  
HETATM    2 SE   UNL     1      -9.691  11.627  68.042  1.00  0.00    -0.187 Se 
ENDROOT
BRANCH   2   3
HETATM    3  C   UNL     1      -9.878  13.507  67.541  1.00  0.00    -0.227 C  
BRANCH   3   4
HETATM    4  C   UNL     1     -10.246  13.581  66.052  1.00  0.00    -0.308 C  
BRANCH   4   5
HETATM    5  CA  UNL     1     -11.588  14.280  65.733  1.00  0.00    -0.346 C  
HETATM    6  C   UNL     1     -12.372  13.577  64.644  1.00  0.00    -0.372 C  
HETATM    7  N   UNL     1     -12.410  14.412  66.937  1.00  0.00    -0.547 NA 
HETATM    8  O   UNL     1     -12.617  14.192  63.467  1.00  0.00    -0.834 OA 
HETATM    9  OXT UNL     1     -12.814  12.455  64.827  1.00  0.00    -0.728 OA 
HETATM   10  H1  UNL     1     -13.295  14.873  66.726  1.00  0.00     0.000 HD 
HETATM   11  H2  UNL     1     -11.907  14.887  67.686  1.00  0.00     0.000 HD 
ENDBRANCH   4   5
ENDBRANCH   3   4
ENDBRANCH   2   3
TORSDOF 3
ENDMDL
MODEL       41
REMARK 921   NORMALIZED FREE ENERGY PREDICTED BY IDOCK:   -2.98 KCAL/MOL
REMARK 922        TOTAL FREE ENERGY PREDICTED BY IDOCK:   -3.74 KCAL/MOL
REMARK 923 INTER-LIGAND FREE ENERGY PREDICTED BY IDOCK:   -3.59 KCAL/MOL
REMARK 924 INTRA-LIGAND FREE ENERGY PREDICTED BY IDOCK:   -0.15 KCAL/MOL
REMARK 927      BINDING AFFINITY PREDICTED BY RF-SCORE:    0.00 PKD
ROOT
HETATM    1  C   UNL     1      -8.545  11.193  66.201  1.00  0.00    -0.172 C  
HETATM    2 SE   UNL     1      -9.729   9.942  65.293  1.00  0.00    -0.291 Se 
ENDROOT
BRANCH   2   3
HETATM    3  C   UNL     1     -10.327  11.275  63.994  1.00  0.00    -0.371 C  
BRANCH   3   4
HETATM    4  C   UNL     1     -10.676  12.566  64.747  1.00  0.00    -0.333 C  
BRANCH   4   5
HETATM    5  CA  UNL     1     -11.976  12.517  65.584  1.00  0.00    -0.433 C  
HETATM    6  C   UNL     1     -11.719  12.595  67.075  1.00  0.00    -0.369 C  
HETATM    7  N   UNL     1     -12.900  13.578  65.179  1.00  0.00    -0.728 NA 
HETATM    8  O   UNL     1     -12.034  11.559  67.881  1.00  0.00    -0.618 OA 
HETATM    9  OXT UNL     1     -11.246  13.606  67.568  1.00  0.00    -0.276 OA 
HETATM   10  H1  UNL     1     -13.757  13.546  65.731  1.00  0.00     0.000 HD 
HETATM   11  H2  UNL     1     -13.095  13.546  64.179  1.00  0.00     0.000 HD 
ENDBRANCH   4   5
ENDBRANCH   3   4
ENDBRANCH   2   3
TORSDOF 3
ENDMDL
MODEL       42
REMARK 921   NORMALIZED FREE ENERGY PREDICTED BY IDOCK:   -2.97 KCAL/MOL
REMARK 922        TOTAL FREE ENERGY PREDICTED BY IDOCK:   -3.73 KCAL/MOL
REMARK 923 INTER-LIGAND FREE ENERGY PREDICTED BY IDOCK:   -3.67 KCAL/MOL
REMARK 924 INTRA-LIGAND FREE ENERGY PREDICTED BY IDOCK:   -0.06 KCAL/MOL
REMARK 927      BINDING AFFINITY PREDICTED BY RF-SCORE:    0.00 PKD
ROOT
HETATM    1  C   UNL     1      -7.124  20.488  66.496  1.00  0.00    -0.240 C  
HETATM    2 SE   UNL     1      -8.476  19.888  67.762  1.00  0.00    -0.290 Se 
ENDROOT
BRANCH   2   3
HETATM    3  C   UNL     1      -9.762  19.454  66.355  1.00  0.00    -0.386 C  
BRANCH   3   4
HETATM    4  C   UNL     1     -10.577  18.233  66.801  1.00  0.00    -0.338 C  
BRANCH   4   5
HETATM    5  CA  UNL     1     -10.060  16.866  66.293  1.00  0.00    -0.324 C  
HETATM    6  C   UNL     1     -10.966  16.246  65.249  1.00  0.00    -0.236 C  
HETATM    7  N   UNL     1      -8.698  16.983  65.769  1.00  0.00    -0.487 NA 
HETATM    8  O   UNL     1     -11.604  15.082  65.497  1.00  0.00    -0.311 OA 
HETATM    9  OXT UNL     1     -11.109  16.779  64.161  1.00  0.00    -1.061 OA 
HETATM   10  H1  UNL     1      -8.357  16.081  65.435  1.00  0.00     0.000 HD 
HETATM   11  H2  UNL     1      -8.065  17.394  66.455  1.00  0.00     0.000 HD 
ENDBRANCH   4   5
ENDBRANCH   3   4
ENDBRANCH   2   3
TORSDOF 3
ENDMDL
MODEL       43
REMARK 921   NORMALIZED FREE ENERGY PREDICTED BY IDOCK:   -2.97 KCAL/MOL
REMARK 922        TOTAL FREE ENERGY PREDICTED BY IDOCK:   -3.73 KCAL/MOL
REMARK 923 INTER-LIGAND FREE ENERGY PREDICTED BY IDOCK:   -3.61 KCAL/MOL
REMARK 924 INTRA-LIGAND FREE ENERGY PREDICTED BY IDOCK:   -0.12 KCAL/MOL
REMARK 927      BINDING AFFINITY PREDICTED BY RF-SCORE:    0.00 PKD
ROOT
HETATM    1  C   UNL     1     -10.353  11.796  63.448  1.00  0.00    -0.439 C  
HETATM    2 SE   UNL     1     -12.249  12.219  63.570  1.00  0.00    -0.544 Se 
ENDROOT
BRANCH   2   3
HETATM    3  C   UNL     1     -12.038  13.201  65.247  1.00  0.00    -0.429 C  
BRANCH   3   4
HETATM    4  C   UNL     1     -11.626  14.643  64.919  1.00  0.00    -0.405 C  
BRANCH   4   5
HETATM    5  CA  UNL     1     -10.392  15.174  65.686  1.00  0.00    -0.357 C  
HETATM    6  C   UNL     1     -10.764  15.940  66.938  1.00  0.00    -0.289 C  
HETATM    7  N   UNL     1      -9.474  14.083  66.020  1.00  0.00    -0.499 NA 
HETATM    8  O   UNL     1     -10.479  17.255  67.049  1.00  0.00    -0.325 OA 
HETATM    9  OXT UNL     1     -11.304  15.372  67.873  1.00  0.00    -0.327 OA 
HETATM   10  H1  UNL     1      -8.660  14.434  66.526  1.00  0.00     0.000 HD 
HETATM   11  H2  UNL     1      -9.203  13.552  65.193  1.00  0.00     0.000 HD 
ENDBRANCH   4   5
ENDBRANCH   3   4
ENDBRANCH   2   3
TORSDOF 3
ENDMDL
MODEL       44
REMARK 921   NORMALIZED FREE ENERGY PREDICTED BY IDOCK:   -2.97 KCAL/MOL
REMARK 922        TOTAL FREE ENERGY PREDICTED BY IDOCK:   -3.72 KCAL/MOL
REMARK 923 INTER-LIGAND FREE ENERGY PREDICTED BY IDOCK:   -3.62 KCAL/MOL
REMARK 924 INTRA-LIGAND FREE ENERGY PREDICTED BY IDOCK:   -0.10 KCAL/MOL
REMARK 927      BINDING AFFINITY PREDICTED BY RF-SCORE:    0.00 PKD
ROOT
HETATM    1  C   UNL     1      -7.554  14.597  68.074  1.00  0.00    -0.128 C  
HETATM    2 SE   UNL     1      -7.918  16.014  66.789  1.00  0.00    -0.262 Se 
ENDROOT
BRANCH   2   3
HETATM    3  C   UNL     1      -9.567  15.173  66.160  1.00  0.00    -0.313 C  
BRANCH   3   4
HETATM    4  C   UNL     1     -10.225  14.446  67.341  1.00  0.00    -0.247 C  
BRANCH   4   5
HETATM    5  CA  UNL     1     -11.770  14.372  67.299  1.00  0.00    -0.404 C  
HETATM    6  C   UNL     1     -12.284  13.434  66.226  1.00  0.00    -0.398 C  
HETATM    7  N   UNL     1     -12.311  13.986  68.603  1.00  0.00    -0.503 NA 
HETATM    8  O   UNL     1     -13.013  13.907  65.192  1.00  0.00    -0.744 OA 
HETATM    9  OXT UNL     1     -12.066  12.236  66.296  1.00  0.00    -0.626 OA 
HETATM   10  H1  UNL     1     -13.330  13.938  68.575  1.00  0.00     0.000 HD 
HETATM   11  H2  UNL     1     -11.985  14.605  69.345  1.00  0.00     0.000 HD 
ENDBRANCH   4   5
ENDBRANCH   3   4
ENDBRANCH   2   3
TORSDOF 3
ENDMDL
MODEL       45
REMARK 921   NORMALIZED FREE ENERGY PREDICTED BY IDOCK:   -2.97 KCAL/MOL
REMARK 922        TOTAL FREE ENERGY PREDICTED BY IDOCK:   -3.72 KCAL/MOL
REMARK 923 INTER-LIGAND FREE ENERGY PREDICTED BY IDOCK:   -3.61 KCAL/MOL
REMARK 924 INTRA-LIGAND FREE ENERGY PREDICTED BY IDOCK:   -0.11 KCAL/MOL
REMARK 927      BINDING AFFINITY PREDICTED BY RF-SCORE:    0.00 PKD
ROOT
HETATM    1  C   UNL     1      -5.334  20.952  68.468  1.00  0.00    -0.326 C  
HETATM    2 SE   UNL     1      -6.348  19.805  69.670  1.00  0.00    -0.352 Se 
ENDROOT
BRANCH   2   3
HETATM    3  C   UNL     1      -6.841  18.559  68.247  1.00  0.00    -0.235 C  
BRANCH   3   4
HETATM    4  C   UNL     1      -8.343  18.709  67.966  1.00  0.00    -0.299 C  
BRANCH   4   5
HETATM    5  CA  UNL     1      -8.713  19.087  66.513  1.00  0.00    -0.322 C  
HETATM    6  C   UNL     1     -10.198  18.969  66.236  1.00  0.00    -0.446 C  
HETATM    7  N   UNL     1      -8.249  20.437  66.188  1.00  0.00    -0.542 NA 
HETATM    8  O   UNL     1     -10.660  18.072  65.339  1.00  0.00    -0.648 OA 
HETATM    9  OXT UNL     1     -10.992  19.703  66.801  1.00  0.00    -0.444 OA 
HETATM   10  H1  UNL     1      -8.493  20.686  65.229  1.00  0.00     0.000 HD 
HETATM   11  H2  UNL     1      -7.249  20.543  66.361  1.00  0.00     0.000 HD 
ENDBRANCH   4   5
ENDBRANCH   3   4
ENDBRANCH   2   3
TORSDOF 3
ENDMDL
MODEL       46
REMARK 921   NORMALIZED FREE ENERGY PREDICTED BY IDOCK:   -2.92 KCAL/MOL
REMARK 922        TOTAL FREE ENERGY PREDICTED BY IDOCK:   -3.67 KCAL/MOL
REMARK 923 INTER-LIGAND FREE ENERGY PREDICTED BY IDOCK:   -3.57 KCAL/MOL
REMARK 924 INTRA-LIGAND FREE ENERGY PREDICTED BY IDOCK:   -0.10 KCAL/MOL
REMARK 927      BINDING AFFINITY PREDICTED BY RF-SCORE:    0.00 PKD
ROOT
HETATM    1  C   UNL     1     -10.181  17.648  68.066  1.00  0.00    -0.362 C  
HETATM    2 SE   UNL     1      -8.660  17.321  66.896  1.00  0.00    -0.253 Se 
ENDROOT
BRANCH   2   3
HETATM    3  C   UNL     1      -9.607  15.960  65.860  1.00  0.00    -0.343 C  
BRANCH   3   4
HETATM    4  C   UNL     1     -10.237  14.956  66.834  1.00  0.00    -0.254 C  
BRANCH   4   5
HETATM    5  CA  UNL     1     -11.752  14.705  66.644  1.00  0.00    -0.333 C  
HETATM    6  C   UNL     1     -12.047  13.693  65.557  1.00  0.00    -0.411 C  
HETATM    7  N   UNL     1     -12.375  14.287  67.901  1.00  0.00    -0.570 NA 
HETATM    8  O   UNL     1     -12.717  14.057  64.443  1.00  0.00    -0.663 OA 
HETATM    9  OXT UNL     1     -11.705  12.529  65.687  1.00  0.00    -0.381 OA 
HETATM   10  H1  UNL     1     -13.374  14.122  67.776  1.00  0.00     0.000 HD 
HETATM   11  H2  UNL     1     -12.195  14.954  68.651  1.00  0.00     0.000 HD 
ENDBRANCH   4   5
ENDBRANCH   3   4
ENDBRANCH   2   3
TORSDOF 3
ENDMDL
MODEL       47
REMARK 921   NORMALIZED FREE ENERGY PREDICTED BY IDOCK:   -2.91 KCAL/MOL
REMARK 922        TOTAL FREE ENERGY PREDICTED BY IDOCK:   -3.65 KCAL/MOL
REMARK 923 INTER-LIGAND FREE ENERGY PREDICTED BY IDOCK:   -3.45 KCAL/MOL
REMARK 924 INTRA-LIGAND FREE ENERGY PREDICTED BY IDOCK:   -0.20 KCAL/MOL
REMARK 927      BINDING AFFINITY PREDICTED BY RF-SCORE:    0.00 PKD
ROOT
HETATM    1  C   UNL     1     -11.772  14.314  68.848  1.00  0.00    -0.328 C  
HETATM    2 SE   UNL     1     -10.184  15.003  67.955  1.00  0.00    -0.229 Se 
ENDROOT
BRANCH   2   3
HETATM    3  C   UNL     1     -11.103  15.219  66.244  1.00  0.00    -0.273 C  
BRANCH   3   4
HETATM    4  C   UNL     1     -12.232  14.183  66.162  1.00  0.00    -0.465 C  
BRANCH   4   5
HETATM    5  CA  UNL     1     -11.981  13.000  65.197  1.00  0.00    -0.402 C  
HETATM    6  C   UNL     1     -11.233  11.857  65.852  1.00  0.00    -0.322 C  
HETATM    7  N   UNL     1     -13.238  12.514  64.626  1.00  0.00    -0.785 NA 
HETATM    8  O   UNL     1     -10.001  11.508  65.424  1.00  0.00    -0.228 OA 
HETATM    9  OXT UNL     1     -11.746  11.221  66.758  1.00  0.00    -0.418 OA 
HETATM   10  H1  UNL     1     -13.072  11.734  63.989  1.00  0.00     0.000 HD 
HETATM   11  H2  UNL     1     -13.761  13.264  64.174  1.00  0.00     0.000 HD 
ENDBRANCH   4   5
ENDBRANCH   3   4
ENDBRANCH   2   3
TORSDOF 3
ENDMDL
MODEL       48
REMARK 921   NORMALIZED FREE ENERGY PREDICTED BY IDOCK:   -2.89 KCAL/MOL
REMARK 922        TOTAL FREE ENERGY PREDICTED BY IDOCK:   -3.64 KCAL/MOL
REMARK 923 INTER-LIGAND FREE ENERGY PREDICTED BY IDOCK:   -3.51 KCAL/MOL
REMARK 924 INTRA-LIGAND FREE ENERGY PREDICTED BY IDOCK:   -0.12 KCAL/MOL
REMARK 927      BINDING AFFINITY PREDICTED BY RF-SCORE:    0.00 PKD
ROOT
HETATM    1  C   UNL     1     -13.521  13.312  72.109  1.00  0.00    -0.562 C  
HETATM    2 SE   UNL     1     -13.262  15.027  72.991  1.00  0.00    -0.485 Se 
ENDROOT
BRANCH   2   3
HETATM    3  C   UNL     1     -12.188  15.746  71.524  1.00  0.00    -0.453 C  
BRANCH   3   4
HETATM    4  C   UNL     1     -12.279  14.780  70.334  1.00  0.00    -0.395 C  
BRANCH   4   5
HETATM    5  CA  UNL     1     -12.077  15.419  68.940  1.00  0.00    -0.198 C  
HETATM    6  C   UNL     1     -10.690  16.001  68.757  1.00  0.00    -0.282 C  
HETATM    7  N   UNL     1     -12.361  14.456  67.876  1.00  0.00    -0.599 NA 
HETATM    8  O   UNL     1     -10.520  17.328  68.576  1.00  0.00    -0.343 OA 
HETATM    9  OXT UNL     1      -9.711  15.272  68.744  1.00  0.00    -0.196 OA 
HETATM   10  H1  UNL     1     -12.228  14.878  66.956  1.00  0.00     0.000 HD 
HETATM   11  H2  UNL     1     -13.293  14.051  67.973  1.00  0.00     0.000 HD 
ENDBRANCH   4   5
ENDBRANCH   3   4
ENDBRANCH   2   3
TORSDOF 3
ENDMDL
MODEL       49
REMARK 921   NORMALIZED FREE ENERGY PREDICTED BY IDOCK:   -2.87 KCAL/MOL
REMARK 922        TOTAL FREE ENERGY PREDICTED BY IDOCK:   -3.62 KCAL/MOL
REMARK 923 INTER-LIGAND FREE ENERGY PREDICTED BY IDOCK:   -3.51 KCAL/MOL
REMARK 924 INTRA-LIGAND FREE ENERGY PREDICTED BY IDOCK:   -0.10 KCAL/MOL
REMARK 927      BINDING AFFINITY PREDICTED BY RF-SCORE:    0.00 PKD
ROOT
HETATM    1  C   UNL     1      -8.452  15.405  69.155  1.00  0.00    -0.241 C  
HETATM    2 SE   UNL     1     -10.154  14.998  68.301  1.00  0.00    -0.226 Se 
ENDROOT
BRANCH   2   3
HETATM    3  C   UNL     1      -9.308  14.404  66.642  1.00  0.00    -0.278 C  
BRANCH   3   4
HETATM    4  C   UNL     1     -10.122  13.234  66.072  1.00  0.00    -0.301 C  
BRANCH   4   5
HETATM    5  CA  UNL     1     -11.612  13.197  66.485  1.00  0.00    -0.356 C  
HETATM    6  C   UNL     1     -12.552  13.424  65.319  1.00  0.00    -0.464 C  
HETATM    7  N   UNL     1     -11.939  11.936  67.154  1.00  0.00    -0.603 NA 
HETATM    8  O   UNL     1     -13.351  14.512  65.282  1.00  0.00    -0.464 OA 
HETATM    9  OXT UNL     1     -12.616  12.612  64.410  1.00  0.00    -0.582 OA 
HETATM   10  H1  UNL     1     -12.922  11.912  67.427  1.00  0.00     0.000 HD 
HETATM   11  H2  UNL     1     -11.324  11.760  67.948  1.00  0.00     0.000 HD 
ENDBRANCH   4   5
ENDBRANCH   3   4
ENDBRANCH   2   3
TORSDOF 3
ENDMDL
MODEL       50
REMARK 921   NORMALIZED FREE ENERGY PREDICTED BY IDOCK:   -2.87 KCAL/MOL
REMARK 922        TOTAL FREE ENERGY PREDICTED BY IDOCK:   -3.61 KCAL/MOL
REMARK 923 INTER-LIGAND FREE ENERGY PREDICTED BY IDOCK:   -3.43 KCAL/MOL
REMARK 924 INTRA-LIGAND FREE ENERGY PREDICTED BY IDOCK:   -0.18 KCAL/MOL
REMARK 927      BINDING AFFINITY PREDICTED BY RF-SCORE:    0.00 PKD
ROOT
HETATM    1  C   UNL     1     -12.479  13.122  65.260  1.00  0.00    -0.495 C  
HETATM    2 SE   UNL     1     -10.872  14.213  65.135  1.00  0.00    -0.397 Se 
ENDROOT
BRANCH   2   3
HETATM    3  C   UNL     1     -11.048  14.881  66.964  1.00  0.00    -0.338 C  
BRANCH   3   4
HETATM    4  C   UNL     1     -11.968  13.931  67.743  1.00  0.00    -0.390 C  
BRANCH   4   5
HETATM    5  CA  UNL     1     -11.272  13.062  68.818  1.00  0.00    -0.282 C  
HETATM    6  C   UNL     1     -11.909  11.697  68.972  1.00  0.00    -0.328 C  
HETATM    7  N   UNL     1      -9.844  12.920  68.531  1.00  0.00    -0.357 NA 
HETATM    8  O   UNL     1     -12.506  11.344  70.130  1.00  0.00    -0.260 OA 
HETATM    9  OXT UNL     1     -11.867  10.888  68.058  1.00  0.00    -0.585 OA 
HETATM   10  H1  UNL     1      -9.385  12.348  69.240  1.00  0.00     0.000 HD 
HETATM   11  H2  UNL     1      -9.388  13.827  68.427  1.00  0.00     0.000 HD 
ENDBRANCH   4   5
ENDBRANCH   3   4
ENDBRANCH   2   3
TORSDOF 3
ENDMDL
MODEL       51
REMARK 921   NORMALIZED FREE ENERGY PREDICTED BY IDOCK:   -2.85 KCAL/MOL
REMARK 922        TOTAL FREE ENERGY PREDICTED BY IDOCK:   -3.59 KCAL/MOL
REMARK 923 INTER-LIGAND FREE ENERGY PREDICTED BY IDOCK:   -3.99 KCAL/MOL
REMARK 924 INTRA-LIGAND FREE ENERGY PREDICTED BY IDOCK:    0.40 KCAL/MOL
REMARK 927      BINDING AFFINITY PREDICTED BY RF-SCORE:    0.00 PKD
ROOT
HETATM    1  C   UNL     1      -7.399  13.368  67.816  1.00  0.00    -0.157 C  
HETATM    2 SE   UNL     1      -9.056  12.488  67.297  1.00  0.00    -0.197 Se 
ENDROOT
BRANCH   2   3
HETATM    3  C   UNL     1     -10.102  14.135  67.426  1.00  0.00    -0.240 C  
BRANCH   3   4
HETATM    4  C   UNL     1     -11.302  14.025  66.475  1.00  0.00    -0.343 C  
BRANCH   4   5
HETATM    5  CA  UNL     1     -11.055  14.524  65.032  1.00  0.00    -0.387 C  
HETATM    6  C   UNL     1     -10.670  15.988  64.974  1.00  0.00    -0.378 C  
HETATM    7  N   UNL     1     -10.037  13.711  64.364  1.00  0.00    -0.748 NA 
HETATM    8  O   UNL     1     -11.472  16.884  64.360  1.00  0.00    -1.052 OA 
HETATM    9  OXT UNL     1      -9.618  16.370  65.459  1.00  0.00    -0.491 OA 
HETATM   10  H1  UNL     1      -9.874  14.040  63.412  1.00  0.00     0.000 HD 
HETATM   11  H2  UNL     1     -10.273  12.719  64.385  1.00  0.00     0.000 HD 
ENDBRANCH   4   5
ENDBRANCH   3   4
ENDBRANCH   2   3
TORSDOF 3
ENDMDL
MODEL       52
REMARK 921   NORMALIZED FREE ENERGY PREDICTED BY IDOCK:   -2.84 KCAL/MOL
REMARK 922        TOTAL FREE ENERGY PREDICTED BY IDOCK:   -3.58 KCAL/MOL
REMARK 923 INTER-LIGAND FREE ENERGY PREDICTED BY IDOCK:   -3.49 KCAL/MOL
REMARK 924 INTRA-LIGAND FREE ENERGY PREDICTED BY IDOCK:   -0.09 KCAL/MOL
REMARK 927      BINDING AFFINITY PREDICTED BY RF-SCORE:    0.00 PKD
ROOT
HETATM    1  C   UNL     1     -13.632  13.768  72.356  1.00  0.00    -0.588 C  
HETATM    2 SE   UNL     1     -12.244  15.019  71.809  1.00  0.00    -0.375 Se 
ENDROOT
BRANCH   2   3
HETATM    3  C   UNL     1     -12.250  14.391  69.958  1.00  0.00    -0.351 C  
BRANCH   3   4
HETATM    4  C   UNL     1     -11.987  12.878  69.956  1.00  0.00    -0.380 C  
BRANCH   4   5
HETATM    5  CA  UNL     1     -11.823  12.233  68.560  1.00  0.00    -0.307 C  
HETATM    6  C   UNL     1     -10.473  12.518  67.936  1.00  0.00    -0.217 C  
HETATM    7  N   UNL     1     -12.053  10.788  68.620  1.00  0.00    -0.816 NA 
HETATM    8  O   UNL     1     -10.380  13.242  66.800  1.00  0.00    -0.253 OA 
HETATM    9  OXT UNL     1      -9.454  12.075  68.439  1.00  0.00    -0.201 OA 
HETATM   10  H1  UNL     1     -11.945  10.363  67.699  1.00  0.00     0.000 HD 
HETATM   11  H2  UNL     1     -12.959  10.567  69.033  1.00  0.00     0.000 HD 
ENDBRANCH   4   5
ENDBRANCH   3   4
ENDBRANCH   2   3
TORSDOF 3
ENDMDL
MODEL       53
REMARK 921   NORMALIZED FREE ENERGY PREDICTED BY IDOCK:   -2.83 KCAL/MOL
REMARK 922        TOTAL FREE ENERGY PREDICTED BY IDOCK:   -3.56 KCAL/MOL
REMARK 923 INTER-LIGAND FREE ENERGY PREDICTED BY IDOCK:   -3.33 KCAL/MOL
REMARK 924 INTRA-LIGAND FREE ENERGY PREDICTED BY IDOCK:   -0.23 KCAL/MOL
REMARK 927      BINDING AFFINITY PREDICTED BY RF-SCORE:    0.00 PKD
ROOT
HETATM    1  C   UNL     1     -11.551   6.458  72.250  1.00  0.00    -0.299 C  
HETATM    2 SE   UNL     1     -10.961   7.127  70.520  1.00  0.00    -0.271 Se 
ENDROOT
BRANCH   2   3
HETATM    3  C   UNL     1     -10.011   8.644  71.304  1.00  0.00    -0.246 C  
BRANCH   3   4
HETATM    4  C   UNL     1     -10.633   9.940  70.766  1.00  0.00    -0.309 C  
BRANCH   4   5
HETATM    5  CA  UNL     1     -12.122   9.842  70.356  1.00  0.00    -0.153 C  
HETATM    6  C   UNL     1     -13.067  10.157  71.497  1.00  0.00    -0.429 C  
HETATM    7  N   UNL     1     -12.409  10.712  69.213  1.00  0.00    -0.717 NA 
HETATM    8  O   UNL     1     -13.901   9.210  71.979  1.00  0.00    -0.413 OA 
HETATM    9  OXT UNL     1     -13.105  11.278  71.977  1.00  0.00    -0.495 OA 
HETATM   10  H1  UNL     1     -13.390  10.647  68.943  1.00  0.00     0.000 HD 
HETATM   11  H2  UNL     1     -11.788  10.518  68.427  1.00  0.00     0.000 HD 
ENDBRANCH   4   5
ENDBRANCH   3   4
ENDBRANCH   2   3
TORSDOF 3
ENDMDL
MODEL       54
REMARK 921   NORMALIZED FREE ENERGY PREDICTED BY IDOCK:   -2.82 KCAL/MOL
REMARK 922        TOTAL FREE ENERGY PREDICTED BY IDOCK:   -3.55 KCAL/MOL
REMARK 923 INTER-LIGAND FREE ENERGY PREDICTED BY IDOCK:   -3.50 KCAL/MOL
REMARK 924 INTRA-LIGAND FREE ENERGY PREDICTED BY IDOCK:   -0.05 KCAL/MOL
REMARK 927      BINDING AFFINITY PREDICTED BY RF-SCORE:    0.00 PKD
ROOT
HETATM    1  C   UNL     1     -13.009   9.800  71.408  1.00  0.00    -0.395 C  
HETATM    2 SE   UNL     1     -11.363  10.079  70.407  1.00  0.00    -0.340 Se 
ENDROOT
BRANCH   2   3
HETATM    3  C   UNL     1     -12.078  11.620  69.442  1.00  0.00    -0.263 C  
BRANCH   3   4
HETATM    4  C   UNL     1     -11.524  11.598  68.010  1.00  0.00    -0.385 C  
BRANCH   4   5
HETATM    5  CA  UNL     1     -11.413  12.978  67.319  1.00  0.00    -0.332 C  
HETATM    6  C   UNL     1     -11.676  12.911  65.829  1.00  0.00    -0.390 C  
HETATM    7  N   UNL     1     -12.310  13.951  67.943  1.00  0.00    -0.453 NA 
HETATM    8  O   UNL     1     -10.702  13.211  64.944  1.00  0.00    -0.312 OA 
HETATM    9  OXT UNL     1     -12.782  12.608  65.410  1.00  0.00    -0.635 OA 
HETATM   10  H1  UNL     1     -12.236  14.861  67.487  1.00  0.00     0.000 HD 
HETATM   11  H2  UNL     1     -12.151  14.020  68.948  1.00  0.00     0.000 HD 
ENDBRANCH   4   5
ENDBRANCH   3   4
ENDBRANCH   2   3
TORSDOF 3
ENDMDL
MODEL       55
REMARK 921   NORMALIZED FREE ENERGY PREDICTED BY IDOCK:   -2.81 KCAL/MOL
REMARK 922        TOTAL FREE ENERGY PREDICTED BY IDOCK:   -3.54 KCAL/MOL
REMARK 923 INTER-LIGAND FREE ENERGY PREDICTED BY IDOCK:   -3.37 KCAL/MOL
REMARK 924 INTRA-LIGAND FREE ENERGY PREDICTED BY IDOCK:   -0.17 KCAL/MOL
REMARK 927      BINDING AFFINITY PREDICTED BY RF-SCORE:    0.00 PKD
ROOT
HETATM    1  C   UNL     1      -8.321  16.707  68.755  1.00  0.00    -0.252 C  
HETATM    2 SE   UNL     1     -10.200  17.212  68.680  1.00  0.00    -0.354 Se 
ENDROOT
BRANCH   2   3
HETATM    3  C   UNL     1      -9.816  19.110  68.946  1.00  0.00    -0.424 C  
BRANCH   3   4
HETATM    4  C   UNL     1      -8.396  19.396  68.438  1.00  0.00    -0.385 C  
BRANCH   4   5
HETATM    5  CA  UNL     1      -8.309  20.248  67.150  1.00  0.00    -0.336 C  
HETATM    6  C   UNL     1      -7.301  19.709  66.156  1.00  0.00    -0.290 C  
HETATM    7  N   UNL     1      -9.622  20.373  66.514  1.00  0.00    -0.630 NA 
HETATM    8  O   UNL     1      -6.208  20.430  65.826  1.00  0.00    -0.198 OA 
HETATM    9  OXT UNL     1      -7.478  18.626  65.622  1.00  0.00    -0.496 OA 
HETATM   10  H1  UNL     1      -9.564  20.935  65.665  1.00  0.00     0.000 HD 
HETATM   11  H2  UNL     1     -10.320  20.739  67.161  1.00  0.00     0.000 HD 
ENDBRANCH   4   5
ENDBRANCH   3   4
ENDBRANCH   2   3
TORSDOF 3
ENDMDL
MODEL       56
REMARK 921   NORMALIZED FREE ENERGY PREDICTED BY IDOCK:   -2.80 KCAL/MOL
REMARK 922        TOTAL FREE ENERGY PREDICTED BY IDOCK:   -3.53 KCAL/MOL
REMARK 923 INTER-LIGAND FREE ENERGY PREDICTED BY IDOCK:   -3.47 KCAL/MOL
REMARK 924 INTRA-LIGAND FREE ENERGY PREDICTED BY IDOCK:   -0.06 KCAL/MOL
REMARK 927      BINDING AFFINITY PREDICTED BY RF-SCORE:    0.00 PKD
ROOT
HETATM    1  C   UNL     1     -12.061  13.023  63.476  1.00  0.00    -0.542 C  
HETATM    2 SE   UNL     1     -12.174  13.899  65.211  1.00  0.00    -0.459 Se 
ENDROOT
BRANCH   2   3
HETATM    3  C   UNL     1     -11.554  12.317  66.177  1.00  0.00    -0.390 C  
BRANCH   3   4
HETATM    4  C   UNL     1     -11.874  12.499  67.667  1.00  0.00    -0.381 C  
BRANCH   4   5
HETATM    5  CA  UNL     1     -11.094  13.629  68.381  1.00  0.00    -0.264 C  
HETATM    6  C   UNL     1     -11.838  14.192  69.574  1.00  0.00    -0.322 C  
HETATM    7  N   UNL     1      -9.765  13.171  68.789  1.00  0.00    -0.418 NA 
HETATM    8  O   UNL     1     -12.251  15.477  69.582  1.00  0.00    -0.343 OA 
HETATM    9  OXT UNL     1     -12.050  13.497  70.555  1.00  0.00    -0.347 OA 
HETATM   10  H1  UNL     1      -9.251  13.916  69.260  1.00  0.00     0.000 HD 
HETATM   11  H2  UNL     1      -9.240  12.790  68.002  1.00  0.00     0.000 HD 
ENDBRANCH   4   5
ENDBRANCH   3   4
ENDBRANCH   2   3
TORSDOF 3
ENDMDL
MODEL       57
REMARK 921   NORMALIZED FREE ENERGY PREDICTED BY IDOCK:   -2.79 KCAL/MOL
REMARK 922        TOTAL FREE ENERGY PREDICTED BY IDOCK:   -3.52 KCAL/MOL
REMARK 923 INTER-LIGAND FREE ENERGY PREDICTED BY IDOCK:   -3.40 KCAL/MOL
REMARK 924 INTRA-LIGAND FREE ENERGY PREDICTED BY IDOCK:   -0.12 KCAL/MOL
REMARK 927      BINDING AFFINITY PREDICTED BY RF-SCORE:    0.00 PKD
ROOT
HETATM    1  C   UNL     1      -8.683  12.205  67.418  1.00  0.00    -0.177 C  
HETATM    2 SE   UNL     1      -9.094  10.877  66.054  1.00  0.00    -0.196 Se 
ENDROOT
BRANCH   2   3
HETATM    3  C   UNL     1     -10.048  12.162  64.931  1.00  0.00    -0.254 C  
BRANCH   3   4
HETATM    4  C   UNL     1     -11.411  12.453  65.575  1.00  0.00    -0.404 C  
BRANCH   4   5
HETATM    5  CA  UNL     1     -11.675  13.935  65.932  1.00  0.00    -0.359 C  
HETATM    6  C   UNL     1     -11.754  14.828  64.711  1.00  0.00    -0.422 C  
HETATM    7  N   UNL     1     -12.893  14.072  66.733  1.00  0.00    -0.283 NA 
HETATM    8  O   UNL     1     -10.843  15.804  64.514  1.00  0.00    -0.467 OA 
HETATM    9  OXT UNL     1     -12.659  14.692  63.904  1.00  0.00    -0.834 OA 
HETATM   10  H1  UNL     1     -13.067  15.049  66.968  1.00  0.00     0.000 HD 
HETATM   11  H2  UNL     1     -12.865  13.483  67.565  1.00  0.00     0.000 HD 
ENDBRANCH   4   5
ENDBRANCH   3   4
ENDBRANCH   2   3
TORSDOF 3
ENDMDL
MODEL       58
REMARK 921   NORMALIZED FREE ENERGY PREDICTED BY IDOCK:   -2.75 KCAL/MOL
REMARK 922        TOTAL FREE ENERGY PREDICTED BY IDOCK:   -3.47 KCAL/MOL
REMARK 923 INTER-LIGAND FREE ENERGY PREDICTED BY IDOCK:   -3.36 KCAL/MOL
REMARK 924 INTRA-LIGAND FREE ENERGY PREDICTED BY IDOCK:   -0.11 KCAL/MOL
REMARK 927      BINDING AFFINITY PREDICTED BY RF-SCORE:    0.00 PKD
ROOT
HETATM    1  C   UNL     1      -6.888  20.837  67.001  1.00  0.00    -0.323 C  
HETATM    2 SE   UNL     1      -6.951  20.045  68.779  1.00  0.00    -0.232 Se 
ENDROOT
BRANCH   2   3
HETATM    3  C   UNL     1      -7.976  18.495  68.175  1.00  0.00    -0.289 C  
BRANCH   3   4
HETATM    4  C   UNL     1      -8.409  18.733  66.721  1.00  0.00    -0.288 C  
BRANCH   4   5
HETATM    5  CA  UNL     1      -9.928  18.617  66.452  1.00  0.00    -0.388 C  
HETATM    6  C   UNL     1     -10.348  17.219  66.047  1.00  0.00    -0.305 C  
HETATM    7  N   UNL     1     -10.701  19.055  67.615  1.00  0.00    -0.438 NA 
HETATM    8  O   UNL     1     -10.859  16.984  64.819  1.00  0.00    -0.820 OA 
HETATM    9  OXT UNL     1     -10.252  16.293  66.834  1.00  0.00    -0.275 OA 
HETATM   10  H1  UNL     1     -11.703  18.979  67.437  1.00  0.00     0.000 HD 
HETATM   11  H2  UNL     1     -10.442  19.997  67.907  1.00  0.00     0.000 HD 
ENDBRANCH   4   5
ENDBRANCH   3   4
ENDBRANCH   2   3
TORSDOF 3
ENDMDL
MODEL       59
REMARK 921   NORMALIZED FREE ENERGY PREDICTED BY IDOCK:   -2.73 KCAL/MOL
REMARK 922        TOTAL FREE ENERGY PREDICTED BY IDOCK:   -3.45 KCAL/MOL
REMARK 923 INTER-LIGAND FREE ENERGY PREDICTED BY IDOCK:   -3.31 KCAL/MOL
REMARK 924 INTRA-LIGAND FREE ENERGY PREDICTED BY IDOCK:   -0.14 KCAL/MOL
REMARK 927      BINDING AFFINITY PREDICTED BY RF-SCORE:    0.00 PKD
ROOT
HETATM    1  C   UNL     1     -12.146  14.715  64.231  1.00  0.00    -0.415 C  
HETATM    2 SE   UNL     1     -12.654  13.356  65.529  1.00  0.00    -0.406 Se 
ENDROOT
BRANCH   2   3
HETATM    3  C   UNL     1     -11.853  14.326  67.026  1.00  0.00    -0.428 C  
BRANCH   3   4
HETATM    4  C   UNL     1     -10.446  14.782  66.614  1.00  0.00    -0.286 C  
BRANCH   4   5
HETATM    5  CA  UNL     1      -9.953  16.093  67.270  1.00  0.00    -0.248 C  
HETATM    6  C   UNL     1      -9.489  17.118  66.257  1.00  0.00    -0.243 C  
HETATM    7  N   UNL     1     -10.988  16.670  68.130  1.00  0.00    -0.351 NA 
HETATM    8  O   UNL     1      -8.199  17.515  66.223  1.00  0.00    -0.336 OA 
HETATM    9  OXT UNL     1     -10.282  17.617  65.475  1.00  0.00    -0.600 OA 
HETATM   10  H1  UNL     1     -10.662  17.535  68.563  1.00  0.00     0.000 HD 
HETATM   11  H2  UNL     1     -11.316  16.001  68.826  1.00  0.00     0.000 HD 
ENDBRANCH   4   5
ENDBRANCH   3   4
ENDBRANCH   2   3
TORSDOF 3
ENDMDL
MODEL       60
REMARK 921   NORMALIZED FREE ENERGY PREDICTED BY IDOCK:   -2.72 KCAL/MOL
REMARK 922        TOTAL FREE ENERGY PREDICTED BY IDOCK:   -3.44 KCAL/MOL
REMARK 923 INTER-LIGAND FREE ENERGY PREDICTED BY IDOCK:   -3.22 KCAL/MOL
REMARK 924 INTRA-LIGAND FREE ENERGY PREDICTED BY IDOCK:   -0.22 KCAL/MOL
REMARK 927      BINDING AFFINITY PREDICTED BY RF-SCORE:    0.00 PKD
ROOT
HETATM    1  C   UNL     1     -12.052  14.302  69.740  1.00  0.00    -0.347 C  
HETATM    2 SE   UNL     1     -10.800  15.744  69.361  1.00  0.00    -0.298 Se 
ENDROOT
BRANCH   2   3
HETATM    3  C   UNL     1      -9.484  14.542  68.559  1.00  0.00    -0.211 C  
BRANCH   3   4
HETATM    4  C   UNL     1     -10.193  13.240  68.159  1.00  0.00    -0.243 C  
BRANCH   4   5
HETATM    5  CA  UNL     1     -10.373  13.020  66.639  1.00  0.00    -0.260 C  
HETATM    6  C   UNL     1     -11.806  13.203  66.185  1.00  0.00    -0.401 C  
HETATM    7  N   UNL     1      -9.488  13.900  65.874  1.00  0.00    -0.511 NA 
HETATM    8  O   UNL     1     -12.502  12.167  65.671  1.00  0.00    -0.501 OA 
HETATM    9  OXT UNL     1     -12.341  14.298  66.255  1.00  0.00    -0.443 OA 
HETATM   10  H1  UNL     1      -9.607  13.754  64.871  1.00  0.00     0.000 HD 
HETATM   11  H2  UNL     1      -8.514  13.793  66.156  1.00  0.00     0.000 HD 
ENDBRANCH   4   5
ENDBRANCH   3   4
ENDBRANCH   2   3
TORSDOF 3
ENDMDL
MODEL       61
REMARK 921   NORMALIZED FREE ENERGY PREDICTED BY IDOCK:   -2.71 KCAL/MOL
REMARK 922        TOTAL FREE ENERGY PREDICTED BY IDOCK:   -3.42 KCAL/MOL
REMARK 923 INTER-LIGAND FREE ENERGY PREDICTED BY IDOCK:   -3.35 KCAL/MOL
REMARK 924 INTRA-LIGAND FREE ENERGY PREDICTED BY IDOCK:   -0.07 KCAL/MOL
REMARK 927      BINDING AFFINITY PREDICTED BY RF-SCORE:    0.00 PKD
ROOT
HETATM    1  C   UNL     1     -12.194  11.361  70.545  1.00  0.00    -0.386 C  
HETATM    2 SE   UNL     1     -11.565  12.521  69.113  1.00  0.00    -0.332 Se 
ENDROOT
BRANCH   2   3
HETATM    3  C   UNL     1     -11.459  11.058  67.822  1.00  0.00    -0.261 C  
BRANCH   3   4
HETATM    4  C   UNL     1     -10.721  11.562  66.574  1.00  0.00    -0.318 C  
BRANCH   4   5
HETATM    5  CA  UNL     1     -11.384  12.757  65.847  1.00  0.00    -0.324 C  
HETATM    6  C   UNL     1     -10.456  13.429  64.856  1.00  0.00    -0.390 C  
HETATM    7  N   UNL     1     -12.618  12.343  65.177  1.00  0.00    -0.599 NA 
HETATM    8  O   UNL     1     -10.066  14.708  65.040  1.00  0.00    -0.384 OA 
HETATM    9  OXT UNL     1     -10.071  12.830  63.865  1.00  0.00    -0.358 OA 
HETATM   10  H1  UNL     1     -13.055  13.131  64.698  1.00  0.00     0.000 HD 
HETATM   11  H2  UNL     1     -13.264  11.890  65.823  1.00  0.00     0.000 HD 
ENDBRANCH   4   5
ENDBRANCH   3   4
ENDBRANCH   2   3
TORSDOF 3
ENDMDL
MODEL       62
REMARK 921   NORMALIZED FREE ENERGY PREDICTED BY IDOCK:   -2.67 KCAL/MOL
REMARK 922        TOTAL FREE ENERGY PREDICTED BY IDOCK:   -3.37 KCAL/MOL
REMARK 923 INTER-LIGAND FREE ENERGY PREDICTED BY IDOCK:   -3.31 KCAL/MOL
REMARK 924 INTRA-LIGAND FREE ENERGY PREDICTED BY IDOCK:   -0.07 KCAL/MOL
REMARK 927      BINDING AFFINITY PREDICTED BY RF-SCORE:    0.00 PKD
ROOT
HETATM    1  C   UNL     1      -9.563  16.256  68.821  1.00  0.00    -0.242 C  
HETATM    2 SE   UNL     1     -11.239  15.509  68.169  1.00  0.00    -0.345 Se 
ENDROOT
BRANCH   2   3
HETATM    3  C   UNL     1     -10.413  13.816  67.649  1.00  0.00    -0.242 C  
BRANCH   3   4
HETATM    4  C   UNL     1     -11.231  13.207  66.502  1.00  0.00    -0.339 C  
BRANCH   4   5
HETATM    5  CA  UNL     1     -10.469  13.017  65.169  1.00  0.00    -0.320 C  
HETATM    6  C   UNL     1     -11.175  12.071  64.219  1.00  0.00    -0.357 C  
HETATM    7  N   UNL     1     -10.234  14.304  64.512  1.00  0.00    -0.651 NA 
HETATM    8  O   UNL     1     -10.601  10.902  63.862  1.00  0.00    -0.359 OA 
HETATM    9  OXT UNL     1     -12.259  12.367  63.745  1.00  0.00    -0.453 OA 
HETATM   10  H1  UNL     1      -9.732  14.179  63.633  1.00  0.00     0.000 HD 
HETATM   11  H2  UNL     1      -9.756  14.960  65.129  1.00  0.00     0.000 HD 
ENDBRANCH   4   5
ENDBRANCH   3   4
ENDBRANCH   2   3
TORSDOF 3
ENDMDL
MODEL       63
REMARK 921   NORMALIZED FREE ENERGY PREDICTED BY IDOCK:   -2.65 KCAL/MOL
REMARK 922        TOTAL FREE ENERGY PREDICTED BY IDOCK:   -3.35 KCAL/MOL
REMARK 923 INTER-LIGAND FREE ENERGY PREDICTED BY IDOCK:   -3.24 KCAL/MOL
REMARK 924 INTRA-LIGAND FREE ENERGY PREDICTED BY IDOCK:   -0.12 KCAL/MOL
REMARK 927      BINDING AFFINITY PREDICTED BY RF-SCORE:    0.00 PKD
ROOT
HETATM    1  C   UNL     1     -11.355  15.499  68.556  1.00  0.00    -0.351 C  
HETATM    2 SE   UNL     1      -9.607  15.007  67.854  1.00  0.00    -0.205 Se 
ENDROOT
BRANCH   2   3
HETATM    3  C   UNL     1      -8.713  16.521  68.709  1.00  0.00    -0.259 C  
BRANCH   3   4
HETATM    4  C   UNL     1      -9.360  17.818  68.203  1.00  0.00    -0.281 C  
BRANCH   4   5
HETATM    5  CA  UNL     1      -9.077  18.169  66.724  1.00  0.00    -0.282 C  
HETATM    6  C   UNL     1     -10.317  18.621  65.980  1.00  0.00    -0.399 C  
HETATM    7  N   UNL     1      -8.031  19.188  66.618  1.00  0.00    -0.260 NA 
HETATM    8  O   UNL     1     -10.801  17.896  64.948  1.00  0.00    -0.768 OA 
HETATM    9  OXT UNL     1     -10.879  19.659  66.288  1.00  0.00    -0.430 OA 
HETATM   10  H1  UNL     1      -7.844  19.419  65.642  1.00  0.00     0.000 HD 
HETATM   11  H2  UNL     1      -7.181  18.907  67.107  1.00  0.00     0.000 HD 
ENDBRANCH   4   5
ENDBRANCH   3   4
ENDBRANCH   2   3
TORSDOF 3
ENDMDL
MODEL       64
REMARK 921   NORMALIZED FREE ENERGY PREDICTED BY IDOCK:   -2.65 KCAL/MOL
REMARK 922        TOTAL FREE ENERGY PREDICTED BY IDOCK:   -3.35 KCAL/MOL
REMARK 923 INTER-LIGAND FREE ENERGY PREDICTED BY IDOCK:   -3.26 KCAL/MOL
REMARK 924 INTRA-LIGAND FREE ENERGY PREDICTED BY IDOCK:   -0.09 KCAL/MOL
REMARK 927      BINDING AFFINITY PREDICTED BY RF-SCORE:    0.00 PKD
ROOT
HETATM    1  C   UNL     1      -7.814  11.354  67.050  1.00  0.00    -0.158 C  
HETATM    2 SE   UNL     1      -8.348  10.537  65.366  1.00  0.00    -0.147 Se 
ENDROOT
BRANCH   2   3
HETATM    3  C   UNL     1     -10.238  10.482  65.863  1.00  0.00    -0.245 C  
BRANCH   3   4
HETATM    4  C   UNL     1     -10.605  11.815  66.531  1.00  0.00    -0.289 C  
BRANCH   4   5
HETATM    5  CA  UNL     1     -10.952  12.971  65.563  1.00  0.00    -0.274 C  
HETATM    6  C   UNL     1     -12.139  13.789  66.027  1.00  0.00    -0.436 C  
HETATM    7  N   UNL     1      -9.795  13.842  65.351  1.00  0.00    -0.536 NA 
HETATM    8  O   UNL     1     -13.277  13.821  65.301  1.00  0.00    -0.755 OA 
HETATM    9  OXT UNL     1     -12.072  14.450  67.050  1.00  0.00    -0.418 OA 
HETATM   10  H1  UNL     1     -10.024  14.604  64.712  1.00  0.00     0.000 HD 
HETATM   11  H2  UNL     1      -8.981  13.316  65.033  1.00  0.00     0.000 HD 
ENDBRANCH   4   5
ENDBRANCH   3   4
ENDBRANCH   2   3
TORSDOF 3
ENDMDL
MODEL       65
REMARK 921   NORMALIZED FREE ENERGY PREDICTED BY IDOCK:   -2.64 KCAL/MOL
REMARK 922        TOTAL FREE ENERGY PREDICTED BY IDOCK:   -3.34 KCAL/MOL
REMARK 923 INTER-LIGAND FREE ENERGY PREDICTED BY IDOCK:   -3.22 KCAL/MOL
REMARK 924 INTRA-LIGAND FREE ENERGY PREDICTED BY IDOCK:   -0.12 KCAL/MOL
REMARK 927      BINDING AFFINITY PREDICTED BY RF-SCORE:    0.00 PKD
ROOT
HETATM    1  C   UNL     1      -9.207  13.314  68.086  1.00  0.00    -0.212 C  
HETATM    2 SE   UNL     1      -7.845  14.704  68.055  1.00  0.00    -0.148 Se 
ENDROOT
BRANCH   2   3
HETATM    3  C   UNL     1      -8.667  15.633  66.545  1.00  0.00    -0.307 C  
BRANCH   3   4
HETATM    4  C   UNL     1      -8.556  17.145  66.784  1.00  0.00    -0.270 C  
BRANCH   4   5
HETATM    5  CA  UNL     1      -9.874  17.856  67.173  1.00  0.00    -0.308 C  
HETATM    6  C   UNL     1     -10.513  18.586  66.010  1.00  0.00    -0.400 C  
HETATM    7  N   UNL     1     -10.828  16.910  67.755  1.00  0.00    -0.323 NA 
HETATM    8  O   UNL     1     -10.644  19.930  66.031  1.00  0.00    -0.476 OA 
HETATM    9  OXT UNL     1     -10.941  17.966  65.050  1.00  0.00    -0.776 OA 
HETATM   10  H1  UNL     1     -11.697  17.379  68.012  1.00  0.00     0.000 HD 
HETATM   11  H2  UNL     1     -10.424  16.406  68.545  1.00  0.00     0.000 HD 
ENDBRANCH   4   5
ENDBRANCH   3   4
ENDBRANCH   2   3
TORSDOF 3
ENDMDL
MODEL       66
REMARK 921   NORMALIZED FREE ENERGY PREDICTED BY IDOCK:   -2.63 KCAL/MOL
REMARK 922        TOTAL FREE ENERGY PREDICTED BY IDOCK:   -3.33 KCAL/MOL
REMARK 923 INTER-LIGAND FREE ENERGY PREDICTED BY IDOCK:   -3.29 KCAL/MOL
REMARK 924 INTRA-LIGAND FREE ENERGY PREDICTED BY IDOCK:   -0.04 KCAL/MOL
REMARK 927      BINDING AFFINITY PREDICTED BY RF-SCORE:    0.00 PKD
ROOT
HETATM    1  C   UNL     1      -9.131   5.964  68.157  1.00  0.00    -0.117 C  
HETATM    2 SE   UNL     1     -11.030   6.343  68.353  1.00  0.00    -0.277 Se 
ENDROOT
BRANCH   2   3
HETATM    3  C   UNL     1     -10.996   6.084  70.291  1.00  0.00    -0.342 C  
BRANCH   3   4
HETATM    4  C   UNL     1     -12.127   6.914  70.913  1.00  0.00    -0.424 C  
BRANCH   4   5
HETATM    5  CA  UNL     1     -11.675   8.039  71.874  1.00  0.00    -0.303 C  
HETATM    6  C   UNL     1     -12.605   9.234  71.857  1.00  0.00    -0.390 C  
HETATM    7  N   UNL     1     -11.532   7.535  73.241  1.00  0.00    -0.632 NA 
HETATM    8  O   UNL     1     -12.170  10.437  71.424  1.00  0.00    -0.366 OA 
HETATM    9  OXT UNL     1     -13.753   9.130  72.257  1.00  0.00    -0.443 OA 
HETATM   10  H1  UNL     1     -11.234   8.277  73.874  1.00  0.00     0.000 HD 
HETATM   11  H2  UNL     1     -10.906   6.731  73.282  1.00  0.00     0.000 HD 
ENDBRANCH   4   5
ENDBRANCH   3   4
ENDBRANCH   2   3
TORSDOF 3
ENDMDL
MODEL       67
REMARK 921   NORMALIZED FREE ENERGY PREDICTED BY IDOCK:   -2.63 KCAL/MOL
REMARK 922        TOTAL FREE ENERGY PREDICTED BY IDOCK:   -3.33 KCAL/MOL
REMARK 923 INTER-LIGAND FREE ENERGY PREDICTED BY IDOCK:   -3.15 KCAL/MOL
REMARK 924 INTRA-LIGAND FREE ENERGY PREDICTED BY IDOCK:   -0.18 KCAL/MOL
REMARK 927      BINDING AFFINITY PREDICTED BY RF-SCORE:    0.00 PKD
ROOT
HETATM    1  C   UNL     1     -10.050   7.661  69.256  1.00  0.00    -0.190 C  
HETATM    2 SE   UNL     1     -10.187   9.560  68.849  1.00  0.00    -0.206 Se 
ENDROOT
BRANCH   2   3
HETATM    3  C   UNL     1     -10.955   9.993  70.594  1.00  0.00    -0.322 C  
BRANCH   3   4
HETATM    4  C   UNL     1     -10.611   8.861  71.572  1.00  0.00    -0.399 C  
BRANCH   4   5
HETATM    5  CA  UNL     1     -11.772   8.389  72.479  1.00  0.00    -0.359 C  
HETATM    6  C   UNL     1     -12.959   7.873  71.692  1.00  0.00    -0.334 C  
HETATM    7  N   UNL     1     -11.317   7.369  73.425  1.00  0.00    -0.600 NA 
HETATM    8  O   UNL     1     -14.150   8.507  71.749  1.00  0.00    -0.405 OA 
HETATM    9  OXT UNL     1     -12.860   6.862  71.016  1.00  0.00    -0.333 OA 
HETATM   10  H1  UNL     1     -12.083   7.058  74.023  1.00  0.00     0.000 HD 
HETATM   11  H2  UNL     1     -10.520   7.693  73.973  1.00  0.00     0.000 HD 
ENDBRANCH   4   5
ENDBRANCH   3   4
ENDBRANCH   2   3
TORSDOF 3
ENDMDL
MODEL       68
REMARK 921   NORMALIZED FREE ENERGY PREDICTED BY IDOCK:   -2.62 KCAL/MOL
REMARK 922        TOTAL FREE ENERGY PREDICTED BY IDOCK:   -3.32 KCAL/MOL
REMARK 923 INTER-LIGAND FREE ENERGY PREDICTED BY IDOCK:   -3.21 KCAL/MOL
REMARK 924 INTRA-LIGAND FREE ENERGY PREDICTED BY IDOCK:   -0.11 KCAL/MOL
REMARK 927      BINDING AFFINITY PREDICTED BY RF-SCORE:    0.00 PKD
ROOT
HETATM    1  C   UNL     1      -8.493   6.285  72.886  1.00  0.00    -0.118 C  
HETATM    2 SE   UNL     1      -9.018   8.116  73.288  1.00  0.00    -0.232 Se 
ENDROOT
BRANCH   2   3
HETATM    3  C   UNL     1     -10.876   7.820  72.759  1.00  0.00    -0.379 C  
BRANCH   3   4
HETATM    4  C   UNL     1     -11.368   9.057  71.996  1.00  0.00    -0.395 C  
BRANCH   4   5
HETATM    5  CA  UNL     1     -12.608   8.835  71.098  1.00  0.00    -0.168 C  
HETATM    6  C   UNL     1     -13.787   8.259  71.855  1.00  0.00    -0.384 C  
HETATM    7  N   UNL     1     -13.000  10.078  70.430  1.00  0.00    -0.585 NA 
HETATM    8  O   UNL     1     -14.264   7.033  71.554  1.00  0.00    -0.350 OA 
HETATM    9  OXT UNL     1     -14.335   8.909  72.731  1.00  0.00    -0.600 OA 
HETATM   10  H1  UNL     1     -13.818   9.931  69.837  1.00  0.00     0.000 HD 
HETATM   11  H2  UNL     1     -12.225  10.485  69.907  1.00  0.00     0.000 HD 
ENDBRANCH   4   5
ENDBRANCH   3   4
ENDBRANCH   2   3
TORSDOF 3
ENDMDL
MODEL       69
REMARK 921   NORMALIZED FREE ENERGY PREDICTED BY IDOCK:   -2.61 KCAL/MOL
REMARK 922        TOTAL FREE ENERGY PREDICTED BY IDOCK:   -3.31 KCAL/MOL
REMARK 923 INTER-LIGAND FREE ENERGY PREDICTED BY IDOCK:   -3.22 KCAL/MOL
REMARK 924 INTRA-LIGAND FREE ENERGY PREDICTED BY IDOCK:   -0.09 KCAL/MOL
REMARK 927      BINDING AFFINITY PREDICTED BY RF-SCORE:    0.00 PKD
ROOT
HETATM    1  C   UNL     1      -8.716   8.523  67.532  1.00  0.00    -0.135 C  
HETATM    2 SE   UNL     1      -8.345  10.049  66.381  1.00  0.00    -0.128 Se 
ENDROOT
BRANCH   2   3
HETATM    3  C   UNL     1     -10.050   9.894  65.437  1.00  0.00    -0.200 C  
BRANCH   3   4
HETATM    4  C   UNL     1     -10.516  11.301  65.039  1.00  0.00    -0.359 C  
BRANCH   4   5
HETATM    5  CA  UNL     1     -11.220  12.109  66.155  1.00  0.00    -0.338 C  
HETATM    6  C   UNL     1     -12.232  13.099  65.614  1.00  0.00    -0.466 C  
HETATM    7  N   UNL     1     -11.860  11.217  67.123  1.00  0.00    -0.452 NA 
HETATM    8  O   UNL     1     -12.052  14.426  65.783  1.00  0.00    -0.385 OA 
HETATM    9  OXT UNL     1     -13.235  12.706  65.040  1.00  0.00    -0.753 OA 
HETATM   10  H1  UNL     1     -12.325  11.750  67.859  1.00  0.00     0.000 HD 
HETATM   11  H2  UNL     1     -11.200  10.542  67.507  1.00  0.00     0.000 HD 
ENDBRANCH   4   5
ENDBRANCH   3   4
ENDBRANCH   2   3
TORSDOF 3
ENDMDL
MODEL       70
REMARK 921   NORMALIZED FREE ENERGY PREDICTED BY IDOCK:   -2.60 KCAL/MOL
REMARK 922        TOTAL FREE ENERGY PREDICTED BY IDOCK:   -3.30 KCAL/MOL
REMARK 923 INTER-LIGAND FREE ENERGY PREDICTED BY IDOCK:   -3.19 KCAL/MOL
REMARK 924 INTRA-LIGAND FREE ENERGY PREDICTED BY IDOCK:   -0.11 KCAL/MOL
REMARK 927      BINDING AFFINITY PREDICTED BY RF-SCORE:    0.00 PKD
ROOT
HETATM    1  C   UNL     1     -12.963  11.031  71.494  1.00  0.00    -0.448 C  
HETATM    2 SE   UNL     1     -13.295   9.218  72.120  1.00  0.00    -0.488 Se 
ENDROOT
BRANCH   2   3
HETATM    3  C   UNL     1     -11.406   8.721  72.033  1.00  0.00    -0.371 C  
BRANCH   3   4
HETATM    4  C   UNL     1     -11.189   7.475  72.902  1.00  0.00    -0.396 C  
BRANCH   4   5
HETATM    5  CA  UNL     1     -11.575   6.129  72.245  1.00  0.00    -0.313 C  
HETATM    6  C   UNL     1     -10.677   5.765  71.080  1.00  0.00    -0.261 C  
HETATM    7  N   UNL     1     -11.580   5.047  73.231  1.00  0.00    -0.495 NA 
HETATM    8  O   UNL     1     -11.177   5.677  69.829  1.00  0.00    -0.274 OA 
HETATM    9  OXT UNL     1      -9.495   5.523  71.264  1.00  0.00    -0.145 OA 
HETATM   10  H1  UNL     1     -11.835   4.159  72.797  1.00  0.00     0.000 HD 
HETATM   11  H2  UNL     1     -12.182   5.264  74.025  1.00  0.00     0.000 HD 
ENDBRANCH   4   5
ENDBRANCH   3   4
ENDBRANCH   2   3
TORSDOF 3
ENDMDL
MODEL       71
REMARK 921   NORMALIZED FREE ENERGY PREDICTED BY IDOCK:   -2.59 KCAL/MOL
REMARK 922        TOTAL FREE ENERGY PREDICTED BY IDOCK:   -3.28 KCAL/MOL
REMARK 923 INTER-LIGAND FREE ENERGY PREDICTED BY IDOCK:   -3.21 KCAL/MOL
REMARK 924 INTRA-LIGAND FREE ENERGY PREDICTED BY IDOCK:   -0.07 KCAL/MOL
REMARK 927      BINDING AFFINITY PREDICTED BY RF-SCORE:    0.00 PKD
ROOT
HETATM    1  C   UNL     1     -12.139  13.866  66.235  1.00  0.00    -0.451 C  
HETATM    2 SE   UNL     1     -10.211  14.110  66.119  1.00  0.00    -0.315 Se 
ENDROOT
BRANCH   2   3
HETATM    3  C   UNL     1     -10.368  15.966  65.526  1.00  0.00    -0.400 C  
BRANCH   3   4
HETATM    4  C   UNL     1     -10.362  16.874  66.763  1.00  0.00    -0.298 C  
BRANCH   4   5
HETATM    5  CA  UNL     1      -9.288  17.988  66.766  1.00  0.00    -0.284 C  
HETATM    6  C   UNL     1      -8.745  18.277  68.151  1.00  0.00    -0.281 C  
HETATM    7  N   UNL     1      -8.189  17.658  65.856  1.00  0.00    -0.547 NA 
HETATM    8  O   UNL     1      -8.939  19.482  68.727  1.00  0.00    -0.364 OA 
HETATM    9  OXT UNL     1      -8.103  17.431  68.752  1.00  0.00    -0.269 OA 
HETATM   10  H1  UNL     1      -7.481  18.393  65.858  1.00  0.00     0.000 HD 
HETATM   11  H2  UNL     1      -8.527  17.463  64.914  1.00  0.00     0.000 HD 
ENDBRANCH   4   5
ENDBRANCH   3   4
ENDBRANCH   2   3
TORSDOF 3
ENDMDL
MODEL       72
REMARK 921   NORMALIZED FREE ENERGY PREDICTED BY IDOCK:   -2.58 KCAL/MOL
REMARK 922        TOTAL FREE ENERGY PREDICTED BY IDOCK:   -3.28 KCAL/MOL
REMARK 923 INTER-LIGAND FREE ENERGY PREDICTED BY IDOCK:   -3.10 KCAL/MOL
REMARK 924 INTRA-LIGAND FREE ENERGY PREDICTED BY IDOCK:   -0.18 KCAL/MOL
REMARK 927      BINDING AFFINITY PREDICTED BY RF-SCORE:    0.00 PKD
ROOT
HETATM    1  C   UNL     1      -7.452  15.974  67.957  1.00  0.00    -0.126 C  
HETATM    2 SE   UNL     1      -6.371  17.125  66.817  1.00  0.00    -0.225 Se 
ENDROOT
BRANCH   2   3
HETATM    3  C   UNL     1      -6.845  18.742  67.808  1.00  0.00    -0.214 C  
BRANCH   3   4
HETATM    4  C   UNL     1      -8.196  18.510  68.499  1.00  0.00    -0.360 C  
BRANCH   4   5
HETATM    5  CA  UNL     1      -9.411  19.202  67.836  1.00  0.00    -0.315 C  
HETATM    6  C   UNL     1     -10.253  18.247  67.015  1.00  0.00    -0.378 C  
HETATM    7  N   UNL     1     -10.243  19.872  68.836  1.00  0.00    -0.563 NA 
HETATM    8  O   UNL     1     -10.367  18.406  65.679  1.00  0.00    -0.605 OA 
HETATM    9  OXT UNL     1     -10.861  17.338  67.556  1.00  0.00    -0.314 OA 
HETATM   10  H1  UNL     1     -11.044  20.328  68.398  1.00  0.00     0.000 HD 
HETATM   11  H2  UNL     1      -9.701  20.526  69.401  1.00  0.00     0.000 HD 
ENDBRANCH   4   5
ENDBRANCH   3   4
ENDBRANCH   2   3
TORSDOF 3
ENDMDL
MODEL       73
REMARK 921   NORMALIZED FREE ENERGY PREDICTED BY IDOCK:   -2.58 KCAL/MOL
REMARK 922        TOTAL FREE ENERGY PREDICTED BY IDOCK:   -3.27 KCAL/MOL
REMARK 923 INTER-LIGAND FREE ENERGY PREDICTED BY IDOCK:   -3.22 KCAL/MOL
REMARK 924 INTRA-LIGAND FREE ENERGY PREDICTED BY IDOCK:   -0.06 KCAL/MOL
REMARK 927      BINDING AFFINITY PREDICTED BY RF-SCORE:    0.00 PKD
ROOT
HETATM    1  C   UNL     1      -7.397  11.674  67.300  1.00  0.00    -0.136 C  
HETATM    2 SE   UNL     1      -7.908  13.404  68.032  1.00  0.00    -0.164 Se 
ENDROOT
BRANCH   2   3
HETATM    3  C   UNL     1      -9.736  12.828  68.416  1.00  0.00    -0.186 C  
BRANCH   3   4
HETATM    4  C   UNL     1     -10.703  13.713  67.618  1.00  0.00    -0.253 C  
BRANCH   4   5
HETATM    5  CA  UNL     1     -11.999  13.017  67.137  1.00  0.00    -0.329 C  
HETATM    6  C   UNL     1     -12.209  13.137  65.642  1.00  0.00    -0.466 C  
HETATM    7  N   UNL     1     -12.015  11.608  67.534  1.00  0.00    -0.621 NA 
HETATM    8  O   UNL     1     -13.267  13.817  65.149  1.00  0.00    -0.757 OA 
HETATM    9  OXT UNL     1     -11.438  12.599  64.864  1.00  0.00    -0.303 OA 
HETATM   10  H1  UNL     1     -12.870  11.150  67.216  1.00  0.00     0.000 HD 
HETATM   11  H2  UNL     1     -11.880  11.498  68.538  1.00  0.00     0.000 HD 
ENDBRANCH   4   5
ENDBRANCH   3   4
ENDBRANCH   2   3
TORSDOF 3
ENDMDL
MODEL       74
REMARK 921   NORMALIZED FREE ENERGY PREDICTED BY IDOCK:   -2.58 KCAL/MOL
REMARK 922        TOTAL FREE ENERGY PREDICTED BY IDOCK:   -3.27 KCAL/MOL
REMARK 923 INTER-LIGAND FREE ENERGY PREDICTED BY IDOCK:   -3.16 KCAL/MOL
REMARK 924 INTRA-LIGAND FREE ENERGY PREDICTED BY IDOCK:   -0.11 KCAL/MOL
REMARK 927      BINDING AFFINITY PREDICTED BY RF-SCORE:    0.00 PKD
ROOT
HETATM    1  C   UNL     1     -12.549  12.810  65.155  1.00  0.00    -0.444 C  
HETATM    2 SE   UNL     1     -10.821  13.587  64.710  1.00  0.00    -0.402 Se 
ENDROOT
BRANCH   2   3
HETATM    3  C   UNL     1     -10.815  14.753  66.279  1.00  0.00    -0.322 C  
BRANCH   3   4
HETATM    4  C   UNL     1     -11.614  14.069  67.397  1.00  0.00    -0.397 C  
BRANCH   4   5
HETATM    5  CA  UNL     1     -10.878  13.926  68.750  1.00  0.00    -0.263 C  
HETATM    6  C   UNL     1     -10.781  15.234  69.507  1.00  0.00    -0.265 C  
HETATM    7  N   UNL     1     -11.514  12.908  69.588  1.00  0.00    -0.462 NA 
HETATM    8  O   UNL     1      -9.580  15.799  69.751  1.00  0.00    -0.265 OA 
HETATM    9  OXT UNL     1     -11.788  15.781  69.927  1.00  0.00    -0.342 OA 
HETATM   10  H1  UNL     1     -11.029  12.814  70.480  1.00  0.00     0.000 HD 
HETATM   11  H2  UNL     1     -11.588  12.013  69.104  1.00  0.00     0.000 HD 
ENDBRANCH   4   5
ENDBRANCH   3   4
ENDBRANCH   2   3
TORSDOF 3
ENDMDL
MODEL       75
REMARK 921   NORMALIZED FREE ENERGY PREDICTED BY IDOCK:   -2.57 KCAL/MOL
REMARK 922        TOTAL FREE ENERGY PREDICTED BY IDOCK:   -3.26 KCAL/MOL
REMARK 923 INTER-LIGAND FREE ENERGY PREDICTED BY IDOCK:   -3.05 KCAL/MOL
REMARK 924 INTRA-LIGAND FREE ENERGY PREDICTED BY IDOCK:   -0.21 KCAL/MOL
REMARK 927      BINDING AFFINITY PREDICTED BY RF-SCORE:    0.00 PKD
ROOT
HETATM    1  C   UNL     1      -8.830  16.443  66.221  1.00  0.00    -0.332 C  
HETATM    2 SE   UNL     1      -9.331  15.890  68.019  1.00  0.00    -0.201 Se 
ENDROOT
BRANCH   2   3
HETATM    3  C   UNL     1     -11.176  15.499  67.506  1.00  0.00    -0.272 C  
BRANCH   3   4
HETATM    4  C   UNL     1     -11.538  14.098  68.017  1.00  0.00    -0.368 C  
BRANCH   4   5
HETATM    5  CA  UNL     1     -11.850  13.050  66.922  1.00  0.00    -0.380 C  
HETATM    6  C   UNL     1     -10.857  13.082  65.779  1.00  0.00    -0.272 C  
HETATM    7  N   UNL     1     -11.917  11.703  67.490  1.00  0.00    -0.621 NA 
HETATM    8  O   UNL     1     -11.255  13.419  64.533  1.00  0.00    -0.342 OA 
HETATM    9  OXT UNL     1      -9.690  12.779  65.965  1.00  0.00    -0.259 OA 
HETATM   10  H1  UNL     1     -12.123  11.012  66.768  1.00  0.00     0.000 HD 
HETATM   11  H2  UNL     1     -12.582  11.651  68.261  1.00  0.00     0.000 HD 
ENDBRANCH   4   5
ENDBRANCH   3   4
ENDBRANCH   2   3
TORSDOF 3
ENDMDL
MODEL       76
REMARK 921   NORMALIZED FREE ENERGY PREDICTED BY IDOCK:   -2.57 KCAL/MOL
REMARK 922        TOTAL FREE ENERGY PREDICTED BY IDOCK:   -3.26 KCAL/MOL
REMARK 923 INTER-LIGAND FREE ENERGY PREDICTED BY IDOCK:   -3.16 KCAL/MOL
REMARK 924 INTRA-LIGAND FREE ENERGY PREDICTED BY IDOCK:   -0.10 KCAL/MOL
REMARK 927      BINDING AFFINITY PREDICTED BY RF-SCORE:    0.00 PKD
ROOT
HETATM    1  C   UNL     1      -8.340  16.368  69.075  1.00  0.00    -0.225 C  
HETATM    2 SE   UNL     1      -9.857  17.081  68.084  1.00  0.00    -0.286 Se 
ENDROOT
BRANCH   2   3
HETATM    3  C   UNL     1     -11.160  16.071  69.133  1.00  0.00    -0.317 C  
BRANCH   3   4
HETATM    4  C   UNL     1     -11.110  16.569  70.584  1.00  0.00    -0.064 C  
BRANCH   4   5
HETATM    5  CA  UNL     1     -11.470  15.519  71.661  1.00  0.00    -0.423 C  
HETATM    6  C   UNL     1     -12.756  15.844  72.391  1.00  0.00    -0.444 C  
HETATM    7  N   UNL     1     -11.548  14.178  71.080  1.00  0.00    -0.458 NA 
HETATM    8  O   UNL     1     -12.746  16.116  73.714  1.00  0.00    -0.527 OA 
HETATM    9  OXT UNL     1     -13.822  15.838  71.797  1.00  0.00    -0.418 OA 
HETATM   10  H1  UNL     1     -11.785  13.485  71.791  1.00  0.00     0.000 HD 
HETATM   11  H2  UNL     1     -10.691  13.931  70.585  1.00  0.00     0.000 HD 
ENDBRANCH   4   5
ENDBRANCH   3   4
ENDBRANCH   2   3
TORSDOF 3
ENDMDL
MODEL       77
REMARK 921   NORMALIZED FREE ENERGY PREDICTED BY IDOCK:   -2.57 KCAL/MOL
REMARK 922        TOTAL FREE ENERGY PREDICTED BY IDOCK:   -3.26 KCAL/MOL
REMARK 923 INTER-LIGAND FREE ENERGY PREDICTED BY IDOCK:   -3.22 KCAL/MOL
REMARK 924 INTRA-LIGAND FREE ENERGY PREDICTED BY IDOCK:   -0.04 KCAL/MOL
REMARK 927      BINDING AFFINITY PREDICTED BY RF-SCORE:    0.00 PKD
ROOT
HETATM    1  C   UNL     1      -9.766   6.026  73.415  1.00  0.00    -0.158 C  
HETATM    2 SE   UNL     1      -9.199   7.545  72.337  1.00  0.00    -0.155 Se 
ENDROOT
BRANCH   2   3
HETATM    3  C   UNL     1     -10.996   8.311  72.268  1.00  0.00    -0.348 C  
BRANCH   3   4
HETATM    4  C   UNL     1     -11.014   9.416  71.203  1.00  0.00    -0.430 C  
BRANCH   4   5
HETATM    5  CA  UNL     1     -12.271  10.318  71.202  1.00  0.00    -0.397 C  
HETATM    6  C   UNL     1     -12.257  11.342  70.086  1.00  0.00    -0.321 C  
HETATM    7  N   UNL     1     -13.492   9.515  71.129  1.00  0.00    -0.541 NA 
HETATM    8  O   UNL     1     -12.213  12.663  70.366  1.00  0.00    -0.349 OA 
HETATM    9  OXT UNL     1     -12.311  10.987  68.920  1.00  0.00    -0.516 OA 
HETATM   10  H1  UNL     1     -14.321  10.110  71.129  1.00  0.00     0.000 HD 
HETATM   11  H2  UNL     1     -13.530   8.818  71.874  1.00  0.00     0.000 HD 
ENDBRANCH   4   5
ENDBRANCH   3   4
ENDBRANCH   2   3
TORSDOF 3
ENDMDL
MODEL       78
REMARK 921   NORMALIZED FREE ENERGY PREDICTED BY IDOCK:   -2.55 KCAL/MOL
REMARK 922        TOTAL FREE ENERGY PREDICTED BY IDOCK:   -3.23 KCAL/MOL
REMARK 923 INTER-LIGAND FREE ENERGY PREDICTED BY IDOCK:   -3.16 KCAL/MOL
REMARK 924 INTRA-LIGAND FREE ENERGY PREDICTED BY IDOCK:   -0.07 KCAL/MOL
REMARK 927      BINDING AFFINITY PREDICTED BY RF-SCORE:    0.00 PKD
ROOT
HETATM    1  C   UNL     1      -8.631  10.900  67.561  1.00  0.00    -0.127 C  
HETATM    2 SE   UNL     1     -10.229   9.866  67.153  1.00  0.00    -0.241 Se 
ENDROOT
BRANCH   2   3
HETATM    3  C   UNL     1     -11.428  11.366  67.518  1.00  0.00    -0.260 C  
BRANCH   3   4
HETATM    4  C   UNL     1     -11.580  12.193  66.233  1.00  0.00    -0.424 C  
BRANCH   4   5
HETATM    5  CA  UNL     1     -12.234  13.583  66.410  1.00  0.00    -0.400 C  
HETATM    6  C   UNL     1     -11.239  14.654  66.809  1.00  0.00    -0.344 C  
HETATM    7  N   UNL     1     -12.944  13.987  65.195  1.00  0.00    -0.771 NA 
HETATM    8  O   UNL     1     -11.338  15.271  68.006  1.00  0.00    -0.318 OA 
HETATM    9  OXT UNL     1     -10.351  14.989  66.043  1.00  0.00    -0.281 OA 
HETATM   10  H1  UNL     1     -13.375  14.904  65.312  1.00  0.00     0.000 HD 
HETATM   11  H2  UNL     1     -13.625  13.285  64.905  1.00  0.00     0.000 HD 
ENDBRANCH   4   5
ENDBRANCH   3   4
ENDBRANCH   2   3
TORSDOF 3
ENDMDL
MODEL       79
REMARK 921   NORMALIZED FREE ENERGY PREDICTED BY IDOCK:   -2.54 KCAL/MOL
REMARK 922        TOTAL FREE ENERGY PREDICTED BY IDOCK:   -3.22 KCAL/MOL
REMARK 923 INTER-LIGAND FREE ENERGY PREDICTED BY IDOCK:   -3.15 KCAL/MOL
REMARK 924 INTRA-LIGAND FREE ENERGY PREDICTED BY IDOCK:   -0.07 KCAL/MOL
REMARK 927      BINDING AFFINITY PREDICTED BY RF-SCORE:    0.00 PKD
ROOT
HETATM    1  C   UNL     1      -9.663  20.449  67.225  1.00  0.00    -0.461 C  
HETATM    2 SE   UNL     1     -10.364  18.913  66.257  1.00  0.00    -0.457 Se 
ENDROOT
BRANCH   2   3
HETATM    3  C   UNL     1     -10.556  17.837  67.878  1.00  0.00    -0.382 C  
BRANCH   3   4
HETATM    4  C   UNL     1     -10.082  16.409  67.574  1.00  0.00    -0.261 C  
BRANCH   4   5
HETATM    5  CA  UNL     1     -11.183  15.428  67.106  1.00  0.00    -0.256 C  
HETATM    6  C   UNL     1     -10.882  14.807  65.758  1.00  0.00    -0.331 C  
HETATM    7  N   UNL     1     -11.409  14.380  68.102  1.00  0.00    -0.280 NA 
HETATM    8  O   UNL     1     -11.678  15.051  64.695  1.00  0.00    -0.414 OA 
HETATM    9  OXT UNL     1      -9.929  14.057  65.623  1.00  0.00    -0.311 OA 
HETATM   10  H1  UNL     1     -12.135  13.733  67.793  1.00  0.00     0.000 HD 
HETATM   11  H2  UNL     1     -11.619  14.771  69.020  1.00  0.00     0.000 HD 
ENDBRANCH   4   5
ENDBRANCH   3   4
ENDBRANCH   2   3
TORSDOF 3
ENDMDL
MODEL       80
REMARK 921   NORMALIZED FREE ENERGY PREDICTED BY IDOCK:   -2.54 KCAL/MOL
REMARK 922        TOTAL FREE ENERGY PREDICTED BY IDOCK:   -3.22 KCAL/MOL
REMARK 923 INTER-LIGAND FREE ENERGY PREDICTED BY IDOCK:   -3.11 KCAL/MOL
REMARK 924 INTRA-LIGAND FREE ENERGY PREDICTED BY IDOCK:   -0.11 KCAL/MOL
REMARK 927      BINDING AFFINITY PREDICTED BY RF-SCORE:    0.00 PKD
ROOT
HETATM    1  C   UNL     1     -10.552  14.191  64.881  1.00  0.00    -0.430 C  
HETATM    2 SE   UNL     1     -11.685  12.733  65.496  1.00  0.00    -0.418 Se 
ENDROOT
BRANCH   2   3
HETATM    3  C   UNL     1     -11.514  13.243  67.375  1.00  0.00    -0.332 C  
BRANCH   3   4
HETATM    4  C   UNL     1     -10.628  14.493  67.462  1.00  0.00    -0.262 C  
BRANCH   4   5
HETATM    5  CA  UNL     1     -11.302  15.746  68.070  1.00  0.00    -0.310 C  
HETATM    6  C   UNL     1     -11.437  15.666  69.577  1.00  0.00    -0.344 C  
HETATM    7  N   UNL     1     -10.581  16.963  67.695  1.00  0.00    -0.335 NA 
HETATM    8  O   UNL     1     -12.656  15.634  70.157  1.00  0.00    -0.367 OA 
HETATM    9  OXT UNL     1     -10.444  15.655  70.287  1.00  0.00    -0.315 OA 
HETATM   10  H1  UNL     1     -11.026  17.789  68.097  1.00  0.00     0.000 HD 
HETATM   11  H2  UNL     1     -10.480  17.045  66.684  1.00  0.00     0.000 HD 
ENDBRANCH   4   5
ENDBRANCH   3   4
ENDBRANCH   2   3
TORSDOF 3
ENDMDL
MODEL       81
REMARK 921   NORMALIZED FREE ENERGY PREDICTED BY IDOCK:   -2.53 KCAL/MOL
REMARK 922        TOTAL FREE ENERGY PREDICTED BY IDOCK:   -3.21 KCAL/MOL
REMARK 923 INTER-LIGAND FREE ENERGY PREDICTED BY IDOCK:   -3.09 KCAL/MOL
REMARK 924 INTRA-LIGAND FREE ENERGY PREDICTED BY IDOCK:   -0.12 KCAL/MOL
REMARK 927      BINDING AFFINITY PREDICTED BY RF-SCORE:    0.00 PKD
ROOT
HETATM    1  C   UNL     1      -7.279  19.991  66.360  1.00  0.00    -0.265 C  
HETATM    2 SE   UNL     1      -8.385  20.035  67.961  1.00  0.00    -0.150 Se 
ENDROOT
BRANCH   2   3
HETATM    3  C   UNL     1     -10.041  20.259  66.947  1.00  0.00    -0.425 C  
BRANCH   3   4
HETATM    4  C   UNL     1     -10.872  18.975  67.082  1.00  0.00    -0.473 C  
BRANCH   4   5
HETATM    5  CA  UNL     1     -10.086  17.653  66.916  1.00  0.00    -0.331 C  
HETATM    6  C   UNL     1     -10.219  16.737  68.115  1.00  0.00    -0.301 C  
HETATM    7  N   UNL     1     -10.495  16.949  65.699  1.00  0.00    -0.542 NA 
HETATM    8  O   UNL     1      -9.140  16.426  68.864  1.00  0.00    -0.239 OA 
HETATM    9  OXT UNL     1     -11.299  16.248  68.402  1.00  0.00    -0.367 OA 
HETATM   10  H1  UNL     1      -9.976  16.078  65.590  1.00  0.00     0.000 HD 
HETATM   11  H2  UNL     1     -10.411  17.543  64.874  1.00  0.00     0.000 HD 
ENDBRANCH   4   5
ENDBRANCH   3   4
ENDBRANCH   2   3
TORSDOF 3
ENDMDL
MODEL       82
REMARK 921   NORMALIZED FREE ENERGY PREDICTED BY IDOCK:   -2.52 KCAL/MOL
REMARK 922        TOTAL FREE ENERGY PREDICTED BY IDOCK:   -3.20 KCAL/MOL
REMARK 923 INTER-LIGAND FREE ENERGY PREDICTED BY IDOCK:   -3.14 KCAL/MOL
REMARK 924 INTRA-LIGAND FREE ENERGY PREDICTED BY IDOCK:   -0.06 KCAL/MOL
REMARK 927      BINDING AFFINITY PREDICTED BY RF-SCORE:    0.00 PKD
ROOT
HETATM    1  C   UNL     1     -10.639   9.027  70.737  1.00  0.00    -0.240 C  
HETATM    2 SE   UNL     1     -12.045  10.370  70.840  1.00  0.00    -0.400 Se 
ENDROOT
BRANCH   2   3
HETATM    3  C   UNL     1     -11.724  11.008  69.021  1.00  0.00    -0.333 C  
BRANCH   3   4
HETATM    4  C   UNL     1     -11.657  12.541  69.046  1.00  0.00    -0.365 C  
BRANCH   4   5
HETATM    5  CA  UNL     1     -11.827  13.238  67.676  1.00  0.00    -0.357 C  
HETATM    6  C   UNL     1     -10.666  14.149  67.332  1.00  0.00    -0.284 C  
HETATM    7  N   UNL     1     -12.025  12.255  66.609  1.00  0.00    -0.622 NA 
HETATM    8  O   UNL     1     -10.851  15.480  67.204  1.00  0.00    -0.316 OA 
HETATM    9  OXT UNL     1      -9.553  13.686  67.142  1.00  0.00    -0.226 OA 
HETATM   10  H1  UNL     1     -12.137  12.715  65.705  1.00  0.00     0.000 HD 
HETATM   11  H2  UNL     1     -12.805  11.631  66.813  1.00  0.00     0.000 HD 
ENDBRANCH   4   5
ENDBRANCH   3   4
ENDBRANCH   2   3
TORSDOF 3
ENDMDL
MODEL       83
REMARK 921   NORMALIZED FREE ENERGY PREDICTED BY IDOCK:   -2.52 KCAL/MOL
REMARK 922        TOTAL FREE ENERGY PREDICTED BY IDOCK:   -3.20 KCAL/MOL
REMARK 923 INTER-LIGAND FREE ENERGY PREDICTED BY IDOCK:   -3.16 KCAL/MOL
REMARK 924 INTRA-LIGAND FREE ENERGY PREDICTED BY IDOCK:   -0.05 KCAL/MOL
REMARK 927      BINDING AFFINITY PREDICTED BY RF-SCORE:    0.00 PKD
ROOT
HETATM    1  C   UNL     1     -12.676  13.874  65.434  1.00  0.00    -0.490 C  
HETATM    2 SE   UNL     1     -10.753  14.037  65.182  1.00  0.00    -0.407 Se 
ENDROOT
BRANCH   2   3
HETATM    3  C   UNL     1     -10.813  15.990  65.113  1.00  0.00    -0.395 C  
BRANCH   3   4
HETATM    4  C   UNL     1      -9.759  16.544  66.082  1.00  0.00    -0.344 C  
BRANCH   4   5
HETATM    5  CA  UNL     1     -10.297  17.005  67.457  1.00  0.00    -0.329 C  
HETATM    6  C   UNL     1      -9.333  16.718  68.590  1.00  0.00    -0.252 C  
HETATM    7  N   UNL     1     -10.636  18.429  67.437  1.00  0.00    -0.420 NA 
HETATM    8  O   UNL     1      -9.667  15.856  69.574  1.00  0.00    -0.262 OA 
HETATM    9  OXT UNL     1      -8.253  17.283  68.641  1.00  0.00    -0.258 OA 
HETATM   10  H1  UNL     1     -10.990  18.733  68.344  1.00  0.00     0.000 HD 
HETATM   11  H2  UNL     1     -11.288  18.650  66.685  1.00  0.00     0.000 HD 
ENDBRANCH   4   5
ENDBRANCH   3   4
ENDBRANCH   2   3
TORSDOF 3
ENDMDL
MODEL       84
REMARK 921   NORMALIZED FREE ENERGY PREDICTED BY IDOCK:   -2.52 KCAL/MOL
REMARK 922        TOTAL FREE ENERGY PREDICTED BY IDOCK:   -3.20 KCAL/MOL
REMARK 923 INTER-LIGAND FREE ENERGY PREDICTED BY IDOCK:   -3.12 KCAL/MOL
REMARK 924 INTRA-LIGAND FREE ENERGY PREDICTED BY IDOCK:   -0.08 KCAL/MOL
REMARK 927      BINDING AFFINITY PREDICTED BY RF-SCORE:    0.00 PKD
ROOT
HETATM    1  C   UNL     1     -11.797   6.260  72.211  1.00  0.00    -0.278 C  
HETATM    2 SE   UNL     1     -13.077   7.581  71.575  1.00  0.00    -0.330 Se 
ENDROOT
BRANCH   2   3
HETATM    3  C   UNL     1     -11.713   8.966  71.365  1.00  0.00    -0.315 C  
BRANCH   3   4
HETATM    4  C   UNL     1     -12.392  10.246  70.859  1.00  0.00    -0.471 C  
BRANCH   4   5
HETATM    5  CA  UNL     1     -11.448  11.293  70.222  1.00  0.00    -0.193 C  
HETATM    6  C   UNL     1     -11.124  10.988  68.774  1.00  0.00    -0.239 C  
HETATM    7  N   UNL     1     -12.007  12.641  70.337  1.00  0.00    -0.522 NA 
HETATM    8  O   UNL     1      -9.859  10.702  68.398  1.00  0.00    -0.151 OA 
HETATM    9  OXT UNL     1     -12.000  11.021  67.925  1.00  0.00    -0.620 OA 
HETATM   10  H1  UNL     1     -11.384  13.331  69.917  1.00  0.00     0.000 HD 
HETATM   11  H2  UNL     1     -12.230  12.875  71.304  1.00  0.00     0.000 HD 
ENDBRANCH   4   5
ENDBRANCH   3   4
ENDBRANCH   2   3
TORSDOF 3
ENDMDL
MODEL       85
REMARK 921   NORMALIZED FREE ENERGY PREDICTED BY IDOCK:   -2.51 KCAL/MOL
REMARK 922        TOTAL FREE ENERGY PREDICTED BY IDOCK:   -3.19 KCAL/MOL
REMARK 923 INTER-LIGAND FREE ENERGY PREDICTED BY IDOCK:   -3.08 KCAL/MOL
REMARK 924 INTRA-LIGAND FREE ENERGY PREDICTED BY IDOCK:   -0.11 KCAL/MOL
REMARK 927      BINDING AFFINITY PREDICTED BY RF-SCORE:    0.00 PKD
ROOT
HETATM    1  C   UNL     1      -9.207  10.705  64.642  1.00  0.00    -0.227 C  
HETATM    2 SE   UNL     1     -10.639  12.019  64.759  1.00  0.00    -0.312 Se 
ENDROOT
BRANCH   2   3
HETATM    3  C   UNL     1      -9.816  12.946  66.271  1.00  0.00    -0.273 C  
BRANCH   3   4
HETATM    4  C   UNL     1     -10.827  13.958  66.830  1.00  0.00    -0.286 C  
BRANCH   4   5
HETATM    5  CA  UNL     1     -10.251  15.351  67.178  1.00  0.00    -0.251 C  
HETATM    6  C   UNL     1      -9.847  16.143  65.952  1.00  0.00    -0.353 C  
HETATM    7  N   UNL     1     -11.198  16.123  67.984  1.00  0.00    -0.329 NA 
HETATM    8  O   UNL     1      -8.555  16.475  65.744  1.00  0.00    -0.442 OA 
HETATM    9  OXT UNL     1     -10.689  16.512  65.149  1.00  0.00    -0.606 OA 
HETATM   10  H1  UNL     1     -10.818  17.042  68.213  1.00  0.00     0.000 HD 
HETATM   11  H2  UNL     1     -11.484  15.614  68.820  1.00  0.00     0.000 HD 
ENDBRANCH   4   5
ENDBRANCH   3   4
ENDBRANCH   2   3
TORSDOF 3
ENDMDL
MODEL       86
REMARK 921   NORMALIZED FREE ENERGY PREDICTED BY IDOCK:   -2.50 KCAL/MOL
REMARK 922        TOTAL FREE ENERGY PREDICTED BY IDOCK:   -3.18 KCAL/MOL
REMARK 923 INTER-LIGAND FREE ENERGY PREDICTED BY IDOCK:   -3.08 KCAL/MOL
REMARK 924 INTRA-LIGAND FREE ENERGY PREDICTED BY IDOCK:   -0.10 KCAL/MOL
REMARK 927      BINDING AFFINITY PREDICTED BY RF-SCORE:    0.00 PKD
ROOT
HETATM    1  C   UNL     1      -5.703  19.999  63.861  1.00  0.00    -0.266 C  
HETATM    2 SE   UNL     1      -5.919  19.408  65.703  1.00  0.00    -0.198 Se 
ENDROOT
BRANCH   2   3
HETATM    3  C   UNL     1      -7.761  20.051  65.812  1.00  0.00    -0.235 C  
BRANCH   3   4
HETATM    4  C   UNL     1      -8.356  19.601  67.153  1.00  0.00    -0.334 C  
BRANCH   4   5
HETATM    5  CA  UNL     1      -9.864  19.255  67.130  1.00  0.00    -0.339 C  
HETATM    6  C   UNL     1     -10.175  18.039  66.282  1.00  0.00    -0.381 C  
HETATM    7  N   UNL     1     -10.378  19.064  68.487  1.00  0.00    -0.440 NA 
HETATM    8  O   UNL     1     -10.937  18.152  65.173  1.00  0.00    -0.637 OA 
HETATM    9  OXT UNL     1      -9.761  16.938  66.606  1.00  0.00    -0.247 OA 
HETATM   10  H1  UNL     1     -11.373  18.836  68.472  1.00  0.00     0.000 HD 
HETATM   11  H2  UNL     1     -10.186  19.871  69.080  1.00  0.00     0.000 HD 
ENDBRANCH   4   5
ENDBRANCH   3   4
ENDBRANCH   2   3
TORSDOF 3
ENDMDL
MODEL       87
REMARK 921   NORMALIZED FREE ENERGY PREDICTED BY IDOCK:   -2.50 KCAL/MOL
REMARK 922        TOTAL FREE ENERGY PREDICTED BY IDOCK:   -3.18 KCAL/MOL
REMARK 923 INTER-LIGAND FREE ENERGY PREDICTED BY IDOCK:   -3.01 KCAL/MOL
REMARK 924 INTRA-LIGAND FREE ENERGY PREDICTED BY IDOCK:   -0.17 KCAL/MOL
REMARK 927      BINDING AFFINITY PREDICTED BY RF-SCORE:    0.00 PKD
ROOT
HETATM    1  C   UNL     1      -9.391   9.634  66.675  1.00  0.00    -0.156 C  
HETATM    2 SE   UNL     1      -8.697  11.288  67.433  1.00  0.00    -0.142 Se 
ENDROOT
BRANCH   2   3
HETATM    3  C   UNL     1      -9.611  12.406  66.116  1.00  0.00    -0.233 C  
BRANCH   3   4
HETATM    4  C   UNL     1     -10.546  11.516  65.286  1.00  0.00    -0.339 C  
BRANCH   4   5
HETATM    5  CA  UNL     1     -10.508  11.753  63.758  1.00  0.00    -0.416 C  
HETATM    6  C   UNL     1      -9.438  10.936  63.063  1.00  0.00    -0.352 C  
HETATM    7  N   UNL     1     -11.814  11.487  63.153  1.00  0.00    -0.908 NA 
HETATM    8  O   UNL     1      -8.405  11.543  62.441  1.00  0.00    -0.245 OA 
HETATM    9  OXT UNL     1      -9.512   9.718  63.036  1.00  0.00    -0.219 OA 
HETATM   10  H1  UNL     1     -11.788  11.644  62.145  1.00  0.00     0.000 HD 
HETATM   11  H2  UNL     1     -12.553  12.029  63.599  1.00  0.00     0.000 HD 
ENDBRANCH   4   5
ENDBRANCH   3   4
ENDBRANCH   2   3
TORSDOF 3
ENDMDL
MODEL       88
REMARK 921   NORMALIZED FREE ENERGY PREDICTED BY IDOCK:   -2.49 KCAL/MOL
REMARK 922        TOTAL FREE ENERGY PREDICTED BY IDOCK:   -3.17 KCAL/MOL
REMARK 923 INTER-LIGAND FREE ENERGY PREDICTED BY IDOCK:   -3.24 KCAL/MOL
REMARK 924 INTRA-LIGAND FREE ENERGY PREDICTED BY IDOCK:    0.07 KCAL/MOL
REMARK 927      BINDING AFFINITY PREDICTED BY RF-SCORE:    0.00 PKD
ROOT
HETATM    1  C   UNL     1      -9.517   8.695  67.276  1.00  0.00    -0.156 C  
HETATM    2 SE   UNL     1      -9.363   9.513  65.516  1.00  0.00    -0.263 Se 
ENDROOT
BRANCH   2   3
HETATM    3  C   UNL     1      -9.751  11.305  66.192  1.00  0.00    -0.220 C  
BRANCH   3   4
HETATM    4  C   UNL     1     -11.270  11.523  66.150  1.00  0.00    -0.265 C  
BRANCH   4   5
HETATM    5  CA  UNL     1     -11.738  12.809  65.427  1.00  0.00    -0.387 C  
HETATM    6  C   UNL     1     -10.691  13.368  64.487  1.00  0.00    -0.419 C  
HETATM    7  N   UNL     1     -12.989  12.576  64.702  1.00  0.00    -0.844 NA 
HETATM    8  O   UNL     1     -10.140  14.580  64.715  1.00  0.00    -0.340 OA 
HETATM    9  OXT UNL     1     -10.350  12.741  63.497  1.00  0.00    -0.347 OA 
HETATM   10  H1  UNL     1     -13.297  13.424  64.226  1.00  0.00     0.000 HD 
HETATM   11  H2  UNL     1     -13.715  12.203  65.313  1.00  0.00     0.000 HD 
ENDBRANCH   4   5
ENDBRANCH   3   4
ENDBRANCH   2   3
TORSDOF 3
ENDMDL
MODEL       89
REMARK 921   NORMALIZED FREE ENERGY PREDICTED BY IDOCK:   -2.47 KCAL/MOL
REMARK 922        TOTAL FREE ENERGY PREDICTED BY IDOCK:   -3.14 KCAL/MOL
REMARK 923 INTER-LIGAND FREE ENERGY PREDICTED BY IDOCK:   -3.01 KCAL/MOL
REMARK 924 INTRA-LIGAND FREE ENERGY PREDICTED BY IDOCK:   -0.14 KCAL/MOL
REMARK 927      BINDING AFFINITY PREDICTED BY RF-SCORE:    0.00 PKD
ROOT
HETATM    1  C   UNL     1      -9.574  20.812  67.391  1.00  0.00    -0.344 C  
HETATM    2 SE   UNL     1     -10.531  19.546  66.264  1.00  0.00    -0.516 Se 
ENDROOT
BRANCH   2   3
HETATM    3  C   UNL     1     -10.785  18.268  67.722  1.00  0.00    -0.333 C  
BRANCH   3   4
HETATM    4  C   UNL     1     -10.730  16.849  67.141  1.00  0.00    -0.180 C  
BRANCH   4   5
HETATM    5  CA  UNL     1      -9.796  16.664  65.922  1.00  0.00    -0.273 C  
HETATM    6  C   UNL     1      -8.419  16.162  66.307  1.00  0.00    -0.322 C  
HETATM    7  N   UNL     1     -10.396  15.768  64.932  1.00  0.00    -0.568 NA 
HETATM    8  O   UNL     1      -7.326  16.926  66.099  1.00  0.00    -0.268 OA 
HETATM    9  OXT UNL     1      -8.280  15.049  66.788  1.00  0.00    -0.204 OA 
HETATM   10  H1  UNL     1      -9.780  15.647  64.128  1.00  0.00     0.000 HD 
HETATM   11  H2  UNL     1     -11.324  16.086  64.650  1.00  0.00     0.000 HD 
ENDBRANCH   4   5
ENDBRANCH   3   4
ENDBRANCH   2   3
TORSDOF 3
ENDMDL
MODEL       90
REMARK 921   NORMALIZED FREE ENERGY PREDICTED BY IDOCK:   -2.47 KCAL/MOL
REMARK 922        TOTAL FREE ENERGY PREDICTED BY IDOCK:   -3.14 KCAL/MOL
REMARK 923 INTER-LIGAND FREE ENERGY PREDICTED BY IDOCK:   -2.94 KCAL/MOL
REMARK 924 INTRA-LIGAND FREE ENERGY PREDICTED BY IDOCK:   -0.21 KCAL/MOL
REMARK 927      BINDING AFFINITY PREDICTED BY RF-SCORE:    0.00 PKD
ROOT
HETATM    1  C   UNL     1      -6.636  21.037  67.351  1.00  0.00    -0.376 C  
HETATM    2 SE   UNL     1      -6.028  20.249  69.024  1.00  0.00    -0.339 Se 
ENDROOT
BRANCH   2   3
HETATM    3  C   UNL     1      -6.494  18.433  68.469  1.00  0.00    -0.224 C  
BRANCH   3   4
HETATM    4  C   UNL     1      -7.330  18.516  67.185  1.00  0.00    -0.219 C  
BRANCH   4   5
HETATM    5  CA  UNL     1      -8.716  17.831  67.247  1.00  0.00    -0.237 C  
HETATM    6  C   UNL     1      -9.722  18.615  68.064  1.00  0.00    -0.321 C  
HETATM    7  N   UNL     1      -9.242  17.588  65.903  1.00  0.00    -0.513 NA 
HETATM    8  O   UNL     1     -10.235  18.099  69.202  1.00  0.00    -0.344 OA 
HETATM    9  OXT UNL     1     -10.102  19.712  67.689  1.00  0.00    -0.365 OA 
HETATM   10  H1  UNL     1     -10.155  17.136  65.945  1.00  0.00     0.000 HD 
HETATM   11  H2  UNL     1      -8.585  17.057  65.332  1.00  0.00     0.000 HD 
ENDBRANCH   4   5
ENDBRANCH   3   4
ENDBRANCH   2   3
TORSDOF 3
ENDMDL
MODEL       91
REMARK 921   NORMALIZED FREE ENERGY PREDICTED BY IDOCK:   -2.47 KCAL/MOL
REMARK 922        TOTAL FREE ENERGY PREDICTED BY IDOCK:   -3.14 KCAL/MOL
REMARK 923 INTER-LIGAND FREE ENERGY PREDICTED BY IDOCK:   -3.01 KCAL/MOL
REMARK 924 INTRA-LIGAND FREE ENERGY PREDICTED BY IDOCK:   -0.13 KCAL/MOL
REMARK 927      BINDING AFFINITY PREDICTED BY RF-SCORE:    0.00 PKD
ROOT
HETATM    1  C   UNL     1     -10.304  11.085  66.798  1.00  0.00    -0.238 C  
HETATM    2 SE   UNL     1     -10.802  11.877  68.505  1.00  0.00    -0.233 Se 
ENDROOT
BRANCH   2   3
HETATM    3  C   UNL     1      -9.815  13.528  68.155  1.00  0.00    -0.237 C  
BRANCH   3   4
HETATM    4  C   UNL     1      -9.656  13.687  66.636  1.00  0.00    -0.289 C  
BRANCH   4   5
HETATM    5  CA  UNL     1     -10.501  14.811  65.993  1.00  0.00    -0.303 C  
HETATM    6  C   UNL     1      -9.923  16.191  66.234  1.00  0.00    -0.317 C  
HETATM    7  N   UNL     1     -10.670  14.583  64.557  1.00  0.00    -0.618 NA 
HETATM    8  O   UNL     1     -10.604  17.103  66.959  1.00  0.00    -0.306 OA 
HETATM    9  OXT UNL     1      -8.846  16.502  65.753  1.00  0.00    -0.474 OA 
HETATM   10  H1  UNL     1     -11.228  15.324  64.133  1.00  0.00     0.000 HD 
HETATM   11  H2  UNL     1     -11.063  13.661  64.366  1.00  0.00     0.000 HD 
ENDBRANCH   4   5
ENDBRANCH   3   4
ENDBRANCH   2   3
TORSDOF 3
ENDMDL
MODEL       92
REMARK 921   NORMALIZED FREE ENERGY PREDICTED BY IDOCK:   -2.47 KCAL/MOL
REMARK 922        TOTAL FREE ENERGY PREDICTED BY IDOCK:   -3.14 KCAL/MOL
REMARK 923 INTER-LIGAND FREE ENERGY PREDICTED BY IDOCK:   -3.05 KCAL/MOL
REMARK 924 INTRA-LIGAND FREE ENERGY PREDICTED BY IDOCK:   -0.09 KCAL/MOL
REMARK 927      BINDING AFFINITY PREDICTED BY RF-SCORE:    0.00 PKD
ROOT
HETATM    1  C   UNL     1      -9.322  19.151  67.220  1.00  0.00    -0.301 C  
HETATM    2 SE   UNL     1      -8.251  18.084  68.447  1.00  0.00    -0.299 Se 
ENDROOT
BRANCH   2   3
HETATM    3  C   UNL     1      -9.677  16.777  68.733  1.00  0.00    -0.261 C  
BRANCH   3   4
HETATM    4  C   UNL     1     -10.386  16.529  67.394  1.00  0.00    -0.290 C  
BRANCH   4   5
HETATM    5  CA  UNL     1     -10.264  15.093  66.833  1.00  0.00    -0.259 C  
HETATM    6  C   UNL     1     -11.348  14.761  65.828  1.00  0.00    -0.336 C  
HETATM    7  N   UNL     1      -8.945  14.873  66.238  1.00  0.00    -0.473 NA 
HETATM    8  O   UNL     1     -12.252  13.792  66.088  1.00  0.00    -0.422 OA 
HETATM    9  OXT UNL     1     -11.401  15.348  64.760  1.00  0.00    -0.412 OA 
HETATM   10  H1  UNL     1      -8.864  13.926  65.868  1.00  0.00     0.000 HD 
HETATM   11  H2  UNL     1      -8.195  15.085  66.895  1.00  0.00     0.000 HD 
ENDBRANCH   4   5
ENDBRANCH   3   4
ENDBRANCH   2   3
TORSDOF 3
ENDMDL
MODEL       93
REMARK 921   NORMALIZED FREE ENERGY PREDICTED BY IDOCK:   -2.46 KCAL/MOL
REMARK 922        TOTAL FREE ENERGY PREDICTED BY IDOCK:   -3.13 KCAL/MOL
REMARK 923 INTER-LIGAND FREE ENERGY PREDICTED BY IDOCK:   -2.99 KCAL/MOL
REMARK 924 INTRA-LIGAND FREE ENERGY PREDICTED BY IDOCK:   -0.14 KCAL/MOL
REMARK 927      BINDING AFFINITY PREDICTED BY RF-SCORE:    0.00 PKD
ROOT
HETATM    1  C   UNL     1      -9.217  18.688  66.692  1.00  0.00    -0.321 C  
HETATM    2 SE   UNL     1      -9.003  16.759  66.545  1.00  0.00    -0.293 Se 
ENDROOT
BRANCH   2   3
HETATM    3  C   UNL     1     -10.019  16.408  68.177  1.00  0.00    -0.242 C  
BRANCH   3   4
HETATM    4  C   UNL     1     -11.193  15.481  67.831  1.00  0.00    -0.325 C  
BRANCH   4   5
HETATM    5  CA  UNL     1     -11.002  13.994  68.214  1.00  0.00    -0.255 C  
HETATM    6  C   UNL     1     -11.131  13.061  67.027  1.00  0.00    -0.281 C  
HETATM    7  N   UNL     1      -9.714  13.785  68.877  1.00  0.00    -0.415 NA 
HETATM    8  O   UNL     1     -12.131  12.155  66.972  1.00  0.00    -0.591 OA 
HETATM    9  OXT UNL     1     -10.317  13.101  66.119  1.00  0.00    -0.272 OA 
HETATM   10  H1  UNL     1      -9.588  12.805  69.130  1.00  0.00     0.000 HD 
HETATM   11  H2  UNL     1      -9.602  14.399  69.684  1.00  0.00     0.000 HD 
ENDBRANCH   4   5
ENDBRANCH   3   4
ENDBRANCH   2   3
TORSDOF 3
ENDMDL
MODEL       94
REMARK 921   NORMALIZED FREE ENERGY PREDICTED BY IDOCK:   -2.46 KCAL/MOL
REMARK 922        TOTAL FREE ENERGY PREDICTED BY IDOCK:   -3.13 KCAL/MOL
REMARK 923 INTER-LIGAND FREE ENERGY PREDICTED BY IDOCK:   -3.00 KCAL/MOL
REMARK 924 INTRA-LIGAND FREE ENERGY PREDICTED BY IDOCK:   -0.13 KCAL/MOL
REMARK 927      BINDING AFFINITY PREDICTED BY RF-SCORE:    0.00 PKD
ROOT
HETATM    1  C   UNL     1     -10.012   4.132  72.176  1.00  0.00    -0.174 C  
HETATM    2 SE   UNL     1     -11.409   4.696  73.409  1.00  0.00    -0.222 Se 
ENDROOT
BRANCH   2   3
HETATM    3  C   UNL     1     -10.700   6.512  73.557  1.00  0.00    -0.263 C  
BRANCH   3   4
HETATM    4  C   UNL     1     -10.928   7.234  72.222  1.00  0.00    -0.286 C  
BRANCH   4   5
HETATM    5  CA  UNL     1     -12.397   7.297  71.741  1.00  0.00    -0.341 C  
HETATM    6  C   UNL     1     -13.021   8.663  71.940  1.00  0.00    -0.372 C  
HETATM    7  N   UNL     1     -12.506   6.896  70.338  1.00  0.00    -0.576 NA 
HETATM    8  O   UNL     1     -14.063   8.825  72.784  1.00  0.00    -0.451 OA 
HETATM    9  OXT UNL     1     -12.606   9.628  71.320  1.00  0.00    -0.316 OA 
HETATM   10  H1  UNL     1     -13.475   6.937  70.021  1.00  0.00     0.000 HD 
HETATM   11  H2  UNL     1     -12.097   5.976  70.176  1.00  0.00     0.000 HD 
ENDBRANCH   4   5
ENDBRANCH   3   4
ENDBRANCH   2   3
TORSDOF 3
ENDMDL
MODEL       95
REMARK 921   NORMALIZED FREE ENERGY PREDICTED BY IDOCK:   -2.46 KCAL/MOL
REMARK 922        TOTAL FREE ENERGY PREDICTED BY IDOCK:   -3.13 KCAL/MOL
REMARK 923 INTER-LIGAND FREE ENERGY PREDICTED BY IDOCK:   -3.07 KCAL/MOL
REMARK 924 INTRA-LIGAND FREE ENERGY PREDICTED BY IDOCK:   -0.06 KCAL/MOL
REMARK 927      BINDING AFFINITY PREDICTED BY RF-SCORE:    0.00 PKD
ROOT
HETATM    1  C   UNL     1      -7.772  16.372  69.012  1.00  0.00    -0.235 C  
HETATM    2 SE   UNL     1      -8.811  17.167  67.571  1.00  0.00    -0.218 Se 
ENDROOT
BRANCH   2   3
HETATM    3  C   UNL     1     -10.515  16.561  68.313  1.00  0.00    -0.313 C  
BRANCH   3   4
HETATM    4  C   UNL     1     -10.300  15.191  68.971  1.00  0.00    -0.244 C  
BRANCH   4   5
HETATM    5  CA  UNL     1     -11.543  14.272  69.016  1.00  0.00    -0.305 C  
HETATM    6  C   UNL     1     -12.335  14.418  70.299  1.00  0.00    -0.348 C  
HETATM    7  N   UNL     1     -12.411  14.508  67.861  1.00  0.00    -0.599 NA 
HETATM    8  O   UNL     1     -12.451  13.381  71.156  1.00  0.00    -0.362 OA 
HETATM    9  OXT UNL     1     -12.900  15.467  70.560  1.00  0.00    -0.443 OA 
HETATM   10  H1  UNL     1     -13.231  13.901  67.891  1.00  0.00     0.000 HD 
HETATM   11  H2  UNL     1     -11.903  14.411  66.982  1.00  0.00     0.000 HD 
ENDBRANCH   4   5
ENDBRANCH   3   4
ENDBRANCH   2   3
TORSDOF 3
ENDMDL
MODEL       96
REMARK 921   NORMALIZED FREE ENERGY PREDICTED BY IDOCK:   -2.45 KCAL/MOL
REMARK 922        TOTAL FREE ENERGY PREDICTED BY IDOCK:   -3.11 KCAL/MOL
REMARK 923 INTER-LIGAND FREE ENERGY PREDICTED BY IDOCK:   -3.07 KCAL/MOL
REMARK 924 INTRA-LIGAND FREE ENERGY PREDICTED BY IDOCK:   -0.04 KCAL/MOL
REMARK 927      BINDING AFFINITY PREDICTED BY RF-SCORE:    0.00 PKD
ROOT
HETATM    1  C   UNL     1      -8.657   6.264  67.332  1.00  0.00    -0.107 C  
HETATM    2 SE   UNL     1     -10.544   6.679  67.097  1.00  0.00    -0.369 Se 
ENDROOT
BRANCH   2   3
HETATM    3  C   UNL     1     -11.017   6.071  68.893  1.00  0.00    -0.325 C  
BRANCH   3   4
HETATM    4  C   UNL     1     -10.965   7.274  69.845  1.00  0.00    -0.262 C  
BRANCH   4   5
HETATM    5  CA  UNL     1     -11.814   7.142  71.132  1.00  0.00    -0.325 C  
HETATM    6  C   UNL     1     -11.399   8.120  72.212  1.00  0.00    -0.364 C  
HETATM    7  N   UNL     1     -13.239   7.295  70.837  1.00  0.00    -0.583 NA 
HETATM    8  O   UNL     1     -10.893   7.677  73.382  1.00  0.00    -0.380 OA 
HETATM    9  OXT UNL     1     -11.542   9.320  72.046  1.00  0.00    -0.356 OA 
HETATM   10  H1  UNL     1     -13.799   7.208  71.686  1.00  0.00     0.000 HD 
HETATM   11  H2  UNL     1     -13.547   6.644  70.115  1.00  0.00     0.000 HD 
ENDBRANCH   4   5
ENDBRANCH   3   4
ENDBRANCH   2   3
TORSDOF 3
ENDMDL
MODEL       97
REMARK 921   NORMALIZED FREE ENERGY PREDICTED BY IDOCK:   -2.45 KCAL/MOL
REMARK 922        TOTAL FREE ENERGY PREDICTED BY IDOCK:   -3.11 KCAL/MOL
REMARK 923 INTER-LIGAND FREE ENERGY PREDICTED BY IDOCK:   -3.04 KCAL/MOL
REMARK 924 INTRA-LIGAND FREE ENERGY PREDICTED BY IDOCK:   -0.08 KCAL/MOL
REMARK 927      BINDING AFFINITY PREDICTED BY RF-SCORE:    0.00 PKD
ROOT
HETATM    1  C   UNL     1      -9.059   5.047  68.038  1.00  0.00    -0.114 C  
HETATM    2 SE   UNL     1     -10.545   6.299  68.165  1.00  0.00    -0.286 Se 
ENDROOT
BRANCH   2   3
HETATM    3  C   UNL     1     -10.849   5.920  70.058  1.00  0.00    -0.351 C  
BRANCH   3   4
HETATM    4  C   UNL     1     -11.715   7.043  70.647  1.00  0.00    -0.384 C  
BRANCH   4   5
HETATM    5  CA  UNL     1     -11.138   7.738  71.903  1.00  0.00    -0.257 C  
HETATM    6  C   UNL     1     -10.305   8.957  71.569  1.00  0.00    -0.324 C  
HETATM    7  N   UNL     1     -12.206   8.101  72.837  1.00  0.00    -0.636 NA 
HETATM    8  O   UNL     1      -8.985   8.985  71.851  1.00  0.00    -0.364 OA 
HETATM    9  OXT UNL     1     -10.822   9.940  71.063  1.00  0.00    -0.321 OA 
HETATM   10  H1  UNL     1     -11.825   8.559  73.665  1.00  0.00     0.000 HD 
HETATM   11  H2  UNL     1     -12.781   7.295  73.083  1.00  0.00     0.000 HD 
ENDBRANCH   4   5
ENDBRANCH   3   4
ENDBRANCH   2   3
TORSDOF 3
ENDMDL
MODEL       98
REMARK 921   NORMALIZED FREE ENERGY PREDICTED BY IDOCK:   -2.44 KCAL/MOL
REMARK 922        TOTAL FREE ENERGY PREDICTED BY IDOCK:   -3.10 KCAL/MOL
REMARK 923 INTER-LIGAND FREE ENERGY PREDICTED BY IDOCK:   -3.04 KCAL/MOL
REMARK 924 INTRA-LIGAND FREE ENERGY PREDICTED BY IDOCK:   -0.07 KCAL/MOL
REMARK 927      BINDING AFFINITY PREDICTED BY RF-SCORE:    0.00 PKD
ROOT
HETATM    1  C   UNL     1     -12.289   6.903  71.143  1.00  0.00    -0.370 C  
HETATM    2 SE   UNL     1     -10.907   8.271  71.042  1.00  0.00    -0.240 Se 
ENDROOT
BRANCH   2   3
HETATM    3  C   UNL     1     -12.202   9.727  70.892  1.00  0.00    -0.302 C  
BRANCH   3   4
HETATM    4  C   UNL     1     -11.482  10.964  70.338  1.00  0.00    -0.367 C  
BRANCH   4   5
HETATM    5  CA  UNL     1     -12.071  11.549  69.032  1.00  0.00    -0.238 C  
HETATM    6  C   UNL     1     -11.448  12.875  68.649  1.00  0.00    -0.308 C  
HETATM    7  N   UNL     1     -11.942  10.597  67.927  1.00  0.00    -0.645 NA 
HETATM    8  O   UNL     1     -12.194  14.001  68.619  1.00  0.00    -0.332 OA 
HETATM    9  OXT UNL     1     -10.270  12.938  68.338  1.00  0.00    -0.235 OA 
HETATM   10  H1  UNL     1     -12.330  10.982  67.066  1.00  0.00     0.000 HD 
HETATM   11  H2  UNL     1     -12.357   9.694  68.157  1.00  0.00     0.000 HD 
ENDBRANCH   4   5
ENDBRANCH   3   4
ENDBRANCH   2   3
TORSDOF 3
ENDMDL
MODEL       99
REMARK 921   NORMALIZED FREE ENERGY PREDICTED BY IDOCK:   -2.43 KCAL/MOL
REMARK 922        TOTAL FREE ENERGY PREDICTED BY IDOCK:   -3.10 KCAL/MOL
REMARK 923 INTER-LIGAND FREE ENERGY PREDICTED BY IDOCK:   -2.98 KCAL/MOL
REMARK 924 INTRA-LIGAND FREE ENERGY PREDICTED BY IDOCK:   -0.11 KCAL/MOL
REMARK 927      BINDING AFFINITY PREDICTED BY RF-SCORE:    0.00 PKD
ROOT
HETATM    1  C   UNL     1      -6.118  20.900  64.812  1.00  0.00    -0.273 C  
HETATM    2 SE   UNL     1      -6.018  18.956  64.789  1.00  0.00    -0.209 Se 
ENDROOT
BRANCH   2   3
HETATM    3  C   UNL     1      -6.497  18.797  66.678  1.00  0.00    -0.189 C  
BRANCH   3   4
HETATM    4  C   UNL     1      -7.552  19.864  67.004  1.00  0.00    -0.302 C  
BRANCH   4   5
HETATM    5  CA  UNL     1      -8.998  19.523  66.575  1.00  0.00    -0.361 C  
HETATM    6  C   UNL     1      -9.801  18.871  67.681  1.00  0.00    -0.331 C  
HETATM    7  N   UNL     1      -9.694  20.714  66.085  1.00  0.00    -0.577 NA 
HETATM    8  O   UNL     1     -10.248  17.604  67.551  1.00  0.00    -0.320 OA 
HETATM    9  OXT UNL     1     -10.076  19.493  68.695  1.00  0.00    -0.421 OA 
HETATM   10  H1  UNL     1     -10.648  20.489  65.802  1.00  0.00     0.000 HD 
HETATM   11  H2  UNL     1      -9.177  21.171  65.335  1.00  0.00     0.000 HD 
ENDBRANCH   4   5
ENDBRANCH   3   4
ENDBRANCH   2   3
TORSDOF 3
ENDMDL
MODEL      100
REMARK 921   NORMALIZED FREE ENERGY PREDICTED BY IDOCK:   -2.43 KCAL/MOL
REMARK 922        TOTAL FREE ENERGY PREDICTED BY IDOCK:   -3.09 KCAL/MOL
REMARK 923 INTER-LIGAND FREE ENERGY PREDICTED BY IDOCK:   -3.03 KCAL/MOL
REMARK 924 INTRA-LIGAND FREE ENERGY PREDICTED BY IDOCK:   -0.06 KCAL/MOL
REMARK 927      BINDING AFFINITY PREDICTED BY RF-SCORE:    0.00 PKD
ROOT
HETATM    1  C   UNL     1     -13.084  12.134  71.619  1.00  0.00    -0.310 C  
HETATM    2 SE   UNL     1     -13.417  14.024  71.945  1.00  0.00    -0.457 Se 
ENDROOT
BRANCH   2   3
HETATM    3  C   UNL     1     -12.477  14.585  70.325  1.00  0.00    -0.348 C  
BRANCH   3   4
HETATM    4  C   UNL     1     -12.118  13.333  69.512  1.00  0.00    -0.315 C  
BRANCH   4   5
HETATM    5  CA  UNL     1     -11.122  13.557  68.350  1.00  0.00    -0.271 C  
HETATM    6  C   UNL     1     -10.821  12.288  67.581  1.00  0.00    -0.225 C  
HETATM    7  N   UNL     1     -11.606  14.594  67.438  1.00  0.00    -0.378 NA 
HETATM    8  O   UNL     1      -9.575  11.768  67.572  1.00  0.00    -0.173 OA 
HETATM    9  OXT UNL     1     -11.698  11.733  66.938  1.00  0.00    -0.557 OA 
HETATM   10  H1  UNL     1     -10.948  14.742  66.672  1.00  0.00     0.000 HD 
HETATM   11  H2  UNL     1     -11.812  15.463  67.930  1.00  0.00     0.000 HD 
ENDBRANCH   4   5
ENDBRANCH   3   4
ENDBRANCH   2   3
TORSDOF 3
ENDMDL
MODEL      101
REMARK 921   NORMALIZED FREE ENERGY PREDICTED BY IDOCK:   -2.42 KCAL/MOL
REMARK 922        TOTAL FREE ENERGY PREDICTED BY IDOCK:   -3.09 KCAL/MOL
REMARK 923 INTER-LIGAND FREE ENERGY PREDICTED BY IDOCK:   -2.96 KCAL/MOL
REMARK 924 INTRA-LIGAND FREE ENERGY PREDICTED BY IDOCK:   -0.13 KCAL/MOL
REMARK 927      BINDING AFFINITY PREDICTED BY RF-SCORE:    0.00 PKD
ROOT
HETATM    1  C   UNL     1      -9.232   8.000  72.575  1.00  0.00    -0.216 C  
HETATM    2 SE   UNL     1      -9.799   7.017  70.993  1.00  0.00    -0.179 Se 
ENDROOT
BRANCH   2   3
HETATM    3  C   UNL     1     -11.504   7.965  70.877  1.00  0.00    -0.281 C  
BRANCH   3   4
HETATM    4  C   UNL     1     -11.227   9.474  70.926  1.00  0.00    -0.411 C  
BRANCH   4   5
HETATM    5  CA  UNL     1     -10.682  10.094  69.618  1.00  0.00    -0.264 C  
HETATM    6  C   UNL     1     -11.497  11.279  69.145  1.00  0.00    -0.297 C  
HETATM    7  N   UNL     1      -9.277  10.479  69.767  1.00  0.00    -0.399 NA 
HETATM    8  O   UNL     1     -12.167  11.228  67.974  1.00  0.00    -0.621 OA 
HETATM    9  OXT UNL     1     -11.538  12.304  69.805  1.00  0.00    -0.288 OA 
HETATM   10  H1  UNL     1      -8.917  10.888  68.904  1.00  0.00     0.000 HD 
HETATM   11  H2  UNL     1      -8.703   9.697  70.081  1.00  0.00     0.000 HD 
ENDBRANCH   4   5
ENDBRANCH   3   4
ENDBRANCH   2   3
TORSDOF 3
ENDMDL
MODEL      102
REMARK 921   NORMALIZED FREE ENERGY PREDICTED BY IDOCK:   -2.42 KCAL/MOL
REMARK 922        TOTAL FREE ENERGY PREDICTED BY IDOCK:   -3.08 KCAL/MOL
REMARK 923 INTER-LIGAND FREE ENERGY PREDICTED BY IDOCK:   -3.02 KCAL/MOL
REMARK 924 INTRA-LIGAND FREE ENERGY PREDICTED BY IDOCK:   -0.05 KCAL/MOL
REMARK 927      BINDING AFFINITY PREDICTED BY RF-SCORE:    0.00 PKD
ROOT
HETATM    1  C   UNL     1     -10.999   7.452  71.694  1.00  0.00    -0.225 C  
HETATM    2 SE   UNL     1      -9.904   8.998  71.245  1.00  0.00    -0.301 Se 
ENDROOT
BRANCH   2   3
HETATM    3  C   UNL     1     -10.943   9.410  69.642  1.00  0.00    -0.197 C  
BRANCH   3   4
HETATM    4  C   UNL     1     -11.201  10.923  69.603  1.00  0.00    -0.348 C  
BRANCH   4   5
HETATM    5  CA  UNL     1     -10.662  11.658  68.353  1.00  0.00    -0.217 C  
HETATM    6  C   UNL     1     -11.704  12.538  67.695  1.00  0.00    -0.361 C  
HETATM    7  N   UNL     1      -9.474  12.447  68.682  1.00  0.00    -0.398 NA 
HETATM    8  O   UNL     1     -12.137  12.272  66.444  1.00  0.00    -0.623 OA 
HETATM    9  OXT UNL     1     -12.147  13.514  68.279  1.00  0.00    -0.354 OA 
HETATM   10  H1  UNL     1      -9.119  12.932  67.857  1.00  0.00     0.000 HD 
HETATM   11  H2  UNL     1      -8.753  11.877  69.123  1.00  0.00     0.000 HD 
ENDBRANCH   4   5
ENDBRANCH   3   4
ENDBRANCH   2   3
TORSDOF 3
ENDMDL
MODEL      103
REMARK 921   NORMALIZED FREE ENERGY PREDICTED BY IDOCK:   -2.42 KCAL/MOL
REMARK 922        TOTAL FREE ENERGY PREDICTED BY IDOCK:   -3.08 KCAL/MOL
REMARK 923 INTER-LIGAND FREE ENERGY PREDICTED BY IDOCK:   -2.96 KCAL/MOL
REMARK 924 INTRA-LIGAND FREE ENERGY PREDICTED BY IDOCK:   -0.12 KCAL/MOL
REMARK 927      BINDING AFFINITY PREDICTED BY RF-SCORE:    0.00 PKD
ROOT
HETATM    1  C   UNL     1      -9.851  12.872  68.053  1.00  0.00    -0.223 C  
HETATM    2 SE   UNL     1     -11.773  13.143  68.197  1.00  0.00    -0.357 Se 
ENDROOT
BRANCH   2   3
HETATM    3  C   UNL     1     -11.821  12.615  70.078  1.00  0.00    -0.285 C  
BRANCH   3   4
HETATM    4  C   UNL     1     -12.258  11.145  70.160  1.00  0.00    -0.417 C  
BRANCH   4   5
HETATM    5  CA  UNL     1     -11.112  10.107  70.130  1.00  0.00    -0.315 C  
HETATM    6  C   UNL     1     -11.257   9.041  71.196  1.00  0.00    -0.305 C  
HETATM    7  N   UNL     1     -11.004   9.484  68.810  1.00  0.00    -0.426 NA 
HETATM    8  O   UNL     1     -10.342   8.929  72.184  1.00  0.00    -0.333 OA 
HETATM    9  OXT UNL     1     -12.189   8.255  71.161  1.00  0.00    -0.296 OA 
HETATM   10  H1  UNL     1     -10.248   8.799  68.790  1.00  0.00     0.000 HD 
HETATM   11  H2  UNL     1     -10.901  10.180  68.072  1.00  0.00     0.000 HD 
ENDBRANCH   4   5
ENDBRANCH   3   4
ENDBRANCH   2   3
TORSDOF 3
ENDMDL
MODEL      104
REMARK 921   NORMALIZED FREE ENERGY PREDICTED BY IDOCK:   -2.42 KCAL/MOL
REMARK 922        TOTAL FREE ENERGY PREDICTED BY IDOCK:   -3.08 KCAL/MOL
REMARK 923 INTER-LIGAND FREE ENERGY PREDICTED BY IDOCK:   -2.98 KCAL/MOL
REMARK 924 INTRA-LIGAND FREE ENERGY PREDICTED BY IDOCK:   -0.09 KCAL/MOL
REMARK 927      BINDING AFFINITY PREDICTED BY RF-SCORE:    0.00 PKD
ROOT
HETATM    1  C   UNL     1     -11.806  13.997  64.245  1.00  0.00    -0.410 C  
HETATM    2 SE   UNL     1     -10.822  12.412  64.800  1.00  0.00    -0.321 Se 
ENDROOT
BRANCH   2   3
HETATM    3  C   UNL     1     -10.044  13.302  66.357  1.00  0.00    -0.290 C  
BRANCH   3   4
HETATM    4  C   UNL     1     -10.237  12.397  67.582  1.00  0.00    -0.210 C  
BRANCH   4   5
HETATM    5  CA  UNL     1     -11.068  11.115  67.339  1.00  0.00    -0.307 C  
HETATM    6  C   UNL     1     -10.224   9.857  67.351  1.00  0.00    -0.222 C  
HETATM    7  N   UNL     1     -12.153  11.001  68.314  1.00  0.00    -0.788 NA 
HETATM    8  O   UNL     1     -10.099   9.102  66.239  1.00  0.00    -0.286 OA 
HETATM    9  OXT UNL     1      -9.667   9.497  68.375  1.00  0.00    -0.150 OA 
HETATM   10  H1  UNL     1     -12.701  10.155  68.153  1.00  0.00     0.000 HD 
HETATM   11  H2  UNL     1     -12.741  11.834  68.324  1.00  0.00     0.000 HD 
ENDBRANCH   4   5
ENDBRANCH   3   4
ENDBRANCH   2   3
TORSDOF 3
ENDMDL
MODEL      105
REMARK 921   NORMALIZED FREE ENERGY PREDICTED BY IDOCK:   -2.40 KCAL/MOL
REMARK 922        TOTAL FREE ENERGY PREDICTED BY IDOCK:   -3.06 KCAL/MOL
REMARK 923 INTER-LIGAND FREE ENERGY PREDICTED BY IDOCK:   -2.97 KCAL/MOL
REMARK 924 INTRA-LIGAND FREE ENERGY PREDICTED BY IDOCK:   -0.09 KCAL/MOL
REMARK 927      BINDING AFFINITY PREDICTED BY RF-SCORE:    0.00 PKD
ROOT
HETATM    1  C   UNL     1      -7.130  11.613  69.083  1.00  0.00    -0.090 C  
HETATM    2 SE   UNL     1      -8.817  11.974  68.182  1.00  0.00    -0.182 Se 
ENDROOT
BRANCH   2   3
HETATM    3  C   UNL     1      -9.558  10.220  68.623  1.00  0.00    -0.168 C  
BRANCH   3   4
HETATM    4  C   UNL     1     -10.273  10.319  69.977  1.00  0.00    -0.214 C  
BRANCH   4   5
HETATM    5  CA  UNL     1     -11.812  10.469  69.907  1.00  0.00    -0.282 C  
HETATM    6  C   UNL     1     -12.340  11.545  70.833  1.00  0.00    -0.359 C  
HETATM    7  N   UNL     1     -12.251  10.729  68.535  1.00  0.00    -0.822 NA 
HETATM    8  O   UNL     1     -13.155  11.227  71.862  1.00  0.00    -0.493 OA 
HETATM    9  OXT UNL     1     -12.054  12.717  70.646  1.00  0.00    -0.357 OA 
HETATM   10  H1  UNL     1     -13.265  10.827  68.490  1.00  0.00     0.000 HD 
HETATM   11  H2  UNL     1     -11.913  10.015  67.890  1.00  0.00     0.000 HD 
ENDBRANCH   4   5
ENDBRANCH   3   4
ENDBRANCH   2   3
TORSDOF 3
ENDMDL
MODEL      106
REMARK 921   NORMALIZED FREE ENERGY PREDICTED BY IDOCK:   -2.39 KCAL/MOL
REMARK 922        TOTAL FREE ENERGY PREDICTED BY IDOCK:   -3.05 KCAL/MOL
REMARK 923 INTER-LIGAND FREE ENERGY PREDICTED BY IDOCK:   -2.98 KCAL/MOL
REMARK 924 INTRA-LIGAND FREE ENERGY PREDICTED BY IDOCK:   -0.07 KCAL/MOL
REMARK 927      BINDING AFFINITY PREDICTED BY RF-SCORE:    0.00 PKD
ROOT
HETATM    1  C   UNL     1      -9.716  13.459  67.896  1.00  0.00    -0.226 C  
HETATM    2 SE   UNL     1     -10.639  15.083  68.444  1.00  0.00    -0.245 Se 
ENDROOT
BRANCH   2   3
HETATM    3  C   UNL     1      -9.528  16.229  67.317  1.00  0.00    -0.227 C  
BRANCH   3   4
HETATM    4  C   UNL     1     -10.336  17.481  66.947  1.00  0.00    -0.315 C  
BRANCH   4   5
HETATM    5  CA  UNL     1      -9.504  18.694  66.470  1.00  0.00    -0.322 C  
HETATM    6  C   UNL     1      -9.286  19.722  67.561  1.00  0.00    -0.340 C  
HETATM    7  N   UNL     1      -8.216  18.263  65.923  1.00  0.00    -0.508 NA 
HETATM    8  O   UNL     1      -9.800  20.965  67.446  1.00  0.00    -0.444 OA 
HETATM    9  OXT UNL     1      -8.621  19.446  68.546  1.00  0.00    -0.349 OA 
HETATM   10  H1  UNL     1      -7.667  19.064  65.609  1.00  0.00     0.000 HD 
HETATM   11  H2  UNL     1      -8.333  17.573  65.182  1.00  0.00     0.000 HD 
ENDBRANCH   4   5
ENDBRANCH   3   4
ENDBRANCH   2   3
TORSDOF 3
ENDMDL
MODEL      107
REMARK 921   NORMALIZED FREE ENERGY PREDICTED BY IDOCK:   -2.39 KCAL/MOL
REMARK 922        TOTAL FREE ENERGY PREDICTED BY IDOCK:   -3.05 KCAL/MOL
REMARK 923 INTER-LIGAND FREE ENERGY PREDICTED BY IDOCK:   -2.87 KCAL/MOL
REMARK 924 INTRA-LIGAND FREE ENERGY PREDICTED BY IDOCK:   -0.18 KCAL/MOL
REMARK 927      BINDING AFFINITY PREDICTED BY RF-SCORE:    0.00 PKD
ROOT
HETATM    1  C   UNL     1      -9.047   4.982  72.202  1.00  0.00    -0.132 C  
HETATM    2 SE   UNL     1     -10.702   4.922  73.225  1.00  0.00    -0.283 Se 
ENDROOT
BRANCH   2   3
HETATM    3  C   UNL     1     -10.380   6.658  74.062  1.00  0.00    -0.351 C  
BRANCH   3   4
HETATM    4  C   UNL     1      -9.936   7.648  72.976  1.00  0.00    -0.343 C  
BRANCH   4   5
HETATM    5  CA  UNL     1     -11.070   8.478  72.329  1.00  0.00    -0.360 C  
HETATM    6  C   UNL     1     -11.098   8.357  70.819  1.00  0.00    -0.258 C  
HETATM    7  N   UNL     1     -12.373   8.109  72.885  1.00  0.00    -0.647 NA 
HETATM    8  O   UNL     1     -10.865   9.434  70.039  1.00  0.00    -0.223 OA 
HETATM    9  OXT UNL     1     -11.357   7.288  70.289  1.00  0.00    -0.273 OA 
HETATM   10  H1  UNL     1     -13.120   8.657  72.458  1.00  0.00     0.000 HD 
HETATM   11  H2  UNL     1     -12.383   8.186  73.902  1.00  0.00     0.000 HD 
ENDBRANCH   4   5
ENDBRANCH   3   4
ENDBRANCH   2   3
TORSDOF 3
ENDMDL
MODEL      108
REMARK 921   NORMALIZED FREE ENERGY PREDICTED BY IDOCK:   -2.39 KCAL/MOL
REMARK 922        TOTAL FREE ENERGY PREDICTED BY IDOCK:   -3.04 KCAL/MOL
REMARK 923 INTER-LIGAND FREE ENERGY PREDICTED BY IDOCK:   -2.82 KCAL/MOL
REMARK 924 INTRA-LIGAND FREE ENERGY PREDICTED BY IDOCK:   -0.23 KCAL/MOL
REMARK 927      BINDING AFFINITY PREDICTED BY RF-SCORE:    0.00 PKD
ROOT
HETATM    1  C   UNL     1     -12.370  12.435  64.370  1.00  0.00    -0.447 C  
HETATM    2 SE   UNL     1     -12.365  13.899  65.652  1.00  0.00    -0.500 Se 
ENDROOT
BRANCH   2   3
HETATM    3  C   UNL     1     -10.449  14.224  65.444  1.00  0.00    -0.365 C  
BRANCH   3   4
HETATM    4  C   UNL     1      -9.748  13.866  66.762  1.00  0.00    -0.282 C  
BRANCH   4   5
HETATM    5  CA  UNL     1      -9.113  12.456  66.816  1.00  0.00    -0.212 C  
HETATM    6  C   UNL     1      -9.862  11.509  67.731  1.00  0.00    -0.177 C  
HETATM    7  N   UNL     1      -9.006  11.878  65.475  1.00  0.00    -0.418 NA 
HETATM    8  O   UNL     1      -9.271  11.013  68.838  1.00  0.00    -0.179 OA 
HETATM    9  OXT UNL     1     -11.002  11.164  67.463  1.00  0.00    -0.237 OA 
HETATM   10  H1  UNL     1      -8.587  10.948  65.511  1.00  0.00     0.000 HD 
HETATM   11  H2  UNL     1      -8.501  12.494  64.839  1.00  0.00     0.000 HD 
ENDBRANCH   4   5
ENDBRANCH   3   4
ENDBRANCH   2   3
TORSDOF 3
ENDMDL
MODEL      109
REMARK 921   NORMALIZED FREE ENERGY PREDICTED BY IDOCK:   -2.38 KCAL/MOL
REMARK 922        TOTAL FREE ENERGY PREDICTED BY IDOCK:   -3.04 KCAL/MOL
REMARK 923 INTER-LIGAND FREE ENERGY PREDICTED BY IDOCK:   -2.96 KCAL/MOL
REMARK 924 INTRA-LIGAND FREE ENERGY PREDICTED BY IDOCK:   -0.08 KCAL/MOL
REMARK 927      BINDING AFFINITY PREDICTED BY RF-SCORE:    0.00 PKD
ROOT
HETATM    1  C   UNL     1     -13.277   9.929  71.882  1.00  0.00    -0.458 C  
HETATM    2 SE   UNL     1     -14.381   8.334  71.723  1.00  0.00    -0.483 Se 
ENDROOT
BRANCH   2   3
HETATM    3  C   UNL     1     -12.837   7.139  71.624  1.00  0.00    -0.379 C  
BRANCH   3   4
HETATM    4  C   UNL     1     -11.586   7.924  72.041  1.00  0.00    -0.357 C  
BRANCH   4   5
HETATM    5  CA  UNL     1     -10.345   7.726  71.139  1.00  0.00    -0.200 C  
HETATM    6  C   UNL     1      -9.269   8.764  71.384  1.00  0.00    -0.255 C  
HETATM    7  N   UNL     1      -9.790   6.381  71.299  1.00  0.00    -0.181 NA 
HETATM    8  O   UNL     1      -8.921   9.636  70.414  1.00  0.00    -0.244 OA 
HETATM    9  OXT UNL     1      -8.685   8.807  72.455  1.00  0.00    -0.406 OA 
HETATM   10  H1  UNL     1      -8.971   6.251  70.704  1.00  0.00     0.000 HD 
HETATM   11  H2  UNL     1     -10.493   5.661  71.134  1.00  0.00     0.000 HD 
ENDBRANCH   4   5
ENDBRANCH   3   4
ENDBRANCH   2   3
TORSDOF 3
ENDMDL
MODEL      110
REMARK 921   NORMALIZED FREE ENERGY PREDICTED BY IDOCK:   -2.36 KCAL/MOL
REMARK 922        TOTAL FREE ENERGY PREDICTED BY IDOCK:   -3.01 KCAL/MOL
REMARK 923 INTER-LIGAND FREE ENERGY PREDICTED BY IDOCK:   -2.97 KCAL/MOL
REMARK 924 INTRA-LIGAND FREE ENERGY PREDICTED BY IDOCK:   -0.05 KCAL/MOL
REMARK 927      BINDING AFFINITY PREDICTED BY RF-SCORE:    0.00 PKD
ROOT
HETATM    1  C   UNL     1     -10.832   9.986  67.544  1.00  0.00    -0.265 C  
HETATM    2 SE   UNL     1     -10.828  10.909  69.258  1.00  0.00    -0.246 Se 
ENDROOT
BRANCH   2   3
HETATM    3  C   UNL     1     -11.619  12.533  68.512  1.00  0.00    -0.321 C  
BRANCH   3   4
HETATM    4  C   UNL     1     -11.259  13.714  69.425  1.00  0.00    -0.252 C  
BRANCH   4   5
HETATM    5  CA  UNL     1     -12.458  14.528  69.965  1.00  0.00    -0.298 C  
HETATM    6  C   UNL     1     -12.532  14.532  71.478  1.00  0.00    -0.355 C  
HETATM    7  N   UNL     1     -12.429  15.901  69.461  1.00  0.00    -0.428 NA 
HETATM    8  O   UNL     1     -13.576  13.963  72.117  1.00  0.00    -0.413 OA 
HETATM    9  OXT UNL     1     -11.659  15.073  72.137  1.00  0.00    -0.388 OA 
HETATM   10  H1  UNL     1     -13.220  16.438  69.817  1.00  0.00     0.000 HD 
HETATM   11  H2  UNL     1     -12.384  15.928  68.442  1.00  0.00     0.000 HD 
ENDBRANCH   4   5
ENDBRANCH   3   4
ENDBRANCH   2   3
TORSDOF 3
ENDMDL
MODEL      111
REMARK 921   NORMALIZED FREE ENERGY PREDICTED BY IDOCK:   -2.36 KCAL/MOL
REMARK 922        TOTAL FREE ENERGY PREDICTED BY IDOCK:   -3.01 KCAL/MOL
REMARK 923 INTER-LIGAND FREE ENERGY PREDICTED BY IDOCK:   -2.88 KCAL/MOL
REMARK 924 INTRA-LIGAND FREE ENERGY PREDICTED BY IDOCK:   -0.13 KCAL/MOL
REMARK 927      BINDING AFFINITY PREDICTED BY RF-SCORE:    0.00 PKD
ROOT
HETATM    1  C   UNL     1     -12.128  13.930  66.879  1.00  0.00    -0.430 C  
HETATM    2 SE   UNL     1     -12.231  14.064  64.939  1.00  0.00    -0.439 Se 
ENDROOT
BRANCH   2   3
HETATM    3  C   UNL     1     -10.582  15.106  64.812  1.00  0.00    -0.276 C  
BRANCH   3   4
HETATM    4  C   UNL     1     -10.600  16.183  65.906  1.00  0.00    -0.322 C  
BRANCH   4   5
HETATM    5  CA  UNL     1      -9.229  16.506  66.545  1.00  0.00    -0.272 C  
HETATM    6  C   UNL     1      -9.347  16.991  67.975  1.00  0.00    -0.245 C  
HETATM    7  N   UNL     1      -8.336  15.348  66.481  1.00  0.00    -0.378 NA 
HETATM    8  O   UNL     1      -8.970  18.244  68.309  1.00  0.00    -0.289 OA 
HETATM    9  OXT UNL     1      -9.762  16.246  68.848  1.00  0.00    -0.227 OA 
HETATM   10  H1  UNL     1      -7.431  15.561  66.903  1.00  0.00     0.000 HD 
HETATM   11  H2  UNL     1      -8.234  15.003  65.527  1.00  0.00     0.000 HD 
ENDBRANCH   4   5
ENDBRANCH   3   4
ENDBRANCH   2   3
TORSDOF 3
ENDMDL
MODEL      112
REMARK 921   NORMALIZED FREE ENERGY PREDICTED BY IDOCK:   -2.36 KCAL/MOL
REMARK 922        TOTAL FREE ENERGY PREDICTED BY IDOCK:   -3.01 KCAL/MOL
REMARK 923 INTER-LIGAND FREE ENERGY PREDICTED BY IDOCK:   -2.92 KCAL/MOL
REMARK 924 INTRA-LIGAND FREE ENERGY PREDICTED BY IDOCK:   -0.08 KCAL/MOL
REMARK 927      BINDING AFFINITY PREDICTED BY RF-SCORE:    0.00 PKD
ROOT
HETATM    1  C   UNL     1     -10.902  10.008  67.650  1.00  0.00    -0.278 C  
HETATM    2 SE   UNL     1     -11.066  10.361  69.557  1.00  0.00    -0.281 Se 
ENDROOT
BRANCH   2   3
HETATM    3  C   UNL     1     -11.876  12.118  69.277  1.00  0.00    -0.313 C  
BRANCH   3   4
HETATM    4  C   UNL     1     -11.648  12.532  67.816  1.00  0.00    -0.401 C  
BRANCH   4   5
HETATM    5  CA  UNL     1     -10.516  13.559  67.584  1.00  0.00    -0.238 C  
HETATM    6  C   UNL     1     -11.036  14.959  67.327  1.00  0.00    -0.323 C  
HETATM    7  N   UNL     1      -9.581  13.571  68.711  1.00  0.00    -0.413 NA 
HETATM    8  O   UNL     1     -10.824  15.562  66.138  1.00  0.00    -0.322 OA 
HETATM    9  OXT UNL     1     -11.630  15.567  68.202  1.00  0.00    -0.353 OA 
HETATM   10  H1  UNL     1      -8.834  14.249  68.558  1.00  0.00     0.000 HD 
HETATM   11  H2  UNL     1      -9.211  12.641  68.903  1.00  0.00     0.000 HD 
ENDBRANCH   4   5
ENDBRANCH   3   4
ENDBRANCH   2   3
TORSDOF 3
ENDMDL
MODEL      113
REMARK 921   NORMALIZED FREE ENERGY PREDICTED BY IDOCK:   -2.35 KCAL/MOL
REMARK 922        TOTAL FREE ENERGY PREDICTED BY IDOCK:   -3.00 KCAL/MOL
REMARK 923 INTER-LIGAND FREE ENERGY PREDICTED BY IDOCK:   -2.86 KCAL/MOL
REMARK 924 INTRA-LIGAND FREE ENERGY PREDICTED BY IDOCK:   -0.14 KCAL/MOL
REMARK 927      BINDING AFFINITY PREDICTED BY RF-SCORE:    0.00 PKD
ROOT
HETATM    1  C   UNL     1     -10.941  14.234  64.744  1.00  0.00    -0.398 C  
HETATM    2 SE   UNL     1     -11.946  13.901  66.378  1.00  0.00    -0.454 Se 
ENDROOT
BRANCH   2   3
HETATM    3  C   UNL     1     -10.336  13.552  67.430  1.00  0.00    -0.237 C  
BRANCH   3   4
HETATM    4  C   UNL     1      -9.384  14.746  67.275  1.00  0.00    -0.211 C  
BRANCH   4   5
HETATM    5  CA  UNL     1      -9.209  15.627  68.535  1.00  0.00    -0.197 C  
HETATM    6  C   UNL     1      -9.889  16.974  68.408  1.00  0.00    -0.283 C  
HETATM    7  N   UNL     1      -9.692  14.932  69.730  1.00  0.00    -0.450 NA 
HETATM    8  O   UNL     1      -9.164  18.113  68.413  1.00  0.00    -0.291 OA 
HETATM    9  OXT UNL     1     -11.104  17.048  68.326  1.00  0.00    -0.337 OA 
HETATM   10  H1  UNL     1      -9.576  15.513  70.561  1.00  0.00     0.000 HD 
HETATM   11  H2  UNL     1      -9.246  14.022  69.843  1.00  0.00     0.000 HD 
ENDBRANCH   4   5
ENDBRANCH   3   4
ENDBRANCH   2   3
TORSDOF 3
ENDMDL
MODEL      114
REMARK 921   NORMALIZED FREE ENERGY PREDICTED BY IDOCK:   -2.34 KCAL/MOL
REMARK 922        TOTAL FREE ENERGY PREDICTED BY IDOCK:   -2.99 KCAL/MOL
REMARK 923 INTER-LIGAND FREE ENERGY PREDICTED BY IDOCK:   -2.91 KCAL/MOL
REMARK 924 INTRA-LIGAND FREE ENERGY PREDICTED BY IDOCK:   -0.08 KCAL/MOL
REMARK 927      BINDING AFFINITY PREDICTED BY RF-SCORE:    0.00 PKD
ROOT
HETATM    1  C   UNL     1      -9.825  12.204  67.713  1.00  0.00    -0.199 C  
HETATM    2 SE   UNL     1      -8.711  13.800  67.689  1.00  0.00    -0.199 Se 
ENDROOT
BRANCH   2   3
HETATM    3  C   UNL     1      -9.777  14.660  66.294  1.00  0.00    -0.307 C  
BRANCH   3   4
HETATM    4  C   UNL     1      -9.305  16.113  66.146  1.00  0.00    -0.372 C  
BRANCH   4   5
HETATM    5  CA  UNL     1     -10.274  17.187  66.695  1.00  0.00    -0.319 C  
HETATM    6  C   UNL     1      -9.859  17.713  68.054  1.00  0.00    -0.310 C  
HETATM    7  N   UNL     1     -10.417  18.296  65.751  1.00  0.00    -0.617 NA 
HETATM    8  O   UNL     1     -10.640  17.511  69.137  1.00  0.00    -0.297 OA 
HETATM    9  OXT UNL     1      -8.825  18.348  68.181  1.00  0.00    -0.286 OA 
HETATM   10  H1  UNL     1     -11.056  19.004  66.113  1.00  0.00     0.000 HD 
HETATM   11  H2  UNL     1     -10.701  17.970  64.827  1.00  0.00     0.000 HD 
ENDBRANCH   4   5
ENDBRANCH   3   4
ENDBRANCH   2   3
TORSDOF 3
ENDMDL
MODEL      115
REMARK 921   NORMALIZED FREE ENERGY PREDICTED BY IDOCK:   -2.34 KCAL/MOL
REMARK 922        TOTAL FREE ENERGY PREDICTED BY IDOCK:   -2.99 KCAL/MOL
REMARK 923 INTER-LIGAND FREE ENERGY PREDICTED BY IDOCK:   -2.88 KCAL/MOL
REMARK 924 INTRA-LIGAND FREE ENERGY PREDICTED BY IDOCK:   -0.11 KCAL/MOL
REMARK 927      BINDING AFFINITY PREDICTED BY RF-SCORE:    0.00 PKD
ROOT
HETATM    1  C   UNL     1     -11.626  13.439  68.951  1.00  0.00    -0.314 C  
HETATM    2 SE   UNL     1     -10.075  12.544  68.187  1.00  0.00    -0.228 Se 
ENDROOT
BRANCH   2   3
HETATM    3  C   UNL     1      -9.300  14.211  67.523  1.00  0.00    -0.204 C  
BRANCH   3   4
HETATM    4  C   UNL     1     -10.141  15.383  68.048  1.00  0.00    -0.226 C  
BRANCH   4   5
HETATM    5  CA  UNL     1      -9.488  16.779  67.924  1.00  0.00    -0.230 C  
HETATM    6  C   UNL     1      -9.382  17.253  66.489  1.00  0.00    -0.264 C  
HETATM    7  N   UNL     1     -10.209  17.768  68.726  1.00  0.00    -0.379 NA 
HETATM    8  O   UNL     1      -8.175  17.449  65.917  1.00  0.00    -0.537 OA 
HETATM    9  OXT UNL     1     -10.389  17.487  65.840  1.00  0.00    -0.494 OA 
HETATM   10  H1  UNL     1      -9.777  18.689  68.645  1.00  0.00     0.000 HD 
HETATM   11  H2  UNL     1     -10.290  17.476  69.700  1.00  0.00     0.000 HD 
ENDBRANCH   4   5
ENDBRANCH   3   4
ENDBRANCH   2   3
TORSDOF 3
ENDMDL
MODEL      116
REMARK 921   NORMALIZED FREE ENERGY PREDICTED BY IDOCK:   -2.33 KCAL/MOL
REMARK 922        TOTAL FREE ENERGY PREDICTED BY IDOCK:   -2.98 KCAL/MOL
REMARK 923 INTER-LIGAND FREE ENERGY PREDICTED BY IDOCK:   -2.80 KCAL/MOL
REMARK 924 INTRA-LIGAND FREE ENERGY PREDICTED BY IDOCK:   -0.18 KCAL/MOL
REMARK 927      BINDING AFFINITY PREDICTED BY RF-SCORE:    0.00 PKD
ROOT
HETATM    1  C   UNL     1      -7.012  15.900  66.854  1.00  0.00    -0.042 C  
HETATM    2 SE   UNL     1      -8.064  15.875  68.492  1.00  0.00    -0.167 Se 
ENDROOT
BRANCH   2   3
HETATM    3  C   UNL     1      -9.744  16.211  67.552  1.00  0.00    -0.233 C  
BRANCH   3   4
HETATM    4  C   UNL     1     -10.448  17.400  68.222  1.00  0.00    -0.385 C  
BRANCH   4   5
HETATM    5  CA  UNL     1      -9.870  18.793  67.879  1.00  0.00    -0.341 C  
HETATM    6  C   UNL     1      -9.817  19.057  66.388  1.00  0.00    -0.378 C  
HETATM    7  N   UNL     1     -10.626  19.853  68.549  1.00  0.00    -0.438 NA 
HETATM    8  O   UNL     1      -8.633  19.227  65.762  1.00  0.00    -0.405 OA 
HETATM    9  OXT UNL     1     -10.846  19.144  65.739  1.00  0.00    -0.413 OA 
HETATM   10  H1  UNL     1     -10.245  20.772  68.323  1.00  0.00     0.000 HD 
HETATM   11  H2  UNL     1     -10.674  19.703  69.556  1.00  0.00     0.000 HD 
ENDBRANCH   4   5
ENDBRANCH   3   4
ENDBRANCH   2   3
TORSDOF 3
ENDMDL
MODEL      117
REMARK 921   NORMALIZED FREE ENERGY PREDICTED BY IDOCK:   -2.32 KCAL/MOL
REMARK 922        TOTAL FREE ENERGY PREDICTED BY IDOCK:   -2.97 KCAL/MOL
REMARK 923 INTER-LIGAND FREE ENERGY PREDICTED BY IDOCK:   -2.97 KCAL/MOL
REMARK 924 INTRA-LIGAND FREE ENERGY PREDICTED BY IDOCK:   -0.00 KCAL/MOL
REMARK 927      BINDING AFFINITY PREDICTED BY RF-SCORE:    0.00 PKD
ROOT
HETATM    1  C   UNL     1      -9.654   3.045  71.039  1.00  0.00    -0.153 C  
HETATM    2 SE   UNL     1     -10.221   4.780  71.717  1.00  0.00    -0.161 Se 
ENDROOT
BRANCH   2   3
HETATM    3  C   UNL     1     -10.599   5.479  69.931  1.00  0.00    -0.317 C  
BRANCH   3   4
HETATM    4  C   UNL     1     -11.373   6.797  70.078  1.00  0.00    -0.396 C  
BRANCH   4   5
HETATM    5  CA  UNL     1     -12.155   6.965  71.402  1.00  0.00    -0.364 C  
HETATM    6  C   UNL     1     -11.570   8.038  72.297  1.00  0.00    -0.366 C  
HETATM    7  N   UNL     1     -13.569   7.244  71.144  1.00  0.00    -0.574 NA 
HETATM    8  O   UNL     1     -11.050   7.719  73.502  1.00  0.00    -0.279 OA 
HETATM    9  OXT UNL     1     -11.585   9.208  71.951  1.00  0.00    -0.358 OA 
HETATM   10  H1  UNL     1     -14.084   7.354  72.018  1.00  0.00     0.000 HD 
HETATM   11  H2  UNL     1     -13.990   6.533  70.546  1.00  0.00     0.000 HD 
ENDBRANCH   4   5
ENDBRANCH   3   4
ENDBRANCH   2   3
TORSDOF 3
ENDMDL
MODEL      118
REMARK 921   NORMALIZED FREE ENERGY PREDICTED BY IDOCK:   -2.31 KCAL/MOL
REMARK 922        TOTAL FREE ENERGY PREDICTED BY IDOCK:   -2.96 KCAL/MOL
REMARK 923 INTER-LIGAND FREE ENERGY PREDICTED BY IDOCK:   -2.85 KCAL/MOL
REMARK 924 INTRA-LIGAND FREE ENERGY PREDICTED BY IDOCK:   -0.11 KCAL/MOL
REMARK 927      BINDING AFFINITY PREDICTED BY RF-SCORE:    0.00 PKD
ROOT
HETATM    1  C   UNL     1     -10.609  15.276  67.774  1.00  0.00    -0.266 C  
HETATM    2 SE   UNL     1      -9.665  15.106  66.079  1.00  0.00    -0.347 Se 
ENDROOT
BRANCH   2   3
HETATM    3  C   UNL     1     -10.172  13.231  65.857  1.00  0.00    -0.293 C  
BRANCH   3   4
HETATM    4  C   UNL     1     -10.764  12.726  67.180  1.00  0.00    -0.264 C  
BRANCH   4   5
HETATM    5  CA  UNL     1     -11.195  11.241  67.191  1.00  0.00    -0.275 C  
HETATM    6  C   UNL     1     -10.018  10.287  67.173  1.00  0.00    -0.197 C  
HETATM    7  N   UNL     1     -12.054  10.954  68.341  1.00  0.00    -0.818 NA 
HETATM    8  O   UNL     1      -9.823   9.458  66.125  1.00  0.00    -0.250 OA 
HETATM    9  OXT UNL     1      -9.247  10.239  68.117  1.00  0.00    -0.134 OA 
HETATM   10  H1  UNL     1     -12.339   9.974  68.349  1.00  0.00     0.000 HD 
HETATM   11  H2  UNL     1     -12.859  11.579  68.376  1.00  0.00     0.000 HD 
ENDBRANCH   4   5
ENDBRANCH   3   4
ENDBRANCH   2   3
TORSDOF 3
ENDMDL
MODEL      119
REMARK 921   NORMALIZED FREE ENERGY PREDICTED BY IDOCK:   -2.31 KCAL/MOL
REMARK 922        TOTAL FREE ENERGY PREDICTED BY IDOCK:   -2.95 KCAL/MOL
REMARK 923 INTER-LIGAND FREE ENERGY PREDICTED BY IDOCK:   -2.92 KCAL/MOL
REMARK 924 INTRA-LIGAND FREE ENERGY PREDICTED BY IDOCK:   -0.03 KCAL/MOL
REMARK 927      BINDING AFFINITY PREDICTED BY RF-SCORE:    0.00 PKD
ROOT
HETATM    1  C   UNL     1     -12.409  13.565  65.727  1.00  0.00    -0.468 C  
HETATM    2 SE   UNL     1     -10.498  13.848  65.969  1.00  0.00    -0.305 Se 
ENDROOT
BRANCH   2   3
HETATM    3  C   UNL     1     -10.668  15.795  65.931  1.00  0.00    -0.313 C  
BRANCH   3   4
HETATM    4  C   UNL     1      -9.578  16.397  66.828  1.00  0.00    -0.263 C  
BRANCH   4   5
HETATM    5  CA  UNL     1      -8.148  16.385  66.237  1.00  0.00    -0.276 C  
HETATM    6  C   UNL     1      -7.446  17.720  66.370  1.00  0.00    -0.279 C  
HETATM    7  N   UNL     1      -7.338  15.330  66.847  1.00  0.00    -0.289 NA 
HETATM    8  O   UNL     1      -7.100  18.427  65.273  1.00  0.00    -0.530 OA 
HETATM    9  OXT UNL     1      -7.162  18.162  67.472  1.00  0.00    -0.197 OA 
HETATM   10  H1  UNL     1      -6.395  15.321  66.457  1.00  0.00     0.000 HD 
HETATM   11  H2  UNL     1      -7.786  14.417  66.767  1.00  0.00     0.000 HD 
ENDBRANCH   4   5
ENDBRANCH   3   4
ENDBRANCH   2   3
TORSDOF 3
ENDMDL
MODEL      120
REMARK 921   NORMALIZED FREE ENERGY PREDICTED BY IDOCK:   -2.31 KCAL/MOL
REMARK 922        TOTAL FREE ENERGY PREDICTED BY IDOCK:   -2.95 KCAL/MOL
REMARK 923 INTER-LIGAND FREE ENERGY PREDICTED BY IDOCK:   -2.73 KCAL/MOL
REMARK 924 INTRA-LIGAND FREE ENERGY PREDICTED BY IDOCK:   -0.23 KCAL/MOL
REMARK 927      BINDING AFFINITY PREDICTED BY RF-SCORE:    0.00 PKD
ROOT
HETATM    1  C   UNL     1      -7.968   6.240  72.670  1.00  0.00    -0.106 C  
HETATM    2 SE   UNL     1      -8.948   7.764  73.383  1.00  0.00    -0.280 Se 
ENDROOT
BRANCH   2   3
HETATM    3  C   UNL     1     -10.684   6.892  73.167  1.00  0.00    -0.308 C  
BRANCH   3   4
HETATM    4  C   UNL     1     -11.649   7.885  72.503  1.00  0.00    -0.443 C  
BRANCH   4   5
HETATM    5  CA  UNL     1     -11.256   8.344  71.079  1.00  0.00    -0.266 C  
HETATM    6  C   UNL     1     -10.913   7.187  70.163  1.00  0.00    -0.267 C  
HETATM    7  N   UNL     1     -12.313   9.160  70.481  1.00  0.00    -0.472 NA 
HETATM    8  O   UNL     1      -9.665   7.050  69.667  1.00  0.00    -0.157 OA 
HETATM    9  OXT UNL     1     -11.769   6.378  69.842  1.00  0.00    -0.426 OA 
HETATM   10  H1  UNL     1     -12.054   9.463  69.542  1.00  0.00     0.000 HD 
HETATM   11  H2  UNL     1     -12.561   9.951  71.076  1.00  0.00     0.000 HD 
ENDBRANCH   4   5
ENDBRANCH   3   4
ENDBRANCH   2   3
TORSDOF 3
ENDMDL
MODEL      121
REMARK 921   NORMALIZED FREE ENERGY PREDICTED BY IDOCK:   -2.31 KCAL/MOL
REMARK 922        TOTAL FREE ENERGY PREDICTED BY IDOCK:   -2.95 KCAL/MOL
REMARK 923 INTER-LIGAND FREE ENERGY PREDICTED BY IDOCK:   -2.88 KCAL/MOL
REMARK 924 INTRA-LIGAND FREE ENERGY PREDICTED BY IDOCK:   -0.07 KCAL/MOL
REMARK 927      BINDING AFFINITY PREDICTED BY RF-SCORE:    0.00 PKD
ROOT
HETATM    1  C   UNL     1     -10.240  10.297  67.388  1.00  0.00    -0.218 C  
HETATM    2 SE   UNL     1     -10.325  12.056  66.560  1.00  0.00    -0.215 Se 
ENDROOT
BRANCH   2   3
HETATM    3  C   UNL     1     -11.827  12.631  67.670  1.00  0.00    -0.329 C  
BRANCH   3   4
HETATM    4  C   UNL     1     -11.548  14.057  68.167  1.00  0.00    -0.369 C  
BRANCH   4   5
HETATM    5  CA  UNL     1     -11.339  14.200  69.693  1.00  0.00    -0.236 C  
HETATM    6  C   UNL     1     -11.957  15.464  70.254  1.00  0.00    -0.355 C  
HETATM    7  N   UNL     1     -11.855  13.031  70.405  1.00  0.00    -0.543 NA 
HETATM    8  O   UNL     1     -11.181  16.424  70.801  1.00  0.00    -0.350 OA 
HETATM    9  OXT UNL     1     -13.167  15.618  70.242  1.00  0.00    -0.267 OA 
HETATM   10  H1  UNL     1     -11.717  13.125  71.412  1.00  0.00     0.000 HD 
HETATM   11  H2  UNL     1     -11.451  12.164  70.050  1.00  0.00     0.000 HD 
ENDBRANCH   4   5
ENDBRANCH   3   4
ENDBRANCH   2   3
TORSDOF 3
ENDMDL
MODEL      122
REMARK 921   NORMALIZED FREE ENERGY PREDICTED BY IDOCK:   -2.31 KCAL/MOL
REMARK 922        TOTAL FREE ENERGY PREDICTED BY IDOCK:   -2.95 KCAL/MOL
REMARK 923 INTER-LIGAND FREE ENERGY PREDICTED BY IDOCK:   -2.89 KCAL/MOL
REMARK 924 INTRA-LIGAND FREE ENERGY PREDICTED BY IDOCK:   -0.06 KCAL/MOL
REMARK 927      BINDING AFFINITY PREDICTED BY RF-SCORE:    0.00 PKD
ROOT
HETATM    1  C   UNL     1     -11.050  10.402  67.555  1.00  0.00    -0.267 C  
HETATM    2 SE   UNL     1     -10.976  11.932  68.757  1.00  0.00    -0.245 Se 
ENDROOT
BRANCH   2   3
HETATM    3  C   UNL     1     -11.794  13.138  67.454  1.00  0.00    -0.361 C  
BRANCH   3   4
HETATM    4  C   UNL     1     -11.545  14.584  67.905  1.00  0.00    -0.371 C  
BRANCH   4   5
HETATM    5  CA  UNL     1     -10.202  15.202  67.448  1.00  0.00    -0.235 C  
HETATM    6  C   UNL     1     -10.348  16.630  66.964  1.00  0.00    -0.301 C  
HETATM    7  N   UNL     1      -9.204  15.134  68.516  1.00  0.00    -0.185 NA 
HETATM    8  O   UNL     1     -10.087  16.949  65.678  1.00  0.00    -0.546 OA 
HETATM    9  OXT UNL     1     -10.678  17.514  67.738  1.00  0.00    -0.380 OA 
HETATM   10  H1  UNL     1      -8.318  15.541  68.214  1.00  0.00     0.000 HD 
HETATM   11  H2  UNL     1      -9.082  14.181  68.858  1.00  0.00     0.000 HD 
ENDBRANCH   4   5
ENDBRANCH   3   4
ENDBRANCH   2   3
TORSDOF 3
ENDMDL
MODEL      123
REMARK 921   NORMALIZED FREE ENERGY PREDICTED BY IDOCK:   -2.29 KCAL/MOL
REMARK 922        TOTAL FREE ENERGY PREDICTED BY IDOCK:   -2.93 KCAL/MOL
REMARK 923 INTER-LIGAND FREE ENERGY PREDICTED BY IDOCK:   -2.78 KCAL/MOL
REMARK 924 INTRA-LIGAND FREE ENERGY PREDICTED BY IDOCK:   -0.15 KCAL/MOL
REMARK 927      BINDING AFFINITY PREDICTED BY RF-SCORE:    0.00 PKD
ROOT
HETATM    1  C   UNL     1     -10.731  15.308  69.348  1.00  0.00    -0.265 C  
HETATM    2 SE   UNL     1      -8.909  15.800  68.872  1.00  0.00    -0.236 Se 
ENDROOT
BRANCH   2   3
HETATM    3  C   UNL     1      -9.358  16.095  66.993  1.00  0.00    -0.218 C  
BRANCH   3   4
HETATM    4  C   UNL     1      -9.115  17.573  66.660  1.00  0.00    -0.287 C  
BRANCH   4   5
HETATM    5  CA  UNL     1      -9.420  18.572  67.801  1.00  0.00    -0.289 C  
HETATM    6  C   UNL     1      -8.295  19.559  68.034  1.00  0.00    -0.320 C  
HETATM    7  N   UNL     1     -10.672  19.288  67.550  1.00  0.00    -0.476 NA 
HETATM    8  O   UNL     1      -7.619  19.567  69.203  1.00  0.00    -0.361 OA 
HETATM    9  OXT UNL     1      -8.004  20.378  67.177  1.00  0.00    -0.325 OA 
HETATM   10  H1  UNL     1     -10.873  19.947  68.303  1.00  0.00     0.000 HD 
HETATM   11  H2  UNL     1     -11.448  18.646  67.394  1.00  0.00     0.000 HD 
ENDBRANCH   4   5
ENDBRANCH   3   4
ENDBRANCH   2   3
TORSDOF 3
ENDMDL
MODEL      124
REMARK 921   NORMALIZED FREE ENERGY PREDICTED BY IDOCK:   -2.27 KCAL/MOL
REMARK 922        TOTAL FREE ENERGY PREDICTED BY IDOCK:   -2.91 KCAL/MOL
REMARK 923 INTER-LIGAND FREE ENERGY PREDICTED BY IDOCK:   -2.81 KCAL/MOL
REMARK 924 INTRA-LIGAND FREE ENERGY PREDICTED BY IDOCK:   -0.10 KCAL/MOL
REMARK 927      BINDING AFFINITY PREDICTED BY RF-SCORE:    0.00 PKD
ROOT
HETATM    1  C   UNL     1      -6.241  12.340  67.420  1.00  0.00    -0.153 C  
HETATM    2 SE   UNL     1      -6.746  14.210  67.611  1.00  0.00    -0.119 Se 
ENDROOT
BRANCH   2   3
HETATM    3  C   UNL     1      -8.620  13.866  67.176  1.00  0.00    -0.203 C  
BRANCH   3   4
HETATM    4  C   UNL     1      -9.057  14.854  66.086  1.00  0.00    -0.202 C  
BRANCH   4   5
HETATM    5  CA  UNL     1     -10.378  14.504  65.361  1.00  0.00    -0.382 C  
HETATM    6  C   UNL     1     -11.495  14.144  66.317  1.00  0.00    -0.352 C  
HETATM    7  N   UNL     1     -10.801  15.599  64.485  1.00  0.00    -0.768 NA 
HETATM    8  O   UNL     1     -12.026  12.902  66.318  1.00  0.00    -0.397 OA 
HETATM    9  OXT UNL     1     -11.948  14.980  67.083  1.00  0.00    -0.234 OA 
HETATM   10  H1  UNL     1     -11.672  15.368  64.007  1.00  0.00     0.000 HD 
HETATM   11  H2  UNL     1     -10.067  15.859  63.826  1.00  0.00     0.000 HD 
ENDBRANCH   4   5
ENDBRANCH   3   4
ENDBRANCH   2   3
TORSDOF 3
ENDMDL
MODEL      125
REMARK 921   NORMALIZED FREE ENERGY PREDICTED BY IDOCK:   -2.27 KCAL/MOL
REMARK 922        TOTAL FREE ENERGY PREDICTED BY IDOCK:   -2.90 KCAL/MOL
REMARK 923 INTER-LIGAND FREE ENERGY PREDICTED BY IDOCK:   -2.79 KCAL/MOL
REMARK 924 INTRA-LIGAND FREE ENERGY PREDICTED BY IDOCK:   -0.11 KCAL/MOL
REMARK 927      BINDING AFFINITY PREDICTED BY RF-SCORE:    0.00 PKD
ROOT
HETATM    1  C   UNL     1     -12.266  10.721  70.301  1.00  0.00    -0.348 C  
HETATM    2 SE   UNL     1     -13.212  10.082  71.878  1.00  0.00    -0.426 Se 
ENDROOT
BRANCH   2   3
HETATM    3  C   UNL     1     -12.204   8.409  71.944  1.00  0.00    -0.343 C  
BRANCH   3   4
HETATM    4  C   UNL     1     -10.941   8.567  71.085  1.00  0.00    -0.306 C  
BRANCH   4   5
HETATM    5  CA  UNL     1     -10.660   7.412  70.095  1.00  0.00    -0.230 C  
HETATM    6  C   UNL     1      -9.729   6.362  70.666  1.00  0.00    -0.179 C  
HETATM    7  N   UNL     1     -11.908   6.787  69.652  1.00  0.00    -0.646 NA 
HETATM    8  O   UNL     1      -8.516   6.148  70.114  1.00  0.00    -0.128 OA 
HETATM    9  OXT UNL     1     -10.075   5.680  71.617  1.00  0.00    -0.183 OA 
HETATM   10  H1  UNL     1     -11.723   6.026  68.999  1.00  0.00     0.000 HD 
HETATM   11  H2  UNL     1     -12.553   7.472  69.258  1.00  0.00     0.000 HD 
ENDBRANCH   4   5
ENDBRANCH   3   4
ENDBRANCH   2   3
TORSDOF 3
ENDMDL
MODEL      126
REMARK 921   NORMALIZED FREE ENERGY PREDICTED BY IDOCK:   -2.26 KCAL/MOL
REMARK 922        TOTAL FREE ENERGY PREDICTED BY IDOCK:   -2.90 KCAL/MOL
REMARK 923 INTER-LIGAND FREE ENERGY PREDICTED BY IDOCK:   -2.83 KCAL/MOL
REMARK 924 INTRA-LIGAND FREE ENERGY PREDICTED BY IDOCK:   -0.06 KCAL/MOL
REMARK 927      BINDING AFFINITY PREDICTED BY RF-SCORE:    0.00 PKD
ROOT
HETATM    1  C   UNL     1      -8.328  19.877  66.376  1.00  0.00    -0.334 C  
HETATM    2 SE   UNL     1      -7.901  18.348  67.502  1.00  0.00    -0.233 Se 
ENDROOT
BRANCH   2   3
HETATM    3  C   UNL     1      -9.695  18.275  68.276  1.00  0.00    -0.335 C  
BRANCH   3   4
HETATM    4  C   UNL     1     -10.526  17.255  67.485  1.00  0.00    -0.356 C  
BRANCH   4   5
HETATM    5  CA  UNL     1     -11.329  16.246  68.339  1.00  0.00    -0.312 C  
HETATM    6  C   UNL     1     -11.176  14.817  67.860  1.00  0.00    -0.306 C  
HETATM    7  N   UNL     1     -10.958  16.343  69.752  1.00  0.00    -0.351 NA 
HETATM    8  O   UNL     1     -12.239  14.135  67.383  1.00  0.00    -0.380 OA 
HETATM    9  OXT UNL     1     -10.094  14.257  67.923  1.00  0.00    -0.227 OA 
HETATM   10  H1  UNL     1     -11.488  15.678  70.315  1.00  0.00     0.000 HD 
HETATM   11  H2  UNL     1     -11.056  17.295  70.103  1.00  0.00     0.000 HD 
ENDBRANCH   4   5
ENDBRANCH   3   4
ENDBRANCH   2   3
TORSDOF 3
ENDMDL
MODEL      127
REMARK 921   NORMALIZED FREE ENERGY PREDICTED BY IDOCK:   -2.26 KCAL/MOL
REMARK 922        TOTAL FREE ENERGY PREDICTED BY IDOCK:   -2.89 KCAL/MOL
REMARK 923 INTER-LIGAND FREE ENERGY PREDICTED BY IDOCK:   -2.83 KCAL/MOL
REMARK 924 INTRA-LIGAND FREE ENERGY PREDICTED BY IDOCK:   -0.06 KCAL/MOL
REMARK 927      BINDING AFFINITY PREDICTED BY RF-SCORE:    0.00 PKD
ROOT
HETATM    1  C   UNL     1      -8.429   9.312  63.278  1.00  0.00    -0.204 C  
HETATM    2 SE   UNL     1      -8.305  10.156  65.028  1.00  0.00    -0.160 Se 
ENDROOT
BRANCH   2   3
HETATM    3  C   UNL     1     -10.226  10.505  65.120  1.00  0.00    -0.288 C  
BRANCH   3   4
HETATM    4  C   UNL     1     -10.455  11.742  66.000  1.00  0.00    -0.286 C  
BRANCH   4   5
HETATM    5  CA  UNL     1     -10.819  13.040  65.241  1.00  0.00    -0.291 C  
HETATM    6  C   UNL     1     -10.444  14.293  66.006  1.00  0.00    -0.301 C  
HETATM    7  N   UNL     1     -10.204  13.061  63.913  1.00  0.00    -0.713 NA 
HETATM    8  O   UNL     1     -11.397  15.149  66.432  1.00  0.00    -0.320 OA 
HETATM    9  OXT UNL     1      -9.273  14.556  66.224  1.00  0.00    -0.268 OA 
HETATM   10  H1  UNL     1     -10.445  13.917  63.412  1.00  0.00     0.000 HD 
HETATM   11  H2  UNL     1     -10.445  12.230  63.373  1.00  0.00     0.000 HD 
ENDBRANCH   4   5
ENDBRANCH   3   4
ENDBRANCH   2   3
TORSDOF 3
ENDMDL
MODEL      128
REMARK 921   NORMALIZED FREE ENERGY PREDICTED BY IDOCK:   -2.25 KCAL/MOL
REMARK 922        TOTAL FREE ENERGY PREDICTED BY IDOCK:   -2.89 KCAL/MOL
REMARK 923 INTER-LIGAND FREE ENERGY PREDICTED BY IDOCK:   -2.75 KCAL/MOL
REMARK 924 INTRA-LIGAND FREE ENERGY PREDICTED BY IDOCK:   -0.14 KCAL/MOL
REMARK 927      BINDING AFFINITY PREDICTED BY RF-SCORE:    0.00 PKD
ROOT
HETATM    1  C   UNL     1     -11.746  13.275  69.383  1.00  0.00    -0.325 C  
HETATM    2 SE   UNL     1     -11.643  11.336  69.513  1.00  0.00    -0.360 Se 
ENDROOT
BRANCH   2   3
HETATM    3  C   UNL     1     -11.548  11.099  67.575  1.00  0.00    -0.135 C  
BRANCH   3   4
HETATM    4  C   UNL     1     -11.548  12.485  66.914  1.00  0.00    -0.436 C  
BRANCH   4   5
HETATM    5  CA  UNL     1     -10.410  12.737  65.897  1.00  0.00    -0.283 C  
HETATM    6  C   UNL     1     -10.367  11.698  64.795  1.00  0.00    -0.282 C  
HETATM    7  N   UNL     1     -10.513  14.077  65.318  1.00  0.00    -0.358 NA 
HETATM    8  O   UNL     1      -9.303  10.877  64.666  1.00  0.00    -0.208 OA 
HETATM    9  OXT UNL     1     -11.283  11.608  63.994  1.00  0.00    -0.361 OA 
HETATM   10  H1  UNL     1      -9.762  14.243  64.647  1.00  0.00     0.000 HD 
HETATM   11  H2  UNL     1     -10.539  14.798  66.039  1.00  0.00     0.000 HD 
ENDBRANCH   4   5
ENDBRANCH   3   4
ENDBRANCH   2   3
TORSDOF 3
ENDMDL
MODEL      129
REMARK 921   NORMALIZED FREE ENERGY PREDICTED BY IDOCK:   -2.25 KCAL/MOL
REMARK 922        TOTAL FREE ENERGY PREDICTED BY IDOCK:   -2.88 KCAL/MOL
REMARK 923 INTER-LIGAND FREE ENERGY PREDICTED BY IDOCK:   -2.78 KCAL/MOL
REMARK 924 INTRA-LIGAND FREE ENERGY PREDICTED BY IDOCK:   -0.11 KCAL/MOL
REMARK 927      BINDING AFFINITY PREDICTED BY RF-SCORE:    0.00 PKD
ROOT
HETATM    1  C   UNL     1     -10.347   5.760  67.657  1.00  0.00    -0.217 C  
HETATM    2 SE   UNL     1     -10.232   7.273  68.877  1.00  0.00    -0.197 Se 
ENDROOT
BRANCH   2   3
HETATM    3  C   UNL     1     -11.641   6.584  70.043  1.00  0.00    -0.390 C  
BRANCH   3   4
HETATM    4  C   UNL     1     -10.989   6.013  71.310  1.00  0.00    -0.340 C  
BRANCH   4   5
HETATM    5  CA  UNL     1     -11.370   6.721  72.632  1.00  0.00    -0.222 C  
HETATM    6  C   UNL     1     -10.177   7.332  73.337  1.00  0.00    -0.347 C  
HETATM    7  N   UNL     1     -12.393   7.743  72.402  1.00  0.00    -0.527 NA 
HETATM    8  O   UNL     1      -9.790   6.880  74.549  1.00  0.00    -0.275 OA 
HETATM    9  OXT UNL     1      -9.565   8.257  72.828  1.00  0.00    -0.264 OA 
HETATM   10  H1  UNL     1     -12.645   8.210  73.274  1.00  0.00     0.000 HD 
HETATM   11  H2  UNL     1     -13.212   7.358  71.932  1.00  0.00     0.000 HD 
ENDBRANCH   4   5
ENDBRANCH   3   4
ENDBRANCH   2   3
TORSDOF 3
ENDMDL
MODEL      130
REMARK 921   NORMALIZED FREE ENERGY PREDICTED BY IDOCK:   -2.21 KCAL/MOL
REMARK 922        TOTAL FREE ENERGY PREDICTED BY IDOCK:   -2.84 KCAL/MOL
REMARK 923 INTER-LIGAND FREE ENERGY PREDICTED BY IDOCK:   -2.70 KCAL/MOL
REMARK 924 INTRA-LIGAND FREE ENERGY PREDICTED BY IDOCK:   -0.14 KCAL/MOL
REMARK 927      BINDING AFFINITY PREDICTED BY RF-SCORE:    0.00 PKD
ROOT
HETATM    1  C   UNL     1     -10.187   5.043  69.736  1.00  0.00    -0.266 C  
HETATM    2 SE   UNL     1      -9.506   4.051  71.266  1.00  0.00    -0.175 Se 
ENDROOT
BRANCH   2   3
HETATM    3  C   UNL     1     -10.777   4.870  72.505  1.00  0.00    -0.196 C  
BRANCH   3   4
HETATM    4  C   UNL     1     -11.317   6.158  71.868  1.00  0.00    -0.350 C  
BRANCH   4   5
HETATM    5  CA  UNL     1     -11.075   7.454  72.678  1.00  0.00    -0.331 C  
HETATM    6  C   UNL     1      -9.918   8.273  72.145  1.00  0.00    -0.273 C  
HETATM    7  N   UNL     1     -12.287   8.273  72.730  1.00  0.00    -0.594 NA 
HETATM    8  O   UNL     1      -8.814   8.473  72.897  1.00  0.00    -0.320 OA 
HETATM    9  OXT UNL     1      -9.980   8.783  71.039  1.00  0.00    -0.197 OA 
HETATM   10  H1  UNL     1     -12.127   9.127  73.265  1.00  0.00     0.000 HD 
HETATM   11  H2  UNL     1     -13.083   7.747  73.090  1.00  0.00     0.000 HD 
ENDBRANCH   4   5
ENDBRANCH   3   4
ENDBRANCH   2   3
TORSDOF 3
ENDMDL
MODEL      131
REMARK 921   NORMALIZED FREE ENERGY PREDICTED BY IDOCK:   -2.21 KCAL/MOL
REMARK 922        TOTAL FREE ENERGY PREDICTED BY IDOCK:   -2.84 KCAL/MOL
REMARK 923 INTER-LIGAND FREE ENERGY PREDICTED BY IDOCK:   -2.70 KCAL/MOL
REMARK 924 INTRA-LIGAND FREE ENERGY PREDICTED BY IDOCK:   -0.14 KCAL/MOL
REMARK 927      BINDING AFFINITY PREDICTED BY RF-SCORE:    0.00 PKD
ROOT
HETATM    1  C   UNL     1      -9.672  12.172  67.990  1.00  0.00    -0.203 C  
HETATM    2 SE   UNL     1      -8.934  13.972  67.921  1.00  0.00    -0.198 Se 
ENDROOT
BRANCH   2   3
HETATM    3  C   UNL     1      -9.911  14.432  66.292  1.00  0.00    -0.304 C  
BRANCH   3   4
HETATM    4  C   UNL     1     -10.881  15.578  66.613  1.00  0.00    -0.285 C  
BRANCH   4   5
HETATM    5  CA  UNL     1     -10.737  16.196  68.024  1.00  0.00    -0.321 C  
HETATM    6  C   UNL     1     -10.372  17.666  67.987  1.00  0.00    -0.375 C  
HETATM    7  N   UNL     1     -11.958  16.003  68.808  1.00  0.00    -0.426 NA 
HETATM    8  O   UNL     1      -9.192  18.093  68.484  1.00  0.00    -0.306 OA 
HETATM    9  OXT UNL     1     -11.153  18.485  67.530  1.00  0.00    -0.284 OA 
HETATM   10  H1  UNL     1     -11.863  16.410  69.738  1.00  0.00     0.000 HD 
HETATM   11  H2  UNL     1     -12.225  15.019  68.853  1.00  0.00     0.000 HD 
ENDBRANCH   4   5
ENDBRANCH   3   4
ENDBRANCH   2   3
TORSDOF 3
ENDMDL
MODEL      132
REMARK 921   NORMALIZED FREE ENERGY PREDICTED BY IDOCK:   -2.21 KCAL/MOL
REMARK 922        TOTAL FREE ENERGY PREDICTED BY IDOCK:   -2.83 KCAL/MOL
REMARK 923 INTER-LIGAND FREE ENERGY PREDICTED BY IDOCK:   -2.74 KCAL/MOL
REMARK 924 INTRA-LIGAND FREE ENERGY PREDICTED BY IDOCK:   -0.09 KCAL/MOL
REMARK 927      BINDING AFFINITY PREDICTED BY RF-SCORE:    0.00 PKD
ROOT
HETATM    1  C   UNL     1      -8.651   9.241  70.094  1.00  0.00    -0.198 C  
HETATM    2 SE   UNL     1      -9.739  10.589  69.205  1.00  0.00    -0.159 Se 
ENDROOT
BRANCH   2   3
HETATM    3  C   UNL     1     -11.383  10.005  70.085  1.00  0.00    -0.291 C  
BRANCH   3   4
HETATM    4  C   UNL     1     -11.028   9.483  71.484  1.00  0.00    -0.369 C  
BRANCH   4   5
HETATM    5  CA  UNL     1     -11.680   8.136  71.877  1.00  0.00    -0.310 C  
HETATM    6  C   UNL     1     -10.750   7.243  72.673  1.00  0.00    -0.278 C  
HETATM    7  N   UNL     1     -12.923   8.352  72.619  1.00  0.00    -0.621 NA 
HETATM    8  O   UNL     1     -10.342   6.057  72.173  1.00  0.00    -0.190 OA 
HETATM    9  OXT UNL     1     -10.379   7.575  73.787  1.00  0.00    -0.323 OA 
HETATM   10  H1  UNL     1     -13.353   7.464  72.878  1.00  0.00     0.000 HD 
HETATM   11  H2  UNL     1     -13.571   8.947  72.103  1.00  0.00     0.000 HD 
ENDBRANCH   4   5
ENDBRANCH   3   4
ENDBRANCH   2   3
TORSDOF 3
ENDMDL
MODEL      133
REMARK 921   NORMALIZED FREE ENERGY PREDICTED BY IDOCK:   -2.20 KCAL/MOL
REMARK 922        TOTAL FREE ENERGY PREDICTED BY IDOCK:   -2.83 KCAL/MOL
REMARK 923 INTER-LIGAND FREE ENERGY PREDICTED BY IDOCK:   -2.79 KCAL/MOL
REMARK 924 INTRA-LIGAND FREE ENERGY PREDICTED BY IDOCK:   -0.04 KCAL/MOL
REMARK 927      BINDING AFFINITY PREDICTED BY RF-SCORE:    0.00 PKD
ROOT
HETATM    1  C   UNL     1      -7.295  11.814  67.372  1.00  0.00    -0.136 C  
HETATM    2 SE   UNL     1      -8.909  11.201  68.272  1.00  0.00    -0.160 Se 
ENDROOT
BRANCH   2   3
HETATM    3  C   UNL     1     -10.039  12.535  67.397  1.00  0.00    -0.210 C  
BRANCH   3   4
HETATM    4  C   UNL     1     -10.205  13.730  68.345  1.00  0.00    -0.248 C  
BRANCH   4   5
HETATM    5  CA  UNL     1     -11.645  14.280  68.477  1.00  0.00    -0.320 C  
HETATM    6  C   UNL     1     -11.694  15.651  69.119  1.00  0.00    -0.390 C  
HETATM    7  N   UNL     1     -12.315  14.311  67.176  1.00  0.00    -0.586 NA 
HETATM    8  O   UNL     1     -12.304  15.831  70.309  1.00  0.00    -0.391 OA 
HETATM    9  OXT UNL     1     -11.204  16.615  68.554  1.00  0.00    -0.344 OA 
HETATM   10  H1  UNL     1     -13.265  14.673  67.263  1.00  0.00     0.000 HD 
HETATM   11  H2  UNL     1     -12.301  13.397  66.723  1.00  0.00     0.000 HD 
ENDBRANCH   4   5
ENDBRANCH   3   4
ENDBRANCH   2   3
TORSDOF 3
ENDMDL
MODEL      134
REMARK 921   NORMALIZED FREE ENERGY PREDICTED BY IDOCK:   -2.20 KCAL/MOL
REMARK 922        TOTAL FREE ENERGY PREDICTED BY IDOCK:   -2.82 KCAL/MOL
REMARK 923 INTER-LIGAND FREE ENERGY PREDICTED BY IDOCK:   -2.71 KCAL/MOL
REMARK 924 INTRA-LIGAND FREE ENERGY PREDICTED BY IDOCK:   -0.11 KCAL/MOL
REMARK 927      BINDING AFFINITY PREDICTED BY RF-SCORE:    0.00 PKD
ROOT
HETATM    1  C   UNL     1      -9.703   4.531  67.496  1.00  0.00    -0.169 C  
HETATM    2 SE   UNL     1      -9.724   4.892  69.409  1.00  0.00    -0.206 Se 
ENDROOT
BRANCH   2   3
HETATM    3  C   UNL     1     -11.247   6.110  69.276  1.00  0.00    -0.367 C  
BRANCH   3   4
HETATM    4  C   UNL     1     -11.194   7.086  70.460  1.00  0.00    -0.335 C  
BRANCH   4   5
HETATM    5  CA  UNL     1     -12.011   6.667  71.705  1.00  0.00    -0.347 C  
HETATM    6  C   UNL     1     -11.162   6.004  72.769  1.00  0.00    -0.261 C  
HETATM    7  N   UNL     1     -12.724   7.812  72.274  1.00  0.00    -0.514 NA 
HETATM    8  O   UNL     1     -11.370   4.714  73.110  1.00  0.00    -0.289 OA 
HETATM    9  OXT UNL     1     -10.295   6.637  73.350  1.00  0.00    -0.224 OA 
HETATM   10  H1  UNL     1     -13.263   7.535  73.094  1.00  0.00     0.000 HD 
HETATM   11  H2  UNL     1     -13.309   8.275  71.578  1.00  0.00     0.000 HD 
ENDBRANCH   4   5
ENDBRANCH   3   4
ENDBRANCH   2   3
TORSDOF 3
ENDMDL
MODEL      135
REMARK 921   NORMALIZED FREE ENERGY PREDICTED BY IDOCK:   -2.18 KCAL/MOL
REMARK 922        TOTAL FREE ENERGY PREDICTED BY IDOCK:   -2.80 KCAL/MOL
REMARK 923 INTER-LIGAND FREE ENERGY PREDICTED BY IDOCK:   -2.71 KCAL/MOL
REMARK 924 INTRA-LIGAND FREE ENERGY PREDICTED BY IDOCK:   -0.09 KCAL/MOL
REMARK 927      BINDING AFFINITY PREDICTED BY RF-SCORE:    0.00 PKD
ROOT
HETATM    1  C   UNL     1      -9.519   9.499  65.312  1.00  0.00    -0.258 C  
HETATM    2 SE   UNL     1      -9.327  11.408  65.641  1.00  0.00    -0.200 Se 
ENDROOT
BRANCH   2   3
HETATM    3  C   UNL     1     -11.140  11.583  66.352  1.00  0.00    -0.269 C  
BRANCH   3   4
HETATM    4  C   UNL     1     -11.233  10.772  67.652  1.00  0.00    -0.370 C  
BRANCH   4   5
HETATM    5  CA  UNL     1     -10.683  11.475  68.916  1.00  0.00    -0.207 C  
HETATM    6  C   UNL     1     -11.691  11.528  70.044  1.00  0.00    -0.332 C  
HETATM    7  N   UNL     1      -9.449  10.836  69.375  1.00  0.00    -0.413 NA 
HETATM    8  O   UNL     1     -12.163  12.712  70.489  1.00  0.00    -0.365 OA 
HETATM    9  OXT UNL     1     -12.071  10.500  70.583  1.00  0.00    -0.296 OA 
HETATM   10  H1  UNL     1      -9.086  11.300  70.209  1.00  0.00     0.000 HD 
HETATM   11  H2  UNL     1      -8.749  10.791  68.635  1.00  0.00     0.000 HD 
ENDBRANCH   4   5
ENDBRANCH   3   4
ENDBRANCH   2   3
TORSDOF 3
ENDMDL
MODEL      136
REMARK 921   NORMALIZED FREE ENERGY PREDICTED BY IDOCK:   -2.18 KCAL/MOL
REMARK 922        TOTAL FREE ENERGY PREDICTED BY IDOCK:   -2.80 KCAL/MOL
REMARK 923 INTER-LIGAND FREE ENERGY PREDICTED BY IDOCK:   -2.76 KCAL/MOL
REMARK 924 INTRA-LIGAND FREE ENERGY PREDICTED BY IDOCK:   -0.04 KCAL/MOL
REMARK 927      BINDING AFFINITY PREDICTED BY RF-SCORE:    0.00 PKD
ROOT
HETATM    1  C   UNL     1      -9.653  10.916  68.655  1.00  0.00    -0.190 C  
HETATM    2 SE   UNL     1     -10.949  11.811  67.512  1.00  0.00    -0.274 Se 
ENDROOT
BRANCH   2   3
HETATM    3  C   UNL     1     -11.836  12.691  69.016  1.00  0.00    -0.294 C  
BRANCH   3   4
HETATM    4  C   UNL     1     -12.021  14.175  68.671  1.00  0.00    -0.373 C  
BRANCH   4   5
HETATM    5  CA  UNL     1     -11.467  15.175  69.714  1.00  0.00    -0.297 C  
HETATM    6  C   UNL     1     -10.534  16.201  69.105  1.00  0.00    -0.265 C  
HETATM    7  N   UNL     1     -12.555  15.846  70.426  1.00  0.00    -0.533 NA 
HETATM    8  O   UNL     1      -9.232  16.243  69.461  1.00  0.00    -0.171 OA 
HETATM    9  OXT UNL     1     -10.954  17.020  68.304  1.00  0.00    -0.365 OA 
HETATM   10  H1  UNL     1     -12.189  16.505  71.114  1.00  0.00     0.000 HD 
HETATM   11  H2  UNL     1     -13.197  15.177  70.851  1.00  0.00     0.000 HD 
ENDBRANCH   4   5
ENDBRANCH   3   4
ENDBRANCH   2   3
TORSDOF 3
ENDMDL
MODEL      137
REMARK 921   NORMALIZED FREE ENERGY PREDICTED BY IDOCK:   -2.17 KCAL/MOL
REMARK 922        TOTAL FREE ENERGY PREDICTED BY IDOCK:   -2.79 KCAL/MOL
REMARK 923 INTER-LIGAND FREE ENERGY PREDICTED BY IDOCK:   -2.65 KCAL/MOL
REMARK 924 INTRA-LIGAND FREE ENERGY PREDICTED BY IDOCK:   -0.14 KCAL/MOL
REMARK 927      BINDING AFFINITY PREDICTED BY RF-SCORE:    0.00 PKD
ROOT
HETATM    1  C   UNL     1     -10.670   8.465  71.245  1.00  0.00    -0.230 C  
HETATM    2 SE   UNL     1      -9.211   9.416  70.375  1.00  0.00    -0.253 Se 
ENDROOT
BRANCH   2   3
HETATM    3  C   UNL     1      -9.429   8.443  68.694  1.00  0.00    -0.147 C  
BRANCH   3   4
HETATM    4  C   UNL     1     -10.503   9.151  67.857  1.00  0.00    -0.293 C  
BRANCH   4   5
HETATM    5  CA  UNL     1     -10.723  10.647  68.184  1.00  0.00    -0.225 C  
HETATM    6  C   UNL     1     -10.414  11.556  67.012  1.00  0.00    -0.228 C  
HETATM    7  N   UNL     1     -12.087  10.885  68.657  1.00  0.00    -0.796 NA 
HETATM    8  O   UNL     1      -9.403  12.448  67.083  1.00  0.00    -0.187 OA 
HETATM    9  OXT UNL     1     -11.093  11.511  65.999  1.00  0.00    -0.291 OA 
HETATM   10  H1  UNL     1     -12.232  11.872  68.873  1.00  0.00     0.000 HD 
HETATM   11  H2  UNL     1     -12.321  10.288  69.450  1.00  0.00     0.000 HD 
ENDBRANCH   4   5
ENDBRANCH   3   4
ENDBRANCH   2   3
TORSDOF 3
ENDMDL
MODEL      138
REMARK 921   NORMALIZED FREE ENERGY PREDICTED BY IDOCK:   -2.17 KCAL/MOL
REMARK 922        TOTAL FREE ENERGY PREDICTED BY IDOCK:   -2.79 KCAL/MOL
REMARK 923 INTER-LIGAND FREE ENERGY PREDICTED BY IDOCK:   -2.66 KCAL/MOL
REMARK 924 INTRA-LIGAND FREE ENERGY PREDICTED BY IDOCK:   -0.13 KCAL/MOL
REMARK 927      BINDING AFFINITY PREDICTED BY RF-SCORE:    0.00 PKD
ROOT
HETATM    1  C   UNL     1      -9.608   6.951  67.734  1.00  0.00    -0.122 C  
HETATM    2 SE   UNL     1      -8.725   8.586  67.154  1.00  0.00    -0.130 Se 
ENDROOT
BRANCH   2   3
HETATM    3  C   UNL     1     -10.271   9.187  66.120  1.00  0.00    -0.119 C  
BRANCH   3   4
HETATM    4  C   UNL     1      -9.798  10.230  65.098  1.00  0.00    -0.389 C  
BRANCH   4   5
HETATM    5  CA  UNL     1     -10.669  11.505  64.996  1.00  0.00    -0.290 C  
HETATM    6  C   UNL     1     -10.871  12.186  66.334  1.00  0.00    -0.271 C  
HETATM    7  N   UNL     1     -10.103  12.450  64.033  1.00  0.00    -0.537 NA 
HETATM    8  O   UNL     1     -12.103  12.279  66.878  1.00  0.00    -0.583 OA 
HETATM    9  OXT UNL     1      -9.925  12.683  66.924  1.00  0.00    -0.223 OA 
HETATM   10  H1  UNL     1     -10.677  13.291  63.965  1.00  0.00     0.000 HD 
HETATM   11  H2  UNL     1      -9.960  12.018  63.120  1.00  0.00     0.000 HD 
ENDBRANCH   4   5
ENDBRANCH   3   4
ENDBRANCH   2   3
TORSDOF 3
ENDMDL
MODEL      139
REMARK 921   NORMALIZED FREE ENERGY PREDICTED BY IDOCK:   -2.17 KCAL/MOL
REMARK 922        TOTAL FREE ENERGY PREDICTED BY IDOCK:   -2.79 KCAL/MOL
REMARK 923 INTER-LIGAND FREE ENERGY PREDICTED BY IDOCK:   -2.71 KCAL/MOL
REMARK 924 INTRA-LIGAND FREE ENERGY PREDICTED BY IDOCK:   -0.08 KCAL/MOL
REMARK 927      BINDING AFFINITY PREDICTED BY RF-SCORE:    0.00 PKD
ROOT
HETATM    1  C   UNL     1      -8.547   2.326  63.195  1.00  0.00    -0.085 C  
HETATM    2 SE   UNL     1      -8.049   4.177  63.532  1.00  0.00    -0.093 Se 
ENDROOT
BRANCH   2   3
HETATM    3  C   UNL     1      -8.227   3.990  65.470  1.00  0.00    -0.105 C  
BRANCH   3   4
HETATM    4  C   UNL     1      -8.927   5.242  66.018  1.00  0.00    -0.144 C  
BRANCH   4   5
HETATM    5  CA  UNL     1     -10.371   5.026  66.529  1.00  0.00    -0.284 C  
HETATM    6  C   UNL     1     -10.854   6.153  67.418  1.00  0.00    -0.343 C  
HETATM    7  N   UNL     1     -11.299   4.836  65.413  1.00  0.00    -1.000 NA 
HETATM    8  O   UNL     1     -11.146   5.926  68.717  1.00  0.00    -0.297 OA 
HETATM    9  OXT UNL     1     -11.008   7.275  66.965  1.00  0.00    -0.358 OA 
HETATM   10  H1  UNL     1     -12.251   4.694  65.750  1.00  0.00     0.000 HD 
HETATM   11  H2  UNL     1     -11.000   4.078  64.799  1.00  0.00     0.000 HD 
ENDBRANCH   4   5
ENDBRANCH   3   4
ENDBRANCH   2   3
TORSDOF 3
ENDMDL
MODEL      140
REMARK 921   NORMALIZED FREE ENERGY PREDICTED BY IDOCK:   -2.15 KCAL/MOL
REMARK 922        TOTAL FREE ENERGY PREDICTED BY IDOCK:   -2.77 KCAL/MOL
REMARK 923 INTER-LIGAND FREE ENERGY PREDICTED BY IDOCK:   -2.68 KCAL/MOL
REMARK 924 INTRA-LIGAND FREE ENERGY PREDICTED BY IDOCK:   -0.09 KCAL/MOL
REMARK 927      BINDING AFFINITY PREDICTED BY RF-SCORE:    0.00 PKD
ROOT
HETATM    1  C   UNL     1      -6.627  13.591  67.928  1.00  0.00    -0.152 C  
HETATM    2 SE   UNL     1      -6.502  15.484  68.366  1.00  0.00    -0.121 Se 
ENDROOT
BRANCH   2   3
HETATM    3  C   UNL     1      -7.654  16.019  66.880  1.00  0.00    -0.233 C  
BRANCH   3   4
HETATM    4  C   UNL     1      -8.797  15.002  66.759  1.00  0.00    -0.299 C  
BRANCH   4   5
HETATM    5  CA  UNL     1     -10.223  15.583  66.905  1.00  0.00    -0.279 C  
HETATM    6  C   UNL     1     -10.397  16.901  66.177  1.00  0.00    -0.320 C  
HETATM    7  N   UNL     1     -11.229  14.623  66.449  1.00  0.00    -0.332 NA 
HETATM    8  O   UNL     1     -10.661  18.034  66.862  1.00  0.00    -0.348 OA 
HETATM    9  OXT UNL     1     -10.326  16.948  64.960  1.00  0.00    -0.596 OA 
HETATM   10  H1  UNL     1     -12.170  15.007  66.545  1.00  0.00     0.000 HD 
HETATM   11  H2  UNL     1     -11.138  13.727  66.927  1.00  0.00     0.000 HD 
ENDBRANCH   4   5
ENDBRANCH   3   4
ENDBRANCH   2   3
TORSDOF 3
ENDMDL
MODEL      141
REMARK 921   NORMALIZED FREE ENERGY PREDICTED BY IDOCK:   -2.14 KCAL/MOL
REMARK 922        TOTAL FREE ENERGY PREDICTED BY IDOCK:   -2.75 KCAL/MOL
REMARK 923 INTER-LIGAND FREE ENERGY PREDICTED BY IDOCK:   -2.69 KCAL/MOL
REMARK 924 INTRA-LIGAND FREE ENERGY PREDICTED BY IDOCK:   -0.06 KCAL/MOL
REMARK 927      BINDING AFFINITY PREDICTED BY RF-SCORE:    0.00 PKD
ROOT
HETATM    1  C   UNL     1      -6.043  15.073  70.258  1.00  0.00    -0.144 C  
HETATM    2 SE   UNL     1      -7.343  15.282  68.824  1.00  0.00    -0.143 Se 
ENDROOT
BRANCH   2   3
HETATM    3  C   UNL     1      -7.135  17.225  68.767  1.00  0.00    -0.238 C  
BRANCH   3   4
HETATM    4  C   UNL     1      -8.319  17.819  67.991  1.00  0.00    -0.249 C  
BRANCH   4   5
HETATM    5  CA  UNL     1      -8.361  17.483  66.482  1.00  0.00    -0.270 C  
HETATM    6  C   UNL     1      -9.706  17.780  65.851  1.00  0.00    -0.017 C  
HETATM    7  N   UNL     1      -7.302  18.188  65.758  1.00  0.00    -0.529 NA 
HETATM    8  O   UNL     1     -10.461  16.783  65.342  1.00  0.00    -0.592 OA 
HETATM    9  OXT UNL     1     -10.111  18.928  65.772  1.00  0.00    -0.508 OA 
HETATM   10  H1  UNL     1      -7.329  17.966  64.763  1.00  0.00     0.000 HD 
HETATM   11  H2  UNL     1      -6.383  18.002  66.160  1.00  0.00     0.000 HD 
ENDBRANCH   4   5
ENDBRANCH   3   4
ENDBRANCH   2   3
TORSDOF 3
ENDMDL
MODEL      142
REMARK 921   NORMALIZED FREE ENERGY PREDICTED BY IDOCK:   -2.13 KCAL/MOL
REMARK 922        TOTAL FREE ENERGY PREDICTED BY IDOCK:   -2.75 KCAL/MOL
REMARK 923 INTER-LIGAND FREE ENERGY PREDICTED BY IDOCK:   -2.66 KCAL/MOL
REMARK 924 INTRA-LIGAND FREE ENERGY PREDICTED BY IDOCK:   -0.09 KCAL/MOL
REMARK 927      BINDING AFFINITY PREDICTED BY RF-SCORE:    0.00 PKD
ROOT
HETATM    1  C   UNL     1      -9.435   3.219  69.406  1.00  0.00    -0.133 C  
HETATM    2 SE   UNL     1      -9.885   4.985  68.721  1.00  0.00    -0.156 Se 
ENDROOT
BRANCH   2   3
HETATM    3  C   UNL     1     -10.425   5.652  70.478  1.00  0.00    -0.277 C  
BRANCH   3   4
HETATM    4  C   UNL     1     -11.640   6.573  70.297  1.00  0.00    -0.473 C  
BRANCH   4   5
HETATM    5  CA  UNL     1     -11.452   8.027  70.790  1.00  0.00    -0.263 C  
HETATM    6  C   UNL     1     -11.947   8.236  72.206  1.00  0.00    -0.386 C  
HETATM    7  N   UNL     1     -10.051   8.439  70.683  1.00  0.00    -0.190 NA 
HETATM    8  O   UNL     1     -12.982   9.065  72.456  1.00  0.00    -0.418 OA 
HETATM    9  OXT UNL     1     -11.399   7.675  73.141  1.00  0.00    -0.360 OA 
HETATM   10  H1  UNL     1      -9.927   9.398  71.007  1.00  0.00     0.000 HD 
HETATM   11  H2  UNL     1      -9.693   8.313  69.736  1.00  0.00     0.000 HD 
ENDBRANCH   4   5
ENDBRANCH   3   4
ENDBRANCH   2   3
TORSDOF 3
ENDMDL
MODEL      143
REMARK 921   NORMALIZED FREE ENERGY PREDICTED BY IDOCK:   -2.13 KCAL/MOL
REMARK 922        TOTAL FREE ENERGY PREDICTED BY IDOCK:   -2.74 KCAL/MOL
REMARK 923 INTER-LIGAND FREE ENERGY PREDICTED BY IDOCK:   -2.59 KCAL/MOL
REMARK 924 INTRA-LIGAND FREE ENERGY PREDICTED BY IDOCK:   -0.15 KCAL/MOL
REMARK 927      BINDING AFFINITY PREDICTED BY RF-SCORE:    0.00 PKD
ROOT
HETATM    1  C   UNL     1      -9.904  15.681  69.528  1.00  0.00    -0.289 C  
HETATM    2 SE   UNL     1      -8.790  15.789  67.935  1.00  0.00    -0.176 Se 
ENDROOT
BRANCH   2   3
HETATM    3  C   UNL     1     -10.325  15.793  66.725  1.00  0.00    -0.293 C  
BRANCH   3   4
HETATM    4  C   UNL     1     -11.233  14.609  67.085  1.00  0.00    -0.349 C  
BRANCH   4   5
HETATM    5  CA  UNL     1     -10.900  13.275  66.377  1.00  0.00    -0.288 C  
HETATM    6  C   UNL     1     -10.002  12.379  67.204  1.00  0.00    -0.207 C  
HETATM    7  N   UNL     1     -12.122  12.558  66.009  1.00  0.00    -0.612 NA 
HETATM    8  O   UNL     1      -8.760  12.066  66.775  1.00  0.00    -0.192 OA 
HETATM    9  OXT UNL     1     -10.399  11.908  68.257  1.00  0.00    -0.189 OA 
HETATM   10  H1  UNL     1     -11.902  11.678  65.542  1.00  0.00     0.000 HD 
HETATM   11  H2  UNL     1     -12.744  13.138  65.446  1.00  0.00     0.000 HD 
ENDBRANCH   4   5
ENDBRANCH   3   4
ENDBRANCH   2   3
TORSDOF 3
ENDMDL
MODEL      144
REMARK 921   NORMALIZED FREE ENERGY PREDICTED BY IDOCK:   -2.12 KCAL/MOL
REMARK 922        TOTAL FREE ENERGY PREDICTED BY IDOCK:   -2.73 KCAL/MOL
REMARK 923 INTER-LIGAND FREE ENERGY PREDICTED BY IDOCK:   -2.56 KCAL/MOL
REMARK 924 INTRA-LIGAND FREE ENERGY PREDICTED BY IDOCK:   -0.17 KCAL/MOL
REMARK 927      BINDING AFFINITY PREDICTED BY RF-SCORE:    0.00 PKD
ROOT
HETATM    1  C   UNL     1     -10.114  19.657  68.647  1.00  0.00    -0.447 C  
HETATM    2 SE   UNL     1      -8.547  18.746  67.934  1.00  0.00    -0.303 Se 
ENDROOT
BRANCH   2   3
HETATM    3  C   UNL     1      -9.557  17.899  66.491  1.00  0.00    -0.313 C  
BRANCH   3   4
HETATM    4  C   UNL     1      -9.185  16.411  66.444  1.00  0.00    -0.335 C  
BRANCH   4   5
HETATM    5  CA  UNL     1     -10.072  15.476  67.301  1.00  0.00    -0.250 C  
HETATM    6  C   UNL     1      -9.300  14.786  68.407  1.00  0.00    -0.197 C  
HETATM    7  N   UNL     1     -11.210  16.205  67.863  1.00  0.00    -0.294 NA 
HETATM    8  O   UNL     1      -9.160  13.443  68.412  1.00  0.00    -0.189 OA 
HETATM    9  OXT UNL     1      -8.818  15.435  69.321  1.00  0.00    -0.231 OA 
HETATM   10  H1  UNL     1     -11.795  15.588  68.428  1.00  0.00     0.000 HD 
HETATM   11  H2  UNL     1     -11.751  16.676  67.138  1.00  0.00     0.000 HD 
ENDBRANCH   4   5
ENDBRANCH   3   4
ENDBRANCH   2   3
TORSDOF 3
ENDMDL
MODEL      145
REMARK 921   NORMALIZED FREE ENERGY PREDICTED BY IDOCK:   -2.12 KCAL/MOL
REMARK 922        TOTAL FREE ENERGY PREDICTED BY IDOCK:   -2.73 KCAL/MOL
REMARK 923 INTER-LIGAND FREE ENERGY PREDICTED BY IDOCK:   -2.63 KCAL/MOL
REMARK 924 INTRA-LIGAND FREE ENERGY PREDICTED BY IDOCK:   -0.09 KCAL/MOL
REMARK 927      BINDING AFFINITY PREDICTED BY RF-SCORE:    0.00 PKD
ROOT
HETATM    1  C   UNL     1      -6.914  16.487  69.328  1.00  0.00    -0.227 C  
HETATM    2 SE   UNL     1      -6.133  15.767  67.696  1.00  0.00    -0.139 Se 
ENDROOT
BRANCH   2   3
HETATM    3  C   UNL     1      -6.603  17.344  66.641  1.00  0.00    -0.229 C  
BRANCH   3   4
HETATM    4  C   UNL     1      -7.577  18.204  67.459  1.00  0.00    -0.217 C  
BRANCH   4   5
HETATM    5  CA  UNL     1      -8.992  18.363  66.854  1.00  0.00    -0.280 C  
HETATM    6  C   UNL     1     -10.081  18.389  67.907  1.00  0.00    -0.362 C  
HETATM    7  N   UNL     1      -9.074  19.563  66.020  1.00  0.00    -0.422 NA 
HETATM    8  O   UNL     1     -11.013  17.413  67.955  1.00  0.00    -0.341 OA 
HETATM    9  OXT UNL     1     -10.143  19.306  68.710  1.00  0.00    -0.418 OA 
HETATM   10  H1  UNL     1     -10.007  19.668  65.622  1.00  0.00     0.000 HD 
HETATM   11  H2  UNL     1      -8.353  19.570  65.298  1.00  0.00     0.000 HD 
ENDBRANCH   4   5
ENDBRANCH   3   4
ENDBRANCH   2   3
TORSDOF 3
ENDMDL
MODEL      146
REMARK 921   NORMALIZED FREE ENERGY PREDICTED BY IDOCK:   -2.12 KCAL/MOL
REMARK 922        TOTAL FREE ENERGY PREDICTED BY IDOCK:   -2.73 KCAL/MOL
REMARK 923 INTER-LIGAND FREE ENERGY PREDICTED BY IDOCK:   -2.47 KCAL/MOL
REMARK 924 INTRA-LIGAND FREE ENERGY PREDICTED BY IDOCK:   -0.25 KCAL/MOL
REMARK 927      BINDING AFFINITY PREDICTED BY RF-SCORE:    0.00 PKD
ROOT
HETATM    1  C   UNL     1      -6.724  20.010  65.157  1.00  0.00    -0.286 C  
HETATM    2 SE   UNL     1      -5.261  18.763  65.467  1.00  0.00    -0.169 Se 
ENDROOT
BRANCH   2   3
HETATM    3  C   UNL     1      -6.383  17.526  66.484  1.00  0.00    -0.226 C  
BRANCH   3   4
HETATM    4  C   UNL     1      -7.713  18.224  66.801  1.00  0.00    -0.247 C  
BRANCH   4   5
HETATM    5  CA  UNL     1      -7.984  18.489  68.301  1.00  0.00    -0.305 C  
HETATM    6  C   UNL     1      -6.866  19.258  68.973  1.00  0.00    -0.337 C  
HETATM    7  N   UNL     1      -9.256  19.189  68.488  1.00  0.00    -0.362 NA 
HETATM    8  O   UNL     1      -6.140  18.692  69.961  1.00  0.00    -0.242 OA 
HETATM    9  OXT UNL     1      -6.623  20.408  68.647  1.00  0.00    -0.300 OA 
HETATM   10  H1  UNL     1      -9.435  19.364  69.477  1.00  0.00     0.000 HD 
HETATM   11  H2  UNL     1     -10.029  18.690  68.048  1.00  0.00     0.000 HD 
ENDBRANCH   4   5
ENDBRANCH   3   4
ENDBRANCH   2   3
TORSDOF 3
ENDMDL
MODEL      147
REMARK 921   NORMALIZED FREE ENERGY PREDICTED BY IDOCK:   -2.12 KCAL/MOL
REMARK 922        TOTAL FREE ENERGY PREDICTED BY IDOCK:   -2.73 KCAL/MOL
REMARK 923 INTER-LIGAND FREE ENERGY PREDICTED BY IDOCK:   -2.62 KCAL/MOL
REMARK 924 INTRA-LIGAND FREE ENERGY PREDICTED BY IDOCK:   -0.11 KCAL/MOL
REMARK 927      BINDING AFFINITY PREDICTED BY RF-SCORE:    0.00 PKD
ROOT
HETATM    1  C   UNL     1      -9.931   6.174  69.213  1.00  0.00    -0.158 C  
HETATM    2 SE   UNL     1     -10.457   6.001  67.347  1.00  0.00    -0.280 Se 
ENDROOT
BRANCH   2   3
HETATM    3  C   UNL     1     -10.492   7.935  67.061  1.00  0.00    -0.349 C  
BRANCH   3   4
HETATM    4  C   UNL     1     -10.504   8.630  68.429  1.00  0.00    -0.220 C  
BRANCH   4   5
HETATM    5  CA  UNL     1     -10.061  10.112  68.427  1.00  0.00    -0.164 C  
HETATM    6  C   UNL     1     -10.679  10.907  67.295  1.00  0.00    -0.268 C  
HETATM    7  N   UNL     1     -10.361  10.751  69.709  1.00  0.00    -0.445 NA 
HETATM    8  O   UNL     1      -9.903  11.440  66.326  1.00  0.00    -0.206 OA 
HETATM    9  OXT UNL     1     -11.883  11.098  67.259  1.00  0.00    -0.525 OA 
HETATM   10  H1  UNL     1     -10.069  11.728  69.707  1.00  0.00     0.000 HD 
HETATM   11  H2  UNL     1      -9.952  10.237  70.490  1.00  0.00     0.000 HD 
ENDBRANCH   4   5
ENDBRANCH   3   4
ENDBRANCH   2   3
TORSDOF 3
ENDMDL
MODEL      148
REMARK 921   NORMALIZED FREE ENERGY PREDICTED BY IDOCK:   -2.12 KCAL/MOL
REMARK 922        TOTAL FREE ENERGY PREDICTED BY IDOCK:   -2.72 KCAL/MOL
REMARK 923 INTER-LIGAND FREE ENERGY PREDICTED BY IDOCK:   -2.59 KCAL/MOL
REMARK 924 INTRA-LIGAND FREE ENERGY PREDICTED BY IDOCK:   -0.14 KCAL/MOL
REMARK 927      BINDING AFFINITY PREDICTED BY RF-SCORE:    0.00 PKD
ROOT
HETATM    1  C   UNL     1      -8.855  11.442  66.412  1.00  0.00    -0.192 C  
HETATM    2 SE   UNL     1     -10.396  10.411  67.005  1.00  0.00    -0.248 Se 
ENDROOT
BRANCH   2   3
HETATM    3  C   UNL     1     -11.420  12.006  67.484  1.00  0.00    -0.333 C  
BRANCH   3   4
HETATM    4  C   UNL     1     -10.513  12.941  68.296  1.00  0.00    -0.250 C  
BRANCH   4   5
HETATM    5  CA  UNL     1     -10.814  14.452  68.150  1.00  0.00    -0.244 C  
HETATM    6  C   UNL     1     -10.002  15.109  67.053  1.00  0.00    -0.241 C  
HETATM    7  N   UNL     1     -12.242  14.682  67.923  1.00  0.00    -0.603 NA 
HETATM    8  O   UNL     1      -9.099  16.069  67.348  1.00  0.00    -0.196 OA 
HETATM    9  OXT UNL     1     -10.173  14.796  65.886  1.00  0.00    -0.279 OA 
HETATM   10  H1  UNL     1     -12.440  15.678  67.827  1.00  0.00     0.000 HD 
HETATM   11  H2  UNL     1     -12.813  14.253  68.651  1.00  0.00     0.000 HD 
ENDBRANCH   4   5
ENDBRANCH   3   4
ENDBRANCH   2   3
TORSDOF 3
ENDMDL
MODEL      149
REMARK 921   NORMALIZED FREE ENERGY PREDICTED BY IDOCK:   -2.11 KCAL/MOL
REMARK 922        TOTAL FREE ENERGY PREDICTED BY IDOCK:   -2.72 KCAL/MOL
REMARK 923 INTER-LIGAND FREE ENERGY PREDICTED BY IDOCK:   -2.53 KCAL/MOL
REMARK 924 INTRA-LIGAND FREE ENERGY PREDICTED BY IDOCK:   -0.19 KCAL/MOL
REMARK 927      BINDING AFFINITY PREDICTED BY RF-SCORE:    0.00 PKD
ROOT
HETATM    1  C   UNL     1      -9.134   5.851  70.896  1.00  0.00    -0.149 C  
HETATM    2 SE   UNL     1     -10.953   5.766  70.208  1.00  0.00    -0.215 Se 
ENDROOT
BRANCH   2   3
HETATM    3  C   UNL     1     -11.713   6.620  71.793  1.00  0.00    -0.318 C  
BRANCH   3   4
HETATM    4  C   UNL     1     -12.447   7.895  71.355  1.00  0.00    -0.330 C  
BRANCH   4   5
HETATM    5  CA  UNL     1     -11.661   9.214  71.544  1.00  0.00    -0.363 C  
HETATM    6  C   UNL     1     -10.585   9.412  70.498  1.00  0.00    -0.271 C  
HETATM    7  N   UNL     1     -12.566  10.365  71.557  1.00  0.00    -0.414 NA 
HETATM    8  O   UNL     1      -9.282   9.446  70.850  1.00  0.00    -0.244 OA 
HETATM    9  OXT UNL     1     -10.884   9.569  69.325  1.00  0.00    -0.228 OA 
HETATM   10  H1  UNL     1     -12.047  11.235  71.682  1.00  0.00     0.000 HD 
HETATM   11  H2  UNL     1     -13.299  10.260  72.258  1.00  0.00     0.000 HD 
ENDBRANCH   4   5
ENDBRANCH   3   4
ENDBRANCH   2   3
TORSDOF 3
ENDMDL
MODEL      150
REMARK 921   NORMALIZED FREE ENERGY PREDICTED BY IDOCK:   -2.11 KCAL/MOL
REMARK 922        TOTAL FREE ENERGY PREDICTED BY IDOCK:   -2.72 KCAL/MOL
REMARK 923 INTER-LIGAND FREE ENERGY PREDICTED BY IDOCK:   -2.64 KCAL/MOL
REMARK 924 INTRA-LIGAND FREE ENERGY PREDICTED BY IDOCK:   -0.08 KCAL/MOL
REMARK 927      BINDING AFFINITY PREDICTED BY RF-SCORE:    0.00 PKD
ROOT
HETATM    1  C   UNL     1      -7.209   6.436  70.050  1.00  0.00    -0.080 C  
HETATM    2 SE   UNL     1      -7.946   7.216  71.674  1.00  0.00    -0.098 Se 
ENDROOT
BRANCH   2   3
HETATM    3  C   UNL     1      -9.313   8.223  70.705  1.00  0.00    -0.156 C  
BRANCH   3   4
HETATM    4  C   UNL     1     -10.287   8.827  71.725  1.00  0.00    -0.413 C  
BRANCH   4   5
HETATM    5  CA  UNL     1     -11.760   8.373  71.589  1.00  0.00    -0.298 C  
HETATM    6  C   UNL     1     -12.726   9.535  71.485  1.00  0.00    -0.372 C  
HETATM    7  N   UNL     1     -11.928   7.477  70.443  1.00  0.00    -0.509 NA 
HETATM    8  O   UNL     1     -13.651   9.748  72.445  1.00  0.00    -0.407 OA 
HETATM    9  OXT UNL     1     -12.696  10.279  70.518  1.00  0.00    -0.311 OA 
HETATM   10  H1  UNL     1     -12.899   7.177  70.354  1.00  0.00     0.000 HD 
HETATM   11  H2  UNL     1     -11.291   6.682  70.491  1.00  0.00     0.000 HD 
ENDBRANCH   4   5
ENDBRANCH   3   4
ENDBRANCH   2   3
TORSDOF 3
ENDMDL
MODEL      151
REMARK 921   NORMALIZED FREE ENERGY PREDICTED BY IDOCK:   -2.11 KCAL/MOL
REMARK 922        TOTAL FREE ENERGY PREDICTED BY IDOCK:   -2.72 KCAL/MOL
REMARK 923 INTER-LIGAND FREE ENERGY PREDICTED BY IDOCK:   -2.55 KCAL/MOL
REMARK 924 INTRA-LIGAND FREE ENERGY PREDICTED BY IDOCK:   -0.17 KCAL/MOL
REMARK 927      BINDING AFFINITY PREDICTED BY RF-SCORE:    0.00 PKD
ROOT
HETATM    1  C   UNL     1     -10.828   5.751  69.829  1.00  0.00    -0.349 C  
HETATM    2 SE   UNL     1      -9.498   4.687  70.771  1.00  0.00    -0.182 Se 
ENDROOT
BRANCH   2   3
HETATM    3  C   UNL     1      -8.690   6.248  71.625  1.00  0.00    -0.134 C  
BRANCH   3   4
HETATM    4  C   UNL     1      -9.164   7.508  70.887  1.00  0.00    -0.153 C  
BRANCH   4   5
HETATM    5  CA  UNL     1      -9.496   8.721  71.787  1.00  0.00    -0.293 C  
HETATM    6  C   UNL     1     -10.986   8.947  71.942  1.00  0.00    -0.369 C  
HETATM    7  N   UNL     1      -8.871   8.584  73.104  1.00  0.00    -0.337 NA 
HETATM    8  O   UNL     1     -11.562  10.074  71.471  1.00  0.00    -0.353 OA 
HETATM    9  OXT UNL     1     -11.679   8.124  72.517  1.00  0.00    -0.378 OA 
HETATM   10  H1  UNL     1      -9.089   9.384  73.697  1.00  0.00     0.000 HD 
HETATM   11  H2  UNL     1      -7.864   8.435  73.029  1.00  0.00     0.000 HD 
ENDBRANCH   4   5
ENDBRANCH   3   4
ENDBRANCH   2   3
TORSDOF 3
ENDMDL
MODEL      152
REMARK 921   NORMALIZED FREE ENERGY PREDICTED BY IDOCK:   -2.11 KCAL/MOL
REMARK 922        TOTAL FREE ENERGY PREDICTED BY IDOCK:   -2.72 KCAL/MOL
REMARK 923 INTER-LIGAND FREE ENERGY PREDICTED BY IDOCK:   -2.66 KCAL/MOL
REMARK 924 INTRA-LIGAND FREE ENERGY PREDICTED BY IDOCK:   -0.05 KCAL/MOL
REMARK 927      BINDING AFFINITY PREDICTED BY RF-SCORE:    0.00 PKD
ROOT
HETATM    1  C   UNL     1     -12.575  12.817  70.893  1.00  0.00    -0.255 C  
HETATM    2 SE   UNL     1     -13.308  14.294  71.927  1.00  0.00    -0.425 Se 
ENDROOT
BRANCH   2   3
HETATM    3  C   UNL     1     -12.430  15.649  70.825  1.00  0.00    -0.435 C  
BRANCH   3   4
HETATM    4  C   UNL     1     -11.301  14.975  70.032  1.00  0.00    -0.305 C  
BRANCH   4   5
HETATM    5  CA  UNL     1     -10.208  15.927  69.490  1.00  0.00    -0.279 C  
HETATM    6  C   UNL     1      -8.982  15.190  68.991  1.00  0.00    -0.219 C  
HETATM    7  N   UNL     1     -10.741  16.787  68.432  1.00  0.00    -0.348 NA 
HETATM    8  O   UNL     1      -7.787  15.356  69.597  1.00  0.00    -0.221 OA 
HETATM    9  OXT UNL     1      -9.055  14.457  68.019  1.00  0.00    -0.176 OA 
HETATM   10  H1  UNL     1     -10.020  17.415  68.075  1.00  0.00     0.000 HD 
HETATM   11  H2  UNL     1     -11.566  17.300  68.743  1.00  0.00     0.000 HD 
ENDBRANCH   4   5
ENDBRANCH   3   4
ENDBRANCH   2   3
TORSDOF 3
ENDMDL
MODEL      153
REMARK 921   NORMALIZED FREE ENERGY PREDICTED BY IDOCK:   -2.11 KCAL/MOL
REMARK 922        TOTAL FREE ENERGY PREDICTED BY IDOCK:   -2.71 KCAL/MOL
REMARK 923 INTER-LIGAND FREE ENERGY PREDICTED BY IDOCK:   -2.61 KCAL/MOL
REMARK 924 INTRA-LIGAND FREE ENERGY PREDICTED BY IDOCK:   -0.10 KCAL/MOL
REMARK 927      BINDING AFFINITY PREDICTED BY RF-SCORE:    0.00 PKD
ROOT
HETATM    1  C   UNL     1      -7.443  19.524  68.441  1.00  0.00    -0.324 C  
HETATM    2 SE   UNL     1      -7.506  19.818  66.518  1.00  0.00    -0.281 Se 
ENDROOT
BRANCH   2   3
HETATM    3  C   UNL     1      -7.282  17.920  66.107  1.00  0.00    -0.303 C  
BRANCH   3   4
HETATM    4  C   UNL     1      -8.649  17.232  66.226  1.00  0.00    -0.264 C  
BRANCH   4   5
HETATM    5  CA  UNL     1      -8.659  15.908  67.027  1.00  0.00    -0.216 C  
HETATM    6  C   UNL     1      -9.465  16.002  68.306  1.00  0.00    -0.206 C  
HETATM    7  N   UNL     1      -9.151  14.802  66.205  1.00  0.00    -0.496 NA 
HETATM    8  O   UNL     1      -8.865  15.867  69.508  1.00  0.00    -0.242 OA 
HETATM    9  OXT UNL     1     -10.672  16.176  68.264  1.00  0.00    -0.279 OA 
HETATM   10  H1  UNL     1      -9.158  13.929  66.733  1.00  0.00     0.000 HD 
HETATM   11  H2  UNL     1      -8.622  14.713  65.337  1.00  0.00     0.000 HD 
ENDBRANCH   4   5
ENDBRANCH   3   4
ENDBRANCH   2   3
TORSDOF 3
ENDMDL
MODEL      154
REMARK 921   NORMALIZED FREE ENERGY PREDICTED BY IDOCK:   -2.10 KCAL/MOL
REMARK 922        TOTAL FREE ENERGY PREDICTED BY IDOCK:   -2.71 KCAL/MOL
REMARK 923 INTER-LIGAND FREE ENERGY PREDICTED BY IDOCK:   -2.57 KCAL/MOL
REMARK 924 INTRA-LIGAND FREE ENERGY PREDICTED BY IDOCK:   -0.14 KCAL/MOL
REMARK 927      BINDING AFFINITY PREDICTED BY RF-SCORE:    0.00 PKD
ROOT
HETATM    1  C   UNL     1      -9.896  20.331  67.664  1.00  0.00    -0.423 C  
HETATM    2 SE   UNL     1      -9.404  18.882  66.462  1.00  0.00    -0.333 Se 
ENDROOT
BRANCH   2   3
HETATM    3  C   UNL     1     -10.552  17.587  67.371  1.00  0.00    -0.311 C  
BRANCH   3   4
HETATM    4  C   UNL     1     -10.022  16.176  67.078  1.00  0.00    -0.259 C  
BRANCH   4   5
HETATM    5  CA  UNL     1      -8.506  15.973  67.310  1.00  0.00    -0.184 C  
HETATM    6  C   UNL     1      -8.083  16.283  68.731  1.00  0.00    -0.227 C  
HETATM    7  N   UNL     1      -8.099  14.614  66.951  1.00  0.00    -0.368 NA 
HETATM    8  O   UNL     1      -7.237  17.303  68.989  1.00  0.00    -0.244 OA 
HETATM    9  OXT UNL     1      -8.483  15.598  69.658  1.00  0.00    -0.227 OA 
HETATM   10  H1  UNL     1      -7.099  14.480  67.104  1.00  0.00     0.000 HD 
HETATM   11  H2  UNL     1      -8.368  14.380  65.996  1.00  0.00     0.000 HD 
ENDBRANCH   4   5
ENDBRANCH   3   4
ENDBRANCH   2   3
TORSDOF 3
ENDMDL
MODEL      155
REMARK 921   NORMALIZED FREE ENERGY PREDICTED BY IDOCK:   -2.09 KCAL/MOL
REMARK 922        TOTAL FREE ENERGY PREDICTED BY IDOCK:   -2.70 KCAL/MOL
REMARK 923 INTER-LIGAND FREE ENERGY PREDICTED BY IDOCK:   -2.60 KCAL/MOL
REMARK 924 INTRA-LIGAND FREE ENERGY PREDICTED BY IDOCK:   -0.10 KCAL/MOL
REMARK 927      BINDING AFFINITY PREDICTED BY RF-SCORE:    0.00 PKD
ROOT
HETATM    1  C   UNL     1     -11.281  11.238  67.789  1.00  0.00    -0.291 C  
HETATM    2 SE   UNL     1     -11.665  12.125  69.478  1.00  0.00    -0.320 Se 
ENDROOT
BRANCH   2   3
HETATM    3  C   UNL     1     -11.995  10.442  70.416  1.00  0.00    -0.320 C  
BRANCH   3   4
HETATM    4  C   UNL     1     -10.643   9.787  70.732  1.00  0.00    -0.371 C  
BRANCH   4   5
HETATM    5  CA  UNL     1     -10.678   8.670  71.802  1.00  0.00    -0.321 C  
HETATM    6  C   UNL     1     -11.617   7.538  71.439  1.00  0.00    -0.275 C  
HETATM    7  N   UNL     1      -9.335   8.146  72.056  1.00  0.00    -0.181 NA 
HETATM    8  O   UNL     1     -12.706   7.280  72.194  1.00  0.00    -0.222 OA 
HETATM    9  OXT UNL     1     -11.385   6.830  70.473  1.00  0.00    -0.297 OA 
HETATM   10  H1  UNL     1      -9.359   7.410  72.762  1.00  0.00     0.000 HD 
HETATM   11  H2  UNL     1      -8.682   8.888  72.308  1.00  0.00     0.000 HD 
ENDBRANCH   4   5
ENDBRANCH   3   4
ENDBRANCH   2   3
TORSDOF 3
ENDMDL
MODEL      156
REMARK 921   NORMALIZED FREE ENERGY PREDICTED BY IDOCK:   -2.09 KCAL/MOL
REMARK 922        TOTAL FREE ENERGY PREDICTED BY IDOCK:   -2.70 KCAL/MOL
REMARK 923 INTER-LIGAND FREE ENERGY PREDICTED BY IDOCK:   -2.53 KCAL/MOL
REMARK 924 INTRA-LIGAND FREE ENERGY PREDICTED BY IDOCK:   -0.17 KCAL/MOL
REMARK 927      BINDING AFFINITY PREDICTED BY RF-SCORE:    0.00 PKD
ROOT
HETATM    1  C   UNL     1      -9.994   9.258  68.422  1.00  0.00    -0.176 C  
HETATM    2 SE   UNL     1      -9.017   8.078  69.623  1.00  0.00    -0.145 Se 
ENDROOT
BRANCH   2   3
HETATM    3  C   UNL     1      -9.678   8.978  71.227  1.00  0.00    -0.301 C  
BRANCH   3   4
HETATM    4  C   UNL     1     -10.822   8.142  71.818  1.00  0.00    -0.317 C  
BRANCH   4   5
HETATM    5  CA  UNL     1     -11.209   6.880  71.011  1.00  0.00    -0.282 C  
HETATM    6  C   UNL     1     -11.019   5.599  71.798  1.00  0.00    -0.226 C  
HETATM    7  N   UNL     1     -12.587   6.970  70.526  1.00  0.00    -0.593 NA 
HETATM    8  O   UNL     1     -10.117   4.677  71.401  1.00  0.00    -0.191 OA 
HETATM    9  OXT UNL     1     -11.699   5.375  72.786  1.00  0.00    -0.295 OA 
HETATM   10  H1  UNL     1     -12.842   6.138  69.994  1.00  0.00     0.000 HD 
HETATM   11  H2  UNL     1     -12.742   7.823  69.988  1.00  0.00     0.000 HD 
ENDBRANCH   4   5
ENDBRANCH   3   4
ENDBRANCH   2   3
TORSDOF 3
ENDMDL
MODEL      157
REMARK 921   NORMALIZED FREE ENERGY PREDICTED BY IDOCK:   -2.09 KCAL/MOL
REMARK 922        TOTAL FREE ENERGY PREDICTED BY IDOCK:   -2.70 KCAL/MOL
REMARK 923 INTER-LIGAND FREE ENERGY PREDICTED BY IDOCK:   -2.54 KCAL/MOL
REMARK 924 INTRA-LIGAND FREE ENERGY PREDICTED BY IDOCK:   -0.15 KCAL/MOL
REMARK 927      BINDING AFFINITY PREDICTED BY RF-SCORE:    0.00 PKD
ROOT
HETATM    1  C   UNL     1      -6.301  12.756  67.613  1.00  0.00    -0.153 C  
HETATM    2 SE   UNL     1      -8.178  13.271  67.576  1.00  0.00    -0.193 Se 
ENDROOT
BRANCH   2   3
HETATM    3  C   UNL     1      -7.776  15.127  67.111  1.00  0.00    -0.188 C  
BRANCH   3   4
HETATM    4  C   UNL     1      -8.743  16.042  67.875  1.00  0.00    -0.165 C  
BRANCH   4   5
HETATM    5  CA  UNL     1      -9.807  16.757  67.010  1.00  0.00    -0.262 C  
HETATM    6  C   UNL     1     -10.569  15.805  66.111  1.00  0.00    -0.313 C  
HETATM    7  N   UNL     1     -10.741  17.512  67.847  1.00  0.00    -0.380 NA 
HETATM    8  O   UNL     1     -10.476  15.906  64.768  1.00  0.00    -0.538 OA 
HETATM    9  OXT UNL     1     -11.297  14.952  66.591  1.00  0.00    -0.349 OA 
HETATM   10  H1  UNL     1     -11.443  17.984  67.276  1.00  0.00     0.000 HD 
HETATM   11  H2  UNL     1     -10.254  18.165  68.460  1.00  0.00     0.000 HD 
ENDBRANCH   4   5
ENDBRANCH   3   4
ENDBRANCH   2   3
TORSDOF 3
ENDMDL
MODEL      158
REMARK 921   NORMALIZED FREE ENERGY PREDICTED BY IDOCK:   -2.09 KCAL/MOL
REMARK 922        TOTAL FREE ENERGY PREDICTED BY IDOCK:   -2.69 KCAL/MOL
REMARK 923 INTER-LIGAND FREE ENERGY PREDICTED BY IDOCK:   -2.55 KCAL/MOL
REMARK 924 INTRA-LIGAND FREE ENERGY PREDICTED BY IDOCK:   -0.14 KCAL/MOL
REMARK 927      BINDING AFFINITY PREDICTED BY RF-SCORE:    0.00 PKD
ROOT
HETATM    1  C   UNL     1      -7.884   7.088  68.747  1.00  0.00    -0.118 C  
HETATM    2 SE   UNL     1      -8.390   8.166  70.288  1.00  0.00    -0.127 Se 
ENDROOT
BRANCH   2   3
HETATM    3  C   UNL     1     -10.219   8.425  69.648  1.00  0.00    -0.209 C  
BRANCH   3   4
HETATM    4  C   UNL     1     -10.909   9.458  70.550  1.00  0.00    -0.336 C  
BRANCH   4   5
HETATM    5  CA  UNL     1     -12.219   8.985  71.222  1.00  0.00    -0.312 C  
HETATM    6  C   UNL     1     -12.007   7.816  72.163  1.00  0.00    -0.317 C  
HETATM    7  N   UNL     1     -12.871  10.087  71.931  1.00  0.00    -0.423 NA 
HETATM    8  O   UNL     1     -12.572   6.617  71.906  1.00  0.00    -0.350 OA 
HETATM    9  OXT UNL     1     -11.344   7.953  73.178  1.00  0.00    -0.361 OA 
HETATM   10  H1  UNL     1     -13.736   9.775  72.374  1.00  0.00     0.000 HD 
HETATM   11  H2  UNL     1     -13.031  10.887  71.319  1.00  0.00     0.000 HD 
ENDBRANCH   4   5
ENDBRANCH   3   4
ENDBRANCH   2   3
TORSDOF 3
ENDMDL
MODEL      159
REMARK 921   NORMALIZED FREE ENERGY PREDICTED BY IDOCK:   -2.09 KCAL/MOL
REMARK 922        TOTAL FREE ENERGY PREDICTED BY IDOCK:   -2.69 KCAL/MOL
REMARK 923 INTER-LIGAND FREE ENERGY PREDICTED BY IDOCK:   -2.63 KCAL/MOL
REMARK 924 INTRA-LIGAND FREE ENERGY PREDICTED BY IDOCK:   -0.06 KCAL/MOL
REMARK 927      BINDING AFFINITY PREDICTED BY RF-SCORE:    0.00 PKD
ROOT
HETATM    1  C   UNL     1      -8.186  18.986  68.479  1.00  0.00    -0.355 C  
HETATM    2 SE   UNL     1      -8.179  18.273  66.668  1.00  0.00    -0.269 Se 
ENDROOT
BRANCH   2   3
HETATM    3  C   UNL     1      -8.245  16.417  67.278  1.00  0.00    -0.168 C  
BRANCH   3   4
HETATM    4  C   UNL     1      -9.673  16.111  67.752  1.00  0.00    -0.229 C  
BRANCH   4   5
HETATM    5  CA  UNL     1      -9.826  15.837  69.267  1.00  0.00    -0.265 C  
HETATM    6  C   UNL     1     -11.129  15.145  69.610  1.00  0.00    -0.270 C  
HETATM    7  N   UNL     1      -8.696  15.058  69.775  1.00  0.00    -0.445 NA 
HETATM    8  O   UNL     1     -12.053  15.761  70.377  1.00  0.00    -0.378 OA 
HETATM    9  OXT UNL     1     -11.348  14.011  69.217  1.00  0.00    -0.251 OA 
HETATM   10  H1  UNL     1      -8.797  14.877  70.774  1.00  0.00     0.000 HD 
HETATM   11  H2  UNL     1      -7.804  15.504  69.562  1.00  0.00     0.000 HD 
ENDBRANCH   4   5
ENDBRANCH   3   4
ENDBRANCH   2   3
TORSDOF 3
ENDMDL
MODEL      160
REMARK 921   NORMALIZED FREE ENERGY PREDICTED BY IDOCK:   -2.09 KCAL/MOL
REMARK 922        TOTAL FREE ENERGY PREDICTED BY IDOCK:   -2.69 KCAL/MOL
REMARK 923 INTER-LIGAND FREE ENERGY PREDICTED BY IDOCK:   -2.62 KCAL/MOL
REMARK 924 INTRA-LIGAND FREE ENERGY PREDICTED BY IDOCK:   -0.07 KCAL/MOL
REMARK 927      BINDING AFFINITY PREDICTED BY RF-SCORE:    0.00 PKD
ROOT
HETATM    1  C   UNL     1      -8.067  18.959  68.494  1.00  0.00    -0.348 C  
HETATM    2 SE   UNL     1      -8.040  19.341  66.586  1.00  0.00    -0.303 Se 
ENDROOT
BRANCH   2   3
HETATM    3  C   UNL     1      -7.661  17.485  66.105  1.00  0.00    -0.268 C  
BRANCH   3   4
HETATM    4  C   UNL     1      -8.983  16.705  66.095  1.00  0.00    -0.321 C  
BRANCH   4   5
HETATM    5  CA  UNL     1      -8.983  15.385  66.903  1.00  0.00    -0.247 C  
HETATM    6  C   UNL     1     -10.108  14.453  66.505  1.00  0.00    -0.276 C  
HETATM    7  N   UNL     1      -7.696  14.698  66.784  1.00  0.00    -0.242 NA 
HETATM    8  O   UNL     1     -11.079  14.132  67.387  1.00  0.00    -0.291 OA 
HETATM    9  OXT UNL     1     -10.136  13.959  65.390  1.00  0.00    -0.326 OA 
HETATM   10  H1  UNL     1      -7.696  13.828  67.317  1.00  0.00     0.000 HD 
HETATM   11  H2  UNL     1      -6.919  15.303  67.051  1.00  0.00     0.000 HD 
ENDBRANCH   4   5
ENDBRANCH   3   4
ENDBRANCH   2   3
TORSDOF 3
ENDMDL
MODEL      161
REMARK 921   NORMALIZED FREE ENERGY PREDICTED BY IDOCK:   -2.07 KCAL/MOL
REMARK 922        TOTAL FREE ENERGY PREDICTED BY IDOCK:   -2.67 KCAL/MOL
REMARK 923 INTER-LIGAND FREE ENERGY PREDICTED BY IDOCK:   -2.58 KCAL/MOL
REMARK 924 INTRA-LIGAND FREE ENERGY PREDICTED BY IDOCK:   -0.09 KCAL/MOL
REMARK 927      BINDING AFFINITY PREDICTED BY RF-SCORE:    0.00 PKD
ROOT
HETATM    1  C   UNL     1     -11.559  14.652  64.857  1.00  0.00    -0.405 C  
HETATM    2 SE   UNL     1     -10.839  16.452  65.033  1.00  0.00    -0.145 Se 
ENDROOT
BRANCH   2   3
HETATM    3  C   UNL     1      -9.333  15.864  66.130  1.00  0.00    -0.350 C  
BRANCH   3   4
HETATM    4  C   UNL     1      -9.722  14.554  66.831  1.00  0.00    -0.257 C  
BRANCH   4   5
HETATM    5  CA  UNL     1     -10.042  14.676  68.339  1.00  0.00    -0.237 C  
HETATM    6  C   UNL     1     -11.162  13.756  68.778  1.00  0.00    -0.271 C  
HETATM    7  N   UNL     1      -8.847  14.432  69.149  1.00  0.00    -0.382 NA 
HETATM    8  O   UNL     1     -12.324  14.262  69.243  1.00  0.00    -0.293 OA 
HETATM    9  OXT UNL     1     -11.018  12.545  68.740  1.00  0.00    -0.240 OA 
HETATM   10  H1  UNL     1      -9.058  14.513  70.144  1.00  0.00     0.000 HD 
HETATM   11  H2  UNL     1      -8.077  15.043  68.878  1.00  0.00     0.000 HD 
ENDBRANCH   4   5
ENDBRANCH   3   4
ENDBRANCH   2   3
TORSDOF 3
ENDMDL
MODEL      162
REMARK 921   NORMALIZED FREE ENERGY PREDICTED BY IDOCK:   -2.07 KCAL/MOL
REMARK 922        TOTAL FREE ENERGY PREDICTED BY IDOCK:   -2.67 KCAL/MOL
REMARK 923 INTER-LIGAND FREE ENERGY PREDICTED BY IDOCK:   -2.60 KCAL/MOL
REMARK 924 INTRA-LIGAND FREE ENERGY PREDICTED BY IDOCK:   -0.07 KCAL/MOL
REMARK 927      BINDING AFFINITY PREDICTED BY RF-SCORE:    0.00 PKD
ROOT
HETATM    1  C   UNL     1      -6.906  12.198  67.491  1.00  0.00    -0.127 C  
HETATM    2 SE   UNL     1      -7.012  10.426  66.692  1.00  0.00    -0.118 Se 
ENDROOT
BRANCH   2   3
HETATM    3  C   UNL     1      -8.959  10.350  66.848  1.00  0.00    -0.139 C  
BRANCH   3   4
HETATM    4  C   UNL     1      -9.568  11.334  65.839  1.00  0.00    -0.249 C  
BRANCH   4   5
HETATM    5  CA  UNL     1     -10.359  10.690  64.676  1.00  0.00    -0.283 C  
HETATM    6  C   UNL     1     -10.817  11.702  63.646  1.00  0.00    -0.432 C  
HETATM    7  N   UNL     1      -9.576   9.636  64.030  1.00  0.00    -0.428 NA 
HETATM    8  O   UNL     1     -12.132  11.926  63.440  1.00  0.00    -0.502 OA 
HETATM    9  OXT UNL     1     -10.001  12.308  62.970  1.00  0.00    -0.320 OA 
HETATM   10  H1  UNL     1     -10.098   9.211  63.263  1.00  0.00     0.000 HD 
HETATM   11  H2  UNL     1      -9.258   8.937  64.701  1.00  0.00     0.000 HD 
ENDBRANCH   4   5
ENDBRANCH   3   4
ENDBRANCH   2   3
TORSDOF 3
ENDMDL
MODEL      163
REMARK 921   NORMALIZED FREE ENERGY PREDICTED BY IDOCK:   -2.07 KCAL/MOL
REMARK 922        TOTAL FREE ENERGY PREDICTED BY IDOCK:   -2.67 KCAL/MOL
REMARK 923 INTER-LIGAND FREE ENERGY PREDICTED BY IDOCK:   -2.62 KCAL/MOL
REMARK 924 INTRA-LIGAND FREE ENERGY PREDICTED BY IDOCK:   -0.05 KCAL/MOL
REMARK 927      BINDING AFFINITY PREDICTED BY RF-SCORE:    0.00 PKD
ROOT
HETATM    1  C   UNL     1     -12.014  14.174  67.131  1.00  0.00    -0.426 C  
HETATM    2 SE   UNL     1     -10.703  12.981  67.934  1.00  0.00    -0.241 Se 
ENDROOT
BRANCH   2   3
HETATM    3  C   UNL     1     -11.221  11.470  66.807  1.00  0.00    -0.285 C  
BRANCH   3   4
HETATM    4  C   UNL     1     -10.943  10.171  67.576  1.00  0.00    -0.319 C  
BRANCH   4   5
HETATM    5  CA  UNL     1      -9.914   9.218  66.922  1.00  0.00    -0.233 C  
HETATM    6  C   UNL     1     -10.110   7.773  67.330  1.00  0.00    -0.222 C  
HETATM    7  N   UNL     1      -9.945   9.336  65.463  1.00  0.00    -0.412 NA 
HETATM    8  O   UNL     1      -9.159   7.123  68.036  1.00  0.00    -0.133 OA 
HETATM    9  OXT UNL     1     -11.119   7.170  67.003  1.00  0.00    -0.345 OA 
HETATM   10  H1  UNL     1      -9.266   8.707  65.032  1.00  0.00     0.000 HD 
HETATM   11  H2  UNL     1      -9.810  10.300  65.160  1.00  0.00     0.000 HD 
ENDBRANCH   4   5
ENDBRANCH   3   4
ENDBRANCH   2   3
TORSDOF 3
ENDMDL
MODEL      164
REMARK 921   NORMALIZED FREE ENERGY PREDICTED BY IDOCK:   -2.06 KCAL/MOL
REMARK 922        TOTAL FREE ENERGY PREDICTED BY IDOCK:   -2.66 KCAL/MOL
REMARK 923 INTER-LIGAND FREE ENERGY PREDICTED BY IDOCK:   -2.61 KCAL/MOL
REMARK 924 INTRA-LIGAND FREE ENERGY PREDICTED BY IDOCK:   -0.06 KCAL/MOL
REMARK 927      BINDING AFFINITY PREDICTED BY RF-SCORE:    0.00 PKD
ROOT
HETATM    1  C   UNL     1      -7.794  16.867  68.272  1.00  0.00    -0.208 C  
HETATM    2 SE   UNL     1      -8.923  16.823  66.688  1.00  0.00    -0.269 Se 
ENDROOT
BRANCH   2   3
HETATM    3  C   UNL     1      -9.035  14.871  66.684  1.00  0.00    -0.270 C  
BRANCH   3   4
HETATM    4  C   UNL     1     -10.178  14.447  67.617  1.00  0.00    -0.229 C  
BRANCH   4   5
HETATM    5  CA  UNL     1     -10.123  12.983  68.113  1.00  0.00    -0.237 C  
HETATM    6  C   UNL     1     -11.455  12.271  67.994  1.00  0.00    -0.321 C  
HETATM    7  N   UNL     1      -9.087  12.228  67.407  1.00  0.00    -0.177 NA 
HETATM    8  O   UNL     1     -12.108  11.846  69.097  1.00  0.00    -0.282 OA 
HETATM    9  OXT UNL     1     -11.942  12.052  66.897  1.00  0.00    -0.612 OA 
HETATM   10  H1  UNL     1      -9.051  11.263  67.735  1.00  0.00     0.000 HD 
HETATM   11  H2  UNL     1      -8.177  12.683  67.475  1.00  0.00     0.000 HD 
ENDBRANCH   4   5
ENDBRANCH   3   4
ENDBRANCH   2   3
TORSDOF 3
ENDMDL
MODEL      165
REMARK 921   NORMALIZED FREE ENERGY PREDICTED BY IDOCK:   -2.05 KCAL/MOL
REMARK 922        TOTAL FREE ENERGY PREDICTED BY IDOCK:   -2.65 KCAL/MOL
REMARK 923 INTER-LIGAND FREE ENERGY PREDICTED BY IDOCK:   -2.54 KCAL/MOL
REMARK 924 INTRA-LIGAND FREE ENERGY PREDICTED BY IDOCK:   -0.11 KCAL/MOL
REMARK 927      BINDING AFFINITY PREDICTED BY RF-SCORE:    0.00 PKD
ROOT
HETATM    1  C   UNL     1     -10.614   9.703  68.849  1.00  0.00    -0.217 C  
HETATM    2 SE   UNL     1     -11.967   9.812  70.244  1.00  0.00    -0.016 Se 
ENDROOT
BRANCH   2   3
HETATM    3  C   UNL     1     -11.942  11.766  70.271  1.00  0.00    -0.343 C  
BRANCH   3   4
HETATM    4  C   UNL     1     -11.528  12.268  68.881  1.00  0.00    -0.355 C  
BRANCH   4   5
HETATM    5  CA  UNL     1     -12.129  13.629  68.459  1.00  0.00    -0.286 C  
HETATM    6  C   UNL     1     -11.638  14.779  69.313  1.00  0.00    -0.303 C  
HETATM    7  N   UNL     1     -11.862  13.904  67.046  1.00  0.00    -0.392 NA 
HETATM    8  O   UNL     1     -12.496  15.474  70.089  1.00  0.00    -0.387 OA 
HETATM    9  OXT UNL     1     -10.462  15.107  69.290  1.00  0.00    -0.240 OA 
HETATM   10  H1  UNL     1     -12.259  14.802  66.767  1.00  0.00     0.000 HD 
HETATM   11  H2  UNL     1     -12.188  13.146  66.446  1.00  0.00     0.000 HD 
ENDBRANCH   4   5
ENDBRANCH   3   4
ENDBRANCH   2   3
TORSDOF 3
ENDMDL
MODEL      166
REMARK 921   NORMALIZED FREE ENERGY PREDICTED BY IDOCK:   -2.05 KCAL/MOL
REMARK 922        TOTAL FREE ENERGY PREDICTED BY IDOCK:   -2.64 KCAL/MOL
REMARK 923 INTER-LIGAND FREE ENERGY PREDICTED BY IDOCK:   -2.49 KCAL/MOL
REMARK 924 INTRA-LIGAND FREE ENERGY PREDICTED BY IDOCK:   -0.16 KCAL/MOL
REMARK 927      BINDING AFFINITY PREDICTED BY RF-SCORE:    0.00 PKD
ROOT
HETATM    1  C   UNL     1      -7.888  10.414  69.115  1.00  0.00    -0.134 C  
HETATM    2 SE   UNL     1      -8.535   9.064  70.360  1.00  0.00    -0.203 Se 
ENDROOT
BRANCH   2   3
HETATM    3  C   UNL     1      -8.279   7.604  69.085  1.00  0.00    -0.130 C  
BRANCH   3   4
HETATM    4  C   UNL     1      -9.433   7.632  68.074  1.00  0.00    -0.151 C  
BRANCH   4   5
HETATM    5  CA  UNL     1     -10.312   6.359  68.033  1.00  0.00    -0.193 C  
HETATM    6  C   UNL     1     -10.755   5.907  69.409  1.00  0.00    -0.336 C  
HETATM    7  N   UNL     1     -11.478   6.556  67.170  1.00  0.00    -0.745 NA 
HETATM    8  O   UNL     1     -10.350   4.719  69.905  1.00  0.00    -0.238 OA 
HETATM    9  OXT UNL     1     -11.506   6.601  70.076  1.00  0.00    -0.358 OA 
HETATM   10  H1  UNL     1     -12.058   5.716  67.143  1.00  0.00     0.000 HD 
HETATM   11  H2  UNL     1     -11.208   6.857  66.234  1.00  0.00     0.000 HD 
ENDBRANCH   4   5
ENDBRANCH   3   4
ENDBRANCH   2   3
TORSDOF 3
ENDMDL
MODEL      167
REMARK 921   NORMALIZED FREE ENERGY PREDICTED BY IDOCK:   -2.05 KCAL/MOL
REMARK 922        TOTAL FREE ENERGY PREDICTED BY IDOCK:   -2.64 KCAL/MOL
REMARK 923 INTER-LIGAND FREE ENERGY PREDICTED BY IDOCK:   -2.59 KCAL/MOL
REMARK 924 INTRA-LIGAND FREE ENERGY PREDICTED BY IDOCK:   -0.05 KCAL/MOL
REMARK 927      BINDING AFFINITY PREDICTED BY RF-SCORE:    0.00 PKD
ROOT
HETATM    1  C   UNL     1      -9.354   6.741  67.305  1.00  0.00    -0.134 C  
HETATM    2 SE   UNL     1      -9.315   8.422  66.323  1.00  0.00    -0.211 Se 
ENDROOT
BRANCH   2   3
HETATM    3  C   UNL     1     -10.521   9.312  67.577  1.00  0.00    -0.274 C  
BRANCH   3   4
HETATM    4  C   UNL     1     -10.365   8.653  68.955  1.00  0.00    -0.228 C  
BRANCH   4   5
HETATM    5  CA  UNL     1     -10.827   9.509  70.158  1.00  0.00    -0.258 C  
HETATM    6  C   UNL     1     -10.196   9.074  71.465  1.00  0.00    -0.344 C  
HETATM    7  N   UNL     1     -10.562  10.930  69.923  1.00  0.00    -0.451 NA 
HETATM    8  O   UNL     1     -10.959   8.583  72.465  1.00  0.00    -0.353 OA 
HETATM    9  OXT UNL     1      -8.994   9.185  71.638  1.00  0.00    -0.336 OA 
HETATM   10  H1  UNL     1     -10.866  11.494  70.716  1.00  0.00     0.000 HD 
HETATM   11  H2  UNL     1     -10.980  11.251  69.050  1.00  0.00     0.000 HD 
ENDBRANCH   4   5
ENDBRANCH   3   4
ENDBRANCH   2   3
TORSDOF 3
ENDMDL
MODEL      168
REMARK 921   NORMALIZED FREE ENERGY PREDICTED BY IDOCK:   -2.04 KCAL/MOL
REMARK 922        TOTAL FREE ENERGY PREDICTED BY IDOCK:   -2.64 KCAL/MOL
REMARK 923 INTER-LIGAND FREE ENERGY PREDICTED BY IDOCK:   -2.53 KCAL/MOL
REMARK 924 INTRA-LIGAND FREE ENERGY PREDICTED BY IDOCK:   -0.11 KCAL/MOL
REMARK 927      BINDING AFFINITY PREDICTED BY RF-SCORE:    0.00 PKD
ROOT
HETATM    1  C   UNL     1      -6.734  13.656  67.926  1.00  0.00    -0.153 C  
HETATM    2 SE   UNL     1      -8.644  13.986  68.107  1.00  0.00    -0.189 Se 
ENDROOT
BRANCH   2   3
HETATM    3  C   UNL     1      -8.379  15.776  68.847  1.00  0.00    -0.213 C  
BRANCH   3   4
HETATM    4  C   UNL     1      -7.658  16.634  67.799  1.00  0.00    -0.172 C  
BRANCH   4   5
HETATM    5  CA  UNL     1      -8.572  17.521  66.921  1.00  0.00    -0.247 C  
HETATM    6  C   UNL     1      -9.390  18.505  67.732  1.00  0.00    -0.291 C  
HETATM    7  N   UNL     1      -7.794  18.233  65.906  1.00  0.00    -0.519 NA 
HETATM    8  O   UNL     1     -10.738  18.421  67.758  1.00  0.00    -0.414 OA 
HETATM    9  OXT UNL     1      -8.842  19.402  68.351  1.00  0.00    -0.332 OA 
HETATM   10  H1  UNL     1      -8.398  18.817  65.327  1.00  0.00     0.000 HD 
HETATM   11  H2  UNL     1      -7.236  17.592  65.341  1.00  0.00     0.000 HD 
ENDBRANCH   4   5
ENDBRANCH   3   4
ENDBRANCH   2   3
TORSDOF 3
ENDMDL
MODEL      169
REMARK 921   NORMALIZED FREE ENERGY PREDICTED BY IDOCK:   -2.04 KCAL/MOL
REMARK 922        TOTAL FREE ENERGY PREDICTED BY IDOCK:   -2.63 KCAL/MOL
REMARK 923 INTER-LIGAND FREE ENERGY PREDICTED BY IDOCK:   -2.61 KCAL/MOL
REMARK 924 INTRA-LIGAND FREE ENERGY PREDICTED BY IDOCK:   -0.02 KCAL/MOL
REMARK 927      BINDING AFFINITY PREDICTED BY RF-SCORE:    0.00 PKD
ROOT
HETATM    1  C   UNL     1     -11.405  13.334  64.462  1.00  0.00    -0.363 C  
HETATM    2 SE   UNL     1     -11.326  12.368  66.151  1.00  0.00    -0.370 Se 
ENDROOT
BRANCH   2   3
HETATM    3  C   UNL     1     -12.064  13.864  67.170  1.00  0.00    -0.387 C  
BRANCH   3   4
HETATM    4  C   UNL     1     -10.919  14.822  67.528  1.00  0.00    -0.304 C  
BRANCH   4   5
HETATM    5  CA  UNL     1      -9.845  14.248  68.483  1.00  0.00    -0.231 C  
HETATM    6  C   UNL     1      -8.539  13.939  67.781  1.00  0.00    -0.182 C  
HETATM    7  N   UNL     1      -9.608  15.153  69.608  1.00  0.00    -0.436 NA 
HETATM    8  O   UNL     1      -8.087  12.670  67.698  1.00  0.00    -0.148 OA 
HETATM    9  OXT UNL     1      -7.867  14.839  67.303  1.00  0.00    -0.188 OA 
HETATM   10  H1  UNL     1      -8.900  14.775  70.238  1.00  0.00     0.000 HD 
HETATM   11  H2  UNL     1     -10.472  15.375  70.103  1.00  0.00     0.000 HD 
ENDBRANCH   4   5
ENDBRANCH   3   4
ENDBRANCH   2   3
TORSDOF 3
ENDMDL
MODEL      170
REMARK 921   NORMALIZED FREE ENERGY PREDICTED BY IDOCK:   -2.04 KCAL/MOL
REMARK 922        TOTAL FREE ENERGY PREDICTED BY IDOCK:   -2.63 KCAL/MOL
REMARK 923 INTER-LIGAND FREE ENERGY PREDICTED BY IDOCK:   -2.59 KCAL/MOL
REMARK 924 INTRA-LIGAND FREE ENERGY PREDICTED BY IDOCK:   -0.04 KCAL/MOL
REMARK 927      BINDING AFFINITY PREDICTED BY RF-SCORE:    0.00 PKD
ROOT
HETATM    1  C   UNL     1     -10.239   7.026  67.535  1.00  0.00    -0.199 C  
HETATM    2 SE   UNL     1      -9.288   8.684  67.905  1.00  0.00    -0.143 Se 
ENDROOT
BRANCH   2   3
HETATM    3  C   UNL     1     -10.842   9.798  67.500  1.00  0.00    -0.220 C  
BRANCH   3   4
HETATM    4  C   UNL     1     -10.901  10.942  68.521  1.00  0.00    -0.262 C  
BRANCH   4   5
HETATM    5  CA  UNL     1     -11.900  12.077  68.192  1.00  0.00    -0.286 C  
HETATM    6  C   UNL     1     -11.528  13.393  68.842  1.00  0.00    -0.304 C  
HETATM    7  N   UNL     1     -12.034  12.253  66.745  1.00  0.00    -0.605 NA 
HETATM    8  O   UNL     1     -12.333  13.954  69.770  1.00  0.00    -0.329 OA 
HETATM    9  OXT UNL     1     -10.507  13.977  68.517  1.00  0.00    -0.238 OA 
HETATM   10  H1  UNL     1     -12.693  13.001  66.528  1.00  0.00     0.000 HD 
HETATM   11  H2  UNL     1     -12.290  11.381  66.282  1.00  0.00     0.000 HD 
ENDBRANCH   4   5
ENDBRANCH   3   4
ENDBRANCH   2   3
TORSDOF 3
ENDMDL
MODEL      171
REMARK 921   NORMALIZED FREE ENERGY PREDICTED BY IDOCK:   -2.03 KCAL/MOL
REMARK 922        TOTAL FREE ENERGY PREDICTED BY IDOCK:   -2.62 KCAL/MOL
REMARK 923 INTER-LIGAND FREE ENERGY PREDICTED BY IDOCK:   -2.57 KCAL/MOL
REMARK 924 INTRA-LIGAND FREE ENERGY PREDICTED BY IDOCK:   -0.05 KCAL/MOL
REMARK 927      BINDING AFFINITY PREDICTED BY RF-SCORE:    0.00 PKD
ROOT
HETATM    1  C   UNL     1      -9.841   8.177  71.960  1.00  0.00    -0.232 C  
HETATM    2 SE   UNL     1      -9.807   7.630  70.092  1.00  0.00    -0.185 Se 
ENDROOT
BRANCH   2   3
HETATM    3  C   UNL     1      -9.254   9.398  69.468  1.00  0.00    -0.176 C  
BRANCH   3   4
HETATM    4  C   UNL     1      -9.939   9.676  68.122  1.00  0.00    -0.185 C  
BRANCH   4   5
HETATM    5  CA  UNL     1      -9.974  11.160  67.687  1.00  0.00    -0.174 C  
HETATM    6  C   UNL     1     -11.344  11.602  67.217  1.00  0.00    -0.305 C  
HETATM    7  N   UNL     1      -9.507  12.033  68.765  1.00  0.00    -0.397 NA 
HETATM    8  O   UNL     1     -11.541  11.987  65.938  1.00  0.00    -0.362 OA 
HETATM    9  OXT UNL     1     -12.282  11.640  67.997  1.00  0.00    -0.551 OA 
HETATM   10  H1  UNL     1      -9.530  13.012  68.477  1.00  0.00     0.000 HD 
HETATM   11  H2  UNL     1      -8.582  11.760  69.097  1.00  0.00     0.000 HD 
ENDBRANCH   4   5
ENDBRANCH   3   4
ENDBRANCH   2   3
TORSDOF 3
ENDMDL
MODEL      172
REMARK 921   NORMALIZED FREE ENERGY PREDICTED BY IDOCK:   -2.02 KCAL/MOL
REMARK 922        TOTAL FREE ENERGY PREDICTED BY IDOCK:   -2.61 KCAL/MOL
REMARK 923 INTER-LIGAND FREE ENERGY PREDICTED BY IDOCK:   -2.64 KCAL/MOL
REMARK 924 INTRA-LIGAND FREE ENERGY PREDICTED BY IDOCK:    0.03 KCAL/MOL
REMARK 927      BINDING AFFINITY PREDICTED BY RF-SCORE:    0.00 PKD
ROOT
HETATM    1  C   UNL     1      -5.731  16.017  70.381  1.00  0.00    -0.104 C  
HETATM    2 SE   UNL     1      -7.211  15.809  69.133  1.00  0.00    -0.204 Se 
ENDROOT
BRANCH   2   3
HETATM    3  C   UNL     1      -7.285  17.719  68.727  1.00  0.00    -0.271 C  
BRANCH   3   4
HETATM    4  C   UNL     1      -8.756  18.155  68.697  1.00  0.00    -0.280 C  
BRANCH   4   5
HETATM    5  CA  UNL     1      -9.081  19.339  67.757  1.00  0.00    -0.306 C  
HETATM    6  C   UNL     1      -8.134  19.430  66.578  1.00  0.00    -0.303 C  
HETATM    7  N   UNL     1     -10.465  19.267  67.283  1.00  0.00    -0.432 NA 
HETATM    8  O   UNL     1      -7.319  20.497  66.433  1.00  0.00    -0.249 OA 
HETATM    9  OXT UNL     1      -8.114  18.551  65.732  1.00  0.00    -0.490 OA 
HETATM   10  H1  UNL     1     -10.679  20.048  66.663  1.00  0.00     0.000 HD 
HETATM   11  H2  UNL     1     -11.126  19.210  68.058  1.00  0.00     0.000 HD 
ENDBRANCH   4   5
ENDBRANCH   3   4
ENDBRANCH   2   3
TORSDOF 3
ENDMDL
MODEL      173
REMARK 921   NORMALIZED FREE ENERGY PREDICTED BY IDOCK:   -2.01 KCAL/MOL
REMARK 922        TOTAL FREE ENERGY PREDICTED BY IDOCK:   -2.60 KCAL/MOL
REMARK 923 INTER-LIGAND FREE ENERGY PREDICTED BY IDOCK:   -2.47 KCAL/MOL
REMARK 924 INTRA-LIGAND FREE ENERGY PREDICTED BY IDOCK:   -0.13 KCAL/MOL
REMARK 927      BINDING AFFINITY PREDICTED BY RF-SCORE:    0.00 PKD
ROOT
HETATM    1  C   UNL     1      -6.580   6.337  71.742  1.00  0.00    -0.058 C  
HETATM    2 SE   UNL     1      -7.894   7.663  71.191  1.00  0.00    -0.091 Se 
ENDROOT
BRANCH   2   3
HETATM    3  C   UNL     1      -9.079   6.325  70.401  1.00  0.00    -0.154 C  
BRANCH   3   4
HETATM    4  C   UNL     1     -10.305   6.161  71.311  1.00  0.00    -0.264 C  
BRANCH   4   5
HETATM    5  CA  UNL     1     -11.661   6.548  70.676  1.00  0.00    -0.374 C  
HETATM    6  C   UNL     1     -12.139   7.921  71.103  1.00  0.00    -0.276 C  
HETATM    7  N   UNL     1     -11.598   6.471  69.216  1.00  0.00    -0.643 NA 
HETATM    8  O   UNL     1     -13.272   8.062  71.823  1.00  0.00    -0.335 OA 
HETATM    9  OXT UNL     1     -11.517   8.920  70.778  1.00  0.00    -0.274 OA 
HETATM   10  H1  UNL     1     -12.492   6.726  68.798  1.00  0.00     0.000 HD 
HETATM   11  H2  UNL     1     -11.283   5.554  68.901  1.00  0.00     0.000 HD 
ENDBRANCH   4   5
ENDBRANCH   3   4
ENDBRANCH   2   3
TORSDOF 3
ENDMDL
MODEL      174
REMARK 921   NORMALIZED FREE ENERGY PREDICTED BY IDOCK:   -2.00 KCAL/MOL
REMARK 922        TOTAL FREE ENERGY PREDICTED BY IDOCK:   -2.59 KCAL/MOL
REMARK 923 INTER-LIGAND FREE ENERGY PREDICTED BY IDOCK:   -2.49 KCAL/MOL
REMARK 924 INTRA-LIGAND FREE ENERGY PREDICTED BY IDOCK:   -0.10 KCAL/MOL
REMARK 927      BINDING AFFINITY PREDICTED BY RF-SCORE:    0.00 PKD
ROOT
HETATM    1  C   UNL     1      -8.504   9.460  63.136  1.00  0.00    -0.205 C  
HETATM    2 SE   UNL     1      -7.713   9.600  64.910  1.00  0.00    -0.126 Se 
ENDROOT
BRANCH   2   3
HETATM    3  C   UNL     1      -9.450   9.608  65.807  1.00  0.00    -0.246 C  
BRANCH   3   4
HETATM    4  C   UNL     1      -9.237   9.992  67.277  1.00  0.00    -0.159 C  
BRANCH   4   5
HETATM    5  CA  UNL     1      -9.600  11.451  67.644  1.00  0.00    -0.169 C  
HETATM    6  C   UNL     1     -11.054  11.779  67.377  1.00  0.00    -0.282 C  
HETATM    7  N   UNL     1      -9.268  11.738  69.040  1.00  0.00    -0.388 NA 
HETATM    8  O   UNL     1     -11.392  12.704  66.455  1.00  0.00    -0.297 OA 
HETATM    9  OXT UNL     1     -11.938  11.228  68.013  1.00  0.00    -0.621 OA 
HETATM   10  H1  UNL     1      -9.508  12.700  69.281  1.00  0.00     0.000 HD 
HETATM   11  H2  UNL     1      -8.291  11.531  69.246  1.00  0.00     0.000 HD 
ENDBRANCH   4   5
ENDBRANCH   3   4
ENDBRANCH   2   3
TORSDOF 3
ENDMDL
MODEL      175
REMARK 921   NORMALIZED FREE ENERGY PREDICTED BY IDOCK:   -2.00 KCAL/MOL
REMARK 922        TOTAL FREE ENERGY PREDICTED BY IDOCK:   -2.59 KCAL/MOL
REMARK 923 INTER-LIGAND FREE ENERGY PREDICTED BY IDOCK:   -2.50 KCAL/MOL
REMARK 924 INTRA-LIGAND FREE ENERGY PREDICTED BY IDOCK:   -0.09 KCAL/MOL
REMARK 927      BINDING AFFINITY PREDICTED BY RF-SCORE:    0.00 PKD
ROOT
HETATM    1  C   UNL     1      -7.462   5.603  74.177  1.00  0.00    -0.092 C  
HETATM    2 SE   UNL     1      -7.120   7.203  73.121  1.00  0.00    -0.073 Se 
ENDROOT
BRANCH   2   3
HETATM    3  C   UNL     1      -8.762   8.082  73.715  1.00  0.00    -0.265 C  
BRANCH   3   4
HETATM    4  C   UNL     1      -9.757   8.095  72.546  1.00  0.00    -0.357 C  
BRANCH   4   5
HETATM    5  CA  UNL     1     -11.097   7.367  72.804  1.00  0.00    -0.346 C  
HETATM    6  C   UNL     1     -11.715   6.809  71.539  1.00  0.00    -0.317 C  
HETATM    7  N   UNL     1     -10.931   6.300  73.793  1.00  0.00    -0.412 NA 
HETATM    8  O   UNL     1     -12.901   7.273  71.091  1.00  0.00    -0.351 OA 
HETATM    9  OXT UNL     1     -11.161   5.914  70.922  1.00  0.00    -0.282 OA 
HETATM   10  H1  UNL     1     -11.815   5.820  73.964  1.00  0.00     0.000 HD 
HETATM   11  H2  UNL     1     -10.520   6.650  74.659  1.00  0.00     0.000 HD 
ENDBRANCH   4   5
ENDBRANCH   3   4
ENDBRANCH   2   3
TORSDOF 3
ENDMDL
MODEL      176
REMARK 921   NORMALIZED FREE ENERGY PREDICTED BY IDOCK:   -2.00 KCAL/MOL
REMARK 922        TOTAL FREE ENERGY PREDICTED BY IDOCK:   -2.58 KCAL/MOL
REMARK 923 INTER-LIGAND FREE ENERGY PREDICTED BY IDOCK:   -2.51 KCAL/MOL
REMARK 924 INTRA-LIGAND FREE ENERGY PREDICTED BY IDOCK:   -0.07 KCAL/MOL
REMARK 927      BINDING AFFINITY PREDICTED BY RF-SCORE:    0.00 PKD
ROOT
HETATM    1  C   UNL     1      -9.359  11.480  67.426  1.00  0.00    -0.166 C  
HETATM    2 SE   UNL     1      -9.167  10.305  65.886  1.00  0.00    -0.178 Se 
ENDROOT
BRANCH   2   3
HETATM    3  C   UNL     1      -8.978   8.703  66.990  1.00  0.00    -0.133 C  
BRANCH   3   4
HETATM    4  C   UNL     1     -10.285   7.902  66.913  1.00  0.00    -0.380 C  
BRANCH   4   5
HETATM    5  CA  UNL     1     -10.157   6.390  67.218  1.00  0.00    -0.163 C  
HETATM    6  C   UNL     1     -10.307   6.073  68.691  1.00  0.00    -0.214 C  
HETATM    7  N   UNL     1     -11.124   5.616  66.438  1.00  0.00    -0.758 NA 
HETATM    8  O   UNL     1      -9.277   5.550  69.390  1.00  0.00    -0.114 OA 
HETATM    9  OXT UNL     1     -11.370   6.264  69.260  1.00  0.00    -0.410 OA 
HETATM   10  H1  UNL     1     -11.039   4.619  66.638  1.00  0.00     0.000 HD 
HETATM   11  H2  UNL     1     -11.042   5.807  65.439  1.00  0.00     0.000 HD 
ENDBRANCH   4   5
ENDBRANCH   3   4
ENDBRANCH   2   3
TORSDOF 3
ENDMDL
MODEL      177
REMARK 921   NORMALIZED FREE ENERGY PREDICTED BY IDOCK:   -1.98 KCAL/MOL
REMARK 922        TOTAL FREE ENERGY PREDICTED BY IDOCK:   -2.57 KCAL/MOL
REMARK 923 INTER-LIGAND FREE ENERGY PREDICTED BY IDOCK:   -2.36 KCAL/MOL
REMARK 924 INTRA-LIGAND FREE ENERGY PREDICTED BY IDOCK:   -0.21 KCAL/MOL
REMARK 927      BINDING AFFINITY PREDICTED BY RF-SCORE:    0.00 PKD
ROOT
HETATM    1  C   UNL     1      -9.664  19.477  66.008  1.00  0.00    -0.309 C  
HETATM    2 SE   UNL     1      -7.952  19.946  66.807  1.00  0.00    -0.324 Se 
ENDROOT
BRANCH   2   3
HETATM    3  C   UNL     1      -7.016  18.461  65.947  1.00  0.00    -0.271 C  
BRANCH   3   4
HETATM    4  C   UNL     1      -6.841  17.335  66.975  1.00  0.00    -0.225 C  
BRANCH   4   5
HETATM    5  CA  UNL     1      -7.435  17.615  68.376  1.00  0.00    -0.253 C  
HETATM    6  C   UNL     1      -8.612  16.720  68.705  1.00  0.00    -0.263 C  
HETATM    7  N   UNL     1      -6.409  17.495  69.413  1.00  0.00    -0.246 NA 
HETATM    8  O   UNL     1      -9.843  17.243  68.889  1.00  0.00    -0.290 OA 
HETATM    9  OXT UNL     1      -8.456  15.516  68.832  1.00  0.00    -0.174 OA 
HETATM   10  H1  UNL     1      -6.801  17.680  70.337  1.00  0.00     0.000 HD 
HETATM   11  H2  UNL     1      -5.605  18.092  69.219  1.00  0.00     0.000 HD 
ENDBRANCH   4   5
ENDBRANCH   3   4
ENDBRANCH   2   3
TORSDOF 3
ENDMDL
MODEL      178
REMARK 921   NORMALIZED FREE ENERGY PREDICTED BY IDOCK:   -1.98 KCAL/MOL
REMARK 922        TOTAL FREE ENERGY PREDICTED BY IDOCK:   -2.56 KCAL/MOL
REMARK 923 INTER-LIGAND FREE ENERGY PREDICTED BY IDOCK:   -2.46 KCAL/MOL
REMARK 924 INTRA-LIGAND FREE ENERGY PREDICTED BY IDOCK:   -0.10 KCAL/MOL
REMARK 927      BINDING AFFINITY PREDICTED BY RF-SCORE:    0.00 PKD
ROOT
HETATM    1  C   UNL     1     -11.964  14.321  66.642  1.00  0.00    -0.430 C  
HETATM    2 SE   UNL     1     -10.607  13.258  67.546  1.00  0.00    -0.248 Se 
ENDROOT
BRANCH   2   3
HETATM    3  C   UNL     1     -11.238  11.582  66.764  1.00  0.00    -0.285 C  
BRANCH   3   4
HETATM    4  C   UNL     1     -11.030  10.457  67.788  1.00  0.00    -0.369 C  
BRANCH   4   5
HETATM    5  CA  UNL     1     -10.623   9.086  67.198  1.00  0.00    -0.220 C  
HETATM    6  C   UNL     1      -9.213   9.081  66.645  1.00  0.00    -0.167 C  
HETATM    7  N   UNL     1     -10.777   8.022  68.191  1.00  0.00    -0.429 NA 
HETATM    8  O   UNL     1      -8.992   8.886  65.327  1.00  0.00    -0.200 OA 
HETATM    9  OXT UNL     1      -8.257   9.227  67.389  1.00  0.00    -0.116 OA 
HETATM   10  H1  UNL     1     -10.508   7.118  67.801  1.00  0.00     0.000 HD 
HETATM   11  H2  UNL     1     -11.721   8.000  68.577  1.00  0.00     0.000 HD 
ENDBRANCH   4   5
ENDBRANCH   3   4
ENDBRANCH   2   3
TORSDOF 3
ENDMDL
MODEL      179
REMARK 921   NORMALIZED FREE ENERGY PREDICTED BY IDOCK:   -1.97 KCAL/MOL
REMARK 922        TOTAL FREE ENERGY PREDICTED BY IDOCK:   -2.56 KCAL/MOL
REMARK 923 INTER-LIGAND FREE ENERGY PREDICTED BY IDOCK:   -2.47 KCAL/MOL
REMARK 924 INTRA-LIGAND FREE ENERGY PREDICTED BY IDOCK:   -0.09 KCAL/MOL
REMARK 927      BINDING AFFINITY PREDICTED BY RF-SCORE:    0.00 PKD
ROOT
HETATM    1  C   UNL     1      -8.070   7.579  70.388  1.00  0.00    -0.111 C  
HETATM    2 SE   UNL     1      -7.733   9.496  70.415  1.00  0.00    -0.156 Se 
ENDROOT
BRANCH   2   3
HETATM    3  C   UNL     1      -9.375   9.913  69.440  1.00  0.00    -0.214 C  
BRANCH   3   4
HETATM    4  C   UNL     1     -10.572   9.437  70.275  1.00  0.00    -0.297 C  
BRANCH   4   5
HETATM    5  CA  UNL     1     -11.517  10.553  70.780  1.00  0.00    -0.285 C  
HETATM    6  C   UNL     1     -11.862  11.561  69.703  1.00  0.00    -0.354 C  
HETATM    7  N   UNL     1     -12.741   9.986  71.347  1.00  0.00    -0.379 NA 
HETATM    8  O   UNL     1     -11.478  12.850  69.820  1.00  0.00    -0.228 OA 
HETATM    9  OXT UNL     1     -12.515  11.225  68.728  1.00  0.00    -0.444 OA 
HETATM   10  H1  UNL     1     -13.364  10.722  71.680  1.00  0.00     0.000 HD 
HETATM   11  H2  UNL     1     -12.538   9.306  72.079  1.00  0.00     0.000 HD 
ENDBRANCH   4   5
ENDBRANCH   3   4
ENDBRANCH   2   3
TORSDOF 3
ENDMDL
MODEL      180
REMARK 921   NORMALIZED FREE ENERGY PREDICTED BY IDOCK:   -1.97 KCAL/MOL
REMARK 922        TOTAL FREE ENERGY PREDICTED BY IDOCK:   -2.56 KCAL/MOL
REMARK 923 INTER-LIGAND FREE ENERGY PREDICTED BY IDOCK:   -2.41 KCAL/MOL
REMARK 924 INTRA-LIGAND FREE ENERGY PREDICTED BY IDOCK:   -0.15 KCAL/MOL
REMARK 927      BINDING AFFINITY PREDICTED BY RF-SCORE:    0.00 PKD
ROOT
HETATM    1  C   UNL     1      -7.878  19.738  66.543  1.00  0.00    -0.299 C  
HETATM    2 SE   UNL     1      -6.481  18.613  67.299  1.00  0.00    -0.195 Se 
ENDROOT
BRANCH   2   3
HETATM    3  C   UNL     1      -7.476  18.294  68.951  1.00  0.00    -0.239 C  
BRANCH   3   4
HETATM    4  C   UNL     1      -7.745  16.787  69.075  1.00  0.00    -0.213 C  
BRANCH   4   5
HETATM    5  CA  UNL     1      -9.234  16.386  69.203  1.00  0.00    -0.216 C  
HETATM    6  C   UNL     1      -9.981  16.470  67.888  1.00  0.00    -0.245 C  
HETATM    7  N   UNL     1      -9.367  15.043  69.770  1.00  0.00    -0.461 NA 
HETATM    8  O   UNL     1     -10.994  17.349  67.729  1.00  0.00    -0.317 OA 
HETATM    9  OXT UNL     1      -9.692  15.727  66.965  1.00  0.00    -0.223 OA 
HETATM   10  H1  UNL     1     -10.349  14.778  69.855  1.00  0.00     0.000 HD 
HETATM   11  H2  UNL     1      -8.876  14.959  70.660  1.00  0.00     0.000 HD 
ENDBRANCH   4   5
ENDBRANCH   3   4
ENDBRANCH   2   3
TORSDOF 3
ENDMDL
MODEL      181
REMARK 921   NORMALIZED FREE ENERGY PREDICTED BY IDOCK:   -1.97 KCAL/MOL
REMARK 922        TOTAL FREE ENERGY PREDICTED BY IDOCK:   -2.55 KCAL/MOL
REMARK 923 INTER-LIGAND FREE ENERGY PREDICTED BY IDOCK:   -2.40 KCAL/MOL
REMARK 924 INTRA-LIGAND FREE ENERGY PREDICTED BY IDOCK:   -0.16 KCAL/MOL
REMARK 927      BINDING AFFINITY PREDICTED BY RF-SCORE:    0.00 PKD
ROOT
HETATM    1  C   UNL     1      -9.915  12.257  67.112  1.00  0.00    -0.205 C  
HETATM    2 SE   UNL     1      -8.741  13.589  67.911  1.00  0.00    -0.194 Se 
ENDROOT
BRANCH   2   3
HETATM    3  C   UNL     1      -9.631  15.078  67.010  1.00  0.00    -0.225 C  
BRANCH   3   4
HETATM    4  C   UNL     1      -9.332  16.367  67.788  1.00  0.00    -0.213 C  
BRANCH   4   5
HETATM    5  CA  UNL     1     -10.540  16.999  68.519  1.00  0.00    -0.370 C  
HETATM    6  C   UNL     1     -11.148  16.077  69.555  1.00  0.00    -0.333 C  
HETATM    7  N   UNL     1     -10.170  18.273  69.138  1.00  0.00    -0.418 NA 
HETATM    8  O   UNL     1     -12.411  15.622  69.413  1.00  0.00    -0.188 OA 
HETATM    9  OXT UNL     1     -10.511  15.753  70.544  1.00  0.00    -0.252 OA 
HETATM   10  H1  UNL     1     -10.967  18.690  69.619  1.00  0.00     0.000 HD 
HETATM   11  H2  UNL     1      -9.761  18.917  68.460  1.00  0.00     0.000 HD 
ENDBRANCH   4   5
ENDBRANCH   3   4
ENDBRANCH   2   3
TORSDOF 3
ENDMDL
MODEL      182
REMARK 921   NORMALIZED FREE ENERGY PREDICTED BY IDOCK:   -1.97 KCAL/MOL
REMARK 922        TOTAL FREE ENERGY PREDICTED BY IDOCK:   -2.55 KCAL/MOL
REMARK 923 INTER-LIGAND FREE ENERGY PREDICTED BY IDOCK:   -2.41 KCAL/MOL
REMARK 924 INTRA-LIGAND FREE ENERGY PREDICTED BY IDOCK:   -0.14 KCAL/MOL
REMARK 927      BINDING AFFINITY PREDICTED BY RF-SCORE:    0.00 PKD
ROOT
HETATM    1  C   UNL     1     -10.662   7.475  73.194  1.00  0.00    -0.398 C  
HETATM    2 SE   UNL     1     -11.290   5.885  72.262  1.00  0.00    -0.285 Se 
ENDROOT
BRANCH   2   3
HETATM    3  C   UNL     1     -11.676   6.866  70.616  1.00  0.00    -0.367 C  
BRANCH   3   4
HETATM    4  C   UNL     1     -10.927   6.190  69.459  1.00  0.00    -0.463 C  
BRANCH   4   5
HETATM    5  CA  UNL     1      -9.693   6.957  68.927  1.00  0.00    -0.142 C  
HETATM    6  C   UNL     1      -9.918   7.547  67.550  1.00  0.00    -0.174 C  
HETATM    7  N   UNL     1      -9.287   8.008  69.861  1.00  0.00    -0.156 NA 
HETATM    8  O   UNL     1      -9.190   7.123  66.494  1.00  0.00    -0.154 OA 
HETATM    9  OXT UNL     1     -10.743   8.430  67.383  1.00  0.00    -0.269 OA 
HETATM   10  H1  UNL     1      -8.473   8.514  69.510  1.00  0.00     0.000 HD 
HETATM   11  H2  UNL     1      -9.124   7.638  70.798  1.00  0.00     0.000 HD 
ENDBRANCH   4   5
ENDBRANCH   3   4
ENDBRANCH   2   3
TORSDOF 3
ENDMDL
MODEL      183
REMARK 921   NORMALIZED FREE ENERGY PREDICTED BY IDOCK:   -1.93 KCAL/MOL
REMARK 922        TOTAL FREE ENERGY PREDICTED BY IDOCK:   -2.51 KCAL/MOL
REMARK 923 INTER-LIGAND FREE ENERGY PREDICTED BY IDOCK:   -2.46 KCAL/MOL
REMARK 924 INTRA-LIGAND FREE ENERGY PREDICTED BY IDOCK:   -0.04 KCAL/MOL
REMARK 927      BINDING AFFINITY PREDICTED BY RF-SCORE:    0.00 PKD
ROOT
HETATM    1  C   UNL     1      -6.659  13.692  68.665  1.00  0.00    -0.097 C  
HETATM    2 SE   UNL     1      -7.109  15.370  67.785  1.00  0.00    -0.183 Se 
ENDROOT
BRANCH   2   3
HETATM    3  C   UNL     1      -8.699  14.623  66.927  1.00  0.00    -0.224 C  
BRANCH   3   4
HETATM    4  C   UNL     1      -9.429  13.734  67.943  1.00  0.00    -0.214 C  
BRANCH   4   5
HETATM    5  CA  UNL     1     -10.857  13.297  67.540  1.00  0.00    -0.263 C  
HETATM    6  C   UNL     1     -11.454  12.285  68.497  1.00  0.00    -0.303 C  
HETATM    7  N   UNL     1     -11.744  14.454  67.417  1.00  0.00    -0.381 NA 
HETATM    8  O   UNL     1     -11.748  11.035  68.080  1.00  0.00    -0.497 OA 
HETATM    9  OXT UNL     1     -11.699  12.597  69.651  1.00  0.00    -0.303 OA 
HETATM   10  H1  UNL     1     -12.686  14.166  67.151  1.00  0.00     0.000 HD 
HETATM   11  H2  UNL     1     -11.368  15.151  66.773  1.00  0.00     0.000 HD 
ENDBRANCH   4   5
ENDBRANCH   3   4
ENDBRANCH   2   3
TORSDOF 3
ENDMDL
MODEL      184
REMARK 921   NORMALIZED FREE ENERGY PREDICTED BY IDOCK:   -1.92 KCAL/MOL
REMARK 922        TOTAL FREE ENERGY PREDICTED BY IDOCK:   -2.50 KCAL/MOL
REMARK 923 INTER-LIGAND FREE ENERGY PREDICTED BY IDOCK:   -2.38 KCAL/MOL
REMARK 924 INTRA-LIGAND FREE ENERGY PREDICTED BY IDOCK:   -0.12 KCAL/MOL
REMARK 927      BINDING AFFINITY PREDICTED BY RF-SCORE:    0.00 PKD
ROOT
HETATM    1  C   UNL     1     -12.081  13.941  64.445  1.00  0.00    -0.443 C  
HETATM    2 SE   UNL     1     -11.664  15.841  64.371  1.00  0.00    -0.039 Se 
ENDROOT
BRANCH   2   3
HETATM    3  C   UNL     1     -10.087  15.655  65.510  1.00  0.00    -0.362 C  
BRANCH   3   4
HETATM    4  C   UNL     1     -10.427  16.199  66.905  1.00  0.00    -0.300 C  
BRANCH   4   5
HETATM    5  CA  UNL     1     -10.410  15.156  68.048  1.00  0.00    -0.240 C  
HETATM    6  C   UNL     1     -10.034  15.759  69.386  1.00  0.00    -0.274 C  
HETATM    7  N   UNL     1     -11.698  14.470  68.151  1.00  0.00    -0.344 NA 
HETATM    8  O   UNL     1      -8.902  15.380  70.017  1.00  0.00    -0.046 OA 
HETATM    9  OXT UNL     1     -10.765  16.575  69.923  1.00  0.00    -0.329 OA 
HETATM   10  H1  UNL     1     -11.687  13.783  68.905  1.00  0.00     0.000 HD 
HETATM   11  H2  UNL     1     -11.974  14.050  67.263  1.00  0.00     0.000 HD 
ENDBRANCH   4   5
ENDBRANCH   3   4
ENDBRANCH   2   3
TORSDOF 3
ENDMDL
MODEL      185
REMARK 921   NORMALIZED FREE ENERGY PREDICTED BY IDOCK:   -1.91 KCAL/MOL
REMARK 922        TOTAL FREE ENERGY PREDICTED BY IDOCK:   -2.48 KCAL/MOL
REMARK 923 INTER-LIGAND FREE ENERGY PREDICTED BY IDOCK:   -2.35 KCAL/MOL
REMARK 924 INTRA-LIGAND FREE ENERGY PREDICTED BY IDOCK:   -0.12 KCAL/MOL
REMARK 927      BINDING AFFINITY PREDICTED BY RF-SCORE:    0.00 PKD
ROOT
HETATM    1  C   UNL     1      -8.166   9.961  69.627  1.00  0.00    -0.171 C  
HETATM    2 SE   UNL     1      -9.269  10.787  68.252  1.00  0.00    -0.164 Se 
ENDROOT
BRANCH   2   3
HETATM    3  C   UNL     1     -10.892   9.876  68.850  1.00  0.00    -0.210 C  
BRANCH   3   4
HETATM    4  C   UNL     1     -10.881   9.816  70.383  1.00  0.00    -0.370 C  
BRANCH   4   5
HETATM    5  CA  UNL     1     -11.350   8.477  71.000  1.00  0.00    -0.271 C  
HETATM    6  C   UNL     1     -10.861   7.270  70.226  1.00  0.00    -0.245 C  
HETATM    7  N   UNL     1     -10.940   8.373  72.401  1.00  0.00    -0.360 NA 
HETATM    8  O   UNL     1     -11.738   6.447  69.612  1.00  0.00    -0.389 OA 
HETATM    9  OXT UNL     1      -9.670   7.013  70.170  1.00  0.00    -0.174 OA 
HETATM   10  H1  UNL     1     -11.250   7.490  72.808  1.00  0.00     0.000 HD 
HETATM   11  H2  UNL     1     -11.261   9.172  72.948  1.00  0.00     0.000 HD 
ENDBRANCH   4   5
ENDBRANCH   3   4
ENDBRANCH   2   3
TORSDOF 3
ENDMDL
MODEL      186
REMARK 921   NORMALIZED FREE ENERGY PREDICTED BY IDOCK:   -1.90 KCAL/MOL
REMARK 922        TOTAL FREE ENERGY PREDICTED BY IDOCK:   -2.48 KCAL/MOL
REMARK 923 INTER-LIGAND FREE ENERGY PREDICTED BY IDOCK:   -2.32 KCAL/MOL
REMARK 924 INTRA-LIGAND FREE ENERGY PREDICTED BY IDOCK:   -0.15 KCAL/MOL
REMARK 927      BINDING AFFINITY PREDICTED BY RF-SCORE:    0.00 PKD
ROOT
HETATM    1  C   UNL     1      -8.525  10.350  67.919  1.00  0.00    -0.114 C  
HETATM    2 SE   UNL     1     -10.203   9.414  67.610  1.00  0.00    -0.242 Se 
ENDROOT
BRANCH   2   3
HETATM    3  C   UNL     1     -11.213  10.603  68.788  1.00  0.00    -0.279 C  
BRANCH   3   4
HETATM    4  C   UNL     1     -11.108  10.071  70.224  1.00  0.00    -0.381 C  
BRANCH   4   5
HETATM    5  CA  UNL     1     -10.753   8.570  70.353  1.00  0.00    -0.228 C  
HETATM    6  C   UNL     1      -9.776   8.293  71.477  1.00  0.00    -0.191 C  
HETATM    7  N   UNL     1     -11.960   7.760  70.527  1.00  0.00    -0.489 NA 
HETATM    8  O   UNL     1      -8.545   7.805  71.212  1.00  0.00    -0.116 OA 
HETATM    9  OXT UNL     1     -10.099   8.483  72.638  1.00  0.00    -0.282 OA 
HETATM   10  H1  UNL     1     -11.725   6.770  70.611  1.00  0.00     0.000 HD 
HETATM   11  H2  UNL     1     -12.634   7.924  69.780  1.00  0.00     0.000 HD 
ENDBRANCH   4   5
ENDBRANCH   3   4
ENDBRANCH   2   3
TORSDOF 3
ENDMDL
MODEL      187
REMARK 921   NORMALIZED FREE ENERGY PREDICTED BY IDOCK:   -1.86 KCAL/MOL
REMARK 922        TOTAL FREE ENERGY PREDICTED BY IDOCK:   -2.43 KCAL/MOL
REMARK 923 INTER-LIGAND FREE ENERGY PREDICTED BY IDOCK:   -2.33 KCAL/MOL
REMARK 924 INTRA-LIGAND FREE ENERGY PREDICTED BY IDOCK:   -0.09 KCAL/MOL
REMARK 927      BINDING AFFINITY PREDICTED BY RF-SCORE:    0.00 PKD
ROOT
HETATM    1  C   UNL     1      -8.057   9.934  68.545  1.00  0.00    -0.101 C  
HETATM    2 SE   UNL     1      -8.874   9.091  66.992  1.00  0.00    -0.120 Se 
ENDROOT
BRANCH   2   3
HETATM    3  C   UNL     1     -10.594   8.848  67.889  1.00  0.00    -0.183 C  
BRANCH   3   4
HETATM    4  C   UNL     1     -10.344   8.723  69.398  1.00  0.00    -0.217 C  
BRANCH   4   5
HETATM    5  CA  UNL     1     -10.817   7.399  70.043  1.00  0.00    -0.252 C  
HETATM    6  C   UNL     1     -11.654   7.619  71.287  1.00  0.00    -0.278 C  
HETATM    7  N   UNL     1     -11.557   6.582  69.080  1.00  0.00    -0.624 NA 
HETATM    8  O   UNL     1     -11.218   7.193  72.492  1.00  0.00    -0.266 OA 
HETATM    9  OXT UNL     1     -12.744   8.161  71.211  1.00  0.00    -0.291 OA 
HETATM   10  H1  UNL     1     -11.869   5.709  69.506  1.00  0.00     0.000 HD 
HETATM   11  H2  UNL     1     -11.014   6.414  68.233  1.00  0.00     0.000 HD 
ENDBRANCH   4   5
ENDBRANCH   3   4
ENDBRANCH   2   3
TORSDOF 3
ENDMDL
MODEL      188
REMARK 921   NORMALIZED FREE ENERGY PREDICTED BY IDOCK:   -1.85 KCAL/MOL
REMARK 922        TOTAL FREE ENERGY PREDICTED BY IDOCK:   -2.41 KCAL/MOL
REMARK 923 INTER-LIGAND FREE ENERGY PREDICTED BY IDOCK:   -2.27 KCAL/MOL
REMARK 924 INTRA-LIGAND FREE ENERGY PREDICTED BY IDOCK:   -0.14 KCAL/MOL
REMARK 927      BINDING AFFINITY PREDICTED BY RF-SCORE:    0.00 PKD
ROOT
HETATM    1  C   UNL     1      -7.898   7.080  67.426  1.00  0.00    -0.111 C  
HETATM    2 SE   UNL     1      -8.904   8.073  66.088  1.00  0.00    -0.167 Se 
ENDROOT
BRANCH   2   3
HETATM    3  C   UNL     1     -10.462   8.282  67.251  1.00  0.00    -0.303 C  
BRANCH   3   4
HETATM    4  C   UNL     1     -10.780   9.779  67.375  1.00  0.00    -0.314 C  
BRANCH   4   5
HETATM    5  CA  UNL     1      -9.981  10.709  66.432  1.00  0.00    -0.222 C  
HETATM    6  C   UNL     1     -10.861  11.414  65.420  1.00  0.00    -0.229 C  
HETATM    7  N   UNL     1      -9.210  11.691  67.195  1.00  0.00    -0.173 NA 
HETATM    8  O   UNL     1     -10.718  11.172  64.099  1.00  0.00    -0.368 OA 
HETATM    9  OXT UNL     1     -11.693  12.228  65.785  1.00  0.00    -0.387 OA 
HETATM   10  H1  UNL     1      -8.683  12.305  66.573  1.00  0.00     0.000 HD 
HETATM   11  H2  UNL     1      -8.604  11.243  67.882  1.00  0.00     0.000 HD 
ENDBRANCH   4   5
ENDBRANCH   3   4
ENDBRANCH   2   3
TORSDOF 3
ENDMDL
MODEL      189
REMARK 921   NORMALIZED FREE ENERGY PREDICTED BY IDOCK:   -1.84 KCAL/MOL
REMARK 922        TOTAL FREE ENERGY PREDICTED BY IDOCK:   -2.40 KCAL/MOL
REMARK 923 INTER-LIGAND FREE ENERGY PREDICTED BY IDOCK:   -2.47 KCAL/MOL
REMARK 924 INTRA-LIGAND FREE ENERGY PREDICTED BY IDOCK:    0.07 KCAL/MOL
REMARK 927      BINDING AFFINITY PREDICTED BY RF-SCORE:    0.00 PKD
ROOT
HETATM    1  C   UNL     1     -12.580  13.627  66.389  1.00  0.00    -0.235 C  
HETATM    2 SE   UNL     1     -12.739  12.488  64.818  1.00  0.00    -0.137 Se 
ENDROOT
BRANCH   2   3
HETATM    3  C   UNL     1     -11.353  13.456  63.836  1.00  0.00    -0.260 C  
BRANCH   3   4
HETATM    4  C   UNL     1      -9.982  12.928  64.282  1.00  0.00    -0.135 C  
BRANCH   4   5
HETATM    5  CA  UNL     1      -9.548  11.586  63.646  1.00  0.00    -0.249 C  
HETATM    6  C   UNL     1      -9.193  10.536  64.678  1.00  0.00    -0.235 C  
HETATM    7  N   UNL     1     -10.581  11.075  62.744  1.00  0.00    -0.778 NA 
HETATM    8  O   UNL     1      -7.934  10.056  64.766  1.00  0.00    -0.134 OA 
HETATM    9  OXT UNL     1     -10.048  10.091  65.426  1.00  0.00    -0.310 OA 
HETATM   10  H1  UNL     1     -10.294  10.190  62.325  1.00  0.00     0.000 HD 
HETATM   11  H2  UNL     1     -10.836  11.762  62.035  1.00  0.00     0.000 HD 
ENDBRANCH   4   5
ENDBRANCH   3   4
ENDBRANCH   2   3
TORSDOF 3
ENDMDL
MODEL      190
REMARK 921   NORMALIZED FREE ENERGY PREDICTED BY IDOCK:   -1.84 KCAL/MOL
REMARK 922        TOTAL FREE ENERGY PREDICTED BY IDOCK:   -2.40 KCAL/MOL
REMARK 923 INTER-LIGAND FREE ENERGY PREDICTED BY IDOCK:   -2.30 KCAL/MOL
REMARK 924 INTRA-LIGAND FREE ENERGY PREDICTED BY IDOCK:   -0.10 KCAL/MOL
REMARK 927      BINDING AFFINITY PREDICTED BY RF-SCORE:    0.00 PKD
ROOT
HETATM    1  C   UNL     1      -8.695   3.494  65.414  1.00  0.00    -0.120 C  
HETATM    2 SE   UNL     1      -8.791   5.384  65.875  1.00  0.00    -0.150 Se 
ENDROOT
BRANCH   2   3
HETATM    3  C   UNL     1     -10.628   5.247  66.526  1.00  0.00    -0.285 C  
BRANCH   3   4
HETATM    4  C   UNL     1     -10.926   6.472  67.403  1.00  0.00    -0.458 C  
BRANCH   4   5
HETATM    5  CA  UNL     1     -10.982   6.204  68.925  1.00  0.00    -0.356 C  
HETATM    6  C   UNL     1      -9.788   5.418  69.426  1.00  0.00    -0.184 C  
HETATM    7  N   UNL     1     -11.108   7.455  69.674  1.00  0.00    -0.422 NA 
HETATM    8  O   UNL     1      -9.948   4.183  69.948  1.00  0.00    -0.209 OA 
HETATM    9  OXT UNL     1      -8.669   5.902  69.388  1.00  0.00    -0.115 OA 
HETATM   10  H1  UNL     1     -11.144   7.278  70.678  1.00  0.00     0.000 HD 
HETATM   11  H2  UNL     1     -11.908   8.003  69.359  1.00  0.00     0.000 HD 
ENDBRANCH   4   5
ENDBRANCH   3   4
ENDBRANCH   2   3
TORSDOF 3
ENDMDL
MODEL      191
REMARK 921   NORMALIZED FREE ENERGY PREDICTED BY IDOCK:   -1.83 KCAL/MOL
REMARK 922        TOTAL FREE ENERGY PREDICTED BY IDOCK:   -2.39 KCAL/MOL
REMARK 923 INTER-LIGAND FREE ENERGY PREDICTED BY IDOCK:   -2.30 KCAL/MOL
REMARK 924 INTRA-LIGAND FREE ENERGY PREDICTED BY IDOCK:   -0.10 KCAL/MOL
REMARK 927      BINDING AFFINITY PREDICTED BY RF-SCORE:    0.00 PKD
ROOT
HETATM    1  C   UNL     1      -6.938   5.860  68.510  1.00  0.00    -0.075 C  
HETATM    2 SE   UNL     1      -7.672   7.488  69.286  1.00  0.00    -0.114 Se 
ENDROOT
BRANCH   2   3
HETATM    3  C   UNL     1      -9.270   7.437  68.162  1.00  0.00    -0.133 C  
BRANCH   3   4
HETATM    4  C   UNL     1     -10.380   8.239  68.857  1.00  0.00    -0.230 C  
BRANCH   4   5
HETATM    5  CA  UNL     1     -10.678   7.832  70.320  1.00  0.00    -0.236 C  
HETATM    6  C   UNL     1     -10.518   8.982  71.293  1.00  0.00    -0.311 C  
HETATM    7  N   UNL     1     -12.019   7.257  70.440  1.00  0.00    -0.542 NA 
HETATM    8  O   UNL     1      -9.568   8.942  72.252  1.00  0.00    -0.295 OA 
HETATM    9  OXT UNL     1     -11.262   9.947  71.238  1.00  0.00    -0.361 OA 
HETATM   10  H1  UNL     1     -12.216   6.989  71.405  1.00  0.00     0.000 HD 
HETATM   11  H2  UNL     1     -12.153   6.477  69.798  1.00  0.00     0.000 HD 
ENDBRANCH   4   5
ENDBRANCH   3   4
ENDBRANCH   2   3
TORSDOF 3
ENDMDL
MODEL      192
REMARK 921   NORMALIZED FREE ENERGY PREDICTED BY IDOCK:   -1.83 KCAL/MOL
REMARK 922        TOTAL FREE ENERGY PREDICTED BY IDOCK:   -2.39 KCAL/MOL
REMARK 923 INTER-LIGAND FREE ENERGY PREDICTED BY IDOCK:   -2.34 KCAL/MOL
REMARK 924 INTRA-LIGAND FREE ENERGY PREDICTED BY IDOCK:   -0.05 KCAL/MOL
REMARK 927      BINDING AFFINITY PREDICTED BY RF-SCORE:    0.00 PKD
ROOT
HETATM    1  C   UNL     1      -7.905   1.968  71.552  1.00  0.00    -0.040 C  
HETATM    2 SE   UNL     1      -7.597   3.444  70.320  1.00  0.00    -0.044 Se 
ENDROOT
BRANCH   2   3
HETATM    3  C   UNL     1      -9.497   3.886  70.198  1.00  0.00    -0.191 C  
BRANCH   3   4
HETATM    4  C   UNL     1      -9.629   5.368  69.823  1.00  0.00    -0.225 C  
BRANCH   4   5
HETATM    5  CA  UNL     1     -11.077   5.910  69.752  1.00  0.00    -0.352 C  
HETATM    6  C   UNL     1     -11.412   6.840  70.900  1.00  0.00    -0.334 C  
HETATM    7  N   UNL     1     -11.323   6.582  68.475  1.00  0.00    -0.578 NA 
HETATM    8  O   UNL     1     -12.364   6.508  71.798  1.00  0.00    -0.347 OA 
HETATM    9  OXT UNL     1     -10.842   7.914  71.013  1.00  0.00    -0.229 OA 
HETATM   10  H1  UNL     1     -12.278   6.939  68.429  1.00  0.00     0.000 HD 
HETATM   11  H2  UNL     1     -11.110   5.975  67.683  1.00  0.00     0.000 HD 
ENDBRANCH   4   5
ENDBRANCH   3   4
ENDBRANCH   2   3
TORSDOF 3
ENDMDL
MODEL      193
REMARK 921   NORMALIZED FREE ENERGY PREDICTED BY IDOCK:   -1.83 KCAL/MOL
REMARK 922        TOTAL FREE ENERGY PREDICTED BY IDOCK:   -2.39 KCAL/MOL
REMARK 923 INTER-LIGAND FREE ENERGY PREDICTED BY IDOCK:   -2.34 KCAL/MOL
REMARK 924 INTRA-LIGAND FREE ENERGY PREDICTED BY IDOCK:   -0.05 KCAL/MOL
REMARK 927      BINDING AFFINITY PREDICTED BY RF-SCORE:    0.00 PKD
ROOT
HETATM    1  C   UNL     1      -9.457   6.286  70.422  1.00  0.00    -0.161 C  
HETATM    2 SE   UNL     1     -10.970   6.145  69.204  1.00  0.00    -0.373 Se 
ENDROOT
BRANCH   2   3
HETATM    3  C   UNL     1      -9.829   5.914  67.634  1.00  0.00    -0.121 C  
BRANCH   3   4
HETATM    4  C   UNL     1     -10.051   4.502  67.074  1.00  0.00    -0.180 C  
BRANCH   4   5
HETATM    5  CA  UNL     1     -10.045   4.391  65.531  1.00  0.00    -0.236 C  
HETATM    6  C   UNL     1      -9.102   3.320  65.023  1.00  0.00    -0.143 C  
HETATM    7  N   UNL     1     -11.395   4.153  65.017  1.00  0.00    -0.934 NA 
HETATM    8  O   UNL     1      -8.032   3.648  64.268  1.00  0.00    -0.084 OA 
HETATM    9  OXT UNL     1      -9.312   2.143  65.270  1.00  0.00    -0.111 OA 
HETATM   10  H1  UNL     1     -11.391   4.080  64.000  1.00  0.00     0.000 HD 
HETATM   11  H2  UNL     1     -12.051   4.864  65.340  1.00  0.00     0.000 HD 
ENDBRANCH   4   5
ENDBRANCH   3   4
ENDBRANCH   2   3
TORSDOF 3
ENDMDL
MODEL      194
REMARK 921   NORMALIZED FREE ENERGY PREDICTED BY IDOCK:   -1.82 KCAL/MOL
REMARK 922        TOTAL FREE ENERGY PREDICTED BY IDOCK:   -2.38 KCAL/MOL
REMARK 923 INTER-LIGAND FREE ENERGY PREDICTED BY IDOCK:   -2.24 KCAL/MOL
REMARK 924 INTRA-LIGAND FREE ENERGY PREDICTED BY IDOCK:   -0.14 KCAL/MOL
REMARK 927      BINDING AFFINITY PREDICTED BY RF-SCORE:    0.00 PKD
ROOT
HETATM    1  C   UNL     1      -8.088   8.667  69.107  1.00  0.00    -0.116 C  
HETATM    2 SE   UNL     1      -8.856   8.078  70.796  1.00  0.00    -0.142 Se 
ENDROOT
BRANCH   2   3
HETATM    3  C   UNL     1     -10.690   8.401  70.204  1.00  0.00    -0.236 C  
BRANCH   3   4
HETATM    4  C   UNL     1     -10.959   9.912  70.253  1.00  0.00    -0.366 C  
BRANCH   4   5
HETATM    5  CA  UNL     1     -11.365  10.559  68.908  1.00  0.00    -0.251 C  
HETATM    6  C   UNL     1     -10.606  11.838  68.619  1.00  0.00    -0.223 C  
HETATM    7  N   UNL     1     -11.198   9.616  67.801  1.00  0.00    -0.471 NA 
HETATM    8  O   UNL     1     -11.254  13.019  68.540  1.00  0.00    -0.241 OA 
HETATM    9  OXT UNL     1      -9.401  11.811  68.428  1.00  0.00    -0.191 OA 
HETATM   10  H1  UNL     1     -11.467  10.043  66.914  1.00  0.00     0.000 HD 
HETATM   11  H2  UNL     1     -11.704   8.746  67.967  1.00  0.00     0.000 HD 
ENDBRANCH   4   5
ENDBRANCH   3   4
ENDBRANCH   2   3
TORSDOF 3
ENDMDL
MODEL      195
REMARK 921   NORMALIZED FREE ENERGY PREDICTED BY IDOCK:   -1.82 KCAL/MOL
REMARK 922        TOTAL FREE ENERGY PREDICTED BY IDOCK:   -2.38 KCAL/MOL
REMARK 923 INTER-LIGAND FREE ENERGY PREDICTED BY IDOCK:   -2.31 KCAL/MOL
REMARK 924 INTRA-LIGAND FREE ENERGY PREDICTED BY IDOCK:   -0.07 KCAL/MOL
REMARK 927      BINDING AFFINITY PREDICTED BY RF-SCORE:    0.00 PKD
ROOT
HETATM    1  C   UNL     1      -6.368  13.423  67.717  1.00  0.00    -0.161 C  
HETATM    2 SE   UNL     1      -7.527  14.504  68.847  1.00  0.00    -0.133 Se 
ENDROOT
BRANCH   2   3
HETATM    3  C   UNL     1      -8.991  14.491  67.552  1.00  0.00    -0.188 C  
BRANCH   3   4
HETATM    4  C   UNL     1      -9.242  13.041  67.116  1.00  0.00    -0.226 C  
BRANCH   4   5
HETATM    5  CA  UNL     1     -10.552  12.405  67.640  1.00  0.00    -0.216 C  
HETATM    6  C   UNL     1     -11.711  13.380  67.660  1.00  0.00    -0.359 C  
HETATM    7  N   UNL     1     -10.908  11.219  66.859  1.00  0.00    -0.270 NA 
HETATM    8  O   UNL     1     -12.285  13.741  68.827  1.00  0.00    -0.350 OA 
HETATM    9  OXT UNL     1     -12.156  13.832  66.617  1.00  0.00    -0.411 OA 
HETATM   10  H1  UNL     1     -11.771  10.800  67.205  1.00  0.00     0.000 HD 
HETATM   11  H2  UNL     1     -10.145  10.543  66.833  1.00  0.00     0.000 HD 
ENDBRANCH   4   5
ENDBRANCH   3   4
ENDBRANCH   2   3
TORSDOF 3
ENDMDL
MODEL      196
REMARK 921   NORMALIZED FREE ENERGY PREDICTED BY IDOCK:   -1.81 KCAL/MOL
REMARK 922        TOTAL FREE ENERGY PREDICTED BY IDOCK:   -2.37 KCAL/MOL
REMARK 923 INTER-LIGAND FREE ENERGY PREDICTED BY IDOCK:   -2.23 KCAL/MOL
REMARK 924 INTRA-LIGAND FREE ENERGY PREDICTED BY IDOCK:   -0.14 KCAL/MOL
REMARK 927      BINDING AFFINITY PREDICTED BY RF-SCORE:    0.00 PKD
ROOT
HETATM    1  C   UNL     1      -7.293   7.488  66.635  1.00  0.00    -0.091 C  
HETATM    2 SE   UNL     1      -8.906   7.798  65.590  1.00  0.00     0.001 Se 
ENDROOT
BRANCH   2   3
HETATM    3  C   UNL     1     -10.082   7.605  67.139  1.00  0.00    -0.253 C  
BRANCH   3   4
HETATM    4  C   UNL     1     -10.450   6.122  67.290  1.00  0.00    -0.317 C  
BRANCH   4   5
HETATM    5  CA  UNL     1      -9.934   5.191  66.168  1.00  0.00    -0.194 C  
HETATM    6  C   UNL     1      -9.024   4.096  66.685  1.00  0.00    -0.125 C  
HETATM    7  N   UNL     1     -11.047   4.605  65.419  1.00  0.00    -0.958 NA 
HETATM    8  O   UNL     1      -7.727   4.047  66.312  1.00  0.00    -0.088 OA 
HETATM    9  OXT UNL     1      -9.459   3.230  67.427  1.00  0.00    -0.204 OA 
HETATM   10  H1  UNL     1     -10.706   3.991  64.679  1.00  0.00     0.000 HD 
HETATM   11  H2  UNL     1     -11.674   5.322  65.055  1.00  0.00     0.000 HD 
ENDBRANCH   4   5
ENDBRANCH   3   4
ENDBRANCH   2   3
TORSDOF 3
ENDMDL
MODEL      197
REMARK 921   NORMALIZED FREE ENERGY PREDICTED BY IDOCK:   -1.81 KCAL/MOL
REMARK 922        TOTAL FREE ENERGY PREDICTED BY IDOCK:   -2.37 KCAL/MOL
REMARK 923 INTER-LIGAND FREE ENERGY PREDICTED BY IDOCK:   -2.33 KCAL/MOL
REMARK 924 INTRA-LIGAND FREE ENERGY PREDICTED BY IDOCK:   -0.04 KCAL/MOL
REMARK 927      BINDING AFFINITY PREDICTED BY RF-SCORE:    0.00 PKD
ROOT
HETATM    1  C   UNL     1      -9.970  10.769  69.196  1.00  0.00    -0.187 C  
HETATM    2 SE   UNL     1      -9.284   9.916  67.587  1.00  0.00    -0.133 Se 
ENDROOT
BRANCH   2   3
HETATM    3  C   UNL     1     -10.455   8.362  67.775  1.00  0.00    -0.220 C  
BRANCH   3   4
HETATM    4  C   UNL     1     -10.086   7.628  69.071  1.00  0.00    -0.199 C  
BRANCH   4   5
HETATM    5  CA  UNL     1     -10.947   6.386  69.401  1.00  0.00    -0.359 C  
HETATM    6  C   UNL     1     -10.206   5.361  70.234  1.00  0.00    -0.267 C  
HETATM    7  N   UNL     1     -12.189   6.773  70.073  1.00  0.00    -0.589 NA 
HETATM    8  O   UNL     1      -9.943   4.133  69.737  1.00  0.00    -0.206 OA 
HETATM    9  OXT UNL     1      -9.858   5.624  71.373  1.00  0.00    -0.165 OA 
HETATM   10  H1  UNL     1     -12.757   5.954  70.290  1.00  0.00     0.000 HD 
HETATM   11  H2  UNL     1     -12.712   7.461  69.531  1.00  0.00     0.000 HD 
ENDBRANCH   4   5
ENDBRANCH   3   4
ENDBRANCH   2   3
TORSDOF 3
ENDMDL
MODEL      198
REMARK 921   NORMALIZED FREE ENERGY PREDICTED BY IDOCK:   -1.81 KCAL/MOL
REMARK 922        TOTAL FREE ENERGY PREDICTED BY IDOCK:   -2.36 KCAL/MOL
REMARK 923 INTER-LIGAND FREE ENERGY PREDICTED BY IDOCK:   -2.25 KCAL/MOL
REMARK 924 INTRA-LIGAND FREE ENERGY PREDICTED BY IDOCK:   -0.12 KCAL/MOL
REMARK 927      BINDING AFFINITY PREDICTED BY RF-SCORE:    0.00 PKD
ROOT
HETATM    1  C   UNL     1      -8.192   7.460  67.130  1.00  0.00    -0.118 C  
HETATM    2 SE   UNL     1      -9.256   8.814  66.224  1.00  0.00    -0.223 Se 
ENDROOT
BRANCH   2   3
HETATM    3  C   UNL     1     -10.384   9.136  67.788  1.00  0.00    -0.245 C  
BRANCH   3   4
HETATM    4  C   UNL     1      -9.572   8.809  69.049  1.00  0.00    -0.162 C  
BRANCH   4   5
HETATM    5  CA  UNL     1      -9.834   9.728  70.266  1.00  0.00    -0.240 C  
HETATM    6  C   UNL     1     -11.307   9.865  70.591  1.00  0.00    -0.339 C  
HETATM    7  N   UNL     1      -9.103   9.259  71.444  1.00  0.00    -0.303 NA 
HETATM    8  O   UNL     1     -11.925  11.061  70.488  1.00  0.00    -0.326 OA 
HETATM    9  OXT UNL     1     -11.948   8.900  70.975  1.00  0.00    -0.290 OA 
HETATM   10  H1  UNL     1      -9.276   9.865  72.246  1.00  0.00     0.000 HD 
HETATM   11  H2  UNL     1      -8.105   9.162  71.254  1.00  0.00     0.000 HD 
ENDBRANCH   4   5
ENDBRANCH   3   4
ENDBRANCH   2   3
TORSDOF 3
ENDMDL
MODEL      199
REMARK 921   NORMALIZED FREE ENERGY PREDICTED BY IDOCK:   -1.81 KCAL/MOL
REMARK 922        TOTAL FREE ENERGY PREDICTED BY IDOCK:   -2.36 KCAL/MOL
REMARK 923 INTER-LIGAND FREE ENERGY PREDICTED BY IDOCK:   -2.29 KCAL/MOL
REMARK 924 INTRA-LIGAND FREE ENERGY PREDICTED BY IDOCK:   -0.07 KCAL/MOL
REMARK 927      BINDING AFFINITY PREDICTED BY RF-SCORE:    0.00 PKD
ROOT
HETATM    1  C   UNL     1      -5.432  20.942  66.595  1.00  0.00    -0.199 C  
HETATM    2 SE   UNL     1      -7.257  20.731  67.239  1.00  0.00    -0.337 Se 
ENDROOT
BRANCH   2   3
HETATM    3  C   UNL     1      -7.533  19.068  66.249  1.00  0.00    -0.269 C  
BRANCH   3   4
HETATM    4  C   UNL     1      -8.981  18.606  66.467  1.00  0.00    -0.308 C  
BRANCH   4   5
HETATM    5  CA  UNL     1      -9.242  17.835  67.782  1.00  0.00    -0.256 C  
HETATM    6  C   UNL     1     -10.317  16.776  67.638  1.00  0.00    -0.309 C  
HETATM    7  N   UNL     1      -8.009  17.231  68.289  1.00  0.00    -0.234 NA 
HETATM    8  O   UNL     1     -11.473  16.873  68.328  1.00  0.00    -0.123 OA 
HETATM    9  OXT UNL     1     -10.139  15.809  66.916  1.00  0.00    -0.254 OA 
HETATM   10  H1  UNL     1      -8.182  16.722  69.157  1.00  0.00     0.000 HD 
HETATM   11  H2  UNL     1      -7.268  17.924  68.400  1.00  0.00     0.000 HD 
ENDBRANCH   4   5
ENDBRANCH   3   4
ENDBRANCH   2   3
TORSDOF 3
ENDMDL
MODEL      200
REMARK 921   NORMALIZED FREE ENERGY PREDICTED BY IDOCK:   -1.79 KCAL/MOL
REMARK 922        TOTAL FREE ENERGY PREDICTED BY IDOCK:   -2.35 KCAL/MOL
REMARK 923 INTER-LIGAND FREE ENERGY PREDICTED BY IDOCK:   -2.29 KCAL/MOL
REMARK 924 INTRA-LIGAND FREE ENERGY PREDICTED BY IDOCK:   -0.06 KCAL/MOL
REMARK 927      BINDING AFFINITY PREDICTED BY RF-SCORE:    0.00 PKD
ROOT
HETATM    1  C   UNL     1      -7.119   6.898  72.597  1.00  0.00    -0.074 C  
HETATM    2 SE   UNL     1      -7.202   8.529  71.537  1.00  0.00    -0.099 Se 
ENDROOT
BRANCH   2   3
HETATM    3  C   UNL     1      -9.023   8.171  70.924  1.00  0.00    -0.146 C  
BRANCH   3   4
HETATM    4  C   UNL     1      -9.629   9.482  70.403  1.00  0.00    -0.326 C  
BRANCH   4   5
HETATM    5  CA  UNL     1     -11.075   9.380  69.865  1.00  0.00    -0.200 C  
HETATM    6  C   UNL     1     -11.233   9.985  68.485  1.00  0.00    -0.123 C  
HETATM    7  N   UNL     1     -11.534   7.989  69.857  1.00  0.00    -0.448 NA 
HETATM    8  O   UNL     1     -12.023  11.063  68.294  1.00  0.00    -0.593 OA 
HETATM    9  OXT UNL     1     -10.667   9.489  67.524  1.00  0.00    -0.282 OA 
HETATM   10  H1  UNL     1     -12.488   7.922  69.502  1.00  0.00     0.000 HD 
HETATM   11  H2  UNL     1     -11.444   7.558  70.777  1.00  0.00     0.000 HD 
ENDBRANCH   4   5
ENDBRANCH   3   4
ENDBRANCH   2   3
TORSDOF 3
ENDMDL
MODEL      201
REMARK 921   NORMALIZED FREE ENERGY PREDICTED BY IDOCK:   -1.78 KCAL/MOL
REMARK 922        TOTAL FREE ENERGY PREDICTED BY IDOCK:   -2.33 KCAL/MOL
REMARK 923 INTER-LIGAND FREE ENERGY PREDICTED BY IDOCK:   -2.21 KCAL/MOL
REMARK 924 INTRA-LIGAND FREE ENERGY PREDICTED BY IDOCK:   -0.12 KCAL/MOL
REMARK 927      BINDING AFFINITY PREDICTED BY RF-SCORE:    0.00 PKD
ROOT
HETATM    1  C   UNL     1      -7.437  10.455  67.012  1.00  0.00    -0.097 C  
HETATM    2 SE   UNL     1      -8.475  10.027  65.422  1.00  0.00    -0.159 Se 
ENDROOT
BRANCH   2   3
HETATM    3  C   UNL     1     -10.105  10.841  66.131  1.00  0.00    -0.242 C  
BRANCH   3   4
HETATM    4  C   UNL     1     -10.101  12.333  65.771  1.00  0.00    -0.274 C  
BRANCH   4   5
HETATM    5  CA  UNL     1     -10.028  13.307  66.971  1.00  0.00    -0.238 C  
HETATM    6  C   UNL     1     -10.858  14.557  66.764  1.00  0.00    -0.305 C  
HETATM    7  N   UNL     1     -10.426  12.641  68.211  1.00  0.00    -0.233 NA 
HETATM    8  O   UNL     1     -10.267  15.769  66.690  1.00  0.00    -0.269 OA 
HETATM    9  OXT UNL     1     -12.073  14.486  66.687  1.00  0.00    -0.393 OA 
HETATM   10  H1  UNL     1     -10.377  13.283  69.003  1.00  0.00     0.000 HD 
HETATM   11  H2  UNL     1      -9.878  11.796  68.378  1.00  0.00     0.000 HD 
ENDBRANCH   4   5
ENDBRANCH   3   4
ENDBRANCH   2   3
TORSDOF 3
ENDMDL
MODEL      202
REMARK 921   NORMALIZED FREE ENERGY PREDICTED BY IDOCK:   -1.74 KCAL/MOL
REMARK 922        TOTAL FREE ENERGY PREDICTED BY IDOCK:   -2.28 KCAL/MOL
REMARK 923 INTER-LIGAND FREE ENERGY PREDICTED BY IDOCK:   -2.19 KCAL/MOL
REMARK 924 INTRA-LIGAND FREE ENERGY PREDICTED BY IDOCK:   -0.09 KCAL/MOL
REMARK 927      BINDING AFFINITY PREDICTED BY RF-SCORE:    0.00 PKD
ROOT
HETATM    1  C   UNL     1      -8.585  11.451  66.398  1.00  0.00    -0.174 C  
HETATM    2 SE   UNL     1      -9.759   9.964  65.951  1.00  0.00    -0.280 Se 
ENDROOT
BRANCH   2   3
HETATM    3  C   UNL     1     -10.999  10.357  67.410  1.00  0.00    -0.270 C  
BRANCH   3   4
HETATM    4  C   UNL     1     -10.904   9.231  68.448  1.00  0.00    -0.125 C  
BRANCH   4   5
HETATM    5  CA  UNL     1     -10.850   9.689  69.925  1.00  0.00    -0.256 C  
HETATM    6  C   UNL     1      -9.505   9.430  70.572  1.00  0.00    -0.269 C  
HETATM    7  N   UNL     1     -11.200  11.105  70.047  1.00  0.00    -0.451 NA 
HETATM    8  O   UNL     1      -9.394   8.567  71.604  1.00  0.00    -0.193 OA 
HETATM    9  OXT UNL     1      -8.509  10.018  70.183  1.00  0.00    -0.169 OA 
HETATM   10  H1  UNL     1     -11.165  11.407  71.020  1.00  0.00     0.000 HD 
HETATM   11  H2  UNL     1     -12.105  11.307  69.622  1.00  0.00     0.000 HD 
ENDBRANCH   4   5
ENDBRANCH   3   4
ENDBRANCH   2   3
TORSDOF 3
ENDMDL
MODEL      203
REMARK 921   NORMALIZED FREE ENERGY PREDICTED BY IDOCK:   -1.74 KCAL/MOL
REMARK 922        TOTAL FREE ENERGY PREDICTED BY IDOCK:   -2.28 KCAL/MOL
REMARK 923 INTER-LIGAND FREE ENERGY PREDICTED BY IDOCK:   -2.21 KCAL/MOL
REMARK 924 INTRA-LIGAND FREE ENERGY PREDICTED BY IDOCK:   -0.07 KCAL/MOL
REMARK 927      BINDING AFFINITY PREDICTED BY RF-SCORE:    0.00 PKD
ROOT
HETATM    1  C   UNL     1      -8.892   7.167  74.165  1.00  0.00    -0.210 C  
HETATM    2 SE   UNL     1      -8.236   5.927  72.815  1.00  0.00    -0.118 Se 
ENDROOT
BRANCH   2   3
HETATM    3  C   UNL     1      -9.873   6.041  71.754  1.00  0.00    -0.165 C  
BRANCH   3   4
HETATM    4  C   UNL     1      -9.568   6.826  70.470  1.00  0.00    -0.174 C  
BRANCH   4   5
HETATM    5  CA  UNL     1     -10.799   7.202  69.612  1.00  0.00    -0.234 C  
HETATM    6  C   UNL     1     -10.772   6.568  68.236  1.00  0.00    -0.278 C  
HETATM    7  N   UNL     1     -12.043   6.854  70.299  1.00  0.00    -0.627 NA 
HETATM    8  O   UNL     1     -10.687   7.334  67.128  1.00  0.00    -0.315 OA 
HETATM    9  OXT UNL     1     -10.853   5.357  68.112  1.00  0.00    -0.090 OA 
HETATM   10  H1  UNL     1     -12.855   7.103  69.733  1.00  0.00     0.000 HD 
HETATM   11  H2  UNL     1     -12.090   7.273  71.228  1.00  0.00     0.000 HD 
ENDBRANCH   4   5
ENDBRANCH   3   4
ENDBRANCH   2   3
TORSDOF 3
ENDMDL
MODEL      204
REMARK 921   NORMALIZED FREE ENERGY PREDICTED BY IDOCK:   -1.73 KCAL/MOL
REMARK 922        TOTAL FREE ENERGY PREDICTED BY IDOCK:   -2.27 KCAL/MOL
REMARK 923 INTER-LIGAND FREE ENERGY PREDICTED BY IDOCK:   -2.19 KCAL/MOL
REMARK 924 INTRA-LIGAND FREE ENERGY PREDICTED BY IDOCK:   -0.08 KCAL/MOL
REMARK 927      BINDING AFFINITY PREDICTED BY RF-SCORE:    0.00 PKD
ROOT
HETATM    1  C   UNL     1      -8.109   3.743  65.628  1.00  0.00    -0.093 C  
HETATM    2 SE   UNL     1      -8.665   5.593  65.874  1.00  0.00    -0.149 Se 
ENDROOT
BRANCH   2   3
HETATM    3  C   UNL     1     -10.456   5.092  66.476  1.00  0.00    -0.294 C  
BRANCH   3   4
HETATM    4  C   UNL     1     -10.961   6.167  67.448  1.00  0.00    -0.409 C  
BRANCH   4   5
HETATM    5  CA  UNL     1     -10.270   6.190  68.832  1.00  0.00    -0.188 C  
HETATM    6  C   UNL     1     -11.079   6.924  69.881  1.00  0.00    -0.288 C  
HETATM    7  N   UNL     1      -9.970   4.832  69.290  1.00  0.00    -0.202 NA 
HETATM    8  O   UNL     1     -10.606   8.055  70.446  1.00  0.00    -0.216 OA 
HETATM    9  OXT UNL     1     -12.158   6.487  70.246  1.00  0.00    -0.348 OA 
HETATM   10  H1  UNL     1      -9.513   4.847  70.203  1.00  0.00     0.000 HD 
HETATM   11  H2  UNL     1      -9.420   4.316  68.604  1.00  0.00     0.000 HD 
ENDBRANCH   4   5
ENDBRANCH   3   4
ENDBRANCH   2   3
TORSDOF 3
ENDMDL
MODEL      205
REMARK 921   NORMALIZED FREE ENERGY PREDICTED BY IDOCK:   -1.71 KCAL/MOL
REMARK 922        TOTAL FREE ENERGY PREDICTED BY IDOCK:   -2.24 KCAL/MOL
REMARK 923 INTER-LIGAND FREE ENERGY PREDICTED BY IDOCK:   -2.17 KCAL/MOL
REMARK 924 INTRA-LIGAND FREE ENERGY PREDICTED BY IDOCK:   -0.07 KCAL/MOL
REMARK 927      BINDING AFFINITY PREDICTED BY RF-SCORE:    0.00 PKD
ROOT
HETATM    1  C   UNL     1      -7.063  13.869  69.283  1.00  0.00    -0.027 C  
HETATM    2 SE   UNL     1      -7.733  13.954  67.458  1.00  0.00    -0.162 Se 
ENDROOT
BRANCH   2   3
HETATM    3  C   UNL     1      -9.598  14.077  68.028  1.00  0.00    -0.217 C  
BRANCH   3   4
HETATM    4  C   UNL     1     -10.238  12.687  67.904  1.00  0.00    -0.220 C  
BRANCH   4   5
HETATM    5  CA  UNL     1     -10.698  12.291  66.481  1.00  0.00    -0.246 C  
HETATM    6  C   UNL     1     -10.162  10.943  66.045  1.00  0.00    -0.254 C  
HETATM    7  N   UNL     1     -12.158  12.307  66.379  1.00  0.00    -0.612 NA 
HETATM    8  O   UNL     1      -9.313  10.847  64.999  1.00  0.00    -0.210 OA 
HETATM    9  OXT UNL     1     -10.513   9.924  66.617  1.00  0.00    -0.221 OA 
HETATM   10  H1  UNL     1     -12.461  12.046  65.441  1.00  0.00     0.000 HD 
HETATM   11  H2  UNL     1     -12.546  13.206  66.663  1.00  0.00     0.000 HD 
ENDBRANCH   4   5
ENDBRANCH   3   4
ENDBRANCH   2   3
TORSDOF 3
ENDMDL
MODEL      206
REMARK 921   NORMALIZED FREE ENERGY PREDICTED BY IDOCK:   -1.70 KCAL/MOL
REMARK 922        TOTAL FREE ENERGY PREDICTED BY IDOCK:   -2.24 KCAL/MOL
REMARK 923 INTER-LIGAND FREE ENERGY PREDICTED BY IDOCK:   -2.13 KCAL/MOL
REMARK 924 INTRA-LIGAND FREE ENERGY PREDICTED BY IDOCK:   -0.11 KCAL/MOL
REMARK 927      BINDING AFFINITY PREDICTED BY RF-SCORE:    0.00 PKD
ROOT
HETATM    1  C   UNL     1     -11.661   7.014  70.332  1.00  0.00    -0.295 C  
HETATM    2 SE   UNL     1     -10.586   8.361  71.238  1.00  0.00    -0.237 Se 
ENDROOT
BRANCH   2   3
HETATM    3  C   UNL     1     -11.074   7.716  73.017  1.00  0.00    -0.381 C  
BRANCH   3   4
HETATM    4  C   UNL     1      -9.788   7.368  73.779  1.00  0.00    -0.331 C  
BRANCH   4   5
HETATM    5  CA  UNL     1      -9.660   5.893  74.230  1.00  0.00    -0.180 C  
HETATM    6  C   UNL     1     -10.293   4.924  73.253  1.00  0.00    -0.186 C  
HETATM    7  N   UNL     1      -8.259   5.535  74.456  1.00  0.00    -0.106 NA 
HETATM    8  O   UNL     1     -11.354   4.174  73.619  1.00  0.00    -0.259 OA 
HETATM    9  OXT UNL     1      -9.834   4.790  72.130  1.00  0.00    -0.159 OA 
HETATM   10  H1  UNL     1      -8.175   4.562  74.753  1.00  0.00     0.000 HD 
HETATM   11  H2  UNL     1      -7.809   6.170  75.115  1.00  0.00     0.000 HD 
ENDBRANCH   4   5
ENDBRANCH   3   4
ENDBRANCH   2   3
TORSDOF 3
ENDMDL
MODEL      207
REMARK 921   NORMALIZED FREE ENERGY PREDICTED BY IDOCK:   -1.70 KCAL/MOL
REMARK 922        TOTAL FREE ENERGY PREDICTED BY IDOCK:   -2.24 KCAL/MOL
REMARK 923 INTER-LIGAND FREE ENERGY PREDICTED BY IDOCK:   -2.12 KCAL/MOL
REMARK 924 INTRA-LIGAND FREE ENERGY PREDICTED BY IDOCK:   -0.11 KCAL/MOL
REMARK 927      BINDING AFFINITY PREDICTED BY RF-SCORE:    0.00 PKD
ROOT
HETATM    1  C   UNL     1     -11.777  11.517  69.676  1.00  0.00    -0.351 C  
HETATM    2 SE   UNL     1     -10.645  11.421  68.095  1.00  0.00    -0.200 Se 
ENDROOT
BRANCH   2   3
HETATM    3  C   UNL     1      -9.217  10.476  69.038  1.00  0.00    -0.185 C  
BRANCH   3   4
HETATM    4  C   UNL     1      -9.855   9.494  70.030  1.00  0.00    -0.269 C  
BRANCH   4   5
HETATM    5  CA  UNL     1     -10.364   8.167  69.418  1.00  0.00    -0.218 C  
HETATM    6  C   UNL     1      -9.312   7.078  69.418  1.00  0.00    -0.146 C  
HETATM    7  N   UNL     1     -11.568   7.701  70.108  1.00  0.00    -0.483 NA 
HETATM    8  O   UNL     1      -8.841   6.577  68.256  1.00  0.00    -0.121 OA 
HETATM    9  OXT UNL     1      -8.895   6.622  70.471  1.00  0.00    -0.149 OA 
HETATM   10  H1  UNL     1     -11.904   6.826  69.705  1.00  0.00     0.000 HD 
HETATM   11  H2  UNL     1     -12.297   8.414  70.119  1.00  0.00     0.000 HD 
ENDBRANCH   4   5
ENDBRANCH   3   4
ENDBRANCH   2   3
TORSDOF 3
ENDMDL
MODEL      208
REMARK 921   NORMALIZED FREE ENERGY PREDICTED BY IDOCK:   -1.70 KCAL/MOL
REMARK 922        TOTAL FREE ENERGY PREDICTED BY IDOCK:   -2.23 KCAL/MOL
REMARK 923 INTER-LIGAND FREE ENERGY PREDICTED BY IDOCK:   -1.99 KCAL/MOL
REMARK 924 INTRA-LIGAND FREE ENERGY PREDICTED BY IDOCK:   -0.24 KCAL/MOL
REMARK 927      BINDING AFFINITY PREDICTED BY RF-SCORE:    0.00 PKD
ROOT
HETATM    1  C   UNL     1     -10.279   5.168  71.330  1.00  0.00    -0.213 C  
HETATM    2 SE   UNL     1     -11.259   5.702  72.925  1.00  0.00    -0.269 Se 
ENDROOT
BRANCH   2   3
HETATM    3  C   UNL     1     -11.101   7.608  72.522  1.00  0.00    -0.336 C  
BRANCH   3   4
HETATM    4  C   UNL     1     -10.092   7.782  71.378  1.00  0.00    -0.211 C  
BRANCH   4   5
HETATM    5  CA  UNL     1      -8.840   8.625  71.718  1.00  0.00    -0.211 C  
HETATM    6  C   UNL     1      -7.991   8.004  72.807  1.00  0.00    -0.148 C  
HETATM    7  N   UNL     1      -8.029   8.863  70.523  1.00  0.00    -0.110 NA 
HETATM    8  O   UNL     1      -7.827   8.629  73.992  1.00  0.00    -0.404 OA 
HETATM    9  OXT UNL     1      -7.422   6.941  72.616  1.00  0.00    -0.088 OA 
HETATM   10  H1  UNL     1      -7.203   9.419  70.747  1.00  0.00     0.000 HD 
HETATM   11  H2  UNL     1      -8.576   9.286  69.773  1.00  0.00     0.000 HD 
ENDBRANCH   4   5
ENDBRANCH   3   4
ENDBRANCH   2   3
TORSDOF 3
ENDMDL
MODEL      209
REMARK 921   NORMALIZED FREE ENERGY PREDICTED BY IDOCK:   -1.70 KCAL/MOL
REMARK 922        TOTAL FREE ENERGY PREDICTED BY IDOCK:   -2.23 KCAL/MOL
REMARK 923 INTER-LIGAND FREE ENERGY PREDICTED BY IDOCK:   -2.13 KCAL/MOL
REMARK 924 INTRA-LIGAND FREE ENERGY PREDICTED BY IDOCK:   -0.11 KCAL/MOL
REMARK 927      BINDING AFFINITY PREDICTED BY RF-SCORE:    0.00 PKD
ROOT
HETATM    1  C   UNL     1      -9.271   6.580  69.791  1.00  0.00    -0.145 C  
HETATM    2 SE   UNL     1     -11.019   6.235  69.006  1.00  0.00    -0.374 Se 
ENDROOT
BRANCH   2   3
HETATM    3  C   UNL     1     -10.563   7.121  67.324  1.00  0.00    -0.327 C  
BRANCH   3   4
HETATM    4  C   UNL     1     -10.653   8.639  67.533  1.00  0.00    -0.292 C  
BRANCH   4   5
HETATM    5  CA  UNL     1      -9.707   9.489  66.652  1.00  0.00    -0.211 C  
HETATM    6  C   UNL     1      -8.372   9.759  67.315  1.00  0.00    -0.121 C  
HETATM    7  N   UNL     1      -9.500   8.860  65.347  1.00  0.00    -0.454 NA 
HETATM    8  O   UNL     1      -8.006  11.019  67.635  1.00  0.00    -0.111 OA 
HETATM    9  OXT UNL     1      -7.599   8.843  67.544  1.00  0.00    -0.091 OA 
HETATM   10  H1  UNL     1      -8.877   9.421  64.766  1.00  0.00     0.000 HD 
HETATM   11  H2  UNL     1     -10.385   8.672  64.876  1.00  0.00     0.000 HD 
ENDBRANCH   4   5
ENDBRANCH   3   4
ENDBRANCH   2   3
TORSDOF 3
ENDMDL
MODEL      210
REMARK 921   NORMALIZED FREE ENERGY PREDICTED BY IDOCK:   -1.69 KCAL/MOL
REMARK 922        TOTAL FREE ENERGY PREDICTED BY IDOCK:   -2.23 KCAL/MOL
REMARK 923 INTER-LIGAND FREE ENERGY PREDICTED BY IDOCK:   -2.03 KCAL/MOL
REMARK 924 INTRA-LIGAND FREE ENERGY PREDICTED BY IDOCK:   -0.20 KCAL/MOL
REMARK 927      BINDING AFFINITY PREDICTED BY RF-SCORE:    0.00 PKD
ROOT
HETATM    1  C   UNL     1      -7.991   4.684  70.646  1.00  0.00    -0.068 C  
HETATM    2 SE   UNL     1      -9.747   3.872  70.862  1.00  0.00    -0.153 Se 
ENDROOT
BRANCH   2   3
HETATM    3  C   UNL     1     -10.409   5.334  71.978  1.00  0.00    -0.215 C  
BRANCH   3   4
HETATM    4  C   UNL     1     -11.487   6.096  71.194  1.00  0.00    -0.314 C  
BRANCH   4   5
HETATM    5  CA  UNL     1     -11.038   7.445  70.584  1.00  0.00    -0.266 C  
HETATM    6  C   UNL     1     -10.421   7.292  69.210  1.00  0.00    -0.216 C  
HETATM    7  N   UNL     1     -12.153   8.392  70.531  1.00  0.00    -0.482 NA 
HETATM    8  O   UNL     1      -9.125   7.607  69.000  1.00  0.00    -0.144 OA 
HETATM    9  OXT UNL     1     -11.095   6.907  68.269  1.00  0.00    -0.169 OA 
HETATM   10  H1  UNL     1     -11.856   9.282  70.130  1.00  0.00     0.000 HD 
HETATM   11  H2  UNL     1     -12.585   8.518  71.446  1.00  0.00     0.000 HD 
ENDBRANCH   4   5
ENDBRANCH   3   4
ENDBRANCH   2   3
TORSDOF 3
ENDMDL
MODEL      211
REMARK 921   NORMALIZED FREE ENERGY PREDICTED BY IDOCK:   -1.69 KCAL/MOL
REMARK 922        TOTAL FREE ENERGY PREDICTED BY IDOCK:   -2.22 KCAL/MOL
REMARK 923 INTER-LIGAND FREE ENERGY PREDICTED BY IDOCK:   -2.18 KCAL/MOL
REMARK 924 INTRA-LIGAND FREE ENERGY PREDICTED BY IDOCK:   -0.04 KCAL/MOL
REMARK 927      BINDING AFFINITY PREDICTED BY RF-SCORE:    0.00 PKD
ROOT
HETATM    1  C   UNL     1     -12.220   8.646  72.074  1.00  0.00    -0.373 C  
HETATM    2 SE   UNL     1     -11.183   7.050  71.666  1.00  0.00    -0.255 Se 
ENDROOT
BRANCH   2   3
HETATM    3  C   UNL     1     -11.216   7.384  69.740  1.00  0.00    -0.091 C  
BRANCH   3   4
HETATM    4  C   UNL     1     -10.255   6.401  69.059  1.00  0.00    -0.216 C  
BRANCH   4   5
HETATM    5  CA  UNL     1     -10.037   6.625  67.544  1.00  0.00    -0.160 C  
HETATM    6  C   UNL     1      -9.469   5.407  66.845  1.00  0.00    -0.135 C  
HETATM    7  N   UNL     1     -11.280   7.043  66.892  1.00  0.00    -0.621 NA 
HETATM    8  O   UNL     1      -8.245   5.449  66.278  1.00  0.00    -0.108 OA 
HETATM    9  OXT UNL     1     -10.123   4.380  66.764  1.00  0.00    -0.221 OA 
HETATM   10  H1  UNL     1     -11.136   7.191  65.893  1.00  0.00     0.000 HD 
HETATM   11  H2  UNL     1     -11.682   7.866  67.340  1.00  0.00     0.000 HD 
ENDBRANCH   4   5
ENDBRANCH   3   4
ENDBRANCH   2   3
TORSDOF 3
ENDMDL
MODEL      212
REMARK 921   NORMALIZED FREE ENERGY PREDICTED BY IDOCK:   -1.68 KCAL/MOL
REMARK 922        TOTAL FREE ENERGY PREDICTED BY IDOCK:   -2.22 KCAL/MOL
REMARK 923 INTER-LIGAND FREE ENERGY PREDICTED BY IDOCK:   -2.07 KCAL/MOL
REMARK 924 INTRA-LIGAND FREE ENERGY PREDICTED BY IDOCK:   -0.15 KCAL/MOL
REMARK 927      BINDING AFFINITY PREDICTED BY RF-SCORE:    0.00 PKD
ROOT
HETATM    1  C   UNL     1     -10.145  13.655  68.165  1.00  0.00    -0.245 C  
HETATM    2 SE   UNL     1     -11.794  12.781  68.717  1.00  0.00    -0.267 Se 
ENDROOT
BRANCH   2   3
HETATM    3  C   UNL     1     -10.916  11.060  69.012  1.00  0.00    -0.233 C  
BRANCH   3   4
HETATM    4  C   UNL     1     -11.016  10.234  67.722  1.00  0.00    -0.360 C  
BRANCH   4   5
HETATM    5  CA  UNL     1      -9.722  10.160  66.877  1.00  0.00    -0.187 C  
HETATM    6  C   UNL     1      -8.527   9.682  67.675  1.00  0.00    -0.125 C  
HETATM    7  N   UNL     1      -9.913   9.308  65.701  1.00  0.00    -0.427 NA 
HETATM    8  O   UNL     1      -7.469  10.496  67.880  1.00  0.00    -0.089 OA 
HETATM    9  OXT UNL     1      -8.494   8.547  68.121  1.00  0.00    -0.132 OA 
HETATM   10  H1  UNL     1      -9.059   9.260  65.144  1.00  0.00     0.000 HD 
HETATM   11  H2  UNL     1     -10.710   9.611  65.142  1.00  0.00     0.000 HD 
ENDBRANCH   4   5
ENDBRANCH   3   4
ENDBRANCH   2   3
TORSDOF 3
ENDMDL
MODEL      213
REMARK 921   NORMALIZED FREE ENERGY PREDICTED BY IDOCK:   -1.66 KCAL/MOL
REMARK 922        TOTAL FREE ENERGY PREDICTED BY IDOCK:   -2.19 KCAL/MOL
REMARK 923 INTER-LIGAND FREE ENERGY PREDICTED BY IDOCK:   -2.11 KCAL/MOL
REMARK 924 INTRA-LIGAND FREE ENERGY PREDICTED BY IDOCK:   -0.08 KCAL/MOL
REMARK 927      BINDING AFFINITY PREDICTED BY RF-SCORE:    0.00 PKD
ROOT
HETATM    1  C   UNL     1     -10.772   6.838  73.103  1.00  0.00    -0.296 C  
HETATM    2 SE   UNL     1     -11.962   8.141  72.281  1.00  0.00    -0.378 Se 
ENDROOT
BRANCH   2   3
HETATM    3  C   UNL     1     -11.377   7.699  70.469  1.00  0.00    -0.250 C  
BRANCH   3   4
HETATM    4  C   UNL     1     -11.159   6.182  70.383  1.00  0.00    -0.420 C  
BRANCH   4   5
HETATM    5  CA  UNL     1     -10.415   5.687  69.121  1.00  0.00    -0.269 C  
HETATM    6  C   UNL     1      -9.266   6.591  68.724  1.00  0.00    -0.131 C  
HETATM    7  N   UNL     1      -9.934   4.316  69.301  1.00  0.00    -0.110 NA 
HETATM    8  O   UNL     1      -9.291   7.256  67.549  1.00  0.00    -0.128 OA 
HETATM    9  OXT UNL     1      -8.293   6.709  69.450  1.00  0.00    -0.125 OA 
HETATM   10  H1  UNL     1      -9.443   3.989  68.468  1.00  0.00     0.000 HD 
HETATM   11  H2  UNL     1     -10.689   3.683  69.565  1.00  0.00     0.000 HD 
ENDBRANCH   4   5
ENDBRANCH   3   4
ENDBRANCH   2   3
TORSDOF 3
ENDMDL
MODEL      214
REMARK 921   NORMALIZED FREE ENERGY PREDICTED BY IDOCK:   -1.66 KCAL/MOL
REMARK 922        TOTAL FREE ENERGY PREDICTED BY IDOCK:   -2.19 KCAL/MOL
REMARK 923 INTER-LIGAND FREE ENERGY PREDICTED BY IDOCK:   -2.10 KCAL/MOL
REMARK 924 INTRA-LIGAND FREE ENERGY PREDICTED BY IDOCK:   -0.09 KCAL/MOL
REMARK 927      BINDING AFFINITY PREDICTED BY RF-SCORE:    0.00 PKD
ROOT
HETATM    1  C   UNL     1      -6.373  15.700  67.531  1.00  0.00    -0.151 C  
HETATM    2 SE   UNL     1      -7.009  15.031  69.245  1.00  0.00    -0.169 Se 
ENDROOT
BRANCH   2   3
HETATM    3  C   UNL     1      -7.796  13.426  68.454  1.00  0.00    -0.138 C  
BRANCH   3   4
HETATM    4  C   UNL     1      -9.189  13.781  67.915  1.00  0.00    -0.200 C  
BRANCH   4   5
HETATM    5  CA  UNL     1     -10.190  14.321  68.963  1.00  0.00    -0.149 C  
HETATM    6  C   UNL     1     -10.995  15.498  68.454  1.00  0.00    -0.297 C  
HETATM    7  N   UNL     1     -11.088  13.261  69.424  1.00  0.00    -0.441 NA 
HETATM    8  O   UNL     1     -10.873  16.714  69.027  1.00  0.00    -0.312 OA 
HETATM    9  OXT UNL     1     -11.785  15.355  67.534  1.00  0.00    -0.241 OA 
HETATM   10  H1  UNL     1     -11.749  13.617  70.115  1.00  0.00     0.000 HD 
HETATM   11  H2  UNL     1     -10.571  12.456  69.777  1.00  0.00     0.000 HD 
ENDBRANCH   4   5
ENDBRANCH   3   4
ENDBRANCH   2   3
TORSDOF 3
ENDMDL
MODEL      215
REMARK 921   NORMALIZED FREE ENERGY PREDICTED BY IDOCK:   -1.66 KCAL/MOL
REMARK 922        TOTAL FREE ENERGY PREDICTED BY IDOCK:   -2.18 KCAL/MOL
REMARK 923 INTER-LIGAND FREE ENERGY PREDICTED BY IDOCK:   -2.07 KCAL/MOL
REMARK 924 INTRA-LIGAND FREE ENERGY PREDICTED BY IDOCK:   -0.11 KCAL/MOL
REMARK 927      BINDING AFFINITY PREDICTED BY RF-SCORE:    0.00 PKD
ROOT
HETATM    1  C   UNL     1      -7.397   9.579  62.492  1.00  0.00    -0.102 C  
HETATM    2 SE   UNL     1      -6.941   9.029  64.303  1.00  0.00    -0.091 Se 
ENDROOT
BRANCH   2   3
HETATM    3  C   UNL     1      -8.812   8.857  64.842  1.00  0.00    -0.117 C  
BRANCH   3   4
HETATM    4  C   UNL     1      -9.130   9.965  65.856  1.00  0.00    -0.201 C  
BRANCH   4   5
HETATM    5  CA  UNL     1      -9.171  11.401  65.281  1.00  0.00    -0.129 C  
HETATM    6  C   UNL     1     -10.569  11.840  64.896  1.00  0.00    -0.294 C  
HETATM    7  N   UNL     1      -8.587  12.358  66.222  1.00  0.00    -0.409 NA 
HETATM    8  O   UNL     1     -10.875  12.106  63.608  1.00  0.00    -0.386 OA 
HETATM    9  OXT UNL     1     -11.429  11.982  65.750  1.00  0.00    -0.343 OA 
HETATM   10  H1  UNL     1      -8.613  13.305  65.843  1.00  0.00     0.000 HD 
HETATM   11  H2  UNL     1      -7.641  12.089  66.495  1.00  0.00     0.000 HD 
ENDBRANCH   4   5
ENDBRANCH   3   4
ENDBRANCH   2   3
TORSDOF 3
ENDMDL
MODEL      216
REMARK 921   NORMALIZED FREE ENERGY PREDICTED BY IDOCK:   -1.65 KCAL/MOL
REMARK 922        TOTAL FREE ENERGY PREDICTED BY IDOCK:   -2.18 KCAL/MOL
REMARK 923 INTER-LIGAND FREE ENERGY PREDICTED BY IDOCK:   -2.02 KCAL/MOL
REMARK 924 INTRA-LIGAND FREE ENERGY PREDICTED BY IDOCK:   -0.15 KCAL/MOL
REMARK 927      BINDING AFFINITY PREDICTED BY RF-SCORE:    0.00 PKD
ROOT
HETATM    1  C   UNL     1     -11.167  10.964  67.246  1.00  0.00    -0.233 C  
HETATM    2 SE   UNL     1     -10.875  11.477  69.101  1.00  0.00    -0.160 Se 
ENDROOT
BRANCH   2   3
HETATM    3  C   UNL     1     -11.975  13.086  68.947  1.00  0.00    -0.263 C  
BRANCH   3   4
HETATM    4  C   UNL     1     -11.893  13.594  67.501  1.00  0.00    -0.416 C  
BRANCH   4   5
HETATM    5  CA  UNL     1     -10.812  14.668  67.233  1.00  0.00    -0.305 C  
HETATM    6  C   UNL     1      -9.613  14.120  66.486  1.00  0.00    -0.296 C  
HETATM    7  N   UNL     1     -11.374  15.809  66.510  1.00  0.00     0.021 NA 
HETATM    8  O   UNL     1      -8.395  14.094  67.067  1.00  0.00    -0.191 OA 
HETATM    9  OXT UNL     1      -9.730  13.718  65.340  1.00  0.00    -0.182 OA 
HETATM   10  H1  UNL     1     -10.661  16.517  66.334  1.00  0.00     0.000 HD 
HETATM   11  H2  UNL     1     -12.182  16.201  66.994  1.00  0.00     0.000 HD 
ENDBRANCH   4   5
ENDBRANCH   3   4
ENDBRANCH   2   3
TORSDOF 3
ENDMDL
MODEL      217
REMARK 921   NORMALIZED FREE ENERGY PREDICTED BY IDOCK:   -1.64 KCAL/MOL
REMARK 922        TOTAL FREE ENERGY PREDICTED BY IDOCK:   -2.17 KCAL/MOL
REMARK 923 INTER-LIGAND FREE ENERGY PREDICTED BY IDOCK:   -2.05 KCAL/MOL
REMARK 924 INTRA-LIGAND FREE ENERGY PREDICTED BY IDOCK:   -0.12 KCAL/MOL
REMARK 927      BINDING AFFINITY PREDICTED BY RF-SCORE:    0.00 PKD
ROOT
HETATM    1  C   UNL     1      -5.301  15.333  70.545  1.00  0.00    -0.134 C  
HETATM    2 SE   UNL     1      -6.249  14.938  68.891  1.00  0.00    -0.089 Se 
ENDROOT
BRANCH   2   3
HETATM    3  C   UNL     1      -5.807  16.667  68.093  1.00  0.00    -0.116 C  
BRANCH   3   4
HETATM    4  C   UNL     1      -6.684  16.867  66.849  1.00  0.00    -0.252 C  
BRANCH   4   5
HETATM    5  CA  UNL     1      -8.209  16.779  67.088  1.00  0.00    -0.184 C  
HETATM    6  C   UNL     1      -8.780  18.038  67.709  1.00  0.00    -0.251 C  
HETATM    7  N   UNL     1      -8.918  16.469  65.845  1.00  0.00    -0.488 NA 
HETATM    8  O   UNL     1      -9.328  18.007  68.942  1.00  0.00    -0.254 OA 
HETATM    9  OXT UNL     1      -8.773  19.090  67.091  1.00  0.00    -0.279 OA 
HETATM   10  H1  UNL     1      -9.924  16.410  66.003  1.00  0.00     0.000 HD 
HETATM   11  H2  UNL     1      -8.556  15.621  65.407  1.00  0.00     0.000 HD 
ENDBRANCH   4   5
ENDBRANCH   3   4
ENDBRANCH   2   3
TORSDOF 3
ENDMDL
MODEL      218
REMARK 921   NORMALIZED FREE ENERGY PREDICTED BY IDOCK:   -1.64 KCAL/MOL
REMARK 922        TOTAL FREE ENERGY PREDICTED BY IDOCK:   -2.16 KCAL/MOL
REMARK 923 INTER-LIGAND FREE ENERGY PREDICTED BY IDOCK:   -2.07 KCAL/MOL
REMARK 924 INTRA-LIGAND FREE ENERGY PREDICTED BY IDOCK:   -0.10 KCAL/MOL
REMARK 927      BINDING AFFINITY PREDICTED BY RF-SCORE:    0.00 PKD
ROOT
HETATM    1  C   UNL     1      -9.251   6.048  66.306  1.00  0.00    -0.154 C  
HETATM    2 SE   UNL     1     -10.471   6.553  67.736  1.00  0.00    -0.262 Se 
ENDROOT
BRANCH   2   3
HETATM    3  C   UNL     1      -9.153   7.704  68.606  1.00  0.00    -0.135 C  
BRANCH   3   4
HETATM    4  C   UNL     1      -9.139   7.381  70.107  1.00  0.00    -0.148 C  
BRANCH   4   5
HETATM    5  CA  UNL     1     -10.254   8.053  70.943  1.00  0.00    -0.192 C  
HETATM    6  C   UNL     1     -11.320   7.075  71.394  1.00  0.00    -0.265 C  
HETATM    7  N   UNL     1      -9.692   8.751  72.100  1.00  0.00    -0.306 NA 
HETATM    8  O   UNL     1     -12.592   7.196  70.958  1.00  0.00    -0.357 OA 
HETATM    9  OXT UNL     1     -11.046   6.181  72.178  1.00  0.00    -0.247 OA 
HETATM   10  H1  UNL     1     -10.427   9.195  72.651  1.00  0.00     0.000 HD 
HETATM   11  H2  UNL     1      -8.974   9.420  71.824  1.00  0.00     0.000 HD 
ENDBRANCH   4   5
ENDBRANCH   3   4
ENDBRANCH   2   3
TORSDOF 3
ENDMDL
MODEL      219
REMARK 921   NORMALIZED FREE ENERGY PREDICTED BY IDOCK:   -1.63 KCAL/MOL
REMARK 922        TOTAL FREE ENERGY PREDICTED BY IDOCK:   -2.15 KCAL/MOL
REMARK 923 INTER-LIGAND FREE ENERGY PREDICTED BY IDOCK:   -2.03 KCAL/MOL
REMARK 924 INTRA-LIGAND FREE ENERGY PREDICTED BY IDOCK:   -0.13 KCAL/MOL
REMARK 927      BINDING AFFINITY PREDICTED BY RF-SCORE:    0.00 PKD
ROOT
HETATM    1  C   UNL     1     -11.669  15.425  68.840  1.00  0.00    -0.359 C  
HETATM    2 SE   UNL     1      -9.968  15.085  67.955  1.00  0.00    -0.220 Se 
ENDROOT
BRANCH   2   3
HETATM    3  C   UNL     1     -10.453  16.130  66.376  1.00  0.00    -0.301 C  
BRANCH   3   4
HETATM    4  C   UNL     1      -9.272  17.041  66.013  1.00  0.00    -0.177 C  
BRANCH   4   5
HETATM    5  CA  UNL     1      -8.491  17.627  67.213  1.00  0.00    -0.216 C  
HETATM    6  C   UNL     1      -7.004  17.351  67.137  1.00  0.00    -0.174 C  
HETATM    7  N   UNL     1      -8.727  19.066  67.339  1.00  0.00    -0.276 NA 
HETATM    8  O   UNL     1      -6.400  16.580  68.067  1.00  0.00    -0.121 OA 
HETATM    9  OXT UNL     1      -6.328  17.843  66.248  1.00  0.00    -0.185 OA 
HETATM   10  H1  UNL     1      -8.213  19.453  68.131  1.00  0.00     0.000 HD 
HETATM   11  H2  UNL     1      -9.723  19.281  67.397  1.00  0.00     0.000 HD 
ENDBRANCH   4   5
ENDBRANCH   3   4
ENDBRANCH   2   3
TORSDOF 3
ENDMDL
MODEL      220
REMARK 921   NORMALIZED FREE ENERGY PREDICTED BY IDOCK:   -1.62 KCAL/MOL
REMARK 922        TOTAL FREE ENERGY PREDICTED BY IDOCK:   -2.15 KCAL/MOL
REMARK 923 INTER-LIGAND FREE ENERGY PREDICTED BY IDOCK:   -2.09 KCAL/MOL
REMARK 924 INTRA-LIGAND FREE ENERGY PREDICTED BY IDOCK:   -0.06 KCAL/MOL
REMARK 927      BINDING AFFINITY PREDICTED BY RF-SCORE:    0.00 PKD
ROOT
HETATM    1  C   UNL     1      -6.768  12.090  66.834  1.00  0.00    -0.040 C  
HETATM    2 SE   UNL     1      -7.720  12.720  68.411  1.00  0.00    -0.118 Se 
ENDROOT
BRANCH   2   3
HETATM    3  C   UNL     1      -8.522  10.972  68.763  1.00  0.00    -0.144 C  
BRANCH   3   4
HETATM    4  C   UNL     1      -9.947  11.188  69.294  1.00  0.00    -0.034 C  
BRANCH   4   5
HETATM    5  CA  UNL     1     -10.957  10.064  68.964  1.00  0.00    -0.212 C  
HETATM    6  C   UNL     1     -11.137   9.083  70.104  1.00  0.00    -0.207 C  
HETATM    7  N   UNL     1     -12.253  10.623  68.575  1.00  0.00    -0.801 NA 
HETATM    8  O   UNL     1     -10.775   7.790  69.960  1.00  0.00    -0.239 OA 
HETATM    9  OXT UNL     1     -11.634   9.444  71.158  1.00  0.00    -0.290 OA 
HETATM   10  H1  UNL     1     -12.920   9.882  68.357  1.00  0.00     0.000 HD 
HETATM   11  H2  UNL     1     -12.162  11.285  67.805  1.00  0.00     0.000 HD 
ENDBRANCH   4   5
ENDBRANCH   3   4
ENDBRANCH   2   3
TORSDOF 3
ENDMDL
MODEL      221
REMARK 921   NORMALIZED FREE ENERGY PREDICTED BY IDOCK:   -1.60 KCAL/MOL
REMARK 922        TOTAL FREE ENERGY PREDICTED BY IDOCK:   -2.12 KCAL/MOL
REMARK 923 INTER-LIGAND FREE ENERGY PREDICTED BY IDOCK:   -2.08 KCAL/MOL
REMARK 924 INTRA-LIGAND FREE ENERGY PREDICTED BY IDOCK:   -0.04 KCAL/MOL
REMARK 927      BINDING AFFINITY PREDICTED BY RF-SCORE:    0.00 PKD
ROOT
HETATM    1  C   UNL     1     -12.011  13.043  63.463  1.00  0.00    -0.545 C  
HETATM    2 SE   UNL     1     -11.471  14.278  64.868  1.00  0.00    -0.399 Se 
ENDROOT
BRANCH   2   3
HETATM    3  C   UNL     1     -10.238  12.995  65.677  1.00  0.00    -0.287 C  
BRANCH   3   4
HETATM    4  C   UNL     1      -9.598  13.647  66.911  1.00  0.00    -0.262 C  
BRANCH   4   5
HETATM    5  CA  UNL     1      -9.106  12.667  68.002  1.00  0.00    -0.207 C  
HETATM    6  C   UNL     1      -7.892  13.179  68.748  1.00  0.00     0.018 C  
HETATM    7  N   UNL     1     -10.179  12.353  68.946  1.00  0.00    -0.423 NA 
HETATM    8  O   UNL     1      -6.712  12.527  68.670  1.00  0.00    -0.075 OA 
HETATM    9  OXT UNL     1      -7.972  14.175  69.449  1.00  0.00     0.099 OA 
HETATM   10  H1  UNL     1      -9.855  11.706  69.666  1.00  0.00     0.000 HD 
HETATM   11  H2  UNL     1     -11.010  12.000  68.470  1.00  0.00     0.000 HD 
ENDBRANCH   4   5
ENDBRANCH   3   4
ENDBRANCH   2   3
TORSDOF 3
ENDMDL
MODEL      222
REMARK 921   NORMALIZED FREE ENERGY PREDICTED BY IDOCK:   -1.58 KCAL/MOL
REMARK 922        TOTAL FREE ENERGY PREDICTED BY IDOCK:   -2.09 KCAL/MOL
REMARK 923 INTER-LIGAND FREE ENERGY PREDICTED BY IDOCK:   -2.00 KCAL/MOL
REMARK 924 INTRA-LIGAND FREE ENERGY PREDICTED BY IDOCK:   -0.09 KCAL/MOL
REMARK 927      BINDING AFFINITY PREDICTED BY RF-SCORE:    0.00 PKD
ROOT
HETATM    1  C   UNL     1     -12.203  14.167  66.688  1.00  0.00    -0.418 C  
HETATM    2 SE   UNL     1     -11.468  12.520  65.955  1.00  0.00    -0.392 Se 
ENDROOT
BRANCH   2   3
HETATM    3  C   UNL     1     -11.346  11.661  67.707  1.00  0.00    -0.288 C  
BRANCH   3   4
HETATM    4  C   UNL     1      -9.869  11.607  68.121  1.00  0.00    -0.191 C  
BRANCH   4   5
HETATM    5  CA  UNL     1      -9.035  10.482  67.465  1.00  0.00    -0.135 C  
HETATM    6  C   UNL     1      -8.047  11.005  66.442  1.00  0.00    -0.166 C  
HETATM    7  N   UNL     1      -8.335   9.690  68.477  1.00  0.00    -0.116 NA 
HETATM    8  O   UNL     1      -8.165  10.669  65.139  1.00  0.00    -0.159 OA 
HETATM    9  OXT UNL     1      -7.118  11.716  66.787  1.00  0.00    -0.137 OA 
HETATM   10  H1  UNL     1      -7.785   8.948  68.044  1.00  0.00     0.000 HD 
HETATM   11  H2  UNL     1      -8.978   9.321  69.177  1.00  0.00     0.000 HD 
ENDBRANCH   4   5
ENDBRANCH   3   4
ENDBRANCH   2   3
TORSDOF 3
ENDMDL
MODEL      223
REMARK 921   NORMALIZED FREE ENERGY PREDICTED BY IDOCK:   -1.57 KCAL/MOL
REMARK 922        TOTAL FREE ENERGY PREDICTED BY IDOCK:   -2.09 KCAL/MOL
REMARK 923 INTER-LIGAND FREE ENERGY PREDICTED BY IDOCK:   -1.89 KCAL/MOL
REMARK 924 INTRA-LIGAND FREE ENERGY PREDICTED BY IDOCK:   -0.20 KCAL/MOL
REMARK 927      BINDING AFFINITY PREDICTED BY RF-SCORE:    0.00 PKD
ROOT
HETATM    1  C   UNL     1      -6.724   9.369  66.378  1.00  0.00    -0.075 C  
HETATM    2 SE   UNL     1      -8.089  10.750  66.231  1.00  0.00    -0.161 Se 
ENDROOT
BRANCH   2   3
HETATM    3  C   UNL     1      -9.461   9.489  65.641  1.00  0.00    -0.261 C  
BRANCH   3   4
HETATM    4  C   UNL     1      -9.245   8.156  66.371  1.00  0.00    -0.250 C  
BRANCH   4   5
HETATM    5  CA  UNL     1     -10.162   7.909  67.592  1.00  0.00    -0.226 C  
HETATM    6  C   UNL     1      -9.394   7.481  68.826  1.00  0.00    -0.147 C  
HETATM    7  N   UNL     1     -10.968   9.094  67.889  1.00  0.00    -0.498 NA 
HETATM    8  O   UNL     1      -9.586   6.258  69.364  1.00  0.00    -0.141 OA 
HETATM    9  OXT UNL     1      -8.611   8.248  69.363  1.00  0.00    -0.131 OA 
HETATM   10  H1  UNL     1     -11.573   8.931  68.695  1.00  0.00     0.000 HD 
HETATM   11  H2  UNL     1     -11.500   9.402  67.075  1.00  0.00     0.000 HD 
ENDBRANCH   4   5
ENDBRANCH   3   4
ENDBRANCH   2   3
TORSDOF 3
ENDMDL
MODEL      224
REMARK 921   NORMALIZED FREE ENERGY PREDICTED BY IDOCK:   -1.56 KCAL/MOL
REMARK 922        TOTAL FREE ENERGY PREDICTED BY IDOCK:   -2.08 KCAL/MOL
REMARK 923 INTER-LIGAND FREE ENERGY PREDICTED BY IDOCK:   -2.00 KCAL/MOL
REMARK 924 INTRA-LIGAND FREE ENERGY PREDICTED BY IDOCK:   -0.08 KCAL/MOL
REMARK 927      BINDING AFFINITY PREDICTED BY RF-SCORE:    0.00 PKD
ROOT
HETATM    1  C   UNL     1     -11.535   6.457  70.038  1.00  0.00    -0.428 C  
HETATM    2 SE   UNL     1     -11.056   8.209  70.738  1.00  0.00    -0.259 Se 
ENDROOT
BRANCH   2   3
HETATM    3  C   UNL     1     -11.510   7.723  72.576  1.00  0.00    -0.373 C  
BRANCH   3   4
HETATM    4  C   UNL     1     -10.208   7.575  73.376  1.00  0.00    -0.399 C  
BRANCH   4   5
HETATM    5  CA  UNL     1      -9.329   6.360  72.997  1.00  0.00    -0.135 C  
HETATM    6  C   UNL     1      -7.846   6.657  73.088  1.00  0.00    -0.098 C  
HETATM    7  N   UNL     1      -9.659   5.197  73.823  1.00  0.00    -0.132 NA 
HETATM    8  O   UNL     1      -7.071   6.629  71.983  1.00  0.00    -0.077 OA 
HETATM    9  OXT UNL     1      -7.330   6.901  74.166  1.00  0.00    -0.095 OA 
HETATM   10  H1  UNL     1      -9.079   4.396  73.572  1.00  0.00     0.000 HD 
HETATM   11  H2  UNL     1     -10.652   4.972  73.776  1.00  0.00     0.000 HD 
ENDBRANCH   4   5
ENDBRANCH   3   4
ENDBRANCH   2   3
TORSDOF 3
ENDMDL
MODEL      225
REMARK 921   NORMALIZED FREE ENERGY PREDICTED BY IDOCK:   -1.55 KCAL/MOL
REMARK 922        TOTAL FREE ENERGY PREDICTED BY IDOCK:   -2.06 KCAL/MOL
REMARK 923 INTER-LIGAND FREE ENERGY PREDICTED BY IDOCK:   -2.01 KCAL/MOL
REMARK 924 INTRA-LIGAND FREE ENERGY PREDICTED BY IDOCK:   -0.04 KCAL/MOL
REMARK 927      BINDING AFFINITY PREDICTED BY RF-SCORE:    0.00 PKD
ROOT
HETATM    1  C   UNL     1     -10.927  11.062  67.268  1.00  0.00    -0.297 C  
HETATM    2 SE   UNL     1      -9.943  10.876  68.937  1.00  0.00    -0.179 Se 
ENDROOT
BRANCH   2   3
HETATM    3  C   UNL     1     -10.612   9.067  69.260  1.00  0.00    -0.213 C  
BRANCH   3   4
HETATM    4  C   UNL     1      -9.640   8.067  68.619  1.00  0.00    -0.150 C  
BRANCH   4   5
HETATM    5  CA  UNL     1     -10.063   7.521  67.235  1.00  0.00    -0.231 C  
HETATM    6  C   UNL     1      -8.889   7.037  66.410  1.00  0.00    -0.145 C  
HETATM    7  N   UNL     1     -11.053   6.451  67.375  1.00  0.00    -0.572 NA 
HETATM    8  O   UNL     1      -8.566   7.648  65.250  1.00  0.00    -0.119 OA 
HETATM    9  OXT UNL     1      -8.236   6.072  66.772  1.00  0.00    -0.105 OA 
HETATM   10  H1  UNL     1     -11.332   6.091  66.462  1.00  0.00     0.000 HD 
HETATM   11  H2  UNL     1     -11.858   6.752  67.923  1.00  0.00     0.000 HD 
ENDBRANCH   4   5
ENDBRANCH   3   4
ENDBRANCH   2   3
TORSDOF 3
ENDMDL
MODEL      226
REMARK 921   NORMALIZED FREE ENERGY PREDICTED BY IDOCK:   -1.53 KCAL/MOL
REMARK 922        TOTAL FREE ENERGY PREDICTED BY IDOCK:   -2.03 KCAL/MOL
REMARK 923 INTER-LIGAND FREE ENERGY PREDICTED BY IDOCK:   -1.98 KCAL/MOL
REMARK 924 INTRA-LIGAND FREE ENERGY PREDICTED BY IDOCK:   -0.06 KCAL/MOL
REMARK 927      BINDING AFFINITY PREDICTED BY RF-SCORE:    0.00 PKD
ROOT
HETATM    1  C   UNL     1      -6.757   2.000  66.469  1.00  0.00    -0.038 C  
HETATM    2 SE   UNL     1      -8.352   2.946  65.875  1.00  0.00    -0.096 Se 
ENDROOT
BRANCH   2   3
HETATM    3  C   UNL     1      -8.554   3.899  67.570  1.00  0.00    -0.101 C  
BRANCH   3   4
HETATM    4  C   UNL     1      -8.990   5.340  67.269  1.00  0.00    -0.111 C  
BRANCH   4   5
HETATM    5  CA  UNL     1     -10.440   5.695  67.676  1.00  0.00    -0.219 C  
HETATM    6  C   UNL     1     -10.504   6.738  68.772  1.00  0.00    -0.208 C  
HETATM    7  N   UNL     1     -11.216   6.138  66.517  1.00  0.00    -0.744 NA 
HETATM    8  O   UNL     1     -11.022   6.434  69.981  1.00  0.00    -0.270 OA 
HETATM    9  OXT UNL     1     -10.111   7.875  68.567  1.00  0.00    -0.186 OA 
HETATM   10  H1  UNL     1     -12.172   6.371  66.785  1.00  0.00     0.000 HD 
HETATM   11  H2  UNL     1     -11.194   5.450  65.764  1.00  0.00     0.000 HD 
ENDBRANCH   4   5
ENDBRANCH   3   4
ENDBRANCH   2   3
TORSDOF 3
ENDMDL
MODEL      227
REMARK 921   NORMALIZED FREE ENERGY PREDICTED BY IDOCK:   -1.52 KCAL/MOL
REMARK 922        TOTAL FREE ENERGY PREDICTED BY IDOCK:   -2.02 KCAL/MOL
REMARK 923 INTER-LIGAND FREE ENERGY PREDICTED BY IDOCK:   -1.95 KCAL/MOL
REMARK 924 INTRA-LIGAND FREE ENERGY PREDICTED BY IDOCK:   -0.07 KCAL/MOL
REMARK 927      BINDING AFFINITY PREDICTED BY RF-SCORE:    0.00 PKD
ROOT
HETATM    1  C   UNL     1      -6.151   9.210  65.927  1.00  0.00    -0.052 C  
HETATM    2 SE   UNL     1      -7.601  10.247  66.709  1.00  0.00    -0.111 Se 
ENDROOT
BRANCH   2   3
HETATM    3  C   UNL     1      -8.455   8.673  67.493  1.00  0.00    -0.124 C  
BRANCH   3   4
HETATM    4  C   UNL     1      -9.030   9.061  68.863  1.00  0.00    -0.140 C  
BRANCH   4   5
HETATM    5  CA  UNL     1     -10.552   8.847  69.030  1.00  0.00    -0.183 C  
HETATM    6  C   UNL     1     -11.026   9.084  70.450  1.00  0.00    -0.247 C  
HETATM    7  N   UNL     1     -11.306   9.694  68.103  1.00  0.00    -0.500 NA 
HETATM    8  O   UNL     1     -11.549   8.074  71.177  1.00  0.00    -0.276 OA 
HETATM    9  OXT UNL     1     -10.963  10.197  70.944  1.00  0.00    -0.318 OA 
HETATM   10  H1  UNL     1     -12.310   9.552  68.214  1.00  0.00     0.000 HD 
HETATM   11  H2  UNL     1     -11.010   9.551  67.138  1.00  0.00     0.000 HD 
ENDBRANCH   4   5
ENDBRANCH   3   4
ENDBRANCH   2   3
TORSDOF 3
ENDMDL
MODEL      228
REMARK 921   NORMALIZED FREE ENERGY PREDICTED BY IDOCK:   -1.50 KCAL/MOL
REMARK 922        TOTAL FREE ENERGY PREDICTED BY IDOCK:   -2.00 KCAL/MOL
REMARK 923 INTER-LIGAND FREE ENERGY PREDICTED BY IDOCK:   -1.94 KCAL/MOL
REMARK 924 INTRA-LIGAND FREE ENERGY PREDICTED BY IDOCK:   -0.07 KCAL/MOL
REMARK 927      BINDING AFFINITY PREDICTED BY RF-SCORE:    0.00 PKD
ROOT
HETATM    1  C   UNL     1      -9.992   8.163  71.394  1.00  0.00    -0.180 C  
HETATM    2 SE   UNL     1      -8.404   7.359  70.607  1.00  0.00    -0.129 Se 
ENDROOT
BRANCH   2   3
HETATM    3  C   UNL     1      -9.153   7.375  68.802  1.00  0.00    -0.131 C  
BRANCH   3   4
HETATM    4  C   UNL     1     -10.023   8.631  68.646  1.00  0.00    -0.197 C  
BRANCH   4   5
HETATM    5  CA  UNL     1     -10.337   9.047  67.190  1.00  0.00    -0.272 C  
HETATM    6  C   UNL     1      -9.962  10.484  66.895  1.00  0.00    -0.200 C  
HETATM    7  N   UNL     1      -9.680   8.152  66.236  1.00  0.00    -0.409 NA 
HETATM    8  O   UNL     1     -10.911  11.391  66.580  1.00  0.00    -0.282 OA 
HETATM    9  OXT UNL     1      -8.793  10.834  66.915  1.00  0.00    -0.137 OA 
HETATM   10  H1  UNL     1      -9.887   8.426  65.275  1.00  0.00     0.000 HD 
HETATM   11  H2  UNL     1      -9.919   7.175  66.409  1.00  0.00     0.000 HD 
ENDBRANCH   4   5
ENDBRANCH   3   4
ENDBRANCH   2   3
TORSDOF 3
ENDMDL
MODEL      229
REMARK 921   NORMALIZED FREE ENERGY PREDICTED BY IDOCK:   -1.50 KCAL/MOL
REMARK 922        TOTAL FREE ENERGY PREDICTED BY IDOCK:   -2.00 KCAL/MOL
REMARK 923 INTER-LIGAND FREE ENERGY PREDICTED BY IDOCK:   -1.89 KCAL/MOL
REMARK 924 INTRA-LIGAND FREE ENERGY PREDICTED BY IDOCK:   -0.11 KCAL/MOL
REMARK 927      BINDING AFFINITY PREDICTED BY RF-SCORE:    0.00 PKD
ROOT
HETATM    1  C   UNL     1      -8.542   3.152  67.005  1.00  0.00    -0.113 C  
HETATM    2 SE   UNL     1      -9.053   4.782  67.938  1.00  0.00    -0.122 Se 
ENDROOT
BRANCH   2   3
HETATM    3  C   UNL     1     -10.453   5.217  66.644  1.00  0.00    -0.290 C  
BRANCH   3   4
HETATM    4  C   UNL     1     -11.152   6.506  67.098  1.00  0.00    -0.434 C  
BRANCH   4   5
HETATM    5  CA  UNL     1     -10.218   7.616  67.636  1.00  0.00    -0.214 C  
HETATM    6  C   UNL     1      -9.933   8.692  66.608  1.00  0.00    -0.287 C  
HETATM    7  N   UNL     1     -10.766   8.218  68.852  1.00  0.00    -0.404 NA 
HETATM    8  O   UNL     1      -8.680   8.884  66.145  1.00  0.00    -0.137 OA 
HETATM    9  OXT UNL     1     -10.830   9.415  66.206  1.00  0.00     0.107 OA 
HETATM   10  H1  UNL     1     -10.150   8.950  69.207  1.00  0.00     0.000 HD 
HETATM   11  H2  UNL     1     -10.963   7.515  69.565  1.00  0.00     0.000 HD 
ENDBRANCH   4   5
ENDBRANCH   3   4
ENDBRANCH   2   3
TORSDOF 3
ENDMDL
MODEL      230
REMARK 921   NORMALIZED FREE ENERGY PREDICTED BY IDOCK:   -1.49 KCAL/MOL
REMARK 922        TOTAL FREE ENERGY PREDICTED BY IDOCK:   -1.99 KCAL/MOL
REMARK 923 INTER-LIGAND FREE ENERGY PREDICTED BY IDOCK:   -1.91 KCAL/MOL
REMARK 924 INTRA-LIGAND FREE ENERGY PREDICTED BY IDOCK:   -0.09 KCAL/MOL
REMARK 927      BINDING AFFINITY PREDICTED BY RF-SCORE:    0.00 PKD
ROOT
HETATM    1  C   UNL     1      -7.083   6.789  71.313  1.00  0.00    -0.075 C  
HETATM    2 SE   UNL     1      -6.619   8.402  70.326  1.00  0.00    -0.036 Se 
ENDROOT
BRANCH   2   3
HETATM    3  C   UNL     1      -7.492   7.786  68.689  1.00  0.00    -0.100 C  
BRANCH   3   4
HETATM    4  C   UNL     1      -8.918   7.336  69.037  1.00  0.00    -0.134 C  
BRANCH   4   5
HETATM    5  CA  UNL     1     -10.048   8.287  68.575  1.00  0.00    -0.197 C  
HETATM    6  C   UNL     1     -10.444   8.070  67.130  1.00  0.00    -0.338 C  
HETATM    7  N   UNL     1     -11.222   8.166  69.441  1.00  0.00    -0.426 NA 
HETATM    8  O   UNL     1     -10.255   9.042  66.212  1.00  0.00    -0.284 OA 
HETATM    9  OXT UNL     1     -10.963   7.022  66.782  1.00  0.00    -0.317 OA 
HETATM   10  H1  UNL     1     -11.966   8.793  69.137  1.00  0.00     0.000 HD 
HETATM   11  H2  UNL     1     -10.983   8.312  70.422  1.00  0.00     0.000 HD 
ENDBRANCH   4   5
ENDBRANCH   3   4
ENDBRANCH   2   3
TORSDOF 3
ENDMDL
MODEL      231
REMARK 921   NORMALIZED FREE ENERGY PREDICTED BY IDOCK:   -1.49 KCAL/MOL
REMARK 922        TOTAL FREE ENERGY PREDICTED BY IDOCK:   -1.99 KCAL/MOL
REMARK 923 INTER-LIGAND FREE ENERGY PREDICTED BY IDOCK:   -1.91 KCAL/MOL
REMARK 924 INTRA-LIGAND FREE ENERGY PREDICTED BY IDOCK:   -0.08 KCAL/MOL
REMARK 927      BINDING AFFINITY PREDICTED BY RF-SCORE:    0.00 PKD
ROOT
HETATM    1  C   UNL     1      -7.929  11.509  66.820  1.00  0.00    -0.152 C  
HETATM    2 SE   UNL     1      -9.045  10.250  65.840  1.00  0.00    -0.172 Se 
ENDROOT
BRANCH   2   3
HETATM    3  C   UNL     1     -10.262   9.983  67.346  1.00  0.00    -0.219 C  
BRANCH   3   4
HETATM    4  C   UNL     1     -10.593   8.487  67.445  1.00  0.00    -0.304 C  
BRANCH   4   5
HETATM    5  CA  UNL     1     -10.174   7.799  68.766  1.00  0.00    -0.201 C  
HETATM    6  C   UNL     1     -10.569   6.338  68.818  1.00  0.00    -0.262 C  
HETATM    7  N   UNL     1      -8.735   7.938  68.995  1.00  0.00    -0.138 NA 
HETATM    8  O   UNL     1     -11.461   5.899  69.731  1.00  0.00    -0.307 OA 
HETATM    9  OXT UNL     1     -10.066   5.534  68.049  1.00  0.00    -0.153 OA 
HETATM   10  H1  UNL     1      -8.459   7.484  69.866  1.00  0.00     0.000 HD 
HETATM   11  H2  UNL     1      -8.442   8.914  68.970  1.00  0.00     0.000 HD 
ENDBRANCH   4   5
ENDBRANCH   3   4
ENDBRANCH   2   3
TORSDOF 3
ENDMDL
MODEL      232
REMARK 921   NORMALIZED FREE ENERGY PREDICTED BY IDOCK:   -1.48 KCAL/MOL
REMARK 922        TOTAL FREE ENERGY PREDICTED BY IDOCK:   -1.98 KCAL/MOL
REMARK 923 INTER-LIGAND FREE ENERGY PREDICTED BY IDOCK:   -1.85 KCAL/MOL
REMARK 924 INTRA-LIGAND FREE ENERGY PREDICTED BY IDOCK:   -0.13 KCAL/MOL
REMARK 927      BINDING AFFINITY PREDICTED BY RF-SCORE:    0.00 PKD
ROOT
HETATM    1  C   UNL     1     -10.637   3.054  63.613  1.00  0.00    -0.221 C  
HETATM    2 SE   UNL     1      -9.391   4.396  64.273  1.00  0.00    -0.085 Se 
ENDROOT
BRANCH   2   3
HETATM    3  C   UNL     1      -9.951   4.165  66.131  1.00  0.00    -0.173 C  
BRANCH   3   4
HETATM    4  C   UNL     1     -10.779   5.389  66.547  1.00  0.00    -0.309 C  
BRANCH   4   5
HETATM    5  CA  UNL     1     -10.079   6.365  67.523  1.00  0.00    -0.155 C  
HETATM    6  C   UNL     1      -9.118   7.305  66.826  1.00  0.00    -0.148 C  
HETATM    7  N   UNL     1     -11.062   7.132  68.290  1.00  0.00    -0.479 NA 
HETATM    8  O   UNL     1      -7.795   7.255  67.091  1.00  0.00    -0.106 OA 
HETATM    9  OXT UNL     1      -9.531   8.136  66.034  1.00  0.00    -0.176 OA 
HETATM   10  H1  UNL     1     -10.601   7.775  68.934  1.00  0.00     0.000 HD 
HETATM   11  H2  UNL     1     -11.721   6.522  68.775  1.00  0.00     0.000 HD 
ENDBRANCH   4   5
ENDBRANCH   3   4
ENDBRANCH   2   3
TORSDOF 3
ENDMDL
MODEL      233
REMARK 921   NORMALIZED FREE ENERGY PREDICTED BY IDOCK:   -1.48 KCAL/MOL
REMARK 922        TOTAL FREE ENERGY PREDICTED BY IDOCK:   -1.98 KCAL/MOL
REMARK 923 INTER-LIGAND FREE ENERGY PREDICTED BY IDOCK:   -1.87 KCAL/MOL
REMARK 924 INTRA-LIGAND FREE ENERGY PREDICTED BY IDOCK:   -0.11 KCAL/MOL
REMARK 927      BINDING AFFINITY PREDICTED BY RF-SCORE:    0.00 PKD
ROOT
HETATM    1  C   UNL     1      -6.311   7.058  71.997  1.00  0.00    -0.044 C  
HETATM    2 SE   UNL     1      -7.606   8.497  71.793  1.00  0.00    -0.092 Se 
ENDROOT
BRANCH   2   3
HETATM    3  C   UNL     1      -8.796   7.420  70.678  1.00  0.00    -0.150 C  
BRANCH   3   4
HETATM    4  C   UNL     1      -9.015   6.065  71.367  1.00  0.00    -0.145 C  
BRANCH   4   5
HETATM    5  CA  UNL     1     -10.490   5.689  71.642  1.00  0.00    -0.228 C  
HETATM    6  C   UNL     1     -10.870   5.830  73.101  1.00  0.00    -0.276 C  
HETATM    7  N   UNL     1     -11.397   6.481  70.809  1.00  0.00    -0.321 NA 
HETATM    8  O   UNL     1     -11.229   4.748  73.825  1.00  0.00    -0.298 OA 
HETATM    9  OXT UNL     1     -10.882   6.928  73.633  1.00  0.00    -0.315 OA 
HETATM   10  H1  UNL     1     -12.370   6.232  70.990  1.00  0.00     0.000 HD 
HETATM   11  H2  UNL     1     -11.166   6.400  69.818  1.00  0.00     0.000 HD 
ENDBRANCH   4   5
ENDBRANCH   3   4
ENDBRANCH   2   3
TORSDOF 3
ENDMDL
MODEL      234
REMARK 921   NORMALIZED FREE ENERGY PREDICTED BY IDOCK:   -1.47 KCAL/MOL
REMARK 922        TOTAL FREE ENERGY PREDICTED BY IDOCK:   -1.97 KCAL/MOL
REMARK 923 INTER-LIGAND FREE ENERGY PREDICTED BY IDOCK:   -1.87 KCAL/MOL
REMARK 924 INTRA-LIGAND FREE ENERGY PREDICTED BY IDOCK:   -0.10 KCAL/MOL
REMARK 927      BINDING AFFINITY PREDICTED BY RF-SCORE:    0.00 PKD
ROOT
HETATM    1  C   UNL     1      -8.608   4.021  72.189  1.00  0.00    -0.105 C  
HETATM    2 SE   UNL     1      -9.651   3.735  70.570  1.00  0.00    -0.169 Se 
ENDROOT
BRANCH   2   3
HETATM    3  C   UNL     1      -8.979   5.360  69.715  1.00  0.00    -0.124 C  
BRANCH   3   4
HETATM    4  C   UNL     1     -10.176   6.169  69.198  1.00  0.00    -0.242 C  
BRANCH   4   5
HETATM    5  CA  UNL     1      -9.931   6.956  67.888  1.00  0.00    -0.147 C  
HETATM    6  C   UNL     1      -9.756   6.053  66.685  1.00  0.00    -0.157 C  
HETATM    7  N   UNL     1     -11.010   7.914  67.643  1.00  0.00    -0.512 NA 
HETATM    8  O   UNL     1      -8.583   6.018  66.017  1.00  0.00    -0.136 OA 
HETATM    9  OXT UNL     1     -10.682   5.364  66.289  1.00  0.00    -0.274 OA 
HETATM   10  H1  UNL     1     -10.848   8.433  66.779  1.00  0.00     0.000 HD 
HETATM   11  H2  UNL     1     -11.147   8.539  68.437  1.00  0.00     0.000 HD 
ENDBRANCH   4   5
ENDBRANCH   3   4
ENDBRANCH   2   3
TORSDOF 3
ENDMDL
MODEL      235
REMARK 921   NORMALIZED FREE ENERGY PREDICTED BY IDOCK:   -1.46 KCAL/MOL
REMARK 922        TOTAL FREE ENERGY PREDICTED BY IDOCK:   -1.96 KCAL/MOL
REMARK 923 INTER-LIGAND FREE ENERGY PREDICTED BY IDOCK:   -1.75 KCAL/MOL
REMARK 924 INTRA-LIGAND FREE ENERGY PREDICTED BY IDOCK:   -0.21 KCAL/MOL
REMARK 927      BINDING AFFINITY PREDICTED BY RF-SCORE:    0.00 PKD
ROOT
HETATM    1  C   UNL     1      -9.923  10.877  68.515  1.00  0.00    -0.182 C  
HETATM    2 SE   UNL     1      -9.394   9.224  67.635  1.00  0.00    -0.128 Se 
ENDROOT
BRANCH   2   3
HETATM    3  C   UNL     1      -8.259   8.662  69.124  1.00  0.00    -0.117 C  
BRANCH   3   4
HETATM    4  C   UNL     1      -8.834   7.367  69.713  1.00  0.00    -0.141 C  
BRANCH   4   5
HETATM    5  CA  UNL     1      -9.441   7.493  71.131  1.00  0.00    -0.158 C  
HETATM    6  C   UNL     1     -10.808   8.145  71.129  1.00  0.00    -0.232 C  
HETATM    7  N   UNL     1      -9.510   6.187  71.789  1.00  0.00    -0.151 NA 
HETATM    8  O   UNL     1     -11.003   9.333  71.740  1.00  0.00    -0.369 OA 
HETATM    9  OXT UNL     1     -11.756   7.592  70.595  1.00  0.00    -0.273 OA 
HETATM   10  H1  UNL     1      -9.910   6.270  72.724  1.00  0.00     0.000 HD 
HETATM   11  H2  UNL     1      -8.600   5.727  71.808  1.00  0.00     0.000 HD 
ENDBRANCH   4   5
ENDBRANCH   3   4
ENDBRANCH   2   3
TORSDOF 3
ENDMDL
MODEL      236
REMARK 921   NORMALIZED FREE ENERGY PREDICTED BY IDOCK:   -1.46 KCAL/MOL
REMARK 922        TOTAL FREE ENERGY PREDICTED BY IDOCK:   -1.96 KCAL/MOL
REMARK 923 INTER-LIGAND FREE ENERGY PREDICTED BY IDOCK:   -1.87 KCAL/MOL
REMARK 924 INTRA-LIGAND FREE ENERGY PREDICTED BY IDOCK:   -0.09 KCAL/MOL
REMARK 927      BINDING AFFINITY PREDICTED BY RF-SCORE:    0.00 PKD
ROOT
HETATM    1  C   UNL     1      -7.517   6.409  63.116  1.00  0.00    -0.072 C  
HETATM    2 SE   UNL     1      -7.959   6.858  64.958  1.00  0.00    -0.120 Se 
ENDROOT
BRANCH   2   3
HETATM    3  C   UNL     1      -8.772   5.115  65.306  1.00  0.00    -0.150 C  
BRANCH   3   4
HETATM    4  C   UNL     1      -8.944   4.951  66.822  1.00  0.00    -0.110 C  
BRANCH   4   5
HETATM    5  CA  UNL     1     -10.258   5.520  67.408  1.00  0.00    -0.209 C  
HETATM    6  C   UNL     1     -10.020   6.598  68.445  1.00  0.00    -0.145 C  
HETATM    7  N   UNL     1     -11.128   6.029  66.346  1.00  0.00    -0.736 NA 
HETATM    8  O   UNL     1     -10.393   6.411  69.729  1.00  0.00    -0.180 OA 
HETATM    9  OXT UNL     1      -9.512   7.661  68.127  1.00  0.00    -0.144 OA 
HETATM   10  H1  UNL     1     -11.995   6.404  66.733  1.00  0.00     0.000 HD 
HETATM   11  H2  UNL     1     -11.309   5.321  65.636  1.00  0.00     0.000 HD 
ENDBRANCH   4   5
ENDBRANCH   3   4
ENDBRANCH   2   3
TORSDOF 3
ENDMDL
MODEL      237
REMARK 921   NORMALIZED FREE ENERGY PREDICTED BY IDOCK:   -1.46 KCAL/MOL
REMARK 922        TOTAL FREE ENERGY PREDICTED BY IDOCK:   -1.96 KCAL/MOL
REMARK 923 INTER-LIGAND FREE ENERGY PREDICTED BY IDOCK:   -1.90 KCAL/MOL
REMARK 924 INTRA-LIGAND FREE ENERGY PREDICTED BY IDOCK:   -0.06 KCAL/MOL
REMARK 927      BINDING AFFINITY PREDICTED BY RF-SCORE:    0.00 PKD
ROOT
HETATM    1  C   UNL     1      -9.423  16.036  68.643  1.00  0.00    -0.224 C  
HETATM    2 SE   UNL     1     -11.006  15.655  67.575  1.00  0.00    -0.280 Se 
ENDROOT
BRANCH   2   3
HETATM    3  C   UNL     1     -10.484  13.798  67.259  1.00  0.00    -0.264 C  
BRANCH   3   4
HETATM    4  C   UNL     1      -9.005  13.770  66.850  1.00  0.00    -0.234 C  
BRANCH   4   5
HETATM    5  CA  UNL     1      -8.136  12.710  67.568  1.00  0.00    -0.178 C  
HETATM    6  C   UNL     1      -6.673  12.791  67.182  1.00  0.00     0.038 C  
HETATM    7  N   UNL     1      -8.277  12.813  69.021  1.00  0.00    -0.313 NA 
HETATM    8  O   UNL     1      -6.077  11.769  66.531  1.00  0.00    -0.127 OA 
HETATM    9  OXT UNL     1      -6.010  13.771  67.477  1.00  0.00    -0.319 OA 
HETATM   10  H1  UNL     1      -7.704  12.114  69.494  1.00  0.00     0.000 HD 
HETATM   11  H2  UNL     1      -9.254  12.757  69.309  1.00  0.00     0.000 HD 
ENDBRANCH   4   5
ENDBRANCH   3   4
ENDBRANCH   2   3
TORSDOF 3
ENDMDL
MODEL      238
REMARK 921   NORMALIZED FREE ENERGY PREDICTED BY IDOCK:   -1.46 KCAL/MOL
REMARK 922        TOTAL FREE ENERGY PREDICTED BY IDOCK:   -1.95 KCAL/MOL
REMARK 923 INTER-LIGAND FREE ENERGY PREDICTED BY IDOCK:   -2.00 KCAL/MOL
REMARK 924 INTRA-LIGAND FREE ENERGY PREDICTED BY IDOCK:    0.05 KCAL/MOL
REMARK 927      BINDING AFFINITY PREDICTED BY RF-SCORE:    0.00 PKD
ROOT
HETATM    1  C   UNL     1     -11.065  11.298  69.097  1.00  0.00    -0.253 C  
HETATM    2 SE   UNL     1     -10.133  12.377  67.773  1.00  0.00    -0.208 Se 
ENDROOT
BRANCH   2   3
HETATM    3  C   UNL     1      -8.450  11.411  68.004  1.00  0.00    -0.145 C  
BRANCH   3   4
HETATM    4  C   UNL     1      -8.547  10.076  67.252  1.00  0.00    -0.125 C  
BRANCH   4   5
HETATM    5  CA  UNL     1      -9.812   9.894  66.380  1.00  0.00    -0.227 C  
HETATM    6  C   UNL     1      -9.532  10.054  64.900  1.00  0.00    -0.293 C  
HETATM    7  N   UNL     1     -10.441   8.597  66.634  1.00  0.00    -0.257 NA 
HETATM    8  O   UNL     1     -10.093  11.064  64.201  1.00  0.00    -0.287 OA 
HETATM    9  OXT UNL     1      -8.817   9.256  64.316  1.00  0.00    -0.204 OA 
HETATM   10  H1  UNL     1     -11.275   8.478  66.059  1.00  0.00     0.000 HD 
HETATM   11  H2  UNL     1     -10.645   8.465  67.625  1.00  0.00     0.000 HD 
ENDBRANCH   4   5
ENDBRANCH   3   4
ENDBRANCH   2   3
TORSDOF 3
ENDMDL
MODEL      239
REMARK 921   NORMALIZED FREE ENERGY PREDICTED BY IDOCK:   -1.44 KCAL/MOL
REMARK 922        TOTAL FREE ENERGY PREDICTED BY IDOCK:   -1.93 KCAL/MOL
REMARK 923 INTER-LIGAND FREE ENERGY PREDICTED BY IDOCK:   -1.85 KCAL/MOL
REMARK 924 INTRA-LIGAND FREE ENERGY PREDICTED BY IDOCK:   -0.08 KCAL/MOL
REMARK 927      BINDING AFFINITY PREDICTED BY RF-SCORE:    0.00 PKD
ROOT
HETATM    1  C   UNL     1      -6.727   7.151  71.276  1.00  0.00    -0.051 C  
HETATM    2 SE   UNL     1      -6.586   8.856  70.348  1.00  0.00    -0.051 Se 
ENDROOT
BRANCH   2   3
HETATM    3  C   UNL     1      -8.516   9.163  70.381  1.00  0.00    -0.199 C  
BRANCH   3   4
HETATM    4  C   UNL     1      -9.059   9.001  68.954  1.00  0.00    -0.140 C  
BRANCH   4   5
HETATM    5  CA  UNL     1      -9.187  10.309  68.138  1.00  0.00    -0.136 C  
HETATM    6  C   UNL     1     -10.462  10.371  67.324  1.00  0.00    -0.252 C  
HETATM    7  N   UNL     1      -9.091  11.481  69.010  1.00  0.00    -0.393 NA 
HETATM    8  O   UNL     1     -10.416  10.402  65.975  1.00  0.00    -0.219 OA 
HETATM    9  OXT UNL     1     -11.548  10.420  67.879  1.00  0.00    -0.406 OA 
HETATM   10  H1  UNL     1      -9.174  12.344  68.471  1.00  0.00     0.000 HD 
HETATM   11  H2  UNL     1      -8.237  11.467  69.567  1.00  0.00     0.000 HD 
ENDBRANCH   4   5
ENDBRANCH   3   4
ENDBRANCH   2   3
TORSDOF 3
ENDMDL
MODEL      240
REMARK 921   NORMALIZED FREE ENERGY PREDICTED BY IDOCK:   -1.44 KCAL/MOL
REMARK 922        TOTAL FREE ENERGY PREDICTED BY IDOCK:   -1.93 KCAL/MOL
REMARK 923 INTER-LIGAND FREE ENERGY PREDICTED BY IDOCK:   -1.86 KCAL/MOL
REMARK 924 INTRA-LIGAND FREE ENERGY PREDICTED BY IDOCK:   -0.07 KCAL/MOL
REMARK 927      BINDING AFFINITY PREDICTED BY RF-SCORE:    0.00 PKD
ROOT
HETATM    1  C   UNL     1      -6.945   5.419  68.937  1.00  0.00    -0.056 C  
HETATM    2 SE   UNL     1      -6.492   7.242  69.448  1.00  0.00    -0.037 Se 
ENDROOT
BRANCH   2   3
HETATM    3  C   UNL     1      -8.036   8.004  68.524  1.00  0.00    -0.125 C  
BRANCH   3   4
HETATM    4  C   UNL     1      -9.254   7.914  69.453  1.00  0.00    -0.145 C  
BRANCH   4   5
HETATM    5  CA  UNL     1      -9.765   9.262  70.015  1.00  0.00    -0.207 C  
HETATM    6  C   UNL     1     -10.618   9.096  71.255  1.00  0.00    -0.329 C  
HETATM    7  N   UNL     1      -8.650  10.170  70.291  1.00  0.00    -0.342 NA 
HETATM    8  O   UNL     1     -11.921   9.449  71.245  1.00  0.00    -0.306 OA 
HETATM    9  OXT UNL     1     -10.131   8.664  72.287  1.00  0.00    -0.311 OA 
HETATM   10  H1  UNL     1      -8.987  11.059  70.661  1.00  0.00     0.000 HD 
HETATM   11  H2  UNL     1      -8.060  10.303  69.470  1.00  0.00     0.000 HD 
ENDBRANCH   4   5
ENDBRANCH   3   4
ENDBRANCH   2   3
TORSDOF 3
ENDMDL
MODEL      241
REMARK 921   NORMALIZED FREE ENERGY PREDICTED BY IDOCK:   -1.43 KCAL/MOL
REMARK 922        TOTAL FREE ENERGY PREDICTED BY IDOCK:   -1.92 KCAL/MOL
REMARK 923 INTER-LIGAND FREE ENERGY PREDICTED BY IDOCK:   -1.87 KCAL/MOL
REMARK 924 INTRA-LIGAND FREE ENERGY PREDICTED BY IDOCK:   -0.05 KCAL/MOL
REMARK 927      BINDING AFFINITY PREDICTED BY RF-SCORE:    0.00 PKD
ROOT
HETATM    1  C   UNL     1      -5.543  12.389  70.275  1.00  0.00    -0.156 C  
HETATM    2 SE   UNL     1      -5.417  14.181  71.024  1.00  0.00    -0.198 Se 
ENDROOT
BRANCH   2   3
HETATM    3  C   UNL     1      -6.231  15.016  69.455  1.00  0.00    -0.124 C  
BRANCH   3   4
HETATM    4  C   UNL     1      -7.515  14.250  69.107  1.00  0.00    -0.067 C  
BRANCH   4   5
HETATM    5  CA  UNL     1      -8.716  15.125  68.678  1.00  0.00    -0.174 C  
HETATM    6  C   UNL     1      -9.124  14.897  67.237  1.00  0.00    -0.201 C  
HETATM    7  N   UNL     1      -9.863  14.912  69.563  1.00  0.00    -0.414 NA 
HETATM    8  O   UNL     1      -9.021  15.891  66.328  1.00  0.00    -0.292 OA 
HETATM    9  OXT UNL     1      -9.575  13.820  66.886  1.00  0.00    -0.244 OA 
HETATM   10  H1  UNL     1     -10.655  15.489  69.280  1.00  0.00     0.000 HD 
HETATM   11  H2  UNL     1      -9.617  15.064  70.541  1.00  0.00     0.000 HD 
ENDBRANCH   4   5
ENDBRANCH   3   4
ENDBRANCH   2   3
TORSDOF 3
ENDMDL
MODEL      242
REMARK 921   NORMALIZED FREE ENERGY PREDICTED BY IDOCK:   -1.39 KCAL/MOL
REMARK 922        TOTAL FREE ENERGY PREDICTED BY IDOCK:   -1.87 KCAL/MOL
REMARK 923 INTER-LIGAND FREE ENERGY PREDICTED BY IDOCK:   -1.77 KCAL/MOL
REMARK 924 INTRA-LIGAND FREE ENERGY PREDICTED BY IDOCK:   -0.10 KCAL/MOL
REMARK 927      BINDING AFFINITY PREDICTED BY RF-SCORE:    0.00 PKD
ROOT
HETATM    1  C   UNL     1     -10.522   9.544  70.837  1.00  0.00    -0.312 C  
HETATM    2 SE   UNL     1     -11.655   8.441  71.973  1.00  0.00    -0.379 Se 
ENDROOT
BRANCH   2   3
HETATM    3  C   UNL     1     -10.542   6.852  71.733  1.00  0.00    -0.212 C  
BRANCH   3   4
HETATM    4  C   UNL     1      -9.460   6.847  72.822  1.00  0.00    -0.161 C  
BRANCH   4   5
HETATM    5  CA  UNL     1      -8.003   6.953  72.313  1.00  0.00    -0.093 C  
HETATM    6  C   UNL     1      -7.215   8.042  73.011  1.00  0.00    -0.105 C  
HETATM    7  N   UNL     1      -7.308   5.671  72.440  1.00  0.00    -0.093 NA 
HETATM    8  O   UNL     1      -6.755   9.108  72.321  1.00  0.00    -0.305 OA 
HETATM    9  OXT UNL     1      -6.964   7.956  74.202  1.00  0.00    -0.112 OA 
HETATM   10  H1  UNL     1      -6.348   5.742  72.104  1.00  0.00     0.000 HD 
HETATM   11  H2  UNL     1      -7.816   4.920  71.974  1.00  0.00     0.000 HD 
ENDBRANCH   4   5
ENDBRANCH   3   4
ENDBRANCH   2   3
TORSDOF 3
ENDMDL
MODEL      243
REMARK 921   NORMALIZED FREE ENERGY PREDICTED BY IDOCK:   -1.38 KCAL/MOL
REMARK 922        TOTAL FREE ENERGY PREDICTED BY IDOCK:   -1.86 KCAL/MOL
REMARK 923 INTER-LIGAND FREE ENERGY PREDICTED BY IDOCK:   -1.82 KCAL/MOL
REMARK 924 INTRA-LIGAND FREE ENERGY PREDICTED BY IDOCK:   -0.05 KCAL/MOL
REMARK 927      BINDING AFFINITY PREDICTED BY RF-SCORE:    0.00 PKD
ROOT
HETATM    1  C   UNL     1      -6.322  15.219  70.194  1.00  0.00    -0.112 C  
HETATM    2 SE   UNL     1      -6.757  15.219  68.297  1.00  0.00    -0.132 Se 
ENDROOT
BRANCH   2   3
HETATM    3  C   UNL     1      -5.791  16.885  67.960  1.00  0.00    -0.120 C  
BRANCH   3   4
HETATM    4  C   UNL     1      -6.362  17.531  66.690  1.00  0.00    -0.241 C  
BRANCH   4   5
HETATM    5  CA  UNL     1      -6.174  19.062  66.580  1.00  0.00    -0.178 C  
HETATM    6  C   UNL     1      -7.321  19.745  65.863  1.00  0.00    -0.318 C  
HETATM    7  N   UNL     1      -5.980  19.662  67.901  1.00  0.00    -0.206 NA 
HETATM    8  O   UNL     1      -7.118  20.376  64.688  1.00  0.00    -0.178 OA 
HETATM    9  OXT UNL     1      -8.438  19.754  66.354  1.00  0.00    -0.332 OA 
HETATM   10  H1  UNL     1      -5.855  20.672  67.828  1.00  0.00     0.000 HD 
HETATM   11  H2  UNL     1      -5.209  19.224  68.404  1.00  0.00     0.000 HD 
ENDBRANCH   4   5
ENDBRANCH   3   4
ENDBRANCH   2   3
TORSDOF 3
ENDMDL
MODEL      244
REMARK 921   NORMALIZED FREE ENERGY PREDICTED BY IDOCK:   -1.37 KCAL/MOL
REMARK 922        TOTAL FREE ENERGY PREDICTED BY IDOCK:   -1.84 KCAL/MOL
REMARK 923 INTER-LIGAND FREE ENERGY PREDICTED BY IDOCK:   -1.77 KCAL/MOL
REMARK 924 INTRA-LIGAND FREE ENERGY PREDICTED BY IDOCK:   -0.08 KCAL/MOL
REMARK 927      BINDING AFFINITY PREDICTED BY RF-SCORE:    0.00 PKD
ROOT
HETATM    1  C   UNL     1      -9.876   8.629  71.985  1.00  0.00    -0.325 C  
HETATM    2 SE   UNL     1     -11.222   8.420  70.594  1.00  0.00    -0.236 Se 
ENDROOT
BRANCH   2   3
HETATM    3  C   UNL     1      -9.955   7.636  69.329  1.00  0.00    -0.180 C  
BRANCH   3   4
HETATM    4  C   UNL     1      -9.520   8.724  68.338  1.00  0.00    -0.148 C  
BRANCH   4   5
HETATM    5  CA  UNL     1      -9.387   8.267  66.865  1.00  0.00    -0.176 C  
HETATM    6  C   UNL     1      -7.962   7.924  66.484  1.00  0.00    -0.102 C  
HETATM    7  N   UNL     1     -10.268   7.132  66.587  1.00  0.00    -0.434 NA 
HETATM    8  O   UNL     1      -7.309   8.645  65.548  1.00  0.00    -0.082 OA 
HETATM    9  OXT UNL     1      -7.396   6.974  67.000  1.00  0.00    -0.082 OA 
HETATM   10  H1  UNL     1     -10.180   6.831  65.616  1.00  0.00     0.000 HD 
HETATM   11  H2  UNL     1     -11.237   7.338  66.831  1.00  0.00     0.000 HD 
ENDBRANCH   4   5
ENDBRANCH   3   4
ENDBRANCH   2   3
TORSDOF 3
ENDMDL
MODEL      245
REMARK 921   NORMALIZED FREE ENERGY PREDICTED BY IDOCK:   -1.36 KCAL/MOL
REMARK 922        TOTAL FREE ENERGY PREDICTED BY IDOCK:   -1.84 KCAL/MOL
REMARK 923 INTER-LIGAND FREE ENERGY PREDICTED BY IDOCK:   -1.71 KCAL/MOL
REMARK 924 INTRA-LIGAND FREE ENERGY PREDICTED BY IDOCK:   -0.13 KCAL/MOL
REMARK 927      BINDING AFFINITY PREDICTED BY RF-SCORE:    0.00 PKD
ROOT
HETATM    1  C   UNL     1      -7.812  10.767  69.062  1.00  0.00    -0.138 C  
HETATM    2 SE   UNL     1      -9.691  10.817  68.559  1.00  0.00    -0.189 Se 
ENDROOT
BRANCH   2   3
HETATM    3  C   UNL     1     -10.266   9.887  70.179  1.00  0.00    -0.273 C  
BRANCH   3   4
HETATM    4  C   UNL     1     -10.708   8.468  69.796  1.00  0.00    -0.213 C  
BRANCH   4   5
HETATM    5  CA  UNL     1      -9.588   7.400  69.790  1.00  0.00    -0.163 C  
HETATM    6  C   UNL     1      -9.976   6.138  70.533  1.00  0.00    -0.181 C  
HETATM    7  N   UNL     1      -9.183   7.073  68.422  1.00  0.00    -0.130 NA 
HETATM    8  O   UNL     1      -9.312   5.766  71.648  1.00  0.00    -0.146 OA 
HETATM    9  OXT UNL     1     -10.877   5.429  70.116  1.00  0.00    -0.281 OA 
HETATM   10  H1  UNL     1      -8.444   6.370  68.419  1.00  0.00     0.000 HD 
HETATM   11  H2  UNL     1      -8.912   7.906  67.900  1.00  0.00     0.000 HD 
ENDBRANCH   4   5
ENDBRANCH   3   4
ENDBRANCH   2   3
TORSDOF 3
ENDMDL
MODEL      246
REMARK 921   NORMALIZED FREE ENERGY PREDICTED BY IDOCK:   -1.35 KCAL/MOL
REMARK 922        TOTAL FREE ENERGY PREDICTED BY IDOCK:   -1.83 KCAL/MOL
REMARK 923 INTER-LIGAND FREE ENERGY PREDICTED BY IDOCK:   -1.75 KCAL/MOL
REMARK 924 INTRA-LIGAND FREE ENERGY PREDICTED BY IDOCK:   -0.08 KCAL/MOL
REMARK 927      BINDING AFFINITY PREDICTED BY RF-SCORE:    0.00 PKD
ROOT
HETATM    1  C   UNL     1      -9.229   9.070  71.088  1.00  0.00    -0.256 C  
HETATM    2 SE   UNL     1      -9.730   9.527  69.263  1.00  0.00    -0.186 Se 
ENDROOT
BRANCH   2   3
HETATM    3  C   UNL     1      -8.232   8.541  68.486  1.00  0.00    -0.123 C  
BRANCH   3   4
HETATM    4  C   UNL     1      -7.837   9.216  67.165  1.00  0.00    -0.102 C  
BRANCH   4   5
HETATM    5  CA  UNL     1      -8.992   9.444  66.162  1.00  0.00    -0.161 C  
HETATM    6  C   UNL     1      -8.702  10.555  65.174  1.00  0.00    -0.185 C  
HETATM    7  N   UNL     1      -9.314   8.208  65.445  1.00  0.00    -0.376 NA 
HETATM    8  O   UNL     1      -9.454  11.677  65.163  1.00  0.00    -0.216 OA 
HETATM    9  OXT UNL     1      -7.801  10.439  64.360  1.00  0.00    -0.144 OA 
HETATM   10  H1  UNL     1     -10.077   8.358  64.784  1.00  0.00     0.000 HD 
HETATM   11  H2  UNL     1      -9.519   7.443  66.088  1.00  0.00     0.000 HD 
ENDBRANCH   4   5
ENDBRANCH   3   4
ENDBRANCH   2   3
TORSDOF 3
ENDMDL
MODEL      247
REMARK 921   NORMALIZED FREE ENERGY PREDICTED BY IDOCK:   -1.35 KCAL/MOL
REMARK 922        TOTAL FREE ENERGY PREDICTED BY IDOCK:   -1.82 KCAL/MOL
REMARK 923 INTER-LIGAND FREE ENERGY PREDICTED BY IDOCK:   -1.79 KCAL/MOL
REMARK 924 INTRA-LIGAND FREE ENERGY PREDICTED BY IDOCK:   -0.04 KCAL/MOL
REMARK 927      BINDING AFFINITY PREDICTED BY RF-SCORE:    0.00 PKD
ROOT
HETATM    1  C   UNL     1      -6.159  12.712  69.697  1.00  0.00    -0.128 C  
HETATM    2 SE   UNL     1      -5.554  14.485  69.170  1.00  0.00    -0.092 Se 
ENDROOT
BRANCH   2   3
HETATM    3  C   UNL     1      -7.006  14.720  67.881  1.00  0.00    -0.160 C  
BRANCH   3   4
HETATM    4  C   UNL     1      -8.328  14.837  68.653  1.00  0.00    -0.165 C  
BRANCH   4   5
HETATM    5  CA  UNL     1      -9.564  15.209  67.801  1.00  0.00    -0.203 C  
HETATM    6  C   UNL     1     -10.822  14.492  68.247  1.00  0.00    -0.241 C  
HETATM    7  N   UNL     1      -9.786  16.656  67.804  1.00  0.00    -0.237 NA 
HETATM    8  O   UNL     1     -11.439  13.614  67.427  1.00  0.00    -0.303 OA 
HETATM    9  OXT UNL     1     -11.306  14.717  69.344  1.00  0.00    -0.256 OA 
HETATM   10  H1  UNL     1     -10.601  16.902  67.242  1.00  0.00     0.000 HD 
HETATM   11  H2  UNL     1      -8.955  17.165  67.503  1.00  0.00     0.000 HD 
ENDBRANCH   4   5
ENDBRANCH   3   4
ENDBRANCH   2   3
TORSDOF 3
ENDMDL
MODEL      248
REMARK 921   NORMALIZED FREE ENERGY PREDICTED BY IDOCK:   -1.35 KCAL/MOL
REMARK 922        TOTAL FREE ENERGY PREDICTED BY IDOCK:   -1.82 KCAL/MOL
REMARK 923 INTER-LIGAND FREE ENERGY PREDICTED BY IDOCK:   -1.76 KCAL/MOL
REMARK 924 INTRA-LIGAND FREE ENERGY PREDICTED BY IDOCK:   -0.07 KCAL/MOL
REMARK 927      BINDING AFFINITY PREDICTED BY RF-SCORE:    0.00 PKD
ROOT
HETATM    1  C   UNL     1     -11.243  11.353  69.156  1.00  0.00    -0.272 C  
HETATM    2 SE   UNL     1      -9.763  11.992  68.064  1.00  0.00    -0.202 Se 
ENDROOT
BRANCH   2   3
HETATM    3  C   UNL     1      -8.468  10.813  68.931  1.00  0.00    -0.149 C  
BRANCH   3   4
HETATM    4  C   UNL     1      -9.232   9.807  69.804  1.00  0.00    -0.248 C  
BRANCH   4   5
HETATM    5  CA  UNL     1      -8.370   8.696  70.449  1.00  0.00    -0.130 C  
HETATM    6  C   UNL     1      -8.166   8.899  71.936  1.00  0.00     0.062 C  
HETATM    7  N   UNL     1      -8.946   7.374  70.198  1.00  0.00    -0.148 NA 
HETATM    8  O   UNL     1      -6.933   9.125  72.436  1.00  0.00    -0.317 OA 
HETATM    9  OXT UNL     1      -9.113   8.836  72.704  1.00  0.00    -0.354 OA 
HETATM   10  H1  UNL     1      -8.378   6.641  70.623  1.00  0.00     0.000 HD 
HETATM   11  H2  UNL     1      -9.090   7.209  69.202  1.00  0.00     0.000 HD 
ENDBRANCH   4   5
ENDBRANCH   3   4
ENDBRANCH   2   3
TORSDOF 3
ENDMDL
MODEL      249
REMARK 921   NORMALIZED FREE ENERGY PREDICTED BY IDOCK:   -1.33 KCAL/MOL
REMARK 922        TOTAL FREE ENERGY PREDICTED BY IDOCK:   -1.81 KCAL/MOL
REMARK 923 INTER-LIGAND FREE ENERGY PREDICTED BY IDOCK:   -1.67 KCAL/MOL
REMARK 924 INTRA-LIGAND FREE ENERGY PREDICTED BY IDOCK:   -0.14 KCAL/MOL
REMARK 927      BINDING AFFINITY PREDICTED BY RF-SCORE:    0.00 PKD
ROOT
HETATM    1  C   UNL     1      -8.719   8.343  72.107  1.00  0.00    -0.205 C  
HETATM    2 SE   UNL     1      -9.052   6.446  71.821  1.00  0.00    -0.142 Se 
ENDROOT
BRANCH   2   3
HETATM    3  C   UNL     1      -8.210   6.449  70.057  1.00  0.00    -0.125 C  
BRANCH   3   4
HETATM    4  C   UNL     1      -8.809   7.598  69.233  1.00  0.00    -0.136 C  
BRANCH   4   5
HETATM    5  CA  UNL     1      -9.632   7.170  67.995  1.00  0.00    -0.134 C  
HETATM    6  C   UNL     1     -10.530   5.981  68.269  1.00  0.00    -0.235 C  
HETATM    7  N   UNL     1     -10.424   8.288  67.481  1.00  0.00    -0.329 NA 
HETATM    8  O   UNL     1     -10.334   4.810  67.627  1.00  0.00    -0.086 OA 
HETATM    9  OXT UNL     1     -11.458   6.076  69.056  1.00  0.00    -0.275 OA 
HETATM   10  H1  UNL     1     -10.966   8.006  66.664  1.00  0.00     0.000 HD 
HETATM   11  H2  UNL     1      -9.842   9.102  67.283  1.00  0.00     0.000 HD 
ENDBRANCH   4   5
ENDBRANCH   3   4
ENDBRANCH   2   3
TORSDOF 3
ENDMDL
MODEL      250
REMARK 921   NORMALIZED FREE ENERGY PREDICTED BY IDOCK:   -1.32 KCAL/MOL
REMARK 922        TOTAL FREE ENERGY PREDICTED BY IDOCK:   -1.79 KCAL/MOL
REMARK 923 INTER-LIGAND FREE ENERGY PREDICTED BY IDOCK:   -1.75 KCAL/MOL
REMARK 924 INTRA-LIGAND FREE ENERGY PREDICTED BY IDOCK:   -0.04 KCAL/MOL
REMARK 927      BINDING AFFINITY PREDICTED BY RF-SCORE:    0.00 PKD
ROOT
HETATM    1  C   UNL     1      -7.896   6.093  71.409  1.00  0.00    -0.108 C  
HETATM    2 SE   UNL     1      -6.785   6.640  69.907  1.00  0.00    -0.051 Se 
ENDROOT
BRANCH   2   3
HETATM    3  C   UNL     1      -8.106   6.081  68.580  1.00  0.00    -0.107 C  
BRANCH   3   4
HETATM    4  C   UNL     1      -7.963   6.977  67.342  1.00  0.00    -0.112 C  
BRANCH   4   5
HETATM    5  CA  UNL     1      -8.881   6.616  66.150  1.00  0.00    -0.149 C  
HETATM    6  C   UNL     1     -10.252   6.141  66.587  1.00  0.00    -0.178 C  
HETATM    7  N   UNL     1      -9.013   7.747  65.229  1.00  0.00    -0.381 NA 
HETATM    8  O   UNL     1     -10.657   4.880  66.328  1.00  0.00    -0.306 OA 
HETATM    9  OXT UNL     1     -11.017   6.903  67.157  1.00  0.00    -0.361 OA 
HETATM   10  H1  UNL     1      -9.618   7.509  64.443  1.00  0.00     0.000 HD 
HETATM   11  H2  UNL     1      -8.103   8.084  64.915  1.00  0.00     0.000 HD 
ENDBRANCH   4   5
ENDBRANCH   3   4
ENDBRANCH   2   3
TORSDOF 3
ENDMDL
MODEL      251
REMARK 921   NORMALIZED FREE ENERGY PREDICTED BY IDOCK:   -1.31 KCAL/MOL
REMARK 922        TOTAL FREE ENERGY PREDICTED BY IDOCK:   -1.78 KCAL/MOL
REMARK 923 INTER-LIGAND FREE ENERGY PREDICTED BY IDOCK:   -1.65 KCAL/MOL
REMARK 924 INTRA-LIGAND FREE ENERGY PREDICTED BY IDOCK:   -0.13 KCAL/MOL
REMARK 927      BINDING AFFINITY PREDICTED BY RF-SCORE:    0.00 PKD
ROOT
HETATM    1  C   UNL     1     -12.096  11.527  69.822  1.00  0.00    -0.306 C  
HETATM    2 SE   UNL     1     -11.218  11.517  68.084  1.00  0.00    -0.300 Se 
ENDROOT
BRANCH   2   3
HETATM    3  C   UNL     1      -9.737  10.407  68.713  1.00  0.00    -0.183 C  
BRANCH   3   4
HETATM    4  C   UNL     1      -9.205   9.588  67.529  1.00  0.00    -0.142 C  
BRANCH   4   5
HETATM    5  CA  UNL     1      -8.054  10.244  66.730  1.00  0.00    -0.121 C  
HETATM    6  C   UNL     1      -8.462  10.635  65.325  1.00  0.00    -0.150 C  
HETATM    7  N   UNL     1      -7.520  11.408  67.440  1.00  0.00    -0.112 NA 
HETATM    8  O   UNL     1      -7.886  10.049  64.254  1.00  0.00    -0.138 OA 
HETATM    9  OXT UNL     1      -9.300  11.504  65.145  1.00  0.00    -0.201 OA 
HETATM   10  H1  UNL     1      -6.761  11.840  66.913  1.00  0.00     0.000 HD 
HETATM   11  H2  UNL     1      -7.232  11.171  68.389  1.00  0.00     0.000 HD 
ENDBRANCH   4   5
ENDBRANCH   3   4
ENDBRANCH   2   3
TORSDOF 3
ENDMDL
MODEL      252
REMARK 921   NORMALIZED FREE ENERGY PREDICTED BY IDOCK:   -1.30 KCAL/MOL
REMARK 922        TOTAL FREE ENERGY PREDICTED BY IDOCK:   -1.77 KCAL/MOL
REMARK 923 INTER-LIGAND FREE ENERGY PREDICTED BY IDOCK:   -1.73 KCAL/MOL
REMARK 924 INTRA-LIGAND FREE ENERGY PREDICTED BY IDOCK:   -0.04 KCAL/MOL
REMARK 927      BINDING AFFINITY PREDICTED BY RF-SCORE:    0.00 PKD
ROOT
HETATM    1  C   UNL     1     -10.034  10.704  69.192  1.00  0.00    -0.211 C  
HETATM    2 SE   UNL     1      -9.520   8.937  68.556  1.00  0.00    -0.149 Se 
ENDROOT
BRANCH   2   3
HETATM    3  C   UNL     1     -10.650   8.017  69.860  1.00  0.00    -0.242 C  
BRANCH   3   4
HETATM    4  C   UNL     1      -9.767   7.074  70.690  1.00  0.00    -0.174 C  
BRANCH   4   5
HETATM    5  CA  UNL     1     -10.354   6.642  72.054  1.00  0.00    -0.197 C  
HETATM    6  C   UNL     1      -9.655   5.431  72.637  1.00  0.00    -0.150 C  
HETATM    7  N   UNL     1     -10.322   7.749  73.012  1.00  0.00    -0.323 NA 
HETATM    8  O   UNL     1     -10.324   4.271  72.814  1.00  0.00    -0.168 OA 
HETATM    9  OXT UNL     1      -8.486   5.497  72.978  1.00  0.00    -0.118 OA 
HETATM   10  H1  UNL     1     -10.709   7.464  73.912  1.00  0.00     0.000 HD 
HETATM   11  H2  UNL     1     -10.790   8.577  72.646  1.00  0.00     0.000 HD 
ENDBRANCH   4   5
ENDBRANCH   3   4
ENDBRANCH   2   3
TORSDOF 3
ENDMDL
MODEL      253
REMARK 921   NORMALIZED FREE ENERGY PREDICTED BY IDOCK:   -1.30 KCAL/MOL
REMARK 922        TOTAL FREE ENERGY PREDICTED BY IDOCK:   -1.77 KCAL/MOL
REMARK 923 INTER-LIGAND FREE ENERGY PREDICTED BY IDOCK:   -1.71 KCAL/MOL
REMARK 924 INTRA-LIGAND FREE ENERGY PREDICTED BY IDOCK:   -0.05 KCAL/MOL
REMARK 927      BINDING AFFINITY PREDICTED BY RF-SCORE:    0.00 PKD
ROOT
HETATM    1  C   UNL     1     -11.064   6.068  71.643  1.00  0.00    -0.275 C  
HETATM    2 SE   UNL     1     -11.290   7.782  72.538  1.00  0.00    -0.388 Se 
ENDROOT
BRANCH   2   3
HETATM    3  C   UNL     1      -9.478   7.764  73.272  1.00  0.00    -0.283 C  
BRANCH   3   4
HETATM    4  C   UNL     1      -8.551   8.505  72.299  1.00  0.00    -0.235 C  
BRANCH   4   5
HETATM    5  CA  UNL     1      -7.131   7.910  72.148  1.00  0.00    -0.076 C  
HETATM    6  C   UNL     1      -6.106   8.938  71.717  1.00  0.00    -0.073 C  
HETATM    7  N   UNL     1      -6.701   7.262  73.388  1.00  0.00    -0.065 NA 
HETATM    8  O   UNL     1      -5.480   8.827  70.526  1.00  0.00    -0.027 OA 
HETATM    9  OXT UNL     1      -5.815   9.867  72.454  1.00  0.00    -0.293 OA 
HETATM   10  H1  UNL     1      -5.764   6.869  73.288  1.00  0.00     0.000 HD 
HETATM   11  H2  UNL     1      -7.372   6.560  73.699  1.00  0.00     0.000 HD 
ENDBRANCH   4   5
ENDBRANCH   3   4
ENDBRANCH   2   3
TORSDOF 3
ENDMDL
MODEL      254
REMARK 921   NORMALIZED FREE ENERGY PREDICTED BY IDOCK:   -1.27 KCAL/MOL
REMARK 922        TOTAL FREE ENERGY PREDICTED BY IDOCK:   -1.73 KCAL/MOL
REMARK 923 INTER-LIGAND FREE ENERGY PREDICTED BY IDOCK:   -1.65 KCAL/MOL
REMARK 924 INTRA-LIGAND FREE ENERGY PREDICTED BY IDOCK:   -0.08 KCAL/MOL
REMARK 927      BINDING AFFINITY PREDICTED BY RF-SCORE:    0.00 PKD
ROOT
HETATM    1  C   UNL     1     -10.565   9.557  70.862  1.00  0.00    -0.325 C  
HETATM    2 SE   UNL     1     -11.733   8.471  71.979  1.00  0.00    -0.384 Se 
ENDROOT
BRANCH   2   3
HETATM    3  C   UNL     1     -10.562   6.909  71.880  1.00  0.00    -0.211 C  
BRANCH   3   4
HETATM    4  C   UNL     1      -9.551   7.130  70.746  1.00  0.00    -0.168 C  
BRANCH   4   5
HETATM    5  CA  UNL     1      -8.564   5.964  70.499  1.00  0.00    -0.136 C  
HETATM    6  C   UNL     1      -9.054   4.993  69.444  1.00  0.00    -0.103 C  
HETATM    7  N   UNL     1      -7.238   6.468  70.138  1.00  0.00    -0.078 NA 
HETATM    8  O   UNL     1      -9.336   3.713  69.767  1.00  0.00    -0.142 OA 
HETATM    9  OXT UNL     1      -9.176   5.351  68.284  1.00  0.00    -0.108 OA 
HETATM   10  H1  UNL     1      -6.587   5.699  69.976  1.00  0.00     0.000 HD 
HETATM   11  H2  UNL     1      -6.881   7.122  70.835  1.00  0.00     0.000 HD 
ENDBRANCH   4   5
ENDBRANCH   3   4
ENDBRANCH   2   3
TORSDOF 3
ENDMDL
MODEL      255
REMARK 921   NORMALIZED FREE ENERGY PREDICTED BY IDOCK:   -1.26 KCAL/MOL
REMARK 922        TOTAL FREE ENERGY PREDICTED BY IDOCK:   -1.72 KCAL/MOL
REMARK 923 INTER-LIGAND FREE ENERGY PREDICTED BY IDOCK:   -1.67 KCAL/MOL
REMARK 924 INTRA-LIGAND FREE ENERGY PREDICTED BY IDOCK:   -0.06 KCAL/MOL
REMARK 927      BINDING AFFINITY PREDICTED BY RF-SCORE:    0.00 PKD
ROOT
HETATM    1  C   UNL     1      -5.888   3.629  68.544  1.00  0.00    -0.023 C  
HETATM    2 SE   UNL     1      -6.748   4.552  70.026  1.00  0.00    -0.034 Se 
ENDROOT
BRANCH   2   3
HETATM    3  C   UNL     1      -7.634   5.842  68.855  1.00  0.00    -0.090 C  
BRANCH   3   4
HETATM    4  C   UNL     1      -9.116   5.459  68.742  1.00  0.00    -0.135 C  
BRANCH   4   5
HETATM    5  CA  UNL     1     -10.122   6.603  69.013  1.00  0.00    -0.162 C  
HETATM    6  C   UNL     1     -10.679   7.209  67.741  1.00  0.00    -0.212 C  
HETATM    7  N   UNL     1     -11.216   6.146  69.872  1.00  0.00    -0.406 NA 
HETATM    8  O   UNL     1     -10.427   8.497  67.426  1.00  0.00    -0.262 OA 
HETATM    9  OXT UNL     1     -11.385   6.546  66.999  1.00  0.00    -0.342 OA 
HETATM   10  H1  UNL     1     -11.879   6.901  70.051  1.00  0.00     0.000 HD 
HETATM   11  H2  UNL     1     -10.868   5.738  70.739  1.00  0.00     0.000 HD 
ENDBRANCH   4   5
ENDBRANCH   3   4
ENDBRANCH   2   3
TORSDOF 3
ENDMDL
MODEL      256
REMARK 921   NORMALIZED FREE ENERGY PREDICTED BY IDOCK:   -1.26 KCAL/MOL
REMARK 922        TOTAL FREE ENERGY PREDICTED BY IDOCK:   -1.72 KCAL/MOL
REMARK 923 INTER-LIGAND FREE ENERGY PREDICTED BY IDOCK:   -1.68 KCAL/MOL
REMARK 924 INTRA-LIGAND FREE ENERGY PREDICTED BY IDOCK:   -0.04 KCAL/MOL
REMARK 927      BINDING AFFINITY PREDICTED BY RF-SCORE:    0.00 PKD
ROOT
HETATM    1  C   UNL     1     -10.004  10.787  69.161  1.00  0.00    -0.187 C  
HETATM    2 SE   UNL     1      -9.308  10.061  67.494  1.00  0.00    -0.144 Se 
ENDROOT
BRANCH   2   3
HETATM    3  C   UNL     1     -10.529   8.535  67.518  1.00  0.00    -0.258 C  
BRANCH   3   4
HETATM    4  C   UNL     1      -9.697   7.246  67.574  1.00  0.00    -0.181 C  
BRANCH   4   5
HETATM    5  CA  UNL     1     -10.509   5.929  67.572  1.00  0.00    -0.243 C  
HETATM    6  C   UNL     1      -9.727   4.758  67.015  1.00  0.00    -0.186 C  
HETATM    7  N   UNL     1     -10.997   5.613  68.916  1.00  0.00    -0.172 NA 
HETATM    8  O   UNL     1     -10.125   4.143  65.881  1.00  0.00    -0.208 OA 
HETATM    9  OXT UNL     1      -8.741   4.339  67.600  1.00  0.00    -0.102 OA 
HETATM   10  H1  UNL     1     -11.533   4.745  68.914  1.00  0.00     0.000 HD 
HETATM   11  H2  UNL     1     -11.533   6.384  69.314  1.00  0.00     0.000 HD 
ENDBRANCH   4   5
ENDBRANCH   3   4
ENDBRANCH   2   3
TORSDOF 3
ENDMDL
MODEL      257
REMARK 921   NORMALIZED FREE ENERGY PREDICTED BY IDOCK:   -1.26 KCAL/MOL
REMARK 922        TOTAL FREE ENERGY PREDICTED BY IDOCK:   -1.72 KCAL/MOL
REMARK 923 INTER-LIGAND FREE ENERGY PREDICTED BY IDOCK:   -1.61 KCAL/MOL
REMARK 924 INTRA-LIGAND FREE ENERGY PREDICTED BY IDOCK:   -0.11 KCAL/MOL
REMARK 927      BINDING AFFINITY PREDICTED BY RF-SCORE:    0.00 PKD
ROOT
HETATM    1  C   UNL     1      -5.732  10.715  65.864  1.00  0.00    -0.132 C  
HETATM    2 SE   UNL     1      -7.180  11.555  66.858  1.00  0.00    -0.113 Se 
ENDROOT
BRANCH   2   3
HETATM    3  C   UNL     1      -7.534   9.951  67.917  1.00  0.00    -0.089 C  
BRANCH   3   4
HETATM    4  C   UNL     1      -8.139  10.379  69.262  1.00  0.00    -0.159 C  
BRANCH   4   5
HETATM    5  CA  UNL     1      -9.497   9.729  69.617  1.00  0.00    -0.219 C  
HETATM    6  C   UNL     1     -10.677  10.628  69.309  1.00  0.00    -0.238 C  
HETATM    7  N   UNL     1      -9.657   8.443  68.937  1.00  0.00    -0.151 NA 
HETATM    8  O   UNL     1     -11.471  11.084  70.302  1.00  0.00    -0.301 OA 
HETATM    9  OXT UNL     1     -10.939  10.931  68.157  1.00  0.00    -0.209 OA 
HETATM   10  H1  UNL     1     -10.552   8.014  69.171  1.00  0.00     0.000 HD 
HETATM   11  H2  UNL     1      -8.877   7.815  69.131  1.00  0.00     0.000 HD 
ENDBRANCH   4   5
ENDBRANCH   3   4
ENDBRANCH   2   3
TORSDOF 3
ENDMDL
MODEL      258
REMARK 921   NORMALIZED FREE ENERGY PREDICTED BY IDOCK:   -1.24 KCAL/MOL
REMARK 922        TOTAL FREE ENERGY PREDICTED BY IDOCK:   -1.70 KCAL/MOL
REMARK 923 INTER-LIGAND FREE ENERGY PREDICTED BY IDOCK:   -1.64 KCAL/MOL
REMARK 924 INTRA-LIGAND FREE ENERGY PREDICTED BY IDOCK:   -0.05 KCAL/MOL
REMARK 927      BINDING AFFINITY PREDICTED BY RF-SCORE:    0.00 PKD
ROOT
HETATM    1  C   UNL     1     -10.290   5.999  69.562  1.00  0.00    -0.233 C  
HETATM    2 SE   UNL     1     -11.647   6.637  70.804  1.00  0.00    -0.386 Se 
ENDROOT
BRANCH   2   3
HETATM    3  C   UNL     1     -10.691   8.302  71.170  1.00  0.00    -0.226 C  
BRANCH   3   4
HETATM    4  C   UNL     1      -9.504   8.405  70.202  1.00  0.00    -0.165 C  
BRANCH   4   5
HETATM    5  CA  UNL     1      -8.114   8.547  70.865  1.00  0.00    -0.127 C  
HETATM    6  C   UNL     1      -7.249   9.598  70.199  1.00  0.00    -0.128 C  
HETATM    7  N   UNL     1      -8.243   8.837  72.294  1.00  0.00    -0.383 NA 
HETATM    8  O   UNL     1      -6.101   9.250  69.579  1.00  0.00    -0.039 OA 
HETATM    9  OXT UNL     1      -7.568  10.775  70.237  1.00  0.00     0.042 OA 
HETATM   10  H1  UNL     1      -7.326   8.930  72.732  1.00  0.00     0.000 HD 
HETATM   11  H2  UNL     1      -8.817   8.141  72.770  1.00  0.00     0.000 HD 
ENDBRANCH   4   5
ENDBRANCH   3   4
ENDBRANCH   2   3
TORSDOF 3
ENDMDL
MODEL      259
REMARK 921   NORMALIZED FREE ENERGY PREDICTED BY IDOCK:   -1.24 KCAL/MOL
REMARK 922        TOTAL FREE ENERGY PREDICTED BY IDOCK:   -1.69 KCAL/MOL
REMARK 923 INTER-LIGAND FREE ENERGY PREDICTED BY IDOCK:   -1.65 KCAL/MOL
REMARK 924 INTRA-LIGAND FREE ENERGY PREDICTED BY IDOCK:   -0.04 KCAL/MOL
REMARK 927      BINDING AFFINITY PREDICTED BY RF-SCORE:    0.00 PKD
ROOT
HETATM    1  C   UNL     1      -6.947   2.107  67.378  1.00  0.00    -0.040 C  
HETATM    2 SE   UNL     1      -7.880   3.813  67.467  1.00  0.00    -0.082 Se 
ENDROOT
BRANCH   2   3
HETATM    3  C   UNL     1      -8.273   3.627  69.373  1.00  0.00    -0.053 C  
BRANCH   3   4
HETATM    4  C   UNL     1      -9.670   4.204  69.641  1.00  0.00    -0.269 C  
BRANCH   4   5
HETATM    5  CA  UNL     1      -9.713   5.435  70.577  1.00  0.00    -0.185 C  
HETATM    6  C   UNL     1     -10.522   6.580  70.004  1.00  0.00    -0.212 C  
HETATM    7  N   UNL     1     -10.226   5.071  71.898  1.00  0.00    -0.199 NA 
HETATM    8  O   UNL     1      -9.930   7.755  69.699  1.00  0.00    -0.184 OA 
HETATM    9  OXT UNL     1     -11.725   6.463  69.835  1.00  0.00    -0.426 OA 
HETATM   10  H1  UNL     1     -10.254   5.883  72.515  1.00  0.00     0.000 HD 
HETATM   11  H2  UNL     1      -9.695   4.304  72.310  1.00  0.00     0.000 HD 
ENDBRANCH   4   5
ENDBRANCH   3   4
ENDBRANCH   2   3
TORSDOF 3
ENDMDL
MODEL      260
REMARK 921   NORMALIZED FREE ENERGY PREDICTED BY IDOCK:   -1.23 KCAL/MOL
REMARK 922        TOTAL FREE ENERGY PREDICTED BY IDOCK:   -1.69 KCAL/MOL
REMARK 923 INTER-LIGAND FREE ENERGY PREDICTED BY IDOCK:   -1.65 KCAL/MOL
REMARK 924 INTRA-LIGAND FREE ENERGY PREDICTED BY IDOCK:   -0.04 KCAL/MOL
REMARK 927      BINDING AFFINITY PREDICTED BY RF-SCORE:    0.00 PKD
ROOT
HETATM    1  C   UNL     1      -6.450   7.908  70.403  1.00  0.00    -0.037 C  
HETATM    2 SE   UNL     1      -7.036   7.925  68.547  1.00  0.00    -0.078 Se 
ENDROOT
BRANCH   2   3
HETATM    3  C   UNL     1      -8.412   6.570  68.851  1.00  0.00    -0.122 C  
BRANCH   3   4
HETATM    4  C   UNL     1      -8.433   6.224  70.347  1.00  0.00    -0.134 C  
BRANCH   4   5
HETATM    5  CA  UNL     1      -9.503   5.193  70.776  1.00  0.00    -0.167 C  
HETATM    6  C   UNL     1     -10.839   5.831  71.094  1.00  0.00    -0.248 C  
HETATM    7  N   UNL     1      -9.672   4.158  69.755  1.00  0.00    -0.215 NA 
HETATM    8  O   UNL     1     -11.346   5.777  72.345  1.00  0.00    -0.279 OA 
HETATM    9  OXT UNL     1     -11.486   6.380  70.217  1.00  0.00    -0.370 OA 
HETATM   10  H1  UNL     1     -10.378   3.477  70.039  1.00  0.00     0.000 HD 
HETATM   11  H2  UNL     1      -8.787   3.707  69.525  1.00  0.00     0.000 HD 
ENDBRANCH   4   5
ENDBRANCH   3   4
ENDBRANCH   2   3
TORSDOF 3
ENDMDL
MODEL      261
REMARK 921   NORMALIZED FREE ENERGY PREDICTED BY IDOCK:   -1.23 KCAL/MOL
REMARK 922        TOTAL FREE ENERGY PREDICTED BY IDOCK:   -1.68 KCAL/MOL
REMARK 923 INTER-LIGAND FREE ENERGY PREDICTED BY IDOCK:   -1.59 KCAL/MOL
REMARK 924 INTRA-LIGAND FREE ENERGY PREDICTED BY IDOCK:   -0.09 KCAL/MOL
REMARK 927      BINDING AFFINITY PREDICTED BY RF-SCORE:    0.00 PKD
ROOT
HETATM    1  C   UNL     1      -6.820   2.611  70.591  1.00  0.00    -0.033 C  
HETATM    2 SE   UNL     1      -7.248   3.728  69.056  1.00  0.00    -0.050 Se 
ENDROOT
BRANCH   2   3
HETATM    3  C   UNL     1      -9.164   3.724  69.446  1.00  0.00    -0.156 C  
BRANCH   3   4
HETATM    4  C   UNL     1      -9.372   4.260  70.869  1.00  0.00    -0.220 C  
BRANCH   4   5
HETATM    5  CA  UNL     1      -9.723   5.763  70.969  1.00  0.00    -0.170 C  
HETATM    6  C   UNL     1     -10.927   6.028  71.850  1.00  0.00    -0.264 C  
HETATM    7  N   UNL     1      -8.576   6.539  71.443  1.00  0.00    -0.126 NA 
HETATM    8  O   UNL     1     -12.057   6.553  71.330  1.00  0.00    -0.337 OA 
HETATM    9  OXT UNL     1     -10.881   5.792  73.047  1.00  0.00    -0.238 OA 
HETATM   10  H1  UNL     1      -8.808   7.531  71.509  1.00  0.00     0.000 HD 
HETATM   11  H2  UNL     1      -7.751   6.384  70.863  1.00  0.00     0.000 HD 
ENDBRANCH   4   5
ENDBRANCH   3   4
ENDBRANCH   2   3
TORSDOF 3
ENDMDL
MODEL      262
REMARK 921   NORMALIZED FREE ENERGY PREDICTED BY IDOCK:   -1.22 KCAL/MOL
REMARK 922        TOTAL FREE ENERGY PREDICTED BY IDOCK:   -1.67 KCAL/MOL
REMARK 923 INTER-LIGAND FREE ENERGY PREDICTED BY IDOCK:   -1.51 KCAL/MOL
REMARK 924 INTRA-LIGAND FREE ENERGY PREDICTED BY IDOCK:   -0.16 KCAL/MOL
REMARK 927      BINDING AFFINITY PREDICTED BY RF-SCORE:    0.00 PKD
ROOT
HETATM    1  C   UNL     1      -5.935   4.414  65.409  1.00  0.00    -0.023 C  
HETATM    2 SE   UNL     1      -6.490   6.181  66.009  1.00  0.00    -0.048 Se 
ENDROOT
BRANCH   2   3
HETATM    3  C   UNL     1      -8.017   5.484  67.011  1.00  0.00    -0.102 C  
BRANCH   3   4
HETATM    4  C   UNL     1      -9.272   5.610  66.136  1.00  0.00    -0.169 C  
BRANCH   4   5
HETATM    5  CA  UNL     1     -10.079   4.305  65.938  1.00  0.00    -0.205 C  
HETATM    6  C   UNL     1     -10.049   3.807  64.508  1.00  0.00    -0.210 C  
HETATM    7  N   UNL     1      -9.609   3.256  66.845  1.00  0.00    -0.398 NA 
HETATM    8  O   UNL     1     -11.182   3.749  63.776  1.00  0.00    -0.263 OA 
HETATM    9  OXT UNL     1      -9.002   3.428  64.008  1.00  0.00    -0.096 OA 
HETATM   10  H1  UNL     1     -10.142   2.396  66.714  1.00  0.00     0.000 HD 
HETATM   11  H2  UNL     1      -9.624   3.564  67.817  1.00  0.00     0.000 HD 
ENDBRANCH   4   5
ENDBRANCH   3   4
ENDBRANCH   2   3
TORSDOF 3
ENDMDL
MODEL      263
REMARK 921   NORMALIZED FREE ENERGY PREDICTED BY IDOCK:   -1.22 KCAL/MOL
REMARK 922        TOTAL FREE ENERGY PREDICTED BY IDOCK:   -1.67 KCAL/MOL
REMARK 923 INTER-LIGAND FREE ENERGY PREDICTED BY IDOCK:   -1.48 KCAL/MOL
REMARK 924 INTRA-LIGAND FREE ENERGY PREDICTED BY IDOCK:   -0.19 KCAL/MOL
REMARK 927      BINDING AFFINITY PREDICTED BY RF-SCORE:    0.00 PKD
ROOT
HETATM    1  C   UNL     1     -11.399   6.407  69.950  1.00  0.00    -0.434 C  
HETATM    2 SE   UNL     1     -10.453   7.692  71.065  1.00  0.00    -0.211 Se 
ENDROOT
BRANCH   2   3
HETATM    3  C   UNL     1     -10.801   6.692  72.708  1.00  0.00    -0.251 C  
BRANCH   3   4
HETATM    4  C   UNL     1      -9.469   6.141  73.235  1.00  0.00    -0.143 C  
BRANCH   4   5
HETATM    5  CA  UNL     1      -9.149   4.680  72.836  1.00  0.00    -0.121 C  
HETATM    6  C   UNL     1      -8.280   4.585  71.600  1.00  0.00    -0.102 C  
HETATM    7  N   UNL     1      -8.523   3.960  73.946  1.00  0.00    -0.090 NA 
HETATM    8  O   UNL     1      -8.750   4.013  70.471  1.00  0.00    -0.072 OA 
HETATM    9  OXT UNL     1      -7.133   5.003  71.617  1.00  0.00    -0.054 OA 
HETATM   10  H1  UNL     1      -8.312   2.997  73.683  1.00  0.00     0.000 HD 
HETATM   11  H2  UNL     1      -9.091   4.004  74.792  1.00  0.00     0.000 HD 
ENDBRANCH   4   5
ENDBRANCH   3   4
ENDBRANCH   2   3
TORSDOF 3
ENDMDL
MODEL      264
REMARK 921   NORMALIZED FREE ENERGY PREDICTED BY IDOCK:   -1.21 KCAL/MOL
REMARK 922        TOTAL FREE ENERGY PREDICTED BY IDOCK:   -1.66 KCAL/MOL
REMARK 923 INTER-LIGAND FREE ENERGY PREDICTED BY IDOCK:   -1.59 KCAL/MOL
REMARK 924 INTRA-LIGAND FREE ENERGY PREDICTED BY IDOCK:   -0.07 KCAL/MOL
REMARK 927      BINDING AFFINITY PREDICTED BY RF-SCORE:    0.00 PKD
ROOT
HETATM    1  C   UNL     1      -5.897   3.837  69.880  1.00  0.00    -0.018 C  
HETATM    2 SE   UNL     1      -6.921   4.541  71.379  1.00  0.00    -0.043 Se 
ENDROOT
BRANCH   2   3
HETATM    3  C   UNL     1      -7.452   6.151  70.406  1.00  0.00    -0.090 C  
BRANCH   3   4
HETATM    4  C   UNL     1      -8.958   6.368  70.608  1.00  0.00    -0.144 C  
BRANCH   4   5
HETATM    5  CA  UNL     1      -9.456   7.818  70.397  1.00  0.00    -0.164 C  
HETATM    6  C   UNL     1      -9.766   8.528  71.699  1.00  0.00    -0.252 C  
HETATM    7  N   UNL     1      -8.490   8.595  69.620  1.00  0.00    -0.126 NA 
HETATM    8  O   UNL     1     -11.026   8.919  71.984  1.00  0.00    -0.352 OA 
HETATM    9  OXT UNL     1      -8.874   8.777  72.494  1.00  0.00    -0.402 OA 
HETATM   10  H1  UNL     1      -8.818   9.551  69.480  1.00  0.00     0.000 HD 
HETATM   11  H2  UNL     1      -8.266   8.141  68.734  1.00  0.00     0.000 HD 
ENDBRANCH   4   5
ENDBRANCH   3   4
ENDBRANCH   2   3
TORSDOF 3
ENDMDL
MODEL      265
REMARK 921   NORMALIZED FREE ENERGY PREDICTED BY IDOCK:   -1.20 KCAL/MOL
REMARK 922        TOTAL FREE ENERGY PREDICTED BY IDOCK:   -1.65 KCAL/MOL
REMARK 923 INTER-LIGAND FREE ENERGY PREDICTED BY IDOCK:   -1.53 KCAL/MOL
REMARK 924 INTRA-LIGAND FREE ENERGY PREDICTED BY IDOCK:   -0.12 KCAL/MOL
REMARK 927      BINDING AFFINITY PREDICTED BY RF-SCORE:    0.00 PKD
ROOT
HETATM    1  C   UNL     1      -7.986   7.527  74.531  1.00  0.00    -0.188 C  
HETATM    2 SE   UNL     1      -6.653   7.347  73.123  1.00  0.00    -0.066 Se 
ENDROOT
BRANCH   2   3
HETATM    3  C   UNL     1      -7.975   6.815  71.785  1.00  0.00    -0.101 C  
BRANCH   3   4
HETATM    4  C   UNL     1      -8.128   7.957  70.771  1.00  0.00    -0.101 C  
BRANCH   4   5
HETATM    5  CA  UNL     1      -9.454   8.750  70.857  1.00  0.00    -0.216 C  
HETATM    6  C   UNL     1     -10.243   8.717  69.565  1.00  0.00    -0.208 C  
HETATM    7  N   UNL     1     -10.282   8.267  71.963  1.00  0.00    -0.242 NA 
HETATM    8  O   UNL     1     -10.467   9.851  68.867  1.00  0.00    -0.193 OA 
HETATM    9  OXT UNL     1     -10.709   7.668  69.152  1.00  0.00    -0.214 OA 
HETATM   10  H1  UNL     1     -11.156   8.790  72.020  1.00  0.00     0.000 HD 
HETATM   11  H2  UNL     1      -9.776   8.283  72.848  1.00  0.00     0.000 HD 
ENDBRANCH   4   5
ENDBRANCH   3   4
ENDBRANCH   2   3
TORSDOF 3
ENDMDL
MODEL      266
REMARK 921   NORMALIZED FREE ENERGY PREDICTED BY IDOCK:   -1.18 KCAL/MOL
REMARK 922        TOTAL FREE ENERGY PREDICTED BY IDOCK:   -1.62 KCAL/MOL
REMARK 923 INTER-LIGAND FREE ENERGY PREDICTED BY IDOCK:   -1.46 KCAL/MOL
REMARK 924 INTRA-LIGAND FREE ENERGY PREDICTED BY IDOCK:   -0.17 KCAL/MOL
REMARK 927      BINDING AFFINITY PREDICTED BY RF-SCORE:    0.00 PKD
ROOT
HETATM    1  C   UNL     1      -7.262   6.887  66.956  1.00  0.00    -0.084 C  
HETATM    2 SE   UNL     1      -5.868   8.165  67.417  1.00  0.00    -0.043 Se 
ENDROOT
BRANCH   2   3
HETATM    3  C   UNL     1      -7.149   9.517  68.011  1.00  0.00    -0.080 C  
BRANCH   3   4
HETATM    4  C   UNL     1      -8.568   8.977  67.786  1.00  0.00    -0.121 C  
BRANCH   4   5
HETATM    5  CA  UNL     1      -9.553   9.183  68.961  1.00  0.00    -0.156 C  
HETATM    6  C   UNL     1      -9.781   7.919  69.765  1.00  0.00    -0.176 C  
HETATM    7  N   UNL     1      -9.100  10.261  69.841  1.00  0.00    -0.400 NA 
HETATM    8  O   UNL     1     -11.001   7.343  69.808  1.00  0.00    -0.247 OA 
HETATM    9  OXT UNL     1      -8.869   7.420  70.403  1.00  0.00    -0.147 OA 
HETATM   10  H1  UNL     1      -9.750  10.397  70.616  1.00  0.00     0.000 HD 
HETATM   11  H2  UNL     1      -8.943  11.127  69.326  1.00  0.00     0.000 HD 
ENDBRANCH   4   5
ENDBRANCH   3   4
ENDBRANCH   2   3
TORSDOF 3
ENDMDL
MODEL      267
REMARK 921   NORMALIZED FREE ENERGY PREDICTED BY IDOCK:   -1.17 KCAL/MOL
REMARK 922        TOTAL FREE ENERGY PREDICTED BY IDOCK:   -1.62 KCAL/MOL
REMARK 923 INTER-LIGAND FREE ENERGY PREDICTED BY IDOCK:   -1.47 KCAL/MOL
REMARK 924 INTRA-LIGAND FREE ENERGY PREDICTED BY IDOCK:   -0.14 KCAL/MOL
REMARK 927      BINDING AFFINITY PREDICTED BY RF-SCORE:    0.00 PKD
ROOT
HETATM    1  C   UNL     1      -9.994   2.722  72.141  1.00  0.00    -0.167 C  
HETATM    2 SE   UNL     1     -10.449   4.497  72.798  1.00  0.00    -0.196 Se 
ENDROOT
BRANCH   2   3
HETATM    3  C   UNL     1      -8.791   5.291  72.134  1.00  0.00    -0.130 C  
BRANCH   3   4
HETATM    4  C   UNL     1      -8.753   5.134  70.607  1.00  0.00    -0.142 C  
BRANCH   4   5
HETATM    5  CA  UNL     1      -9.937   5.772  69.843  1.00  0.00    -0.194 C  
HETATM    6  C   UNL     1      -9.730   7.246  69.563  1.00  0.00    -0.158 C  
HETATM    7  N   UNL     1     -10.201   5.057  68.594  1.00  0.00    -0.126 NA 
HETATM    8  O   UNL     1     -10.544   8.172  70.113  1.00  0.00    -0.228 OA 
HETATM    9  OXT UNL     1      -8.838   7.613  68.815  1.00  0.00    -0.131 OA 
HETATM   10  H1  UNL     1     -10.982   5.477  68.090  1.00  0.00     0.000 HD 
HETATM   11  H2  UNL     1     -10.349   4.060  68.754  1.00  0.00     0.000 HD 
ENDBRANCH   4   5
ENDBRANCH   3   4
ENDBRANCH   2   3
TORSDOF 3
ENDMDL
MODEL      268
REMARK 921   NORMALIZED FREE ENERGY PREDICTED BY IDOCK:   -1.17 KCAL/MOL
REMARK 922        TOTAL FREE ENERGY PREDICTED BY IDOCK:   -1.61 KCAL/MOL
REMARK 923 INTER-LIGAND FREE ENERGY PREDICTED BY IDOCK:   -1.47 KCAL/MOL
REMARK 924 INTRA-LIGAND FREE ENERGY PREDICTED BY IDOCK:   -0.13 KCAL/MOL
REMARK 927      BINDING AFFINITY PREDICTED BY RF-SCORE:    0.00 PKD
ROOT
HETATM    1  C   UNL     1      -9.853   4.560  70.789  1.00  0.00    -0.210 C  
HETATM    2 SE   UNL     1     -10.650   5.363  72.373  1.00  0.00    -0.232 Se 
ENDROOT
BRANCH   2   3
HETATM    3  C   UNL     1      -8.930   5.985  73.061  1.00  0.00    -0.127 C  
BRANCH   3   4
HETATM    4  C   UNL     1      -8.088   6.494  71.882  1.00  0.00    -0.104 C  
BRANCH   4   5
HETATM    5  CA  UNL     1      -8.044   8.031  71.711  1.00  0.00    -0.117 C  
HETATM    6  C   UNL     1      -8.148   8.464  70.263  1.00  0.00    -0.104 C  
HETATM    7  N   UNL     1      -9.091   8.677  72.503  1.00  0.00    -0.367 NA 
HETATM    8  O   UNL     1      -7.123   9.105  69.662  1.00  0.00    -0.055 OA 
HETATM    9  OXT UNL     1      -9.170   8.260  69.629  1.00  0.00    -0.156 OA 
HETATM   10  H1  UNL     1      -9.061   9.691  72.391  1.00  0.00     0.000 HD 
HETATM   11  H2  UNL     1      -9.041   8.406  73.486  1.00  0.00     0.000 HD 
ENDBRANCH   4   5
ENDBRANCH   3   4
ENDBRANCH   2   3
TORSDOF 3
ENDMDL
MODEL      269
REMARK 921   NORMALIZED FREE ENERGY PREDICTED BY IDOCK:   -1.17 KCAL/MOL
REMARK 922        TOTAL FREE ENERGY PREDICTED BY IDOCK:   -1.61 KCAL/MOL
REMARK 923 INTER-LIGAND FREE ENERGY PREDICTED BY IDOCK:   -1.52 KCAL/MOL
REMARK 924 INTRA-LIGAND FREE ENERGY PREDICTED BY IDOCK:   -0.09 KCAL/MOL
REMARK 927      BINDING AFFINITY PREDICTED BY RF-SCORE:    0.00 PKD
ROOT
HETATM    1  C   UNL     1     -10.058   5.081  72.539  1.00  0.00    -0.183 C  
HETATM    2 SE   UNL     1     -10.057   6.911  73.201  1.00  0.00    -0.242 Se 
ENDROOT
BRANCH   2   3
HETATM    3  C   UNL     1      -8.729   7.502  71.893  1.00  0.00    -0.114 C  
BRANCH   3   4
HETATM    4  C   UNL     1      -9.330   8.654  71.076  1.00  0.00    -0.254 C  
BRANCH   4   5
HETATM    5  CA  UNL     1      -8.306   9.571  70.366  1.00  0.00    -0.192 C  
HETATM    6  C   UNL     1      -7.217   8.795  69.655  1.00  0.00    -0.055 C  
HETATM    7  N   UNL     1      -8.973  10.473  69.426  1.00  0.00    -0.355 NA 
HETATM    8  O   UNL     1      -5.929   8.899  70.048  1.00  0.00    -0.030 OA 
HETATM    9  OXT UNL     1      -7.487   8.084  68.700  1.00  0.00    -0.093 OA 
HETATM   10  H1  UNL     1      -8.298  11.078  68.958  1.00  0.00     0.000 HD 
HETATM   11  H2  UNL     1      -9.710  11.013  69.881  1.00  0.00     0.000 HD 
ENDBRANCH   4   5
ENDBRANCH   3   4
ENDBRANCH   2   3
TORSDOF 3
ENDMDL
MODEL      270
REMARK 921   NORMALIZED FREE ENERGY PREDICTED BY IDOCK:   -1.15 KCAL/MOL
REMARK 922        TOTAL FREE ENERGY PREDICTED BY IDOCK:   -1.59 KCAL/MOL
REMARK 923 INTER-LIGAND FREE ENERGY PREDICTED BY IDOCK:   -1.47 KCAL/MOL
REMARK 924 INTRA-LIGAND FREE ENERGY PREDICTED BY IDOCK:   -0.13 KCAL/MOL
REMARK 927      BINDING AFFINITY PREDICTED BY RF-SCORE:    0.00 PKD
ROOT
HETATM    1  C   UNL     1     -10.202  10.682  67.851  1.00  0.00    -0.177 C  
HETATM    2 SE   UNL     1      -9.649   9.030  66.981  1.00  0.00    -0.192 Se 
ENDROOT
BRANCH   2   3
HETATM    3  C   UNL     1      -8.459   8.525  68.447  1.00  0.00    -0.138 C  
BRANCH   3   4
HETATM    4  C   UNL     1      -8.162   7.023  68.337  1.00  0.00    -0.124 C  
BRANCH   4   5
HETATM    5  CA  UNL     1      -8.752   6.143  69.464  1.00  0.00    -0.130 C  
HETATM    6  C   UNL     1     -10.235   5.885  69.293  1.00  0.00    -0.213 C  
HETATM    7  N   UNL     1      -8.032   4.873  69.570  1.00  0.00    -0.070 NA 
HETATM    8  O   UNL     1     -11.123   6.351  70.198  1.00  0.00    -0.299 OA 
HETATM    9  OXT UNL     1     -10.643   5.232  68.347  1.00  0.00    -0.124 OA 
HETATM   10  H1  UNL     1      -8.421   4.293  70.314  1.00  0.00     0.000 HD 
HETATM   11  H2  UNL     1      -7.030   5.018  69.691  1.00  0.00     0.000 HD 
ENDBRANCH   4   5
ENDBRANCH   3   4
ENDBRANCH   2   3
TORSDOF 3
ENDMDL
MODEL      271
REMARK 921   NORMALIZED FREE ENERGY PREDICTED BY IDOCK:   -1.13 KCAL/MOL
REMARK 922        TOTAL FREE ENERGY PREDICTED BY IDOCK:   -1.56 KCAL/MOL
REMARK 923 INTER-LIGAND FREE ENERGY PREDICTED BY IDOCK:   -1.52 KCAL/MOL
REMARK 924 INTRA-LIGAND FREE ENERGY PREDICTED BY IDOCK:   -0.04 KCAL/MOL
REMARK 927      BINDING AFFINITY PREDICTED BY RF-SCORE:    0.00 PKD
ROOT
HETATM    1  C   UNL     1      -9.889   2.322  63.951  1.00  0.00    -0.139 C  
HETATM    2 SE   UNL     1      -8.392   3.359  64.640  1.00  0.00    -0.093 Se 
ENDROOT
BRANCH   2   3
HETATM    3  C   UNL     1      -9.005   3.224  66.491  1.00  0.00    -0.153 C  
BRANCH   3   4
HETATM    4  C   UNL     1      -9.817   4.482  66.829  1.00  0.00    -0.242 C  
BRANCH   4   5
HETATM    5  CA  UNL     1      -9.423   5.195  68.144  1.00  0.00    -0.127 C  
HETATM    6  C   UNL     1     -10.357   6.334  68.497  1.00  0.00    -0.203 C  
HETATM    7  N   UNL     1      -9.351   4.243  69.254  1.00  0.00    -0.147 NA 
HETATM    8  O   UNL     1      -9.905   7.606  68.536  1.00  0.00    -0.159 OA 
HETATM    9  OXT UNL     1     -11.524   6.112  68.776  1.00  0.00    -0.259 OA 
HETATM   10  H1  UNL     1      -9.091   4.713  70.121  1.00  0.00     0.000 HD 
HETATM   11  H2  UNL     1      -8.724   3.467  69.045  1.00  0.00     0.000 HD 
ENDBRANCH   4   5
ENDBRANCH   3   4
ENDBRANCH   2   3
TORSDOF 3
ENDMDL
MODEL      272
REMARK 921   NORMALIZED FREE ENERGY PREDICTED BY IDOCK:   -1.12 KCAL/MOL
REMARK 922        TOTAL FREE ENERGY PREDICTED BY IDOCK:   -1.56 KCAL/MOL
REMARK 923 INTER-LIGAND FREE ENERGY PREDICTED BY IDOCK:   -1.50 KCAL/MOL
REMARK 924 INTRA-LIGAND FREE ENERGY PREDICTED BY IDOCK:   -0.06 KCAL/MOL
REMARK 927      BINDING AFFINITY PREDICTED BY RF-SCORE:    0.00 PKD
ROOT
HETATM    1  C   UNL     1      -7.658   6.848  68.162  1.00  0.00    -0.108 C  
HETATM    2 SE   UNL     1      -7.367   7.643  66.409  1.00  0.00    -0.080 Se 
ENDROOT
BRANCH   2   3
HETATM    3  C   UNL     1      -7.523   9.470  67.088  1.00  0.00    -0.091 C  
BRANCH   3   4
HETATM    4  C   UNL     1      -8.795  10.100  66.503  1.00  0.00    -0.153 C  
BRANCH   4   5
HETATM    5  CA  UNL     1      -9.639  10.936  67.494  1.00  0.00    -0.155 C  
HETATM    6  C   UNL     1      -9.372  12.423  67.384  1.00  0.00    -0.181 C  
HETATM    7  N   UNL     1     -11.068  10.669  67.320  1.00  0.00    -0.295 NA 
HETATM    8  O   UNL     1      -8.831  13.102  68.418  1.00  0.00    -0.175 OA 
HETATM    9  OXT UNL     1      -9.667  13.030  66.368  1.00  0.00    -0.260 OA 
HETATM   10  H1  UNL     1     -11.625  11.220  67.974  1.00  0.00     0.000 HD 
HETATM   11  H2  UNL     1     -11.277   9.673  67.394  1.00  0.00     0.000 HD 
ENDBRANCH   4   5
ENDBRANCH   3   4
ENDBRANCH   2   3
TORSDOF 3
ENDMDL
MODEL      273
REMARK 921   NORMALIZED FREE ENERGY PREDICTED BY IDOCK:   -1.12 KCAL/MOL
REMARK 922        TOTAL FREE ENERGY PREDICTED BY IDOCK:   -1.55 KCAL/MOL
REMARK 923 INTER-LIGAND FREE ENERGY PREDICTED BY IDOCK:   -1.51 KCAL/MOL
REMARK 924 INTRA-LIGAND FREE ENERGY PREDICTED BY IDOCK:   -0.04 KCAL/MOL
REMARK 927      BINDING AFFINITY PREDICTED BY RF-SCORE:    0.00 PKD
ROOT
HETATM    1  C   UNL     1      -6.876   9.473  62.761  1.00  0.00    -0.098 C  
HETATM    2 SE   UNL     1      -8.090   9.682  64.269  1.00  0.00    -0.159 Se 
ENDROOT
BRANCH   2   3
HETATM    3  C   UNL     1      -8.138   7.764  64.641  1.00  0.00    -0.123 C  
BRANCH   3   4
HETATM    4  C   UNL     1      -8.803   7.550  66.008  1.00  0.00    -0.179 C  
BRANCH   4   5
HETATM    5  CA  UNL     1      -9.140   6.082  66.361  1.00  0.00    -0.150 C  
HETATM    6  C   UNL     1      -8.772   5.721  67.785  1.00  0.00    -0.107 C  
HETATM    7  N   UNL     1     -10.556   5.798  66.122  1.00  0.00    -0.485 NA 
HETATM    8  O   UNL     1      -7.826   4.790  68.035  1.00  0.00    -0.082 OA 
HETATM    9  OXT UNL     1      -9.345   6.249  68.724  1.00  0.00    -0.125 OA 
HETATM   10  H1  UNL     1     -10.778   4.829  66.355  1.00  0.00     0.000 HD 
HETATM   11  H2  UNL     1     -10.831   6.027  65.167  1.00  0.00     0.000 HD 
ENDBRANCH   4   5
ENDBRANCH   3   4
ENDBRANCH   2   3
TORSDOF 3
ENDMDL
MODEL      274
REMARK 921   NORMALIZED FREE ENERGY PREDICTED BY IDOCK:   -1.10 KCAL/MOL
REMARK 922        TOTAL FREE ENERGY PREDICTED BY IDOCK:   -1.53 KCAL/MOL
REMARK 923 INTER-LIGAND FREE ENERGY PREDICTED BY IDOCK:   -1.40 KCAL/MOL
REMARK 924 INTRA-LIGAND FREE ENERGY PREDICTED BY IDOCK:   -0.13 KCAL/MOL
REMARK 927      BINDING AFFINITY PREDICTED BY RF-SCORE:    0.00 PKD
ROOT
HETATM    1  C   UNL     1      -6.602   7.031  66.096  1.00  0.00    -0.052 C  
HETATM    2 SE   UNL     1      -8.017   8.121  65.321  1.00  0.00    -0.133 Se 
ENDROOT
BRANCH   2   3
HETATM    3  C   UNL     1      -9.351   7.507  66.610  1.00  0.00    -0.174 C  
BRANCH   3   4
HETATM    4  C   UNL     1      -8.642   7.202  67.937  1.00  0.00    -0.123 C  
BRANCH   4   5
HETATM    5  CA  UNL     1      -9.115   5.922  68.666  1.00  0.00    -0.115 C  
HETATM    6  C   UNL     1     -10.158   6.203  69.729  1.00  0.00    -0.181 C  
HETATM    7  N   UNL     1      -9.624   4.935  67.713  1.00  0.00    -0.141 NA 
HETATM    8  O   UNL     1      -9.894   5.961  71.030  1.00  0.00    -0.175 OA 
HETATM    9  OXT UNL     1     -11.258   6.628  69.417  1.00  0.00    -0.306 OA 
HETATM   10  H1  UNL     1      -9.936   4.090  68.194  1.00  0.00     0.000 HD 
HETATM   11  H2  UNL     1      -8.939   4.723  66.988  1.00  0.00     0.000 HD 
ENDBRANCH   4   5
ENDBRANCH   3   4
ENDBRANCH   2   3
TORSDOF 3
ENDMDL
MODEL      275
REMARK 921   NORMALIZED FREE ENERGY PREDICTED BY IDOCK:   -1.06 KCAL/MOL
REMARK 922        TOTAL FREE ENERGY PREDICTED BY IDOCK:   -1.48 KCAL/MOL
REMARK 923 INTER-LIGAND FREE ENERGY PREDICTED BY IDOCK:   -1.77 KCAL/MOL
REMARK 924 INTRA-LIGAND FREE ENERGY PREDICTED BY IDOCK:    0.29 KCAL/MOL
REMARK 927      BINDING AFFINITY PREDICTED BY RF-SCORE:    0.00 PKD
ROOT
HETATM    1  C   UNL     1      -8.081   7.488  73.339  1.00  0.00    -0.125 C  
HETATM    2 SE   UNL     1      -9.582   8.229  72.345  1.00  0.00    -0.307 Se 
ENDROOT
BRANCH   2   3
HETATM    3  C   UNL     1      -9.678   6.700  71.131  1.00  0.00    -0.174 C  
BRANCH   3   4
HETATM    4  C   UNL     1     -10.951   6.831  70.283  1.00  0.00    -0.339 C  
BRANCH   4   5
HETATM    5  CA  UNL     1     -10.723   7.126  68.781  1.00  0.00    -0.169 C  
HETATM    6  C   UNL     1      -9.802   8.306  68.547  1.00  0.00    -0.176 C  
HETATM    7  N   UNL     1     -10.208   5.944  68.088  1.00  0.00    -0.166 NA 
HETATM    8  O   UNL     1     -10.258   9.423  67.941  1.00  0.00    -0.186 OA 
HETATM    9  OXT UNL     1      -8.630   8.251  68.882  1.00  0.00    -0.131 OA 
HETATM   10  H1  UNL     1     -10.057   6.138  67.098  1.00  0.00     0.000 HD 
HETATM   11  H2  UNL     1     -10.812   5.133  68.225  1.00  0.00     0.000 HD 
ENDBRANCH   4   5
ENDBRANCH   3   4
ENDBRANCH   2   3
TORSDOF 3
ENDMDL
MODEL      276
REMARK 921   NORMALIZED FREE ENERGY PREDICTED BY IDOCK:   -1.05 KCAL/MOL
REMARK 922        TOTAL FREE ENERGY PREDICTED BY IDOCK:   -1.47 KCAL/MOL
REMARK 923 INTER-LIGAND FREE ENERGY PREDICTED BY IDOCK:   -1.39 KCAL/MOL
REMARK 924 INTRA-LIGAND FREE ENERGY PREDICTED BY IDOCK:   -0.08 KCAL/MOL
REMARK 927      BINDING AFFINITY PREDICTED BY RF-SCORE:    0.00 PKD
ROOT
HETATM    1  C   UNL     1      -8.694   8.143  70.161  1.00  0.00    -0.130 C  
HETATM    2 SE   UNL     1      -7.367   6.820  69.634  1.00  0.00    -0.089 Se 
ENDROOT
BRANCH   2   3
HETATM    3  C   UNL     1      -7.287   7.468  67.792  1.00  0.00    -0.103 C  
BRANCH   3   4
HETATM    4  C   UNL     1      -8.418   8.485  67.584  1.00  0.00    -0.129 C  
BRANCH   4   5
HETATM    5  CA  UNL     1      -8.141   9.581  66.528  1.00  0.00    -0.112 C  
HETATM    6  C   UNL     1      -9.294   9.774  65.565  1.00  0.00    -0.240 C  
HETATM    7  N   UNL     1      -7.807  10.854  67.171  1.00  0.00    -0.122 NA 
HETATM    8  O   UNL     1      -9.143   9.506  64.251  1.00  0.00    -0.233 OA 
HETATM    9  OXT UNL     1     -10.367  10.199  65.962  1.00  0.00    -0.232 OA 
HETATM   10  H1  UNL     1      -7.624  11.577  66.475  1.00  0.00     0.000 HD 
HETATM   11  H2  UNL     1      -7.029  10.754  67.822  1.00  0.00     0.000 HD 
ENDBRANCH   4   5
ENDBRANCH   3   4
ENDBRANCH   2   3
TORSDOF 3
ENDMDL
MODEL      277
REMARK 921   NORMALIZED FREE ENERGY PREDICTED BY IDOCK:   -1.01 KCAL/MOL
REMARK 922        TOTAL FREE ENERGY PREDICTED BY IDOCK:   -1.43 KCAL/MOL
REMARK 923 INTER-LIGAND FREE ENERGY PREDICTED BY IDOCK:   -1.36 KCAL/MOL
REMARK 924 INTRA-LIGAND FREE ENERGY PREDICTED BY IDOCK:   -0.07 KCAL/MOL
REMARK 927      BINDING AFFINITY PREDICTED BY RF-SCORE:    0.00 PKD
ROOT
HETATM    1  C   UNL     1      -7.977   6.063  70.937  1.00  0.00    -0.115 C  
HETATM    2 SE   UNL     1      -6.912   6.140  69.310  1.00  0.00    -0.066 Se 
ENDROOT
BRANCH   2   3
HETATM    3  C   UNL     1      -8.394   5.553  68.178  1.00  0.00    -0.099 C  
BRANCH   3   4
HETATM    4  C   UNL     1      -8.107   5.988  66.735  1.00  0.00    -0.105 C  
BRANCH   4   5
HETATM    5  CA  UNL     1      -9.270   5.785  65.735  1.00  0.00    -0.070 C  
HETATM    6  C   UNL     1      -9.151   4.496  64.949  1.00  0.00    -0.152 C  
HETATM    7  N   UNL     1     -10.563   5.838  66.418  1.00  0.00    -0.474 NA 
HETATM    8  O   UNL     1      -8.979   4.521  63.610  1.00  0.00    -0.138 OA 
HETATM    9  OXT UNL     1      -9.233   3.418  65.514  1.00  0.00    -0.144 OA 
HETATM   10  H1  UNL     1     -11.330   5.705  65.758  1.00  0.00     0.000 HD 
HETATM   11  H2  UNL     1     -10.673   6.700  66.952  1.00  0.00     0.000 HD 
ENDBRANCH   4   5
ENDBRANCH   3   4
ENDBRANCH   2   3
TORSDOF 3
ENDMDL
MODEL      278
REMARK 921   NORMALIZED FREE ENERGY PREDICTED BY IDOCK:   -0.99 KCAL/MOL
REMARK 922        TOTAL FREE ENERGY PREDICTED BY IDOCK:   -1.40 KCAL/MOL
REMARK 923 INTER-LIGAND FREE ENERGY PREDICTED BY IDOCK:   -1.37 KCAL/MOL
REMARK 924 INTRA-LIGAND FREE ENERGY PREDICTED BY IDOCK:   -0.03 KCAL/MOL
REMARK 927      BINDING AFFINITY PREDICTED BY RF-SCORE:    0.00 PKD
ROOT
HETATM    1  C   UNL     1      -7.667   3.833  71.295  1.00  0.00    -0.059 C  
HETATM    2 SE   UNL     1      -9.266   4.258  70.269  1.00  0.00    -0.150 Se 
ENDROOT
BRANCH   2   3
HETATM    3  C   UNL     1      -9.395   6.064  71.006  1.00  0.00    -0.161 C  
BRANCH   3   4
HETATM    4  C   UNL     1     -10.351   6.882  70.127  1.00  0.00    -0.218 C  
BRANCH   4   5
HETATM    5  CA  UNL     1      -9.758   7.388  68.791  1.00  0.00    -0.149 C  
HETATM    6  C   UNL     1     -10.242   8.775  68.421  1.00  0.00    -0.196 C  
HETATM    7  N   UNL     1      -8.295   7.360  68.824  1.00  0.00    -0.128 NA 
HETATM    8  O   UNL     1     -10.989   8.969  67.313  1.00  0.00    -0.137 OA 
HETATM    9  OXT UNL     1      -9.940   9.738  69.107  1.00  0.00    -0.172 OA 
HETATM   10  H1  UNL     1      -7.904   7.693  67.942  1.00  0.00     0.000 HD 
HETATM   11  H2  UNL     1      -7.941   6.434  69.066  1.00  0.00     0.000 HD 
ENDBRANCH   4   5
ENDBRANCH   3   4
ENDBRANCH   2   3
TORSDOF 3
ENDMDL
MODEL      279
REMARK 921   NORMALIZED FREE ENERGY PREDICTED BY IDOCK:   -0.98 KCAL/MOL
REMARK 922        TOTAL FREE ENERGY PREDICTED BY IDOCK:   -1.40 KCAL/MOL
REMARK 923 INTER-LIGAND FREE ENERGY PREDICTED BY IDOCK:   -1.76 KCAL/MOL
REMARK 924 INTRA-LIGAND FREE ENERGY PREDICTED BY IDOCK:    0.36 KCAL/MOL
REMARK 927      BINDING AFFINITY PREDICTED BY RF-SCORE:    0.00 PKD
ROOT
HETATM    1  C   UNL     1      -8.270   8.091  74.146  1.00  0.00    -0.262 C  
HETATM    2 SE   UNL     1      -7.077   7.745  72.647  1.00  0.00    -0.086 Se 
ENDROOT
BRANCH   2   3
HETATM    3  C   UNL     1      -8.304   6.469  71.820  1.00  0.00    -0.116 C  
BRANCH   3   4
HETATM    4  C   UNL     1      -8.252   6.660  70.298  1.00  0.00    -0.126 C  
BRANCH   4   5
HETATM    5  CA  UNL     1      -9.503   7.315  69.666  1.00  0.00    -0.155 C  
HETATM    6  C   UNL     1     -10.723   7.236  70.561  1.00  0.00    -0.232 C  
HETATM    7  N   UNL     1      -9.237   8.708  69.303  1.00  0.00    -0.149 NA 
HETATM    8  O   UNL     1     -11.809   6.529  70.181  1.00  0.00    -0.416 OA 
HETATM    9  OXT UNL     1     -10.748   7.832  71.625  1.00  0.00    -0.216 OA 
HETATM   10  H1  UNL     1     -10.062   9.140  68.886  1.00  0.00     0.000 HD 
HETATM   11  H2  UNL     1      -8.422   8.790  68.695  1.00  0.00     0.000 HD 
ENDBRANCH   4   5
ENDBRANCH   3   4
ENDBRANCH   2   3
TORSDOF 3
ENDMDL
MODEL      280
REMARK 921   NORMALIZED FREE ENERGY PREDICTED BY IDOCK:   -0.96 KCAL/MOL
REMARK 922        TOTAL FREE ENERGY PREDICTED BY IDOCK:   -1.37 KCAL/MOL
REMARK 923 INTER-LIGAND FREE ENERGY PREDICTED BY IDOCK:   -1.27 KCAL/MOL
REMARK 924 INTRA-LIGAND FREE ENERGY PREDICTED BY IDOCK:   -0.10 KCAL/MOL
REMARK 927      BINDING AFFINITY PREDICTED BY RF-SCORE:    0.00 PKD
ROOT
HETATM    1  C   UNL     1      -9.086  11.790  67.483  1.00  0.00    -0.175 C  
HETATM    2 SE   UNL     1      -8.968  10.654  65.906  1.00  0.00    -0.181 Se 
ENDROOT
BRANCH   2   3
HETATM    3  C   UNL     1      -8.897   9.008  66.959  1.00  0.00    -0.119 C  
BRANCH   3   4
HETATM    4  C   UNL     1      -8.951   9.379  68.447  1.00  0.00    -0.128 C  
BRANCH   4   5
HETATM    5  CA  UNL     1      -9.479   8.273  69.391  1.00  0.00    -0.159 C  
HETATM    6  C   UNL     1      -8.384   7.353  69.888  1.00  0.00    -0.134 C  
HETATM    7  N   UNL     1     -10.201   8.852  70.525  1.00  0.00    -0.193 NA 
HETATM    8  O   UNL     1      -8.383   6.044  69.557  1.00  0.00    -0.112 OA 
HETATM    9  OXT UNL     1      -7.503   7.778  70.617  1.00  0.00    -0.068 OA 
HETATM   10  H1  UNL     1     -10.550   8.122  71.146  1.00  0.00     0.000 HD 
HETATM   11  H2  UNL     1     -10.949   9.474  70.218  1.00  0.00     0.000 HD 
ENDBRANCH   4   5
ENDBRANCH   3   4
ENDBRANCH   2   3
TORSDOF 3
ENDMDL
MODEL      281
REMARK 921   NORMALIZED FREE ENERGY PREDICTED BY IDOCK:   -0.94 KCAL/MOL
REMARK 922        TOTAL FREE ENERGY PREDICTED BY IDOCK:   -1.34 KCAL/MOL
REMARK 923 INTER-LIGAND FREE ENERGY PREDICTED BY IDOCK:   -1.25 KCAL/MOL
REMARK 924 INTRA-LIGAND FREE ENERGY PREDICTED BY IDOCK:   -0.10 KCAL/MOL
REMARK 927      BINDING AFFINITY PREDICTED BY RF-SCORE:    0.00 PKD
ROOT
HETATM    1  C   UNL     1      -8.935   7.220  74.167  1.00  0.00    -0.226 C  
HETATM    2 SE   UNL     1      -8.229   6.170  72.687  1.00  0.00    -0.106 Se 
ENDROOT
BRANCH   2   3
HETATM    3  C   UNL     1      -9.976   6.001  71.827  1.00  0.00    -0.170 C  
BRANCH   3   4
HETATM    4  C   UNL     1      -9.762   5.558  70.373  1.00  0.00    -0.242 C  
BRANCH   4   5
HETATM    5  CA  UNL     1      -9.738   4.029  70.140  1.00  0.00    -0.195 C  
HETATM    6  C   UNL     1      -8.472   3.559  69.453  1.00  0.00    -0.065 C  
HETATM    7  N   UNL     1      -9.924   3.304  71.398  1.00  0.00    -0.126 NA 
HETATM    8  O   UNL     1      -8.523   3.003  68.224  1.00  0.00    -0.075 OA 
HETATM    9  OXT UNL     1      -7.393   3.654  70.015  1.00  0.00    -0.041 OA 
HETATM   10  H1  UNL     1      -9.909   2.296  71.244  1.00  0.00     0.000 HD 
HETATM   11  H2  UNL     1     -10.774   3.598  71.880  1.00  0.00     0.000 HD 
ENDBRANCH   4   5
ENDBRANCH   3   4
ENDBRANCH   2   3
TORSDOF 3
ENDMDL
MODEL      282
REMARK 921   NORMALIZED FREE ENERGY PREDICTED BY IDOCK:   -0.94 KCAL/MOL
REMARK 922        TOTAL FREE ENERGY PREDICTED BY IDOCK:   -1.34 KCAL/MOL
REMARK 923 INTER-LIGAND FREE ENERGY PREDICTED BY IDOCK:   -1.27 KCAL/MOL
REMARK 924 INTRA-LIGAND FREE ENERGY PREDICTED BY IDOCK:   -0.07 KCAL/MOL
REMARK 927      BINDING AFFINITY PREDICTED BY RF-SCORE:    0.00 PKD
ROOT
HETATM    1  C   UNL     1      -9.190   9.106  69.188  1.00  0.00    -0.144 C  
HETATM    2 SE   UNL     1      -7.661   7.933  68.911  1.00  0.00    -0.102 Se 
ENDROOT
BRANCH   2   3
HETATM    3  C   UNL     1      -7.562   8.327  66.999  1.00  0.00    -0.092 C  
BRANCH   3   4
HETATM    4  C   UNL     1      -6.958   7.112  66.282  1.00  0.00    -0.065 C  
BRANCH   4   5
HETATM    5  CA  UNL     1      -7.647   6.712  64.955  1.00  0.00    -0.099 C  
HETATM    6  C   UNL     1      -8.348   5.372  65.038  1.00  0.00    -0.145 C  
HETATM    7  N   UNL     1      -8.589   7.745  64.522  1.00  0.00    -0.373 NA 
HETATM    8  O   UNL     1      -7.935   4.333  64.282  1.00  0.00    -0.086 OA 
HETATM    9  OXT UNL     1      -9.311   5.223  65.772  1.00  0.00    -0.160 OA 
HETATM   10  H1  UNL     1      -9.043   7.481  63.647  1.00  0.00     0.000 HD 
HETATM   11  H2  UNL     1      -8.142   8.659  64.453  1.00  0.00     0.000 HD 
ENDBRANCH   4   5
ENDBRANCH   3   4
ENDBRANCH   2   3
TORSDOF 3
ENDMDL
MODEL      283
REMARK 921   NORMALIZED FREE ENERGY PREDICTED BY IDOCK:   -0.93 KCAL/MOL
REMARK 922        TOTAL FREE ENERGY PREDICTED BY IDOCK:   -1.33 KCAL/MOL
REMARK 923 INTER-LIGAND FREE ENERGY PREDICTED BY IDOCK:   -1.32 KCAL/MOL
REMARK 924 INTRA-LIGAND FREE ENERGY PREDICTED BY IDOCK:   -0.01 KCAL/MOL
REMARK 927      BINDING AFFINITY PREDICTED BY RF-SCORE:    0.00 PKD
ROOT
HETATM    1  C   UNL     1      -9.279   3.994  64.948  1.00  0.00    -0.152 C  
HETATM    2 SE   UNL     1      -8.471   5.662  65.543  1.00  0.00    -0.148 Se 
ENDROOT
BRANCH   2   3
HETATM    3  C   UNL     1      -7.682   4.844  67.132  1.00  0.00    -0.092 C  
BRANCH   3   4
HETATM    4  C   UNL     1      -8.790   4.633  68.173  1.00  0.00    -0.119 C  
BRANCH   4   5
HETATM    5  CA  UNL     1      -9.269   5.911  68.903  1.00  0.00    -0.119 C  
HETATM    6  C   UNL     1      -9.622   5.661  70.355  1.00  0.00    -0.170 C  
HETATM    7  N   UNL     1      -8.268   6.975  68.807  1.00  0.00    -0.121 NA 
HETATM    8  O   UNL     1     -10.889   5.825  70.792  1.00  0.00    -0.271 OA 
HETATM    9  OXT UNL     1      -8.759   5.332  71.153  1.00  0.00    -0.124 OA 
HETATM   10  H1  UNL     1      -8.585   7.818  69.287  1.00  0.00     0.000 HD 
HETATM   11  H2  UNL     1      -8.015   7.168  67.838  1.00  0.00     0.000 HD 
ENDBRANCH   4   5
ENDBRANCH   3   4
ENDBRANCH   2   3
TORSDOF 3
ENDMDL
MODEL      284
REMARK 921   NORMALIZED FREE ENERGY PREDICTED BY IDOCK:   -0.92 KCAL/MOL
REMARK 922        TOTAL FREE ENERGY PREDICTED BY IDOCK:   -1.33 KCAL/MOL
REMARK 923 INTER-LIGAND FREE ENERGY PREDICTED BY IDOCK:   -1.27 KCAL/MOL
REMARK 924 INTRA-LIGAND FREE ENERGY PREDICTED BY IDOCK:   -0.05 KCAL/MOL
REMARK 927      BINDING AFFINITY PREDICTED BY RF-SCORE:    0.00 PKD
ROOT
HETATM    1  C   UNL     1      -7.287   9.549  62.541  1.00  0.00    -0.102 C  
HETATM    2 SE   UNL     1      -8.046   8.761  64.151  1.00  0.00    -0.163 Se 
ENDROOT
BRANCH   2   3
HETATM    3  C   UNL     1      -8.028   6.952  63.408  1.00  0.00    -0.069 C  
BRANCH   3   4
HETATM    4  C   UNL     1      -8.189   5.951  64.561  1.00  0.00    -0.110 C  
BRANCH   4   5
HETATM    5  CA  UNL     1      -8.554   4.507  64.141  1.00  0.00    -0.132 C  
HETATM    6  C   UNL     1      -9.583   3.873  65.053  1.00  0.00    -0.181 C  
HETATM    7  N   UNL     1      -9.020   4.466  62.754  1.00  0.00    -0.119 NA 
HETATM    8  O   UNL     1      -9.268   2.791  65.798  1.00  0.00    -0.149 OA 
HETATM    9  OXT UNL     1     -10.718   4.317  65.107  1.00  0.00    -0.251 OA 
HETATM   10  H1  UNL     1      -9.260   3.514  62.478  1.00  0.00     0.000 HD 
HETATM   11  H2  UNL     1      -8.342   4.884  62.117  1.00  0.00     0.000 HD 
ENDBRANCH   4   5
ENDBRANCH   3   4
ENDBRANCH   2   3
TORSDOF 3
ENDMDL
MODEL      285
REMARK 921   NORMALIZED FREE ENERGY PREDICTED BY IDOCK:   -0.91 KCAL/MOL
REMARK 922        TOTAL FREE ENERGY PREDICTED BY IDOCK:   -1.31 KCAL/MOL
REMARK 923 INTER-LIGAND FREE ENERGY PREDICTED BY IDOCK:   -1.19 KCAL/MOL
REMARK 924 INTRA-LIGAND FREE ENERGY PREDICTED BY IDOCK:   -0.12 KCAL/MOL
REMARK 927      BINDING AFFINITY PREDICTED BY RF-SCORE:    0.00 PKD
ROOT
HETATM    1  C   UNL     1      -7.465  16.184  69.621  1.00  0.00     0.050 C  
HETATM    2 SE   UNL     1      -5.524  16.034  69.598  1.00  0.00    -0.131 Se 
ENDROOT
BRANCH   2   3
HETATM    3  C   UNL     1      -5.562  14.192  68.946  1.00  0.00    -0.082 C  
BRANCH   3   4
HETATM    4  C   UNL     1      -6.999  13.664  69.059  1.00  0.00    -0.098 C  
BRANCH   4   5
HETATM    5  CA  UNL     1      -7.204  12.194  68.625  1.00  0.00    -0.109 C  
HETATM    6  C   UNL     1      -6.339  11.225  69.404  1.00  0.00    -0.092 C  
HETATM    7  N   UNL     1      -8.612  11.807  68.733  1.00  0.00    -0.354 NA 
HETATM    8  O   UNL     1      -5.383  10.504  68.781  1.00  0.00    -0.042 OA 
HETATM    9  OXT UNL     1      -6.513  11.066  70.601  1.00  0.00    -0.327 OA 
HETATM   10  H1  UNL     1      -8.747  10.837  68.446  1.00  0.00     0.000 HD 
HETATM   11  H2  UNL     1      -9.218  12.441  68.213  1.00  0.00     0.000 HD 
ENDBRANCH   4   5
ENDBRANCH   3   4
ENDBRANCH   2   3
TORSDOF 3
ENDMDL
MODEL      286
REMARK 921   NORMALIZED FREE ENERGY PREDICTED BY IDOCK:   -0.91 KCAL/MOL
REMARK 922        TOTAL FREE ENERGY PREDICTED BY IDOCK:   -1.30 KCAL/MOL
REMARK 923 INTER-LIGAND FREE ENERGY PREDICTED BY IDOCK:   -1.22 KCAL/MOL
REMARK 924 INTRA-LIGAND FREE ENERGY PREDICTED BY IDOCK:   -0.08 KCAL/MOL
REMARK 927      BINDING AFFINITY PREDICTED BY RF-SCORE:    0.00 PKD
ROOT
HETATM    1  C   UNL     1      -6.596   7.781  67.017  1.00  0.00    -0.063 C  
HETATM    2 SE   UNL     1      -8.316   7.746  66.105  1.00  0.00    -0.136 Se 
ENDROOT
BRANCH   2   3
HETATM    3  C   UNL     1      -9.183   6.741  67.540  1.00  0.00    -0.122 C  
BRANCH   3   4
HETATM    4  C   UNL     1      -8.465   7.057  68.859  1.00  0.00    -0.125 C  
BRANCH   4   5
HETATM    5  CA  UNL     1      -9.376   7.156  70.105  1.00  0.00    -0.158 C  
HETATM    6  C   UNL     1      -9.608   5.816  70.772  1.00  0.00    -0.171 C  
HETATM    7  N   UNL     1      -8.836   8.111  71.075  1.00  0.00    -0.137 NA 
HETATM    8  O   UNL     1     -10.846   5.278  70.820  1.00  0.00    -0.181 OA 
HETATM    9  OXT UNL     1      -8.682   5.217  71.295  1.00  0.00    -0.126 OA 
HETATM   10  H1  UNL     1      -9.437   8.176  71.897  1.00  0.00     0.000 HD 
HETATM   11  H2  UNL     1      -8.675   9.025  70.653  1.00  0.00     0.000 HD 
ENDBRANCH   4   5
ENDBRANCH   3   4
ENDBRANCH   2   3
TORSDOF 3
ENDMDL
MODEL      287
REMARK 921   NORMALIZED FREE ENERGY PREDICTED BY IDOCK:   -0.83 KCAL/MOL
REMARK 922        TOTAL FREE ENERGY PREDICTED BY IDOCK:   -1.22 KCAL/MOL
REMARK 923 INTER-LIGAND FREE ENERGY PREDICTED BY IDOCK:   -1.18 KCAL/MOL
REMARK 924 INTRA-LIGAND FREE ENERGY PREDICTED BY IDOCK:   -0.04 KCAL/MOL
REMARK 927      BINDING AFFINITY PREDICTED BY RF-SCORE:    0.00 PKD
ROOT
HETATM    1  C   UNL     1      -8.989   6.878  72.112  1.00  0.00    -0.132 C  
HETATM    2 SE   UNL     1      -7.522   6.978  70.837  1.00  0.00    -0.082 Se 
ENDROOT
BRANCH   2   3
HETATM    3  C   UNL     1      -8.693   6.695  69.297  1.00  0.00    -0.131 C  
BRANCH   3   4
HETATM    4  C   UNL     1      -7.972   7.195  68.038  1.00  0.00    -0.119 C  
BRANCH   4   5
HETATM    5  CA  UNL     1      -8.869   7.404  66.795  1.00  0.00    -0.137 C  
HETATM    6  C   UNL     1      -8.583   8.706  66.076  1.00  0.00    -0.155 C  
HETATM    7  N   UNL     1      -8.746   6.280  65.865  1.00  0.00    -0.151 NA 
HETATM    8  O   UNL     1      -9.524   9.672  66.004  1.00  0.00    -0.187 OA 
HETATM    9  OXT UNL     1      -7.507   8.887  65.531  1.00  0.00    -0.084 OA 
HETATM   10  H1  UNL     1      -9.338   6.418  65.046  1.00  0.00     0.000 HD 
HETATM   11  H2  UNL     1      -8.938   5.389  66.323  1.00  0.00     0.000 HD 
ENDBRANCH   4   5
ENDBRANCH   3   4
ENDBRANCH   2   3
TORSDOF 3
ENDMDL
MODEL      288
REMARK 921   NORMALIZED FREE ENERGY PREDICTED BY IDOCK:   -0.82 KCAL/MOL
REMARK 922        TOTAL FREE ENERGY PREDICTED BY IDOCK:   -1.20 KCAL/MOL
REMARK 923 INTER-LIGAND FREE ENERGY PREDICTED BY IDOCK:   -1.10 KCAL/MOL
REMARK 924 INTRA-LIGAND FREE ENERGY PREDICTED BY IDOCK:   -0.10 KCAL/MOL
REMARK 927      BINDING AFFINITY PREDICTED BY RF-SCORE:    0.00 PKD
ROOT
HETATM    1  C   UNL     1      -8.962   2.809  63.185  1.00  0.00    -0.088 C  
HETATM    2 SE   UNL     1      -8.536   4.535  63.977  1.00  0.00    -0.136 Se 
ENDROOT
BRANCH   2   3
HETATM    3  C   UNL     1      -8.836   3.898  65.801  1.00  0.00    -0.125 C  
BRANCH   3   4
HETATM    4  C   UNL     1      -9.553   5.002  66.590  1.00  0.00    -0.166 C  
BRANCH   4   5
HETATM    5  CA  UNL     1     -10.156   4.566  67.947  1.00  0.00     0.019 C  
HETATM    6  C   UNL     1      -9.188   3.760  68.788  1.00  0.00    -0.156 C  
HETATM    7  N   UNL     1     -10.635   5.723  68.704  1.00  0.00    -0.236 NA 
HETATM    8  O   UNL     1      -9.450   2.472  69.093  1.00  0.00    -0.143 OA 
HETATM    9  OXT UNL     1      -8.170   4.275  69.221  1.00  0.00    -0.069 OA 
HETATM   10  H1  UNL     1     -11.033   5.435  69.598  1.00  0.00     0.000 HD 
HETATM   11  H2  UNL     1     -11.294   6.282  68.161  1.00  0.00     0.000 HD 
ENDBRANCH   4   5
ENDBRANCH   3   4
ENDBRANCH   2   3
TORSDOF 3
ENDMDL
MODEL      289
REMARK 921   NORMALIZED FREE ENERGY PREDICTED BY IDOCK:   -0.81 KCAL/MOL
REMARK 922        TOTAL FREE ENERGY PREDICTED BY IDOCK:   -1.19 KCAL/MOL
REMARK 923 INTER-LIGAND FREE ENERGY PREDICTED BY IDOCK:   -1.11 KCAL/MOL
REMARK 924 INTRA-LIGAND FREE ENERGY PREDICTED BY IDOCK:   -0.08 KCAL/MOL
REMARK 927      BINDING AFFINITY PREDICTED BY RF-SCORE:    0.00 PKD
ROOT
HETATM    1  C   UNL     1      -9.803   3.370  71.562  1.00  0.00    -0.142 C  
HETATM    2 SE   UNL     1     -10.274   5.126  72.257  1.00  0.00    -0.208 Se 
ENDROOT
BRANCH   2   3
HETATM    3  C   UNL     1      -8.767   6.004  71.373  1.00  0.00    -0.132 C  
BRANCH   3   4
HETATM    4  C   UNL     1      -8.944   5.861  69.854  1.00  0.00    -0.144 C  
BRANCH   4   5
HETATM    5  CA  UNL     1      -8.920   7.185  69.055  1.00  0.00    -0.134 C  
HETATM    6  C   UNL     1      -7.515   7.677  68.775  1.00  0.00    -0.100 C  
HETATM    7  N   UNL     1      -9.664   7.053  67.801  1.00  0.00    -0.133 NA 
HETATM    8  O   UNL     1      -7.079   8.843  69.298  1.00  0.00    -0.056 OA 
HETATM    9  OXT UNL     1      -6.769   7.038  68.052  1.00  0.00    -0.059 OA 
HETATM   10  H1  UNL     1      -9.648   7.927  67.273  1.00  0.00     0.000 HD 
HETATM   11  H2  UNL     1     -10.617   6.727  67.960  1.00  0.00     0.000 HD 
ENDBRANCH   4   5
ENDBRANCH   3   4
ENDBRANCH   2   3
TORSDOF 3
ENDMDL
MODEL      290
REMARK 921   NORMALIZED FREE ENERGY PREDICTED BY IDOCK:   -0.79 KCAL/MOL
REMARK 922        TOTAL FREE ENERGY PREDICTED BY IDOCK:   -1.17 KCAL/MOL
REMARK 923 INTER-LIGAND FREE ENERGY PREDICTED BY IDOCK:   -1.06 KCAL/MOL
REMARK 924 INTRA-LIGAND FREE ENERGY PREDICTED BY IDOCK:   -0.11 KCAL/MOL
REMARK 927      BINDING AFFINITY PREDICTED BY RF-SCORE:    0.00 PKD
ROOT
HETATM    1  C   UNL     1      -7.386   2.485  67.867  1.00  0.00    -0.052 C  
HETATM    2 SE   UNL     1      -6.435   3.820  68.916  1.00  0.00    -0.041 Se 
ENDROOT
BRANCH   2   3
HETATM    3  C   UNL     1      -7.263   5.317  67.969  1.00  0.00    -0.071 C  
BRANCH   3   4
HETATM    4  C   UNL     1      -7.773   6.327  69.006  1.00  0.00    -0.100 C  
BRANCH   4   5
HETATM    5  CA  UNL     1      -9.218   6.094  69.507  1.00  0.00    -0.138 C  
HETATM    6  C   UNL     1      -9.270   5.346  70.823  1.00  0.00    -0.149 C  
HETATM    7  N   UNL     1      -9.943   7.360  69.622  1.00  0.00    -0.179 NA 
HETATM    8  O   UNL     1      -9.833   4.121  70.895  1.00  0.00    -0.188 OA 
HETATM    9  OXT UNL     1      -8.826   5.853  71.840  1.00  0.00    -0.138 OA 
HETATM   10  H1  UNL     1     -10.896   7.206  69.952  1.00  0.00     0.000 HD 
HETATM   11  H2  UNL     1      -9.929   7.883  68.746  1.00  0.00     0.000 HD 
ENDBRANCH   4   5
ENDBRANCH   3   4
ENDBRANCH   2   3
TORSDOF 3
ENDMDL
MODEL      291
REMARK 921   NORMALIZED FREE ENERGY PREDICTED BY IDOCK:   -0.78 KCAL/MOL
REMARK 922        TOTAL FREE ENERGY PREDICTED BY IDOCK:   -1.16 KCAL/MOL
REMARK 923 INTER-LIGAND FREE ENERGY PREDICTED BY IDOCK:   -1.12 KCAL/MOL
REMARK 924 INTRA-LIGAND FREE ENERGY PREDICTED BY IDOCK:   -0.04 KCAL/MOL
REMARK 927      BINDING AFFINITY PREDICTED BY RF-SCORE:    0.00 PKD
ROOT
HETATM    1  C   UNL     1      -7.350   5.631  66.084  1.00  0.00    -0.078 C  
HETATM    2 SE   UNL     1      -6.892   7.326  65.243  1.00  0.00    -0.052 Se 
ENDROOT
BRANCH   2   3
HETATM    3  C   UNL     1      -8.475   8.232  65.947  1.00  0.00    -0.140 C  
BRANCH   3   4
HETATM    4  C   UNL     1      -8.016   9.325  66.923  1.00  0.00    -0.105 C  
BRANCH   4   5
HETATM    5  CA  UNL     1      -9.010   9.660  68.060  1.00  0.00    -0.122 C  
HETATM    6  C   UNL     1      -8.390  10.511  69.149  1.00  0.00    -0.151 C  
HETATM    7  N   UNL     1     -10.208  10.316  67.532  1.00  0.00    -0.198 NA 
HETATM    8  O   UNL     1      -8.258  10.031  70.404  1.00  0.00    -0.159 OA 
HETATM    9  OXT UNL     1      -8.026  11.651  68.911  1.00  0.00    -0.117 OA 
HETATM   10  H1  UNL     1     -10.863  10.537  68.283  1.00  0.00     0.000 HD 
HETATM   11  H2  UNL     1     -10.649   9.762  66.799  1.00  0.00     0.000 HD 
ENDBRANCH   4   5
ENDBRANCH   3   4
ENDBRANCH   2   3
TORSDOF 3
ENDMDL
MODEL      292
REMARK 921   NORMALIZED FREE ENERGY PREDICTED BY IDOCK:   -0.76 KCAL/MOL
REMARK 922        TOTAL FREE ENERGY PREDICTED BY IDOCK:   -1.14 KCAL/MOL
REMARK 923 INTER-LIGAND FREE ENERGY PREDICTED BY IDOCK:   -1.07 KCAL/MOL
REMARK 924 INTRA-LIGAND FREE ENERGY PREDICTED BY IDOCK:   -0.07 KCAL/MOL
REMARK 927      BINDING AFFINITY PREDICTED BY RF-SCORE:    0.00 PKD
ROOT
HETATM    1  C   UNL     1      -6.190   3.516  69.116  1.00  0.00    -0.028 C  
HETATM    2 SE   UNL     1      -7.247   3.848  70.717  1.00  0.00    -0.037 Se 
ENDROOT
BRANCH   2   3
HETATM    3  C   UNL     1      -8.340   5.215  69.848  1.00  0.00    -0.093 C  
BRANCH   3   4
HETATM    4  C   UNL     1      -8.725   4.715  68.449  1.00  0.00    -0.111 C  
BRANCH   4   5
HETATM    5  CA  UNL     1      -8.707   5.784  67.331  1.00  0.00    -0.107 C  
HETATM    6  C   UNL     1      -9.307   5.286  66.032  1.00  0.00    -0.158 C  
HETATM    7  N   UNL     1      -9.390   7.005  67.763  1.00  0.00    -0.126 NA 
HETATM    8  O   UNL     1      -8.546   5.175  64.922  1.00  0.00    -0.145 OA 
HETATM    9  OXT UNL     1     -10.492   5.004  65.967  1.00  0.00    -0.260 OA 
HETATM   10  H1  UNL     1      -9.378   7.710  67.026  1.00  0.00     0.000 HD 
HETATM   11  H2  UNL     1      -9.002   7.365  68.635  1.00  0.00     0.000 HD 
ENDBRANCH   4   5
ENDBRANCH   3   4
ENDBRANCH   2   3
TORSDOF 3
ENDMDL
MODEL      293
REMARK 921   NORMALIZED FREE ENERGY PREDICTED BY IDOCK:   -0.75 KCAL/MOL
REMARK 922        TOTAL FREE ENERGY PREDICTED BY IDOCK:   -1.12 KCAL/MOL
REMARK 923 INTER-LIGAND FREE ENERGY PREDICTED BY IDOCK:   -1.69 KCAL/MOL
REMARK 924 INTRA-LIGAND FREE ENERGY PREDICTED BY IDOCK:    0.57 KCAL/MOL
REMARK 927      BINDING AFFINITY PREDICTED BY RF-SCORE:    0.00 PKD
ROOT
HETATM    1  C   UNL     1      -8.561  11.720  66.730  1.00  0.00    -0.185 C  
HETATM    2 SE   UNL     1      -7.952  12.676  68.313  1.00  0.00    -0.148 Se 
ENDROOT
BRANCH   2   3
HETATM    3  C   UNL     1      -7.491  14.284  67.303  1.00  0.00    -0.055 C  
BRANCH   3   4
HETATM    4  C   UNL     1      -6.276  14.945  67.967  1.00  0.00    -0.163 C  
BRANCH   4   5
HETATM    5  CA  UNL     1      -6.584  15.799  69.220  1.00  0.00    -0.160 C  
HETATM    6  C   UNL     1      -7.590  16.898  68.948  1.00  0.00    -0.234 C  
HETATM    7  N   UNL     1      -7.047  14.959  70.326  1.00  0.00    -0.241 NA 
HETATM    8  O   UNL     1      -7.235  18.197  69.056  1.00  0.00    -0.270 OA 
HETATM    9  OXT UNL     1      -8.742  16.623  68.652  1.00  0.00    -0.230 OA 
HETATM   10  H1  UNL     1      -7.250  15.522  71.152  1.00  0.00     0.000 HD 
HETATM   11  H2  UNL     1      -6.384  14.212  70.534  1.00  0.00     0.000 HD 
ENDBRANCH   4   5
ENDBRANCH   3   4
ENDBRANCH   2   3
TORSDOF 3
ENDMDL
MODEL      294
REMARK 921   NORMALIZED FREE ENERGY PREDICTED BY IDOCK:   -0.72 KCAL/MOL
REMARK 922        TOTAL FREE ENERGY PREDICTED BY IDOCK:   -1.09 KCAL/MOL
REMARK 923 INTER-LIGAND FREE ENERGY PREDICTED BY IDOCK:   -0.93 KCAL/MOL
REMARK 924 INTRA-LIGAND FREE ENERGY PREDICTED BY IDOCK:   -0.16 KCAL/MOL
REMARK 927      BINDING AFFINITY PREDICTED BY RF-SCORE:    0.00 PKD
ROOT
HETATM    1  C   UNL     1      -8.849   7.249  74.199  1.00  0.00    -0.223 C  
HETATM    2 SE   UNL     1      -7.617   6.434  72.931  1.00  0.00    -0.095 Se 
ENDROOT
BRANCH   2   3
HETATM    3  C   UNL     1      -9.056   5.629  71.879  1.00  0.00    -0.138 C  
BRANCH   3   4
HETATM    4  C   UNL     1      -8.940   6.130  70.433  1.00  0.00    -0.151 C  
BRANCH   4   5
HETATM    5  CA  UNL     1      -7.674   5.674  69.670  1.00  0.00    -0.083 C  
HETATM    6  C   UNL     1      -7.463   4.175  69.725  1.00  0.00    -0.049 C  
HETATM    7  N   UNL     1      -7.711   6.124  68.277  1.00  0.00    -0.101 NA 
HETATM    8  O   UNL     1      -6.381   3.656  70.344  1.00  0.00    -0.026 OA 
HETATM    9  OXT UNL     1      -8.256   3.419  69.189  1.00  0.00    -0.059 OA 
HETATM   10  H1  UNL     1      -6.876   5.823  67.774  1.00  0.00     0.000 HD 
HETATM   11  H2  UNL     1      -7.848   7.132  68.210  1.00  0.00     0.000 HD 
ENDBRANCH   4   5
ENDBRANCH   3   4
ENDBRANCH   2   3
TORSDOF 3
ENDMDL
MODEL      295
REMARK 921   NORMALIZED FREE ENERGY PREDICTED BY IDOCK:   -0.68 KCAL/MOL
REMARK 922        TOTAL FREE ENERGY PREDICTED BY IDOCK:   -1.04 KCAL/MOL
REMARK 923 INTER-LIGAND FREE ENERGY PREDICTED BY IDOCK:   -0.86 KCAL/MOL
REMARK 924 INTRA-LIGAND FREE ENERGY PREDICTED BY IDOCK:   -0.18 KCAL/MOL
REMARK 927      BINDING AFFINITY PREDICTED BY RF-SCORE:    0.00 PKD
ROOT
HETATM    1  C   UNL     1      -6.227   3.526  69.113  1.00  0.00    -0.028 C  
HETATM    2 SE   UNL     1      -7.246   3.764  70.754  1.00  0.00    -0.037 Se 
ENDROOT
BRANCH   2   3
HETATM    3  C   UNL     1      -8.454   5.071  69.946  1.00  0.00    -0.088 C  
BRANCH   3   4
HETATM    4  C   UNL     1      -8.835   4.581  68.542  1.00  0.00    -0.128 C  
BRANCH   4   5
HETATM    5  CA  UNL     1      -9.220   5.687  67.532  1.00  0.00    -0.109 C  
HETATM    6  C   UNL     1      -8.116   6.702  67.323  1.00  0.00    -0.121 C  
HETATM    7  N   UNL     1      -9.620   5.109  66.248  1.00  0.00    -0.154 NA 
HETATM    8  O   UNL     1      -8.291   7.992  67.680  1.00  0.00    -0.125 OA 
HETATM    9  OXT UNL     1      -7.062   6.370  66.805  1.00  0.00    -0.069 OA 
HETATM   10  H1  UNL     1      -9.874   5.839  65.583  1.00  0.00     0.000 HD 
HETATM   11  H2  UNL     1     -10.367   4.424  66.360  1.00  0.00     0.000 HD 
ENDBRANCH   4   5
ENDBRANCH   3   4
ENDBRANCH   2   3
TORSDOF 3
ENDMDL
MODEL      296
REMARK 921   NORMALIZED FREE ENERGY PREDICTED BY IDOCK:   -0.67 KCAL/MOL
REMARK 922        TOTAL FREE ENERGY PREDICTED BY IDOCK:   -1.03 KCAL/MOL
REMARK 923 INTER-LIGAND FREE ENERGY PREDICTED BY IDOCK:   -1.48 KCAL/MOL
REMARK 924 INTRA-LIGAND FREE ENERGY PREDICTED BY IDOCK:    0.46 KCAL/MOL
REMARK 927      BINDING AFFINITY PREDICTED BY RF-SCORE:    0.00 PKD
ROOT
HETATM    1  C   UNL     1      -9.412  12.881  68.608  1.00  0.00     0.004 C  
HETATM    2 SE   UNL     1      -9.186  13.472  66.767  1.00  0.00    -0.210 Se 
ENDROOT
BRANCH   2   3
HETATM    3  C   UNL     1     -10.599  12.298  66.099  1.00  0.00    -0.249 C  
BRANCH   3   4
HETATM    4  C   UNL     1      -9.949  11.033  65.520  1.00  0.00    -0.308 C  
BRANCH   4   5
HETATM    5  CA  UNL     1      -8.592  10.636  66.148  1.00  0.00    -0.159 C  
HETATM    6  C   UNL     1      -8.387   9.136  66.205  1.00  0.00    -0.119 C  
HETATM    7  N   UNL     1      -7.480  11.267  65.434  1.00  0.00    -0.172 NA 
HETATM    8  O   UNL     1      -8.286   8.501  67.392  1.00  0.00    -0.118 OA 
HETATM    9  OXT UNL     1      -8.286   8.487  65.176  1.00  0.00    -0.153 OA 
HETATM   10  H1  UNL     1      -6.585  11.005  65.849  1.00  0.00     0.000 HD 
HETATM   11  H2  UNL     1      -7.590  12.280  65.385  1.00  0.00     0.000 HD 
ENDBRANCH   4   5
ENDBRANCH   3   4
ENDBRANCH   2   3
TORSDOF 3
ENDMDL
MODEL      297
REMARK 921   NORMALIZED FREE ENERGY PREDICTED BY IDOCK:   -0.44 KCAL/MOL
REMARK 922        TOTAL FREE ENERGY PREDICTED BY IDOCK:   -0.76 KCAL/MOL
REMARK 923 INTER-LIGAND FREE ENERGY PREDICTED BY IDOCK:   -0.68 KCAL/MOL
REMARK 924 INTRA-LIGAND FREE ENERGY PREDICTED BY IDOCK:   -0.08 KCAL/MOL
REMARK 927      BINDING AFFINITY PREDICTED BY RF-SCORE:    0.00 PKD
ROOT
HETATM    1  C   UNL     1      -8.803   7.256  74.232  1.00  0.00    -0.215 C  
HETATM    2 SE   UNL     1      -7.335   6.510  73.193  1.00  0.00    -0.085 Se 
ENDROOT
BRANCH   2   3
HETATM    3  C   UNL     1      -8.532   5.583  71.956  1.00  0.00    -0.127 C  
BRANCH   3   4
HETATM    4  C   UNL     1      -7.736   5.201  70.701  1.00  0.00    -0.079 C  
BRANCH   4   5
HETATM    5  CA  UNL     1      -6.751   4.020  70.872  1.00  0.00    -0.032 C  
HETATM    6  C   UNL     1      -7.264   2.961  71.826  1.00  0.00    -0.039 C  
HETATM    7  N   UNL     1      -6.429   3.416  69.578  1.00  0.00    -0.032 NA 
HETATM    8  O   UNL     1      -6.616   2.707  72.983  1.00  0.00    -0.020 OA 
HETATM    9  OXT UNL     1      -8.255   2.306  71.547  1.00  0.00    -0.053 OA 
HETATM   10  H1  UNL     1      -5.779   2.637  69.691  1.00  0.00     0.000 HD 
HETATM   11  H2  UNL     1      -6.076   4.107  68.916  1.00  0.00     0.000 HD 
ENDBRANCH   4   5
ENDBRANCH   3   4
ENDBRANCH   2   3
TORSDOF 3
ENDMDL
MODEL      298
REMARK 921   NORMALIZED FREE ENERGY PREDICTED BY IDOCK:   -0.43 KCAL/MOL
REMARK 922        TOTAL FREE ENERGY PREDICTED BY IDOCK:   -0.74 KCAL/MOL
REMARK 923 INTER-LIGAND FREE ENERGY PREDICTED BY IDOCK:   -0.69 KCAL/MOL
REMARK 924 INTRA-LIGAND FREE ENERGY PREDICTED BY IDOCK:   -0.05 KCAL/MOL
REMARK 927      BINDING AFFINITY PREDICTED BY RF-SCORE:    0.00 PKD
ROOT
HETATM    1  C   UNL     1     -12.147  15.403  63.592  1.00  0.00     0.672 C  
HETATM    2 SE   UNL     1     -11.256  16.521  64.913  1.00  0.00     0.042 Se 
ENDROOT
BRANCH   2   3
HETATM    3  C   UNL     1      -9.669  15.381  64.974  1.00  0.00     0.200 C  
BRANCH   3   4
HETATM    4  C   UNL     1     -10.119  13.933  65.211  1.00  0.00    -0.328 C  
BRANCH   4   5
HETATM    5  CA  UNL     1      -9.580  13.271  66.501  1.00  0.00    -0.264 C  
HETATM    6  C   UNL     1      -9.656  11.759  66.462  1.00  0.00    -0.210 C  
HETATM    7  N   UNL     1      -8.206  13.696  66.773  1.00  0.00    -0.396 NA 
HETATM    8  O   UNL     1     -10.446  11.088  67.327  1.00  0.00    -0.208 OA 
HETATM    9  OXT UNL     1      -8.985  11.127  65.663  1.00  0.00    -0.200 OA 
HETATM   10  H1  UNL     1      -7.851  13.260  67.624  1.00  0.00     0.000 HD 
HETATM   11  H2  UNL     1      -8.126  14.713  66.810  1.00  0.00     0.000 HD 
ENDBRANCH   4   5
ENDBRANCH   3   4
ENDBRANCH   2   3
TORSDOF 3
ENDMDL
MODEL      299
REMARK 921   NORMALIZED FREE ENERGY PREDICTED BY IDOCK:   -0.35 KCAL/MOL
REMARK 922        TOTAL FREE ENERGY PREDICTED BY IDOCK:   -0.65 KCAL/MOL
REMARK 923 INTER-LIGAND FREE ENERGY PREDICTED BY IDOCK:   -0.53 KCAL/MOL
REMARK 924 INTRA-LIGAND FREE ENERGY PREDICTED BY IDOCK:   -0.12 KCAL/MOL
REMARK 927      BINDING AFFINITY PREDICTED BY RF-SCORE:    0.00 PKD
ROOT
HETATM    1  C   UNL     1     -11.029  14.201  64.455  1.00  0.00    -0.328 C  
HETATM    2 SE   UNL     1     -12.632  13.575  65.366  1.00  0.00    -0.439 Se 
ENDROOT
BRANCH   2   3
HETATM    3  C   UNL     1     -11.836  11.848  65.820  1.00  0.00    -0.033 C  
BRANCH   3   4
HETATM    4  C   UNL     1     -10.798  12.067  66.929  1.00  0.00    -0.302 C  
BRANCH   4   5
HETATM    5  CA  UNL     1     -11.059  11.297  68.246  1.00  0.00    -0.240 C  
HETATM    6  C   UNL     1     -11.713  12.156  69.308  1.00  0.00    -0.328 C  
HETATM    7  N   UNL     1     -11.866  10.100  68.002  1.00  0.00    -0.425 NA 
HETATM    8  O   UNL     1     -11.066  12.433  70.461  1.00  0.00     0.810 OA 
HETATM    9  OXT UNL     1     -12.843  12.586  69.146  1.00  0.00     0.754 OA 
HETATM   10  H1  UNL     1     -12.038   9.593  68.870  1.00  0.00     0.000 HD 
HETATM   11  H2  UNL     1     -11.445   9.500  67.292  1.00  0.00     0.000 HD 
ENDBRANCH   4   5
ENDBRANCH   3   4
ENDBRANCH   2   3
TORSDOF 3
ENDMDL
MODEL      300
REMARK 921   NORMALIZED FREE ENERGY PREDICTED BY IDOCK:    0.33 KCAL/MOL
REMARK 922        TOTAL FREE ENERGY PREDICTED BY IDOCK:    0.15 KCAL/MOL
REMARK 923 INTER-LIGAND FREE ENERGY PREDICTED BY IDOCK:   -0.06 KCAL/MOL
REMARK 924 INTRA-LIGAND FREE ENERGY PREDICTED BY IDOCK:    0.20 KCAL/MOL
REMARK 927      BINDING AFFINITY PREDICTED BY RF-SCORE:    0.00 PKD
ROOT
HETATM    1  C   UNL     1      -7.806  11.616  68.031  1.00  0.00    -0.128 C  
HETATM    2 SE   UNL     1      -9.489  11.249  68.938  1.00  0.00    -0.020 Se 
ENDROOT
BRANCH   2   3
HETATM    3  C   UNL     1     -10.147  10.106  67.496  1.00  0.00    -0.201 C  
BRANCH   3   4
HETATM    4  C   UNL     1     -10.994   8.984  68.111  1.00  0.00     0.015 C  
BRANCH   4   5
HETATM    5  CA  UNL     1     -10.951   8.888  69.655  1.00  0.00    -0.123 C  
HETATM    6  C   UNL     1     -12.127   9.573  70.319  1.00  0.00     0.085 C  
HETATM    7  N   UNL     1     -10.872   7.492  70.091  1.00  0.00    -0.247 NA 
HETATM    8  O   UNL     1     -11.936  10.646  71.116  1.00  0.00    -0.342 OA 
HETATM    9  OXT UNL     1     -13.259   9.147  70.162  1.00  0.00     0.904 OA 
HETATM   10  H1  UNL     1     -10.843   7.429  71.109  1.00  0.00     0.000 HD 
HETATM   11  H2  UNL     1     -10.084   7.007  69.662  1.00  0.00     0.000 HD 
ENDBRANCH   4   5
ENDBRANCH   3   4
ENDBRANCH   2   3
TORSDOF 3
ENDMDL
MODEL      301
REMARK 921   NORMALIZED FREE ENERGY PREDICTED BY IDOCK:    2.82 KCAL/MOL
REMARK 922        TOTAL FREE ENERGY PREDICTED BY IDOCK:    3.08 KCAL/MOL
REMARK 923 INTER-LIGAND FREE ENERGY PREDICTED BY IDOCK:    2.37 KCAL/MOL
REMARK 924 INTRA-LIGAND FREE ENERGY PREDICTED BY IDOCK:    0.70 KCAL/MOL
REMARK 927      BINDING AFFINITY PREDICTED BY RF-SCORE:    0.00 PKD
ROOT
HETATM    1  C   UNL     1     -12.361  15.171  66.621  1.00  0.00     0.630 C  
HETATM    2 SE   UNL     1     -10.605  16.008  66.701  1.00  0.00    -0.259 Se 
ENDROOT
BRANCH   2   3
HETATM    3  C   UNL     1     -11.332  17.742  67.236  1.00  0.00     0.665 C  
BRANCH   3   4
HETATM    4  C   UNL     1     -10.162  18.686  67.547  1.00  0.00    -0.425 C  
BRANCH   4   5
HETATM    5  CA  UNL     1      -9.487  18.478  68.923  1.00  0.00    -0.247 C  
HETATM    6  C   UNL     1     -10.413  17.847  69.942  1.00  0.00     0.850 C  
HETATM    7  N   UNL     1      -8.266  17.681  68.793  1.00  0.00    -0.261 NA 
HETATM    8  O   UNL     1     -10.781  18.526  71.050  1.00  0.00     1.756 OA 
HETATM    9  OXT UNL     1     -10.817  16.706  69.787  1.00  0.00    -0.333 OA 
HETATM   10  H1  UNL     1      -7.821  17.545  69.700  1.00  0.00     0.000 HD 
HETATM   11  H2  UNL     1      -7.622  18.087  68.115  1.00  0.00     0.000 HD 
ENDBRANCH   4   5
ENDBRANCH   3   4
ENDBRANCH   2   3
TORSDOF 3
ENDMDL
MODEL      302
REMARK 921   NORMALIZED FREE ENERGY PREDICTED BY IDOCK:   10.19 KCAL/MOL
REMARK 922        TOTAL FREE ENERGY PREDICTED BY IDOCK:   11.74 KCAL/MOL
REMARK 923 INTER-LIGAND FREE ENERGY PREDICTED BY IDOCK:   11.83 KCAL/MOL
REMARK 924 INTRA-LIGAND FREE ENERGY PREDICTED BY IDOCK:   -0.08 KCAL/MOL
REMARK 927      BINDING AFFINITY PREDICTED BY RF-SCORE:    0.00 PKD
ROOT
HETATM    1  C   UNL     1     -13.296  17.782  67.478  1.00  0.00     8.544 C  
HETATM    2 SE   UNL     1     -11.634  18.345  66.634  1.00  0.00     2.211 Se 
ENDROOT
BRANCH   2   3
HETATM    3  C   UNL     1     -10.622  16.842  67.368  1.00  0.00    -0.294 C  
BRANCH   3   4
HETATM    4  C   UNL     1      -9.864  17.327  68.612  1.00  0.00    -0.313 C  
BRANCH   4   5
HETATM    5  CA  UNL     1      -8.634  16.479  69.014  1.00  0.00    -0.208 C  
HETATM    6  C   UNL     1      -7.417  16.769  68.161  1.00  0.00    -0.171 C  
HETATM    7  N   UNL     1      -8.310  16.666  70.429  1.00  0.00     2.430 NA 
HETATM    8  O   UNL     1      -6.893  15.813  67.365  1.00  0.00    -0.173 OA 
HETATM    9  OXT UNL     1      -6.880  17.864  68.202  1.00  0.00    -0.198 OA 
HETATM   10  H1  UNL     1      -7.499  16.107  70.695  1.00  0.00     0.000 HD 
HETATM   11  H2  UNL     1      -9.112  16.473  71.029  1.00  0.00     0.000 HD 
ENDBRANCH   4   5
ENDBRANCH   3   4
ENDBRANCH   2   3
TORSDOF 3
ENDMDL
MODEL      303
REMARK 921   NORMALIZED FREE ENERGY PREDICTED BY IDOCK:   13.34 KCAL/MOL
REMARK 922        TOTAL FREE ENERGY PREDICTED BY IDOCK:   15.44 KCAL/MOL
REMARK 923 INTER-LIGAND FREE ENERGY PREDICTED BY IDOCK:   15.53 KCAL/MOL
REMARK 924 INTRA-LIGAND FREE ENERGY PREDICTED BY IDOCK:   -0.09 KCAL/MOL
REMARK 927      BINDING AFFINITY PREDICTED BY RF-SCORE:    0.00 PKD
ROOT
HETATM    1  C   UNL     1     -14.067  17.730  67.636  1.00  0.00    10.246 C  
HETATM    2 SE   UNL     1     -12.388  16.949  67.037  1.00  0.00     3.891 Se 
ENDROOT
BRANCH   2   3
HETATM    3  C   UNL     1     -12.570  15.387  68.198  1.00  0.00     1.061 C  
BRANCH   3   4
HETATM    4  C   UNL     1     -11.635  15.564  69.403  1.00  0.00    -0.366 C  
BRANCH   4   5
HETATM    5  CA  UNL     1     -11.303  14.270  70.183  1.00  0.00    -0.129 C  
HETATM    6  C   UNL     1     -10.328  13.374  69.448  1.00  0.00     0.383 C  
HETATM    7  N   UNL     1     -10.790  14.580  71.518  1.00  0.00     0.341 NA 
HETATM    8  O   UNL     1     -10.704  12.148  69.027  1.00  0.00    -0.200 OA 
HETATM    9  OXT UNL     1      -9.182  13.742  69.248  1.00  0.00     0.306 OA 
HETATM   10  H1  UNL     1     -10.571  13.726  72.033  1.00  0.00     0.000 HD 
HETATM   11  H2  UNL     1     -11.430  15.179  72.039  1.00  0.00     0.000 HD 
ENDBRANCH   4   5
ENDBRANCH   3   4
ENDBRANCH   2   3
TORSDOF 3
ENDMDL
