MODEL        1
REMARK 921   NORMALIZED FREE ENERGY PREDICTED BY IDOCK:   -9.60 KCAL/MOL
REMARK 922        TOTAL FREE ENERGY PREDICTED BY IDOCK:  -13.67 KCAL/MOL
REMARK 923 INTER-LIGAND FREE ENERGY PREDICTED BY IDOCK:  -12.41 KCAL/MOL
REMARK 924 INTRA-LIGAND FREE ENERGY PREDICTED BY IDOCK:   -1.26 KCAL/MOL
REMARK 927      BINDING AFFINITY PREDICTED BY RF-SCORE:    0.00 PKD
ROOT
HETATM    1  F   UNL     1     -14.048   9.635  73.057  1.00  0.00    -0.196 F  
HETATM    2  C   UNL     1     -13.408   9.468  71.865  1.00  0.00    -0.437 C  
HETATM    3  F   UNL     1     -12.395   8.592  72.107  1.00  0.00    -0.345 F  
HETATM    4  F   UNL     1     -14.289   8.813  71.060  1.00  0.00    -0.393 F  
HETATM    5  C   UNL     1     -12.923  10.762  71.258  1.00  0.00    -0.502 A  
HETATM    6  C   UNL     1     -13.137  11.998  71.886  1.00  0.00    -0.475 A  
HETATM    7  C   UNL     1     -12.669  13.192  71.311  1.00  0.00    -0.396 A  
HETATM    8  C   UNL     1     -12.892  14.519  71.999  1.00  0.00    -0.337 C  
HETATM    9  C   UNL     1     -11.983  13.139  70.082  1.00  0.00    -0.381 A  
HETATM   10  C   UNL     1     -11.766  11.918  69.431  1.00  0.00    -0.401 A  
HETATM   11  F   UNL     1     -13.596  15.396  71.229  1.00  0.00    -0.463 F  
HETATM   12  F   UNL     1     -13.582  14.414  73.168  1.00  0.00    -0.541 F  
HETATM   13  F   UNL     1     -11.725  15.145  72.313  1.00  0.00    -0.403 F  
HETATM   14  C   UNL     1     -12.236  10.740  70.034  1.00  0.00    -0.409 A  
ENDROOT
BRANCH  10  15
HETATM   15  C   UNL     1     -11.052  11.830  68.157  1.00  0.00    -0.243 A  
HETATM   16  N   UNL     1     -11.498  11.204  67.059  1.00  0.00    -0.439 NA 
HETATM   17  N   UNL     1     -10.567  11.526  66.107  1.00  0.00    -0.258 NA 
HETATM   18  N   UNL     1      -9.817  12.396  68.010  1.00  0.00    -0.200 NA 
HETATM   19  C   UNL     1      -9.531  12.171  66.753  1.00  0.00    -0.212 A  
BRANCH  17  20
HETATM   20  C   UNL     1     -10.660  11.149  64.758  1.00  0.00    -0.303 C  
HETATM   21  C   UNL     1     -11.006  11.840  63.655  1.00  0.00    -0.513 C  
BRANCH  21  22
HETATM   22  C   UNL     1     -11.584  13.206  63.622  1.00  0.00    -0.390 C  
HETATM   23  N   UNL     1     -10.850  14.181  64.255  1.00  0.00    -0.586 N  
HETATM   24  O   UNL     1     -12.626  13.475  63.032  1.00  0.00    -0.716 OA 
HETATM   25  H   UNL     1      -9.937  13.993  64.670  1.00  0.00     0.000 HD 
BRANCH  23  26
HETATM   26  N   UNL     1     -11.447  15.463  64.290  1.00  0.00    -0.721 NA 
HETATM   27  H   UNL     1     -12.175  15.753  63.637  1.00  0.00     0.000 HD 
BRANCH  26  28
HETATM   28  C   UNL     1     -10.946  16.309  65.309  1.00  0.00    -0.236 A  
HETATM   29  N   UNL     1     -10.903  17.655  65.147  1.00  0.00    -0.660 NA 
HETATM   30  C   UNL     1     -10.327  18.352  66.161  1.00  0.00    -0.407 A  
HETATM   31  C   UNL     1      -9.798  17.749  67.291  1.00  0.00    -0.312 A  
HETATM   32  N   UNL     1      -9.820  16.413  67.467  1.00  0.00    -0.236 NA 
HETATM   33  C   UNL     1     -10.393  15.717  66.453  1.00  0.00    -0.296 A  
ENDBRANCH  26  28
ENDBRANCH  23  26
ENDBRANCH  21  22
ENDBRANCH  17  20
ENDBRANCH  10  15
TORSDOF 5
ENDMDL
MODEL        2
REMARK 921   NORMALIZED FREE ENERGY PREDICTED BY IDOCK:   -9.51 KCAL/MOL
REMARK 922        TOTAL FREE ENERGY PREDICTED BY IDOCK:  -13.55 KCAL/MOL
REMARK 923 INTER-LIGAND FREE ENERGY PREDICTED BY IDOCK:  -12.29 KCAL/MOL
REMARK 924 INTRA-LIGAND FREE ENERGY PREDICTED BY IDOCK:   -1.27 KCAL/MOL
REMARK 927      BINDING AFFINITY PREDICTED BY RF-SCORE:    0.00 PKD
ROOT
HETATM    1  F   UNL     1     -13.760  14.277  72.977  1.00  0.00    -0.531 F  
HETATM    2  C   UNL     1     -13.047  14.302  71.816  1.00  0.00    -0.359 C  
HETATM    3  F   UNL     1     -13.776  15.055  70.948  1.00  0.00    -0.423 F  
HETATM    4  F   UNL     1     -11.923  15.020  72.087  1.00  0.00    -0.368 F  
HETATM    5  C   UNL     1     -12.737  12.928  71.273  1.00  0.00    -0.371 A  
HETATM    6  C   UNL     1     -13.153  11.762  71.932  1.00  0.00    -0.482 A  
HETATM    7  C   UNL     1     -12.865  10.491  71.406  1.00  0.00    -0.551 A  
HETATM    8  C   UNL     1     -13.327   9.240  72.114  1.00  0.00    -0.468 C  
HETATM    9  C   UNL     1     -12.140  10.395  70.201  1.00  0.00    -0.334 A  
HETATM   10  C   UNL     1     -11.705  11.545  69.530  1.00  0.00    -0.413 A  
HETATM   11  F   UNL     1     -12.293   8.419  72.456  1.00  0.00    -0.388 F  
HETATM   12  F   UNL     1     -14.001   9.489  73.271  1.00  0.00    -0.065 F  
HETATM   13  F   UNL     1     -14.167   8.488  71.351  1.00  0.00    -0.427 F  
HETATM   14  C   UNL     1     -12.017  12.802  70.075  1.00  0.00    -0.371 A  
ENDROOT
BRANCH  10  15
HETATM   15  C   UNL     1     -10.955  11.478  68.275  1.00  0.00    -0.224 A  
HETATM   16  N   UNL     1     -11.350  10.834  67.168  1.00  0.00    -0.371 NA 
HETATM   17  N   UNL     1     -10.405  11.185  66.240  1.00  0.00    -0.242 NA 
HETATM   18  N   UNL     1      -9.736  12.084  68.160  1.00  0.00    -0.194 NA 
HETATM   19  C   UNL     1      -9.409  11.866  66.912  1.00  0.00    -0.196 A  
BRANCH  17  20
HETATM   20  C   UNL     1     -10.449  10.801  64.891  1.00  0.00    -0.254 C  
HETATM   21  C   UNL     1     -10.860  11.453  63.786  1.00  0.00    -0.468 C  
BRANCH  21  22
HETATM   22  C   UNL     1     -11.580  12.749  63.750  1.00  0.00    -0.481 C  
HETATM   23  N   UNL     1     -10.856  13.847  64.150  1.00  0.00    -0.556 N  
HETATM   24  O   UNL     1     -12.735  12.860  63.347  1.00  0.00    -0.695 OA 
HETATM   25  H   UNL     1      -9.868  13.787  64.400  1.00  0.00     0.000 HD 
BRANCH  23  26
HETATM   26  N   UNL     1     -11.573  15.065  64.191  1.00  0.00    -0.674 NA 
HETATM   27  H   UNL     1     -12.334  15.282  63.548  1.00  0.00     0.000 HD 
BRANCH  26  28
HETATM   28  C   UNL     1     -11.143  15.959  65.203  1.00  0.00    -0.311 A  
HETATM   29  N   UNL     1     -10.944  17.274  64.940  1.00  0.00    -0.850 NA 
HETATM   30  C   UNL     1     -10.454  18.013  65.970  1.00  0.00    -0.313 A  
HETATM   31  C   UNL     1     -10.155  17.477  67.212  1.00  0.00    -0.327 A  
HETATM   32  N   UNL     1     -10.334  16.171  67.491  1.00  0.00    -0.280 NA 
HETATM   33  C   UNL     1     -10.821  15.433  66.462  1.00  0.00    -0.298 A  
ENDBRANCH  26  28
ENDBRANCH  23  26
ENDBRANCH  21  22
ENDBRANCH  17  20
ENDBRANCH  10  15
TORSDOF 5
ENDMDL
MODEL        3
REMARK 921   NORMALIZED FREE ENERGY PREDICTED BY IDOCK:   -8.67 KCAL/MOL
REMARK 922        TOTAL FREE ENERGY PREDICTED BY IDOCK:  -12.47 KCAL/MOL
REMARK 923 INTER-LIGAND FREE ENERGY PREDICTED BY IDOCK:  -10.86 KCAL/MOL
REMARK 924 INTRA-LIGAND FREE ENERGY PREDICTED BY IDOCK:   -1.61 KCAL/MOL
REMARK 927      BINDING AFFINITY PREDICTED BY RF-SCORE:    0.00 PKD
ROOT
HETATM    1  F   UNL     1     -12.211  13.260  62.895  1.00  0.00    -0.592 F  
HETATM    2  C   UNL     1     -12.058  12.252  63.799  1.00  0.00    -0.532 C  
HETATM    3  F   UNL     1     -13.274  11.650  63.894  1.00  0.00    -0.478 F  
HETATM    4  F   UNL     1     -11.232  11.346  63.208  1.00  0.00    -0.456 F  
HETATM    5  C   UNL     1     -11.537  12.720  65.137  1.00  0.00    -0.373 A  
HETATM    6  C   UNL     1     -11.244  14.069  65.385  1.00  0.00    -0.319 A  
HETATM    7  C   UNL     1     -10.770  14.488  66.640  1.00  0.00    -0.305 A  
HETATM    8  C   UNL     1     -10.468  15.945  66.903  1.00  0.00    -0.309 C  
HETATM    9  C   UNL     1     -10.583  13.532  67.657  1.00  0.00    -0.246 A  
HETATM   10  C   UNL     1     -10.860  12.177  67.430  1.00  0.00    -0.286 A  
HETATM   11  F   UNL     1      -9.172  16.153  67.270  1.00  0.00    -0.201 F  
HETATM   12  F   UNL     1     -10.682  16.747  65.824  1.00  0.00    -0.332 F  
HETATM   13  F   UNL     1     -11.230  16.462  67.906  1.00  0.00    -0.336 F  
HETATM   14  C   UNL     1     -11.341  11.790  66.169  1.00  0.00    -0.342 A  
ENDROOT
BRANCH  10  15
HETATM   15  C   UNL     1     -10.680  11.161  68.468  1.00  0.00    -0.201 A  
HETATM   16  N   UNL     1     -11.610  10.280  68.862  1.00  0.00    -0.130 NA 
HETATM   17  N   UNL     1     -10.931   9.462  69.725  1.00  0.00    -0.235 NA 
HETATM   18  N   UNL     1      -9.497  11.059  69.144  1.00  0.00    -0.109 NA 
HETATM   19  C   UNL     1      -9.687  10.028  69.927  1.00  0.00    -0.203 A  
BRANCH  17  20
HETATM   20  C   UNL     1     -11.489   8.330  70.338  1.00  0.00    -0.122 C  
HETATM   21  C   UNL     1     -12.511   8.191  71.205  1.00  0.00    -0.269 C  
BRANCH  21  22
HETATM   22  C   UNL     1     -13.221   9.288  71.906  1.00  0.00    -0.423 C  
HETATM   23  N   UNL     1     -12.776  10.560  71.632  1.00  0.00    -0.436 N  
HETATM   24  O   UNL     1     -14.178   9.095  72.651  1.00  0.00    -0.551 OA 
HETATM   25  H   UNL     1     -12.043  10.745  70.946  1.00  0.00     0.000 HD 
BRANCH  23  26
HETATM   26  N   UNL     1     -13.403  11.594  72.366  1.00  0.00    -0.489 NA 
HETATM   27  H   UNL     1     -13.920  11.425  73.228  1.00  0.00     0.000 HD 
BRANCH  26  28
HETATM   28  C   UNL     1     -13.250  12.883  71.800  1.00  0.00    -0.384 A  
HETATM   29  N   UNL     1     -12.291  13.134  70.874  1.00  0.00    -0.360 NA 
HETATM   30  C   UNL     1     -12.190  14.427  70.466  1.00  0.00    -0.341 A  
HETATM   31  C   UNL     1     -12.994  15.442  70.960  1.00  0.00    -0.492 A  
HETATM   32  N   UNL     1     -13.945  15.216  71.888  1.00  0.00    -0.474 NA 
HETATM   33  C   UNL     1     -14.043  13.926  72.297  1.00  0.00    -0.535 A  
ENDBRANCH  26  28
ENDBRANCH  23  26
ENDBRANCH  21  22
ENDBRANCH  17  20
ENDBRANCH  10  15
TORSDOF 5
ENDMDL
MODEL        4
REMARK 921   NORMALIZED FREE ENERGY PREDICTED BY IDOCK:   -8.54 KCAL/MOL
REMARK 922        TOTAL FREE ENERGY PREDICTED BY IDOCK:  -12.30 KCAL/MOL
REMARK 923 INTER-LIGAND FREE ENERGY PREDICTED BY IDOCK:  -10.68 KCAL/MOL
REMARK 924 INTRA-LIGAND FREE ENERGY PREDICTED BY IDOCK:   -1.62 KCAL/MOL
REMARK 927      BINDING AFFINITY PREDICTED BY RF-SCORE:    0.00 PKD
ROOT
HETATM    1  F   UNL     1     -10.746  16.806  65.889  1.00  0.00    -0.323 F  
HETATM    2  C   UNL     1     -10.503  15.962  66.930  1.00  0.00    -0.309 C  
HETATM    3  F   UNL     1      -9.201  16.158  67.272  1.00  0.00    -0.201 F  
HETATM    4  F   UNL     1     -11.242  16.434  67.971  1.00  0.00    -0.342 F  
HETATM    5  C   UNL     1     -10.809  14.517  66.615  1.00  0.00    -0.311 A  
HETATM    6  C   UNL     1     -11.301  14.123  65.362  1.00  0.00    -0.322 A  
HETATM    7  C   UNL     1     -11.570  12.772  65.083  1.00  0.00    -0.373 A  
HETATM    8  C   UNL     1     -12.088  12.352  63.728  1.00  0.00    -0.529 C  
HETATM    9  C   UNL     1     -11.346  11.806  66.085  1.00  0.00    -0.342 A  
HETATM   10  C   UNL     1     -10.864  12.177  67.347  1.00  0.00    -0.286 A  
HETATM   11  F   UNL     1     -13.292  11.717  63.801  1.00  0.00    -0.516 F  
HETATM   12  F   UNL     1     -12.269  13.394  62.871  1.00  0.00    -0.579 F  
HETATM   13  F   UNL     1     -11.246  11.492  63.091  1.00  0.00    -0.413 F  
HETATM   14  C   UNL     1     -10.595  13.533  67.593  1.00  0.00    -0.246 A  
ENDROOT
BRANCH  10  15
HETATM   15  C   UNL     1     -10.617  11.197  68.405  1.00  0.00    -0.193 A  
HETATM   16  N   UNL     1     -11.488  10.267  68.821  1.00  0.00    -0.168 NA 
HETATM   17  N   UNL     1     -10.755   9.513  69.699  1.00  0.00    -0.231 NA 
HETATM   18  N   UNL     1      -9.428  11.186  69.079  1.00  0.00    -0.117 NA 
HETATM   19  C   UNL     1      -9.550  10.161  69.884  1.00  0.00    -0.128 A  
BRANCH  17  20
HETATM   20  C   UNL     1     -11.238   8.361  70.337  1.00  0.00    -0.213 C  
HETATM   21  C   UNL     1     -12.219   8.182  71.244  1.00  0.00    -0.302 C  
BRANCH  21  22
HETATM   22  C   UNL     1     -12.949   9.250  71.968  1.00  0.00    -0.425 C  
HETATM   23  N   UNL     1     -12.782  10.525  71.480  1.00  0.00    -0.423 N  
HETATM   24  O   UNL     1     -13.696   9.024  72.916  1.00  0.00    -0.365 OA 
HETATM   25  H   UNL     1     -12.239  10.719  70.638  1.00  0.00     0.000 HD 
BRANCH  23  26
HETATM   26  N   UNL     1     -13.415  11.547  72.224  1.00  0.00    -0.521 NA 
HETATM   27  H   UNL     1     -13.938  11.366  73.081  1.00  0.00     0.000 HD 
BRANCH  26  28
HETATM   28  C   UNL     1     -13.260  12.845  71.677  1.00  0.00    -0.324 A  
HETATM   29  N   UNL     1     -12.281  13.116  70.780  1.00  0.00    -0.348 NA 
HETATM   30  C   UNL     1     -12.182  14.414  70.389  1.00  0.00    -0.338 A  
HETATM   31  C   UNL     1     -13.009  15.415  70.874  1.00  0.00    -0.478 A  
HETATM   32  N   UNL     1     -13.981  15.170  71.774  1.00  0.00    -0.477 NA 
HETATM   33  C   UNL     1     -14.077  13.874  72.165  1.00  0.00    -0.536 A  
ENDBRANCH  26  28
ENDBRANCH  23  26
ENDBRANCH  21  22
ENDBRANCH  17  20
ENDBRANCH  10  15
TORSDOF 5
ENDMDL
MODEL        5
REMARK 921   NORMALIZED FREE ENERGY PREDICTED BY IDOCK:   -8.46 KCAL/MOL
REMARK 922        TOTAL FREE ENERGY PREDICTED BY IDOCK:  -12.20 KCAL/MOL
REMARK 923 INTER-LIGAND FREE ENERGY PREDICTED BY IDOCK:  -10.53 KCAL/MOL
REMARK 924 INTRA-LIGAND FREE ENERGY PREDICTED BY IDOCK:   -1.67 KCAL/MOL
REMARK 927      BINDING AFFINITY PREDICTED BY RF-SCORE:    0.00 PKD
ROOT
HETATM    1  F   UNL     1     -11.788  16.559  71.779  1.00  0.00    -0.496 F  
HETATM    2  C   UNL     1     -12.099  15.646  70.816  1.00  0.00    -0.412 C  
HETATM    3  F   UNL     1     -11.727  14.437  71.317  1.00  0.00    -0.361 F  
HETATM    4  F   UNL     1     -13.459  15.625  70.750  1.00  0.00    -0.525 F  
HETATM    5  C   UNL     1     -11.461  15.941  69.480  1.00  0.00    -0.342 A  
HETATM    6  C   UNL     1     -10.640  17.062  69.285  1.00  0.00    -0.276 A  
HETATM    7  C   UNL     1     -10.046  17.315  68.037  1.00  0.00    -0.324 A  
HETATM    8  C   UNL     1      -9.153  18.517  67.838  1.00  0.00    -0.290 C  
HETATM    9  C   UNL     1     -10.290  16.430  66.968  1.00  0.00    -0.293 A  
HETATM   10  C   UNL     1     -11.114  15.310  67.136  1.00  0.00    -0.323 A  
HETATM   11  F   UNL     1      -9.608  19.352  66.861  1.00  0.00    -0.328 F  
HETATM   12  F   UNL     1      -9.023  19.287  68.953  1.00  0.00    -0.377 F  
HETATM   13  F   UNL     1      -7.886  18.171  67.478  1.00  0.00    -0.214 F  
HETATM   14  C   UNL     1     -11.686  15.077  68.397  1.00  0.00    -0.341 A  
ENDROOT
BRANCH  10  15
HETATM   15  C   UNL     1     -11.383  14.370  66.047  1.00  0.00    -0.335 A  
HETATM   16  N   UNL     1     -10.472  13.906  65.180  1.00  0.00    -0.369 NA 
HETATM   17  N   UNL     1     -11.162  12.961  64.467  1.00  0.00    -0.319 NA 
HETATM   18  N   UNL     1     -12.647  13.903  65.827  1.00  0.00    -0.504 NA 
HETATM   19  C   UNL     1     -12.488  13.062  64.837  1.00  0.00    -0.455 A  
BRANCH  17  20
HETATM   20  C   UNL     1     -10.585  12.145  63.482  1.00  0.00    -0.458 C  
HETATM   21  C   UNL     1     -10.036  10.916  63.544  1.00  0.00    -0.419 C  
BRANCH  21  22
HETATM   22  C   UNL     1      -9.724  10.156  64.778  1.00  0.00    -0.322 C  
HETATM   23  N   UNL     1     -10.240  10.672  65.944  1.00  0.00    -0.256 N  
HETATM   24  O   UNL     1      -9.087   9.107  64.773  1.00  0.00    -0.200 OA 
HETATM   25  H   UNL     1     -10.847  11.492  65.955  1.00  0.00     0.000 HD 
BRANCH  23  26
HETATM   26  N   UNL     1      -9.870   9.988  67.126  1.00  0.00    -0.177 NA 
HETATM   27  H   UNL     1      -9.109   9.311  67.158  1.00  0.00     0.000 HD 
BRANCH  26  28
HETATM   28  C   UNL     1     -10.649  10.326  68.260  1.00  0.00    -0.221 A  
HETATM   29  N   UNL     1     -11.646  11.242  68.180  1.00  0.00    -0.460 NA 
HETATM   30  C   UNL     1     -12.267  11.540  69.351  1.00  0.00    -0.207 A  
HETATM   31  C   UNL     1     -11.913  10.969  70.563  1.00  0.00    -0.379 A  
HETATM   32  N   UNL     1     -10.918  10.066  70.667  1.00  0.00    -0.318 NA 
HETATM   33  C   UNL     1     -10.297   9.770  69.497  1.00  0.00    -0.230 A  
ENDBRANCH  26  28
ENDBRANCH  23  26
ENDBRANCH  21  22
ENDBRANCH  17  20
ENDBRANCH  10  15
TORSDOF 5
ENDMDL
MODEL        6
REMARK 921   NORMALIZED FREE ENERGY PREDICTED BY IDOCK:   -8.45 KCAL/MOL
REMARK 922        TOTAL FREE ENERGY PREDICTED BY IDOCK:  -12.18 KCAL/MOL
REMARK 923 INTER-LIGAND FREE ENERGY PREDICTED BY IDOCK:  -10.57 KCAL/MOL
REMARK 924 INTRA-LIGAND FREE ENERGY PREDICTED BY IDOCK:   -1.61 KCAL/MOL
REMARK 927      BINDING AFFINITY PREDICTED BY RF-SCORE:    0.00 PKD
ROOT
HETATM    1  F   UNL     1     -13.291  14.699  73.524  1.00  0.00    -0.526 F  
HETATM    2  C   UNL     1     -12.795  15.013  72.294  1.00  0.00    -0.333 C  
HETATM    3  F   UNL     1     -13.673  15.901  71.755  1.00  0.00    -0.511 F  
HETATM    4  F   UNL     1     -11.647  15.708  72.524  1.00  0.00    -0.463 F  
HETATM    5  C   UNL     1     -12.574  13.808  71.411  1.00  0.00    -0.433 A  
HETATM    6  C   UNL     1     -12.855  12.507  71.853  1.00  0.00    -0.311 A  
HETATM    7  C   UNL     1     -12.653  11.399  71.013  1.00  0.00    -0.487 A  
HETATM    8  C   UNL     1     -12.971  10.001  71.490  1.00  0.00    -0.434 C  
HETATM    9  C   UNL     1     -12.152  11.605  69.712  1.00  0.00    -0.357 A  
HETATM   10  C   UNL     1     -11.854  12.894  69.253  1.00  0.00    -0.363 A  
HETATM   11  F   UNL     1     -11.886   9.177  71.457  1.00  0.00    -0.327 F  
HETATM   12  F   UNL     1     -13.432   9.957  72.771  1.00  0.00    -0.342 F  
HETATM   13  F   UNL     1     -13.926   9.396  70.732  1.00  0.00    -0.304 F  
HETATM   14  C   UNL     1     -12.075  13.983  70.111  1.00  0.00    -0.419 A  
ENDROOT
BRANCH  10  15
HETATM   15  C   UNL     1     -11.337  13.141  67.906  1.00  0.00    -0.286 A  
HETATM   16  N   UNL     1     -11.925  12.755  66.765  1.00  0.00    -0.466 NA 
HETATM   17  N   UNL     1     -11.156  13.339  65.794  1.00  0.00    -0.279 NA 
HETATM   18  N   UNL     1     -10.152  13.797  67.725  1.00  0.00    -0.240 NA 
HETATM   19  C   UNL     1     -10.052  13.881  66.423  1.00  0.00    -0.295 A  
BRANCH  17  20
HETATM   20  C   UNL     1     -11.440  13.273  64.422  1.00  0.00    -0.379 C  
HETATM   21  C   UNL     1     -11.152  12.343  63.490  1.00  0.00    -0.521 C  
BRANCH  21  22
HETATM   22  C   UNL     1     -10.253  11.177  63.664  1.00  0.00    -0.387 C  
HETATM   23  N   UNL     1     -10.380  10.495  64.851  1.00  0.00    -0.302 N  
HETATM   24  O   UNL     1      -9.471  10.802  62.795  1.00  0.00    -0.295 OA 
HETATM   25  H   UNL     1     -11.087  10.737  65.545  1.00  0.00     0.000 HD 
BRANCH  23  26
HETATM   26  N   UNL     1      -9.463   9.436  65.044  1.00  0.00    -0.443 NA 
HETATM   27  H   UNL     1      -8.833   9.109  64.312  1.00  0.00     0.000 HD 
BRANCH  26  28
HETATM   28  C   UNL     1      -9.496   8.868  66.341  1.00  0.00    -0.220 A  
HETATM   29  N   UNL     1     -10.498   9.156  67.208  1.00  0.00    -0.267 NA 
HETATM   30  C   UNL     1     -10.376   8.615  68.449  1.00  0.00    -0.201 A  
HETATM   31  C   UNL     1      -9.300   7.829  68.831  1.00  0.00    -0.146 A  
HETATM   32  N   UNL     1      -8.288   7.541  67.989  1.00  0.00    -0.123 NA 
HETATM   33  C   UNL     1      -8.409   8.083  66.751  1.00  0.00    -0.116 A  
ENDBRANCH  26  28
ENDBRANCH  23  26
ENDBRANCH  21  22
ENDBRANCH  17  20
ENDBRANCH  10  15
TORSDOF 5
ENDMDL
MODEL        7
REMARK 921   NORMALIZED FREE ENERGY PREDICTED BY IDOCK:   -8.42 KCAL/MOL
REMARK 922        TOTAL FREE ENERGY PREDICTED BY IDOCK:  -12.15 KCAL/MOL
REMARK 923 INTER-LIGAND FREE ENERGY PREDICTED BY IDOCK:  -10.63 KCAL/MOL
REMARK 924 INTRA-LIGAND FREE ENERGY PREDICTED BY IDOCK:   -1.52 KCAL/MOL
REMARK 927      BINDING AFFINITY PREDICTED BY RF-SCORE:    0.00 PKD
ROOT
HETATM    1  F   UNL     1     -12.970  15.956  71.552  1.00  0.00    -0.470 F  
HETATM    2  C   UNL     1     -13.104  14.701  72.065  1.00  0.00    -0.337 C  
HETATM    3  F   UNL     1     -12.356  14.682  73.201  1.00  0.00    -0.412 F  
HETATM    4  F   UNL     1     -14.402  14.600  72.465  1.00  0.00    -0.506 F  
HETATM    5  C   UNL     1     -12.713  13.612  71.095  1.00  0.00    -0.432 A  
HETATM    6  C   UNL     1     -12.268  13.903  69.798  1.00  0.00    -0.388 A  
HETATM    7  C   UNL     1     -11.898  12.876  68.912  1.00  0.00    -0.352 A  
HETATM    8  C   UNL     1     -11.406  13.198  67.520  1.00  0.00    -0.298 C  
HETATM    9  C   UNL     1     -11.987  11.536  69.339  1.00  0.00    -0.392 A  
HETATM   10  C   UNL     1     -12.438  11.220  70.627  1.00  0.00    -0.439 A  
HETATM   11  F   UNL     1     -12.175  12.628  66.549  1.00  0.00    -0.457 F  
HETATM   12  F   UNL     1     -11.390  14.531  67.246  1.00  0.00    -0.298 F  
HETATM   13  F   UNL     1     -10.137  12.759  67.301  1.00  0.00    -0.218 F  
HETATM   14  C   UNL     1     -12.792  12.268  71.493  1.00  0.00    -0.384 A  
ENDROOT
BRANCH  10  15
HETATM   15  C   UNL     1     -12.537   9.839  71.100  1.00  0.00    -0.345 A  
HETATM   16  N   UNL     1     -11.518   8.972  71.182  1.00  0.00    -0.287 NA 
HETATM   17  N   UNL     1     -12.070   7.888  71.812  1.00  0.00    -0.290 NA 
HETATM   18  N   UNL     1     -13.740   9.321  71.490  1.00  0.00    -0.362 NA 
HETATM   19  C   UNL     1     -13.430   8.116  71.896  1.00  0.00    -0.324 A  
BRANCH  17  20
HETATM   20  C   UNL     1     -11.348   6.744  72.185  1.00  0.00    -0.271 C  
HETATM   21  C   UNL     1     -10.669   5.836  71.458  1.00  0.00    -0.319 C  
BRANCH  21  22
HETATM   22  C   UNL     1     -10.672   5.716  69.980  1.00  0.00    -0.320 C  
HETATM   23  N   UNL     1     -11.318   6.722  69.300  1.00  0.00    -0.561 N  
HETATM   24  O   UNL     1     -10.100   4.809  69.383  1.00  0.00    -0.218 OA 
HETATM   25  H   UNL     1     -11.719   7.531  69.775  1.00  0.00     0.000 HD 
BRANCH  23  26
HETATM   26  N   UNL     1     -11.387   6.558  67.897  1.00  0.00    -0.637 NA 
HETATM   27  H   UNL     1     -12.029   5.906  67.447  1.00  0.00     0.000 HD 
BRANCH  26  28
HETATM   28  C   UNL     1     -10.488   7.378  67.171  1.00  0.00    -0.333 A  
HETATM   29  N   UNL     1     -10.717   8.706  67.018  1.00  0.00    -0.216 NA 
HETATM   30  C   UNL     1      -9.827   9.370  66.234  1.00  0.00    -0.281 A  
HETATM   31  C   UNL     1      -8.757   8.749  65.609  1.00  0.00    -0.184 A  
HETATM   32  N   UNL     1      -8.519   7.429  65.739  1.00  0.00    -0.142 NA 
HETATM   33  C   UNL     1      -9.409   6.767  66.519  1.00  0.00    -0.161 A  
ENDBRANCH  26  28
ENDBRANCH  23  26
ENDBRANCH  21  22
ENDBRANCH  17  20
ENDBRANCH  10  15
TORSDOF 5
ENDMDL
MODEL        8
REMARK 921   NORMALIZED FREE ENERGY PREDICTED BY IDOCK:   -8.42 KCAL/MOL
REMARK 922        TOTAL FREE ENERGY PREDICTED BY IDOCK:  -12.15 KCAL/MOL
REMARK 923 INTER-LIGAND FREE ENERGY PREDICTED BY IDOCK:  -10.55 KCAL/MOL
REMARK 924 INTRA-LIGAND FREE ENERGY PREDICTED BY IDOCK:   -1.60 KCAL/MOL
REMARK 927      BINDING AFFINITY PREDICTED BY RF-SCORE:    0.00 PKD
ROOT
HETATM    1  F   UNL     1     -12.802   8.786  72.688  1.00  0.00    -0.435 F  
HETATM    2  C   UNL     1     -13.079   9.730  71.745  1.00  0.00    -0.431 C  
HETATM    3  F   UNL     1     -14.131   9.244  71.031  1.00  0.00    -0.384 F  
HETATM    4  F   UNL     1     -13.552  10.809  72.428  1.00  0.00    -0.462 F  
HETATM    5  C   UNL     1     -11.896  10.073  70.873  1.00  0.00    -0.459 A  
HETATM    6  C   UNL     1     -10.645   9.463  71.052  1.00  0.00    -0.400 A  
HETATM    7  C   UNL     1      -9.557   9.787  70.223  1.00  0.00    -0.264 A  
HETATM    8  C   UNL     1      -8.217   9.117  70.413  1.00  0.00    -0.171 C  
HETATM    9  C   UNL     1      -9.731  10.745  69.205  1.00  0.00    -0.181 A  
HETATM   10  C   UNL     1     -10.968  11.375  69.013  1.00  0.00    -0.288 A  
HETATM   11  F   UNL     1      -7.218  10.008  70.672  1.00  0.00    -0.143 F  
HETATM   12  F   UNL     1      -8.197   8.228  71.443  1.00  0.00    -0.096 F  
HETATM   13  F   UNL     1      -7.822   8.418  69.313  1.00  0.00    -0.094 F  
HETATM   14  C   UNL     1     -12.039  11.024  69.851  1.00  0.00    -0.435 A  
ENDROOT
BRANCH  10  15
HETATM   15  C   UNL     1     -11.181  12.370  67.962  1.00  0.00    -0.268 A  
HETATM   16  N   UNL     1     -10.530  13.537  67.853  1.00  0.00    -0.245 NA 
HETATM   17  N   UNL     1     -10.961  14.033  66.651  1.00  0.00    -0.297 NA 
HETATM   18  N   UNL     1     -12.119  12.165  66.989  1.00  0.00    -0.546 NA 
HETATM   19  C   UNL     1     -11.981  13.211  66.215  1.00  0.00    -0.415 A  
BRANCH  17  20
HETATM   20  C   UNL     1     -10.483  15.220  66.075  1.00  0.00    -0.317 C  
HETATM   21  C   UNL     1     -10.022  16.361  66.624  1.00  0.00    -0.281 C  
BRANCH  21  22
HETATM   22  C   UNL     1     -10.080  16.730  68.058  1.00  0.00    -0.284 C  
HETATM   23  N   UNL     1     -11.171  16.263  68.752  1.00  0.00    -0.347 N  
HETATM   24  O   UNL     1      -9.196  17.371  68.619  1.00  0.00    -0.270 OA 
HETATM   25  H   UNL     1     -11.868  15.652  68.325  1.00  0.00     0.000 HD 
BRANCH  23  26
HETATM   26  N   UNL     1     -11.262  16.688  70.098  1.00  0.00    -0.435 NA 
HETATM   27  H   UNL     1     -10.857  17.562  70.431  1.00  0.00     0.000 HD 
BRANCH  26  28
HETATM   28  C   UNL     1     -11.965  15.794  70.943  1.00  0.00    -0.413 A  
HETATM   29  N   UNL     1     -12.656  14.744  70.435  1.00  0.00    -0.352 NA 
HETATM   30  C   UNL     1     -13.355  14.007  71.338  1.00  0.00    -0.317 A  
HETATM   31  C   UNL     1     -13.385  14.298  72.692  1.00  0.00    -0.525 A  
HETATM   32  N   UNL     1     -12.715  15.342  73.217  1.00  0.00    -0.453 NA 
HETATM   33  C   UNL     1     -12.019  16.080  72.314  1.00  0.00    -0.538 A  
ENDBRANCH  26  28
ENDBRANCH  23  26
ENDBRANCH  21  22
ENDBRANCH  17  20
ENDBRANCH  10  15
TORSDOF 5
ENDMDL
MODEL        9
REMARK 921   NORMALIZED FREE ENERGY PREDICTED BY IDOCK:   -8.38 KCAL/MOL
REMARK 922        TOTAL FREE ENERGY PREDICTED BY IDOCK:  -12.10 KCAL/MOL
REMARK 923 INTER-LIGAND FREE ENERGY PREDICTED BY IDOCK:  -10.45 KCAL/MOL
REMARK 924 INTRA-LIGAND FREE ENERGY PREDICTED BY IDOCK:   -1.65 KCAL/MOL
REMARK 927      BINDING AFFINITY PREDICTED BY RF-SCORE:    0.00 PKD
ROOT
HETATM    1  F   UNL     1     -11.241  14.485  67.070  1.00  0.00    -0.298 F  
HETATM    2  C   UNL     1     -11.314  13.173  67.428  1.00  0.00    -0.306 C  
HETATM    3  F   UNL     1     -12.131  12.582  66.514  1.00  0.00    -0.455 F  
HETATM    4  F   UNL     1     -10.071  12.660  67.213  1.00  0.00    -0.209 F  
HETATM    5  C   UNL     1     -11.786  12.964  68.847  1.00  0.00    -0.370 A  
HETATM    6  C   UNL     1     -12.101  14.042  69.687  1.00  0.00    -0.408 A  
HETATM    7  C   UNL     1     -12.549  13.828  71.002  1.00  0.00    -0.446 A  
HETATM    8  C   UNL     1     -12.900  14.994  71.897  1.00  0.00    -0.337 C  
HETATM    9  C   UNL     1     -12.673  12.508  71.479  1.00  0.00    -0.325 A  
HETATM   10  C   UNL     1     -12.354  11.415  70.662  1.00  0.00    -0.466 A  
HETATM   11  F   UNL     1     -12.155  15.021  73.038  1.00  0.00    -0.408 F  
HETATM   12  F   UNL     1     -12.716  16.206  71.305  1.00  0.00    -0.493 F  
HETATM   13  F   UNL     1     -14.201  14.971  72.297  1.00  0.00    -0.476 F  
HETATM   14  C   UNL     1     -11.918  11.660  69.350  1.00  0.00    -0.381 A  
ENDROOT
BRANCH  10  15
HETATM   15  C   UNL     1     -12.477  10.034  71.127  1.00  0.00    -0.379 A  
HETATM   16  N   UNL     1     -11.461   9.172  71.278  1.00  0.00    -0.306 NA 
HETATM   17  N   UNL     1     -12.049   8.084  71.868  1.00  0.00    -0.301 NA 
HETATM   18  N   UNL     1     -13.700   9.508  71.432  1.00  0.00    -0.301 NA 
HETATM   19  C   UNL     1     -13.412   8.305  71.858  1.00  0.00    -0.346 A  
BRANCH  17  20
HETATM   20  C   UNL     1     -11.348   6.944  72.289  1.00  0.00    -0.269 C  
HETATM   21  C   UNL     1     -10.727   5.968  71.599  1.00  0.00    -0.303 C  
BRANCH  21  22
HETATM   22  C   UNL     1     -10.793   5.751  70.134  1.00  0.00    -0.313 C  
HETATM   23  N   UNL     1     -11.312   6.790  69.399  1.00  0.00    -0.549 N  
HETATM   24  O   UNL     1     -10.374   4.733  69.590  1.00  0.00    -0.217 OA 
HETATM   25  H   UNL     1     -11.581   7.678  69.824  1.00  0.00     0.000 HD 
BRANCH  23  26
HETATM   26  N   UNL     1     -11.449   6.544  68.012  1.00  0.00    -0.611 NA 
HETATM   27  H   UNL     1     -12.096   5.853  67.634  1.00  0.00     0.000 HD 
BRANCH  26  28
HETATM   28  C   UNL     1     -10.609   7.341  67.196  1.00  0.00    -0.346 A  
HETATM   29  N   UNL     1      -9.618   6.785  66.455  1.00  0.00    -0.165 NA 
HETATM   30  C   UNL     1      -8.829   7.660  65.777  1.00  0.00    -0.100 A  
HETATM   31  C   UNL     1      -8.998   9.034  65.834  1.00  0.00    -0.190 A  
HETATM   32  N   UNL     1      -9.969   9.607  66.572  1.00  0.00    -0.230 NA 
HETATM   33  C   UNL     1     -10.754   8.734  67.251  1.00  0.00    -0.147 A  
ENDBRANCH  26  28
ENDBRANCH  23  26
ENDBRANCH  21  22
ENDBRANCH  17  20
ENDBRANCH  10  15
TORSDOF 5
ENDMDL
MODEL       10
REMARK 921   NORMALIZED FREE ENERGY PREDICTED BY IDOCK:   -8.37 KCAL/MOL
REMARK 922        TOTAL FREE ENERGY PREDICTED BY IDOCK:  -12.08 KCAL/MOL
REMARK 923 INTER-LIGAND FREE ENERGY PREDICTED BY IDOCK:  -10.33 KCAL/MOL
REMARK 924 INTRA-LIGAND FREE ENERGY PREDICTED BY IDOCK:   -1.75 KCAL/MOL
REMARK 927      BINDING AFFINITY PREDICTED BY RF-SCORE:    0.00 PKD
ROOT
HETATM    1  F   UNL     1      -8.400   7.728  71.675  1.00  0.00    -0.099 F  
HETATM    2  C   UNL     1      -8.342   8.653  70.676  1.00  0.00    -0.143 C  
HETATM    3  F   UNL     1      -7.326   9.495  71.006  1.00  0.00    -0.118 F  
HETATM    4  F   UNL     1      -7.930   7.977  69.569  1.00  0.00    -0.104 F  
HETATM    5  C   UNL     1      -9.648   9.379  70.455  1.00  0.00    -0.330 A  
HETATM    6  C   UNL     1     -10.789   9.096  71.220  1.00  0.00    -0.402 A  
HETATM    7  C   UNL     1     -11.992   9.790  71.007  1.00  0.00    -0.440 A  
HETATM    8  C   UNL     1     -13.214   9.489  71.843  1.00  0.00    -0.439 C  
HETATM    9  C   UNL     1     -12.048  10.778  70.004  1.00  0.00    -0.423 A  
HETATM   10  C   UNL     1     -10.923  11.072  69.222  1.00  0.00    -0.305 A  
HETATM   11  F   UNL     1     -14.277   9.087  71.091  1.00  0.00    -0.420 F  
HETATM   12  F   UNL     1     -13.014   8.502  72.760  1.00  0.00    -0.371 F  
HETATM   13  F   UNL     1     -13.641  10.570  72.551  1.00  0.00    -0.414 F  
HETATM   14  C   UNL     1      -9.732  10.369  69.463  1.00  0.00    -0.196 A  
ENDROOT
BRANCH  10  15
HETATM   15  C   UNL     1     -10.948  12.095  68.176  1.00  0.00    -0.230 A  
HETATM   16  N   UNL     1     -10.104  13.132  68.085  1.00  0.00    -0.232 NA 
HETATM   17  N   UNL     1     -10.428  13.703  66.882  1.00  0.00    -0.270 NA 
HETATM   18  N   UNL     1     -11.895  12.062  67.192  1.00  0.00    -0.604 NA 
HETATM   19  C   UNL     1     -11.570  13.073  66.428  1.00  0.00    -0.363 A  
BRANCH  17  20
HETATM   20  C   UNL     1      -9.745  14.793  66.321  1.00  0.00    -0.303 C  
HETATM   21  C   UNL     1      -9.632  16.078  66.712  1.00  0.00    -0.248 C  
BRANCH  21  22
HETATM   22  C   UNL     1     -10.397  16.734  67.799  1.00  0.00    -0.318 C  
HETATM   23  N   UNL     1     -10.473  16.038  68.982  1.00  0.00    -0.230 N  
HETATM   24  O   UNL     1     -10.898  17.849  67.683  1.00  0.00    -0.375 OA 
HETATM   25  H   UNL     1      -9.986  15.153  69.125  1.00  0.00     0.000 HD 
BRANCH  23  26
HETATM   26  N   UNL     1     -11.273  16.632  69.986  1.00  0.00    -0.417 NA 
HETATM   27  H   UNL     1     -11.398  17.640  70.069  1.00  0.00     0.000 HD 
BRANCH  26  28
HETATM   28  C   UNL     1     -11.884  15.705  70.866  1.00  0.00    -0.388 A  
HETATM   29  N   UNL     1     -12.399  14.537  70.408  1.00  0.00    -0.319 NA 
HETATM   30  C   UNL     1     -13.030  13.769  71.335  1.00  0.00    -0.355 A  
HETATM   31  C   UNL     1     -13.165  14.141  72.663  1.00  0.00    -0.518 A  
HETATM   32  N   UNL     1     -12.671  15.302  73.136  1.00  0.00    -0.426 NA 
HETATM   33  C   UNL     1     -12.042  16.069  72.210  1.00  0.00    -0.527 A  
ENDBRANCH  26  28
ENDBRANCH  23  26
ENDBRANCH  21  22
ENDBRANCH  17  20
ENDBRANCH  10  15
TORSDOF 5
ENDMDL
MODEL       11
REMARK 921   NORMALIZED FREE ENERGY PREDICTED BY IDOCK:   -8.36 KCAL/MOL
REMARK 922        TOTAL FREE ENERGY PREDICTED BY IDOCK:  -12.06 KCAL/MOL
REMARK 923 INTER-LIGAND FREE ENERGY PREDICTED BY IDOCK:  -10.33 KCAL/MOL
REMARK 924 INTRA-LIGAND FREE ENERGY PREDICTED BY IDOCK:   -1.73 KCAL/MOL
REMARK 927      BINDING AFFINITY PREDICTED BY RF-SCORE:    0.00 PKD
ROOT
HETATM    1  F   UNL     1      -9.110  19.114  68.888  1.00  0.00    -0.380 F  
HETATM    2  C   UNL     1      -9.273  18.330  67.785  1.00  0.00    -0.270 C  
HETATM    3  F   UNL     1      -9.763  19.150  66.816  1.00  0.00    -0.310 F  
HETATM    4  F   UNL     1      -8.018  17.983  67.388  1.00  0.00    -0.212 F  
HETATM    5  C   UNL     1     -10.154  17.128  68.027  1.00  0.00    -0.311 A  
HETATM    6  C   UNL     1     -10.725  16.872  69.283  1.00  0.00    -0.288 A  
HETATM    7  C   UNL     1     -11.551  15.754  69.487  1.00  0.00    -0.368 A  
HETATM    8  C   UNL     1     -12.174  15.492  70.838  1.00  0.00    -0.400 C  
HETATM    9  C   UNL     1     -11.799  14.878  68.412  1.00  0.00    -0.309 A  
HETATM   10  C   UNL     1     -11.232  15.107  67.152  1.00  0.00    -0.320 A  
HETATM   11  F   UNL     1     -11.814  14.282  71.354  1.00  0.00    -0.377 F  
HETATM   12  F   UNL     1     -11.832  16.413  71.780  1.00  0.00    -0.480 F  
HETATM   13  F   UNL     1     -13.534  15.493  70.795  1.00  0.00    -0.489 F  
HETATM   14  C   UNL     1     -10.418  16.238  66.975  1.00  0.00    -0.306 A  
ENDROOT
BRANCH  10  15
HETATM   15  C   UNL     1     -11.474  14.218  66.015  1.00  0.00    -0.347 A  
HETATM   16  N   UNL     1     -10.528  13.705  65.215  1.00  0.00    -0.333 NA 
HETATM   17  N   UNL     1     -11.223  12.835  64.417  1.00  0.00    -0.327 NA 
HETATM   18  N   UNL     1     -12.746  13.856  65.674  1.00  0.00    -0.545 NA 
HETATM   19  C   UNL     1     -12.565  13.030  64.675  1.00  0.00    -0.362 A  
BRANCH  17  20
HETATM   20  C   UNL     1     -10.625  12.001  63.459  1.00  0.00    -0.465 C  
HETATM   21  C   UNL     1     -10.029  10.798  63.565  1.00  0.00    -0.403 C  
BRANCH  21  22
HETATM   22  C   UNL     1      -9.676  10.102  64.826  1.00  0.00    -0.322 C  
HETATM   23  N   UNL     1     -10.327  10.542  65.954  1.00  0.00    -0.235 N  
HETATM   24  O   UNL     1      -8.889   9.161  64.871  1.00  0.00    -0.190 OA 
HETATM   25  H   UNL     1     -11.051  11.261  65.920  1.00  0.00     0.000 HD 
BRANCH  23  26
HETATM   26  N   UNL     1      -9.925   9.930  67.164  1.00  0.00    -0.189 NA 
HETATM   27  H   UNL     1      -9.134   9.290  67.225  1.00  0.00     0.000 HD 
BRANCH  26  28
HETATM   28  C   UNL     1     -10.717  10.284  68.285  1.00  0.00    -0.237 A  
HETATM   29  N   UNL     1     -11.732  11.176  68.174  1.00  0.00    -0.547 NA 
HETATM   30  C   UNL     1     -12.365  11.495  69.333  1.00  0.00    -0.092 A  
HETATM   31  C   UNL     1     -12.005  10.967  70.563  1.00  0.00    -0.371 A  
HETATM   32  N   UNL     1     -10.992  10.088  70.697  1.00  0.00    -0.318 NA 
HETATM   33  C   UNL     1     -10.359   9.772  69.540  1.00  0.00    -0.230 A  
ENDBRANCH  26  28
ENDBRANCH  23  26
ENDBRANCH  21  22
ENDBRANCH  17  20
ENDBRANCH  10  15
TORSDOF 5
ENDMDL
MODEL       12
REMARK 921   NORMALIZED FREE ENERGY PREDICTED BY IDOCK:   -8.31 KCAL/MOL
REMARK 922        TOTAL FREE ENERGY PREDICTED BY IDOCK:  -12.01 KCAL/MOL
REMARK 923 INTER-LIGAND FREE ENERGY PREDICTED BY IDOCK:  -10.16 KCAL/MOL
REMARK 924 INTRA-LIGAND FREE ENERGY PREDICTED BY IDOCK:   -1.85 KCAL/MOL
REMARK 927      BINDING AFFINITY PREDICTED BY RF-SCORE:    0.00 PKD
ROOT
HETATM    1  F   UNL     1     -11.422  12.716  63.567  1.00  0.00    -0.440 F  
HETATM    2  C   UNL     1     -12.107  12.807  64.742  1.00  0.00    -0.432 C  
HETATM    3  F   UNL     1     -12.458  14.116  64.868  1.00  0.00    -0.405 F  
HETATM    4  F   UNL     1     -13.267  12.121  64.549  1.00  0.00    -0.498 F  
HETATM    5  C   UNL     1     -11.327  12.299  65.931  1.00  0.00    -0.406 A  
HETATM    6  C   UNL     1     -10.029  11.784  65.799  1.00  0.00    -0.269 A  
HETATM    7  C   UNL     1      -9.315  11.326  66.919  1.00  0.00    -0.190 A  
HETATM    8  C   UNL     1      -7.912  10.785  66.770  1.00  0.00    -0.138 C  
HETATM    9  C   UNL     1      -9.921  11.381  68.189  1.00  0.00    -0.196 A  
HETATM   10  C   UNL     1     -11.220  11.882  68.346  1.00  0.00    -0.312 A  
HETATM   11  F   UNL     1      -7.799   9.499  67.208  1.00  0.00    -0.096 F  
HETATM   12  F   UNL     1      -7.467  10.780  65.484  1.00  0.00    -0.147 F  
HETATM   13  F   UNL     1      -6.998  11.505  67.476  1.00  0.00    -0.078 F  
HETATM   14  C   UNL     1     -11.906  12.342  67.210  1.00  0.00    -0.330 A  
ENDROOT
BRANCH  10  15
HETATM   15  C   UNL     1     -11.874  11.957  69.652  1.00  0.00    -0.337 A  
HETATM   16  N   UNL     1     -12.381  13.068  70.205  1.00  0.00    -0.284 NA 
HETATM   17  N   UNL     1     -13.007  12.607  71.333  1.00  0.00    -0.325 NA 
HETATM   18  N   UNL     1     -11.996  10.843  70.434  1.00  0.00    -0.332 NA 
HETATM   19  C   UNL     1     -12.669  11.275  71.469  1.00  0.00    -0.376 A  
BRANCH  17  20
HETATM   20  C   UNL     1     -13.754  13.416  72.203  1.00  0.00    -0.552 C  
HETATM   21  C   UNL     1     -13.669  14.727  72.503  1.00  0.00    -0.572 C  
BRANCH  21  22
HETATM   22  C   UNL     1     -12.582  15.650  72.099  1.00  0.00    -0.426 C  
HETATM   23  N   UNL     1     -12.448  15.861  70.747  1.00  0.00    -0.493 N  
HETATM   24  O   UNL     1     -11.867  16.235  72.908  1.00  0.00    -0.499 OA 
HETATM   25  H   UNL     1     -13.091  15.456  70.066  1.00  0.00     0.000 HD 
BRANCH  23  26
HETATM   26  N   UNL     1     -11.358  16.677  70.364  1.00  0.00    -0.439 NA 
HETATM   27  H   UNL     1     -11.089  17.517  70.876  1.00  0.00     0.000 HD 
BRANCH  26  28
HETATM   28  C   UNL     1     -10.673  16.227  69.209  1.00  0.00    -0.307 A  
HETATM   29  N   UNL     1     -11.124  16.525  67.965  1.00  0.00    -0.319 NA 
HETATM   30  C   UNL     1     -10.429  15.969  66.938  1.00  0.00    -0.306 A  
HETATM   31  C   UNL     1      -9.335  15.139  67.125  1.00  0.00    -0.212 A  
HETATM   32  N   UNL     1      -8.877  14.822  68.352  1.00  0.00    -0.175 NA 
HETATM   33  C   UNL     1      -9.574  15.374  69.377  1.00  0.00    -0.270 A  
ENDBRANCH  26  28
ENDBRANCH  23  26
ENDBRANCH  21  22
ENDBRANCH  17  20
ENDBRANCH  10  15
TORSDOF 5
ENDMDL
MODEL       13
REMARK 921   NORMALIZED FREE ENERGY PREDICTED BY IDOCK:   -8.27 KCAL/MOL
REMARK 922        TOTAL FREE ENERGY PREDICTED BY IDOCK:  -11.96 KCAL/MOL
REMARK 923 INTER-LIGAND FREE ENERGY PREDICTED BY IDOCK:  -10.13 KCAL/MOL
REMARK 924 INTRA-LIGAND FREE ENERGY PREDICTED BY IDOCK:   -1.83 KCAL/MOL
REMARK 927      BINDING AFFINITY PREDICTED BY RF-SCORE:    0.00 PKD
ROOT
HETATM    1  F   UNL     1      -8.141   8.762  71.943  1.00  0.00    -0.172 F  
HETATM    2  C   UNL     1      -8.136   9.167  70.642  1.00  0.00    -0.172 C  
HETATM    3  F   UNL     1      -7.172  10.123  70.554  1.00  0.00    -0.149 F  
HETATM    4  F   UNL     1      -7.680   8.104  69.924  1.00  0.00    -0.087 F  
HETATM    5  C   UNL     1      -9.482   9.654  70.161  1.00  0.00    -0.298 A  
HETATM    6  C   UNL     1     -10.606   9.665  70.999  1.00  0.00    -0.362 A  
HETATM    7  C   UNL     1     -11.848  10.132  70.537  1.00  0.00    -0.408 A  
HETATM    8  C   UNL     1     -13.052  10.154  71.449  1.00  0.00    -0.416 C  
HETATM    9  C   UNL     1     -11.960  10.586  69.208  1.00  0.00    -0.194 A  
HETATM   10  C   UNL     1     -10.853  10.575  68.349  1.00  0.00    -0.284 A  
HETATM   11  F   UNL     1     -14.087   9.409  70.968  1.00  0.00    -0.373 F  
HETATM   12  F   UNL     1     -12.796   9.671  72.696  1.00  0.00    -0.395 F  
HETATM   13  F   UNL     1     -13.546  11.409  71.632  1.00  0.00    -0.357 F  
HETATM   14  C   UNL     1      -9.623  10.112  68.842  1.00  0.00    -0.186 A  
ENDROOT
BRANCH  10  15
HETATM   15  C   UNL     1     -10.936  11.045  66.966  1.00  0.00    -0.272 A  
HETATM   16  N   UNL     1     -11.854  11.898  66.489  1.00  0.00    -0.570 NA 
HETATM   17  N   UNL     1     -11.430  12.142  65.209  1.00  0.00    -0.344 NA 
HETATM   18  N   UNL     1     -10.048  10.603  66.026  1.00  0.00    -0.241 NA 
HETATM   19  C   UNL     1     -10.390  11.270  64.953  1.00  0.00    -0.304 A  
BRANCH  17  20
HETATM   20  C   UNL     1     -12.048  13.050  64.336  1.00  0.00    -0.411 C  
HETATM   21  C   UNL     1     -11.995  14.394  64.255  1.00  0.00    -0.433 C  
BRANCH  21  22
HETATM   22  C   UNL     1     -11.373  15.308  65.243  1.00  0.00    -0.282 C  
HETATM   23  N   UNL     1     -11.389  14.877  66.549  1.00  0.00    -0.342 N  
HETATM   24  O   UNL     1     -10.834  16.365  64.928  1.00  0.00    -0.655 OA 
HETATM   25  H   UNL     1     -11.750  13.961  66.816  1.00  0.00     0.000 HD 
BRANCH  23  26
HETATM   26  N   UNL     1     -10.869  15.791  67.495  1.00  0.00    -0.318 NA 
HETATM   27  H   UNL     1     -10.223  16.539  67.246  1.00  0.00     0.000 HD 
BRANCH  26  28
HETATM   28  C   UNL     1     -11.323  15.576  68.820  1.00  0.00    -0.334 A  
HETATM   29  N   UNL     1     -10.994  16.428  69.822  1.00  0.00    -0.351 NA 
HETATM   30  C   UNL     1     -11.421  16.072  71.062  1.00  0.00    -0.417 A  
HETATM   31  C   UNL     1     -12.136  14.912  71.313  1.00  0.00    -0.330 A  
HETATM   32  N   UNL     1     -12.463  14.045  70.334  1.00  0.00    -0.351 NA 
HETATM   33  C   UNL     1     -12.034  14.400  69.097  1.00  0.00    -0.322 A  
ENDBRANCH  26  28
ENDBRANCH  23  26
ENDBRANCH  21  22
ENDBRANCH  17  20
ENDBRANCH  10  15
TORSDOF 5
ENDMDL
MODEL       14
REMARK 921   NORMALIZED FREE ENERGY PREDICTED BY IDOCK:   -8.27 KCAL/MOL
REMARK 922        TOTAL FREE ENERGY PREDICTED BY IDOCK:  -11.96 KCAL/MOL
REMARK 923 INTER-LIGAND FREE ENERGY PREDICTED BY IDOCK:  -10.34 KCAL/MOL
REMARK 924 INTRA-LIGAND FREE ENERGY PREDICTED BY IDOCK:   -1.61 KCAL/MOL
REMARK 927      BINDING AFFINITY PREDICTED BY RF-SCORE:    0.00 PKD
ROOT
HETATM    1  F   UNL     1     -13.421  10.146  72.805  1.00  0.00    -0.268 F  
HETATM    2  C   UNL     1     -12.807  10.151  71.588  1.00  0.00    -0.454 C  
HETATM    3  F   UNL     1     -11.633   9.486  71.762  1.00  0.00    -0.416 F  
HETATM    4  F   UNL     1     -13.572   9.364  70.783  1.00  0.00    -0.274 F  
HETATM    5  C   UNL     1     -12.610  11.537  71.022  1.00  0.00    -0.457 A  
HETATM    6  C   UNL     1     -13.038  12.683  71.708  1.00  0.00    -0.461 A  
HETATM    7  C   UNL     1     -12.837  13.966  71.170  1.00  0.00    -0.423 A  
HETATM    8  C   UNL     1     -13.289  15.197  71.920  1.00  0.00    -0.399 C  
HETATM    9  C   UNL     1     -12.201  14.094  69.919  1.00  0.00    -0.416 A  
HETATM   10  C   UNL     1     -11.773  12.963  69.211  1.00  0.00    -0.378 A  
HETATM   11  F   UNL     1     -14.181  15.944  71.210  1.00  0.00    -0.377 F  
HETATM   12  F   UNL     1     -13.900  14.916  73.104  1.00  0.00    -0.473 F  
HETATM   13  F   UNL     1     -12.258  16.031  72.225  1.00  0.00    -0.429 F  
HETATM   14  C   UNL     1     -11.979  11.695  69.778  1.00  0.00    -0.402 A  
ENDROOT
BRANCH  10  15
HETATM   15  C   UNL     1     -11.106  13.064  67.913  1.00  0.00    -0.255 A  
HETATM   16  N   UNL     1     -11.664  12.778  66.728  1.00  0.00    -0.376 NA 
HETATM   17  N   UNL     1     -10.712  13.167  65.824  1.00  0.00    -0.276 NA 
HETATM   18  N   UNL     1      -9.800  13.458  67.831  1.00  0.00    -0.229 NA 
HETATM   19  C   UNL     1      -9.576  13.487  66.542  1.00  0.00    -0.277 A  
BRANCH  17  20
HETATM   20  C   UNL     1     -10.887  13.126  64.432  1.00  0.00    -0.397 C  
HETATM   21  C   UNL     1     -10.674  12.149  63.530  1.00  0.00    -0.509 C  
BRANCH  21  22
HETATM   22  C   UNL     1      -9.989  10.858  63.781  1.00  0.00    -0.351 C  
HETATM   23  N   UNL     1     -10.228  10.282  65.006  1.00  0.00    -0.284 N  
HETATM   24  O   UNL     1      -9.285  10.302  62.942  1.00  0.00    -0.246 OA 
HETATM   25  H   UNL     1     -10.882  10.683  65.678  1.00  0.00     0.000 HD 
BRANCH  23  26
HETATM   26  N   UNL     1      -9.507   9.094  65.269  1.00  0.00    -0.451 NA 
HETATM   27  H   UNL     1      -9.067   8.539  64.536  1.00  0.00     0.000 HD 
BRANCH  26  28
HETATM   28  C   UNL     1      -9.449   8.742  66.640  1.00  0.00    -0.203 A  
HETATM   29  N   UNL     1      -8.420   8.009  67.134  1.00  0.00    -0.123 NA 
HETATM   30  C   UNL     1      -8.517   7.666  68.445  1.00  0.00    -0.125 A  
HETATM   31  C   UNL     1      -9.594   8.020  69.243  1.00  0.00    -0.157 A  
HETATM   32  N   UNL     1     -10.632   8.738  68.770  1.00  0.00    -0.186 NA 
HETATM   33  C   UNL     1     -10.535   9.077  67.460  1.00  0.00    -0.272 A  
ENDBRANCH  26  28
ENDBRANCH  23  26
ENDBRANCH  21  22
ENDBRANCH  17  20
ENDBRANCH  10  15
TORSDOF 5
ENDMDL
MODEL       15
REMARK 921   NORMALIZED FREE ENERGY PREDICTED BY IDOCK:   -8.15 KCAL/MOL
REMARK 922        TOTAL FREE ENERGY PREDICTED BY IDOCK:  -11.80 KCAL/MOL
REMARK 923 INTER-LIGAND FREE ENERGY PREDICTED BY IDOCK:  -10.34 KCAL/MOL
REMARK 924 INTRA-LIGAND FREE ENERGY PREDICTED BY IDOCK:   -1.45 KCAL/MOL
REMARK 927      BINDING AFFINITY PREDICTED BY RF-SCORE:    0.00 PKD
ROOT
HETATM    1  F   UNL     1     -13.204   8.642  73.373  1.00  0.00    -0.022 F  
HETATM    2  C   UNL     1     -13.390   9.277  72.182  1.00  0.00    -0.468 C  
HETATM    3  F   UNL     1     -14.384   8.596  71.549  1.00  0.00    -0.439 F  
HETATM    4  F   UNL     1     -13.903  10.499  72.489  1.00  0.00    -0.297 F  
HETATM    5  C   UNL     1     -12.132   9.371  71.351  1.00  0.00    -0.442 A  
HETATM    6  C   UNL     1     -10.909   8.852  71.800  1.00  0.00    -0.436 A  
HETATM    7  C   UNL     1      -9.752   8.940  71.008  1.00  0.00    -0.320 A  
HETATM    8  C   UNL     1      -8.441   8.366  71.492  1.00  0.00    -0.157 C  
HETATM    9  C   UNL     1      -9.827   9.568  69.749  1.00  0.00    -0.236 A  
HETATM   10  C   UNL     1     -11.035  10.103  69.284  1.00  0.00    -0.279 A  
HETATM   11  F   UNL     1      -7.456   9.305  71.571  1.00  0.00    -0.111 F  
HETATM   12  F   UNL     1      -8.519   7.805  72.730  1.00  0.00    -0.130 F  
HETATM   13  F   UNL     1      -7.964   7.389  70.673  1.00  0.00    -0.092 F  
HETATM   14  C   UNL     1     -12.177   9.992  70.093  1.00  0.00    -0.116 A  
ENDROOT
BRANCH  10  15
HETATM   15  C   UNL     1     -11.146  10.757  67.979  1.00  0.00    -0.299 A  
HETATM   16  N   UNL     1     -12.074  11.662  67.641  1.00  0.00    -0.573 NA 
HETATM   17  N   UNL     1     -11.675  12.080  66.399  1.00  0.00    -0.565 NA 
HETATM   18  N   UNL     1     -10.275  10.451  66.972  1.00  0.00    -0.215 NA 
HETATM   19  C   UNL     1     -10.638  11.257  66.007  1.00  0.00    -0.258 A  
BRANCH  17  20
HETATM   20  C   UNL     1     -12.313  13.096  65.670  1.00  0.00    -0.461 C  
HETATM   21  C   UNL     1     -12.267  14.438  65.773  1.00  0.00    -0.353 C  
BRANCH  21  22
HETATM   22  C   UNL     1     -11.633  15.212  66.868  1.00  0.00    -0.156 C  
HETATM   23  N   UNL     1     -12.106  14.956  68.133  1.00  0.00    -0.562 N  
HETATM   24  O   UNL     1     -10.711  16.001  66.680  1.00  0.00    -0.311 OA 
HETATM   25  H   UNL     1     -12.807  14.238  68.318  1.00  0.00     0.000 HD 
BRANCH  23  26
HETATM   26  N   UNL     1     -11.555  15.756  69.161  1.00  0.00    -0.376 NA 
HETATM   27  H   UNL     1     -10.801  16.423  68.999  1.00  0.00     0.000 HD 
BRANCH  26  28
HETATM   28  C   UNL     1     -12.140  15.551  70.434  1.00  0.00    -0.392 A  
HETATM   29  N   UNL     1     -13.485  15.470  70.584  1.00  0.00    -0.400 NA 
HETATM   30  C   UNL     1     -13.930  15.353  71.863  1.00  0.00    -0.528 A  
HETATM   31  C   UNL     1     -13.083  15.331  72.960  1.00  0.00    -0.506 A  
HETATM   32  N   UNL     1     -11.744  15.421  72.835  1.00  0.00    -0.447 NA 
HETATM   33  C   UNL     1     -11.302  15.540  71.558  1.00  0.00    -0.397 A  
ENDBRANCH  26  28
ENDBRANCH  23  26
ENDBRANCH  21  22
ENDBRANCH  17  20
ENDBRANCH  10  15
TORSDOF 5
ENDMDL
MODEL       16
REMARK 921   NORMALIZED FREE ENERGY PREDICTED BY IDOCK:   -8.13 KCAL/MOL
REMARK 922        TOTAL FREE ENERGY PREDICTED BY IDOCK:  -11.77 KCAL/MOL
REMARK 923 INTER-LIGAND FREE ENERGY PREDICTED BY IDOCK:   -9.99 KCAL/MOL
REMARK 924 INTRA-LIGAND FREE ENERGY PREDICTED BY IDOCK:   -1.78 KCAL/MOL
REMARK 927      BINDING AFFINITY PREDICTED BY RF-SCORE:    0.00 PKD
ROOT
HETATM    1  F   UNL     1      -7.442  10.715  65.059  1.00  0.00    -0.137 F  
HETATM    2  C   UNL     1      -7.882  10.666  66.348  1.00  0.00    -0.144 C  
HETATM    3  F   UNL     1      -7.762   9.367  66.733  1.00  0.00    -0.094 F  
HETATM    4  F   UNL     1      -6.969  11.363  67.078  1.00  0.00    -0.098 F  
HETATM    5  C   UNL     1      -9.285  11.195  66.523  1.00  0.00    -0.194 A  
HETATM    6  C   UNL     1     -10.029  11.687  65.440  1.00  0.00    -0.287 A  
HETATM    7  C   UNL     1     -11.338  12.166  65.620  1.00  0.00    -0.395 A  
HETATM    8  C   UNL     1     -12.138  12.683  64.447  1.00  0.00    -0.415 C  
HETATM    9  C   UNL     1     -11.902  12.155  66.911  1.00  0.00    -0.295 A  
HETATM   10  C   UNL     1     -11.175  11.677  68.009  1.00  0.00    -0.327 A  
HETATM   11  F   UNL     1     -12.529  13.979  64.611  1.00  0.00    -0.409 F  
HETATM   12  F   UNL     1     -11.458  12.646  63.269  1.00  0.00    -0.503 F  
HETATM   13  F   UNL     1     -13.279  11.969  64.239  1.00  0.00    -0.509 F  
HETATM   14  C   UNL     1      -9.873  11.196  67.797  1.00  0.00    -0.186 A  
ENDROOT
BRANCH  10  15
HETATM   15  C   UNL     1     -11.735  11.648  69.361  1.00  0.00    -0.340 A  
HETATM   16  N   UNL     1     -12.269  12.696  70.003  1.00  0.00    -0.244 NA 
HETATM   17  N   UNL     1     -12.780  12.144  71.147  1.00  0.00    -0.322 NA 
HETATM   18  N   UNL     1     -11.728  10.494  70.093  1.00  0.00    -0.299 NA 
HETATM   19  C   UNL     1     -12.349  10.833  71.193  1.00  0.00    -0.393 A  
BRANCH  17  20
HETATM   20  C   UNL     1     -13.511  12.861  72.107  1.00  0.00    -0.522 C  
HETATM   21  C   UNL     1     -13.477  14.156  72.477  1.00  0.00    -0.634 C  
BRANCH  21  22
HETATM   22  C   UNL     1     -12.469  15.161  72.060  1.00  0.00    -0.340 C  
HETATM   23  N   UNL     1     -12.538  15.567  70.748  1.00  0.00    -0.438 N  
HETATM   24  O   UNL     1     -11.648  15.644  72.834  1.00  0.00    -0.437 OA 
HETATM   25  H   UNL     1     -13.270  15.245  70.115  1.00  0.00     0.000 HD 
BRANCH  23  26
HETATM   26  N   UNL     1     -11.523  16.463  70.336  1.00  0.00    -0.485 NA 
HETATM   27  H   UNL     1     -11.360  17.361  70.790  1.00  0.00     0.000 HD 
BRANCH  26  28
HETATM   28  C   UNL     1     -10.754  16.004  69.238  1.00  0.00    -0.275 A  
HETATM   29  N   UNL     1     -11.278  15.945  67.989  1.00  0.00    -0.340 NA 
HETATM   30  C   UNL     1     -10.470  15.412  67.036  1.00  0.00    -0.295 A  
HETATM   31  C   UNL     1      -9.194  14.939  67.302  1.00  0.00    -0.204 A  
HETATM   32  N   UNL     1      -8.659  14.977  68.538  1.00  0.00    -0.159 NA 
HETATM   33  C   UNL     1      -9.467  15.507  69.490  1.00  0.00    -0.269 A  
ENDBRANCH  26  28
ENDBRANCH  23  26
ENDBRANCH  21  22
ENDBRANCH  17  20
ENDBRANCH  10  15
TORSDOF 5
ENDMDL
MODEL       17
REMARK 921   NORMALIZED FREE ENERGY PREDICTED BY IDOCK:   -8.10 KCAL/MOL
REMARK 922        TOTAL FREE ENERGY PREDICTED BY IDOCK:  -11.74 KCAL/MOL
REMARK 923 INTER-LIGAND FREE ENERGY PREDICTED BY IDOCK:  -10.11 KCAL/MOL
REMARK 924 INTRA-LIGAND FREE ENERGY PREDICTED BY IDOCK:   -1.63 KCAL/MOL
REMARK 927      BINDING AFFINITY PREDICTED BY RF-SCORE:    0.00 PKD
ROOT
HETATM    1  F   UNL     1     -13.055  16.243  73.003  1.00  0.00    -0.512 F  
HETATM    2  C   UNL     1     -12.925  14.968  72.539  1.00  0.00    -0.374 C  
HETATM    3  F   UNL     1     -12.339  14.264  73.545  1.00  0.00    -0.370 F  
HETATM    4  F   UNL     1     -14.192  14.483  72.427  1.00  0.00    -0.497 F  
HETATM    5  C   UNL     1     -12.156  14.877  71.243  1.00  0.00    -0.385 A  
HETATM    6  C   UNL     1     -11.647  16.018  70.605  1.00  0.00    -0.409 A  
HETATM    7  C   UNL     1     -10.924  15.913  69.404  1.00  0.00    -0.309 A  
HETATM    8  C   UNL     1     -10.367  17.144  68.729  1.00  0.00    -0.353 C  
HETATM    9  C   UNL     1     -10.718  14.640  68.835  1.00  0.00    -0.251 A  
HETATM   10  C   UNL     1     -11.225  13.488  69.449  1.00  0.00    -0.244 A  
HETATM   11  F   UNL     1     -10.842  17.307  67.462  1.00  0.00    -0.349 F  
HETATM   12  F   UNL     1     -10.658  18.301  69.386  1.00  0.00    -0.182 F  
HETATM   13  F   UNL     1      -9.010  17.112  68.621  1.00  0.00    -0.244 F  
HETATM   14  C   UNL     1     -11.936  13.623  70.653  1.00  0.00    -0.328 A  
ENDROOT
BRANCH  10  15
HETATM   15  C   UNL     1     -11.024  12.153  68.886  1.00  0.00    -0.224 A  
HETATM   16  N   UNL     1      -9.846  11.640  68.505  1.00  0.00    -0.201 NA 
HETATM   17  N   UNL     1     -10.148  10.340  68.196  1.00  0.00    -0.146 NA 
HETATM   18  N   UNL     1     -12.085  11.314  68.687  1.00  0.00    -0.570 NA 
HETATM   19  C   UNL     1     -11.523  10.221  68.239  1.00  0.00    -0.075 A  
BRANCH  17  20
HETATM   20  C   UNL     1      -9.196   9.382  67.815  1.00  0.00    -0.128 C  
HETATM   21  C   UNL     1      -8.529   9.190  66.659  1.00  0.00    -0.126 C  
BRANCH  21  22
HETATM   22  C   UNL     1      -8.790   9.879  65.372  1.00  0.00    -0.168 C  
HETATM   23  N   UNL     1      -8.996  11.236  65.451  1.00  0.00    -0.343 N  
HETATM   24  O   UNL     1      -8.781   9.298  64.291  1.00  0.00    -0.196 OA 
HETATM   25  H   UNL     1      -8.916  11.749  66.329  1.00  0.00     0.000 HD 
BRANCH  23  26
HETATM   26  N   UNL     1      -9.326  11.871  64.231  1.00  0.00    -0.439 NA 
HETATM   27  H   UNL     1      -8.889  11.626  63.343  1.00  0.00     0.000 HD 
BRANCH  26  28
HETATM   28  C   UNL     1     -10.314  12.879  64.350  1.00  0.00    -0.369 A  
HETATM   29  N   UNL     1     -10.168  13.907  65.222  1.00  0.00    -0.348 NA 
HETATM   30  C   UNL     1     -11.219  14.765  65.303  1.00  0.00    -0.366 A  
HETATM   31  C   UNL     1     -12.381  14.611  64.563  1.00  0.00    -0.398 A  
HETATM   32  N   UNL     1     -12.552  13.590  63.700  1.00  0.00    -0.723 NA 
HETATM   33  C   UNL     1     -11.503  12.733  63.621  1.00  0.00    -0.481 A  
ENDBRANCH  26  28
ENDBRANCH  23  26
ENDBRANCH  21  22
ENDBRANCH  17  20
ENDBRANCH  10  15
TORSDOF 5
ENDMDL
MODEL       18
REMARK 921   NORMALIZED FREE ENERGY PREDICTED BY IDOCK:   -8.09 KCAL/MOL
REMARK 922        TOTAL FREE ENERGY PREDICTED BY IDOCK:  -11.72 KCAL/MOL
REMARK 923 INTER-LIGAND FREE ENERGY PREDICTED BY IDOCK:  -10.13 KCAL/MOL
REMARK 924 INTRA-LIGAND FREE ENERGY PREDICTED BY IDOCK:   -1.58 KCAL/MOL
REMARK 927      BINDING AFFINITY PREDICTED BY RF-SCORE:    0.00 PKD
ROOT
HETATM    1  F   UNL     1      -6.885  15.415  66.863  1.00  0.00    -0.179 F  
HETATM    2  C   UNL     1      -7.773  14.713  67.622  1.00  0.00    -0.177 C  
HETATM    3  F   UNL     1      -8.162  13.657  66.857  1.00  0.00    -0.179 F  
HETATM    4  F   UNL     1      -7.050  14.190  68.650  1.00  0.00    -0.087 F  
HETATM    5  C   UNL     1      -8.940  15.543  68.102  1.00  0.00    -0.179 A  
HETATM    6  C   UNL     1      -9.060  16.903  67.783  1.00  0.00    -0.229 A  
HETATM    7  C   UNL     1     -10.158  17.657  68.229  1.00  0.00    -0.362 A  
HETATM    8  C   UNL     1     -10.288  19.119  67.871  1.00  0.00    -0.414 C  
HETATM    9  C   UNL     1     -11.147  17.031  69.015  1.00  0.00     0.018 A  
HETATM   10  C   UNL     1     -11.044  15.676  69.354  1.00  0.00    -0.303 A  
HETATM   11  F   UNL     1     -10.345  19.924  68.970  1.00  0.00    -0.515 F  
HETATM   12  F   UNL     1      -9.251  19.587  67.122  1.00  0.00    -0.318 F  
HETATM   13  F   UNL     1     -11.413  19.382  67.152  1.00  0.00    -0.438 F  
HETATM   14  C   UNL     1      -9.940  14.946  68.886  1.00  0.00    -0.233 A  
ENDROOT
BRANCH  10  15
HETATM   15  C   UNL     1     -12.056  14.997  70.164  1.00  0.00    -0.331 A  
HETATM   16  N   UNL     1     -12.053  13.694  70.479  1.00  0.00    -0.349 NA 
HETATM   17  N   UNL     1     -13.097  13.575  71.358  1.00  0.00    -0.330 NA 
HETATM   18  N   UNL     1     -13.129  15.685  70.656  1.00  0.00    -0.463 NA 
HETATM   19  C   UNL     1     -13.765  14.784  71.361  1.00  0.00    -0.431 A  
BRANCH  17  20
HETATM   20  C   UNL     1     -13.433  12.386  72.021  1.00  0.00    -0.360 C  
HETATM   21  C   UNL     1     -12.984  11.123  71.882  1.00  0.00    -0.477 C  
BRANCH  21  22
HETATM   22  C   UNL     1     -12.099  10.621  70.803  1.00  0.00    -0.374 C  
HETATM   23  N   UNL     1     -12.463  10.966  69.523  1.00  0.00    -0.427 N  
HETATM   24  O   UNL     1     -11.078   9.977  71.022  1.00  0.00    -0.343 OA 
HETATM   25  H   UNL     1     -13.257  11.578  69.328  1.00  0.00     0.000 HD 
BRANCH  23  26
HETATM   26  N   UNL     1     -11.663  10.416  68.495  1.00  0.00    -0.685 NA 
HETATM   27  H   UNL     1     -11.301   9.463  68.524  1.00  0.00     0.000 HD 
BRANCH  26  28
HETATM   28  C   UNL     1     -11.406  11.303  67.420  1.00  0.00    -0.276 A  
HETATM   29  N   UNL     1     -12.136  12.434  67.254  1.00  0.00    -0.494 NA 
HETATM   30  C   UNL     1     -11.850  13.162  66.142  1.00  0.00    -0.401 A  
HETATM   31  C   UNL     1     -10.890  12.785  65.216  1.00  0.00    -0.291 A  
HETATM   32  N   UNL     1     -10.162  11.659  65.356  1.00  0.00    -0.251 NA 
HETATM   33  C   UNL     1     -10.450  10.932  66.465  1.00  0.00    -0.253 A  
ENDBRANCH  26  28
ENDBRANCH  23  26
ENDBRANCH  21  22
ENDBRANCH  17  20
ENDBRANCH  10  15
TORSDOF 5
ENDMDL
MODEL       19
REMARK 921   NORMALIZED FREE ENERGY PREDICTED BY IDOCK:   -8.06 KCAL/MOL
REMARK 922        TOTAL FREE ENERGY PREDICTED BY IDOCK:  -11.68 KCAL/MOL
REMARK 923 INTER-LIGAND FREE ENERGY PREDICTED BY IDOCK:  -10.14 KCAL/MOL
REMARK 924 INTRA-LIGAND FREE ENERGY PREDICTED BY IDOCK:   -1.54 KCAL/MOL
REMARK 927      BINDING AFFINITY PREDICTED BY RF-SCORE:    0.00 PKD
ROOT
HETATM    1  F   UNL     1      -9.095  20.521  67.303  1.00  0.00    -0.439 F  
HETATM    2  C   UNL     1     -10.088  19.744  67.821  1.00  0.00    -0.419 C  
HETATM    3  F   UNL     1     -10.620  20.458  68.849  1.00  0.00    -0.498 F  
HETATM    4  F   UNL     1     -11.052  19.686  66.861  1.00  0.00    -0.571 F  
HETATM    5  C   UNL     1      -9.617  18.375  68.249  1.00  0.00    -0.355 A  
HETATM    6  C   UNL     1      -8.280  17.975  68.104  1.00  0.00    -0.275 A  
HETATM    7  C   UNL     1      -7.858  16.700  68.518  1.00  0.00    -0.218 A  
HETATM    8  C   UNL     1      -6.414  16.280  68.371  1.00  0.00    -0.130 C  
HETATM    9  C   UNL     1      -8.799  15.813  69.078  1.00  0.00    -0.236 A  
HETATM   10  C   UNL     1     -10.141  16.187  69.224  1.00  0.00    -0.260 A  
HETATM   11  F   UNL     1      -6.269  15.167  67.598  1.00  0.00    -0.141 F  
HETATM   12  F   UNL     1      -5.628  17.234  67.800  1.00  0.00    -0.108 F  
HETATM   13  F   UNL     1      -5.832  15.987  69.566  1.00  0.00    -0.114 F  
HETATM   14  C   UNL     1     -10.532  17.470  68.810  1.00  0.00    -0.318 A  
ENDROOT
BRANCH  10  15
HETATM   15  C   UNL     1     -11.140  15.290  69.807  1.00  0.00    -0.282 A  
HETATM   16  N   UNL     1     -11.065  13.952  69.826  1.00  0.00    -0.084 NA 
HETATM   17  N   UNL     1     -12.135  13.583  70.598  1.00  0.00    -0.338 NA 
HETATM   18  N   UNL     1     -12.276  15.791  70.378  1.00  0.00    -0.387 NA 
HETATM   19  C   UNL     1     -12.880  14.723  70.830  1.00  0.00    -0.362 A  
BRANCH  17  20
HETATM   20  C   UNL     1     -12.421  12.259  70.963  1.00  0.00    -0.263 C  
HETATM   21  C   UNL     1     -12.173  11.086  70.348  1.00  0.00    -0.461 C  
BRANCH  21  22
HETATM   22  C   UNL     1     -11.668  10.910  68.965  1.00  0.00    -0.320 C  
HETATM   23  N   UNL     1     -12.016  11.895  68.071  1.00  0.00    -0.242 N  
HETATM   24  O   UNL     1     -10.944   9.976  68.632  1.00  0.00    -0.227 OA 
HETATM   25  H   UNL     1     -12.539  12.725  68.352  1.00  0.00     0.000 HD 
BRANCH  23  26
HETATM   26  N   UNL     1     -11.600  11.679  66.737  1.00  0.00    -0.526 NA 
HETATM   27  H   UNL     1     -11.316  10.765  66.387  1.00  0.00     0.000 HD 
BRANCH  26  28
HETATM   28  C   UNL     1     -11.612  12.843  65.929  1.00  0.00    -0.377 A  
HETATM   29  N   UNL     1     -10.990  13.980  66.327  1.00  0.00    -0.298 NA 
HETATM   30  C   UNL     1     -11.140  15.052  65.505  1.00  0.00    -0.357 A  
HETATM   31  C   UNL     1     -11.888  15.013  64.339  1.00  0.00    -0.339 A  
HETATM   32  N   UNL     1     -12.523  13.897  63.931  1.00  0.00    -0.714 NA 
HETATM   33  C   UNL     1     -12.375  12.828  64.753  1.00  0.00    -0.478 A  
ENDBRANCH  26  28
ENDBRANCH  23  26
ENDBRANCH  21  22
ENDBRANCH  17  20
ENDBRANCH  10  15
TORSDOF 5
ENDMDL
MODEL       20
REMARK 921   NORMALIZED FREE ENERGY PREDICTED BY IDOCK:   -8.01 KCAL/MOL
REMARK 922        TOTAL FREE ENERGY PREDICTED BY IDOCK:  -11.62 KCAL/MOL
REMARK 923 INTER-LIGAND FREE ENERGY PREDICTED BY IDOCK:  -10.17 KCAL/MOL
REMARK 924 INTRA-LIGAND FREE ENERGY PREDICTED BY IDOCK:   -1.45 KCAL/MOL
REMARK 927      BINDING AFFINITY PREDICTED BY RF-SCORE:    0.00 PKD
ROOT
HETATM    1  F   UNL     1      -9.798  20.828  66.965  1.00  0.00    -0.587 F  
HETATM    2  C   UNL     1     -10.480  19.717  66.567  1.00  0.00    -0.503 C  
HETATM    3  F   UNL     1     -11.585  19.656  67.359  1.00  0.00    -0.328 F  
HETATM    4  F   UNL     1     -10.929  19.988  65.311  1.00  0.00    -0.567 F  
HETATM    5  C   UNL     1      -9.655  18.454  66.625  1.00  0.00    -0.320 A  
HETATM    6  C   UNL     1      -8.317  18.464  67.046  1.00  0.00    -0.257 A  
HETATM    7  C   UNL     1      -7.568  17.277  67.103  1.00  0.00    -0.217 A  
HETATM    8  C   UNL     1      -6.130  17.294  67.569  1.00  0.00    -0.145 C  
HETATM    9  C   UNL     1      -8.174  16.063  66.724  1.00  0.00    -0.307 A  
HETATM   10  C   UNL     1      -9.506  16.029  66.291  1.00  0.00    -0.347 A  
HETATM   11  F   UNL     1      -5.269  16.814  66.628  1.00  0.00    -0.173 F  
HETATM   12  F   UNL     1      -5.678  18.538  67.887  1.00  0.00    -0.162 F  
HETATM   13  F   UNL     1      -5.934  16.533  68.681  1.00  0.00    -0.123 F  
HETATM   14  C   UNL     1     -10.233  17.230  66.253  1.00  0.00    -0.347 A  
ENDROOT
BRANCH  10  15
HETATM   15  C   UNL     1     -10.165  14.784  65.896  1.00  0.00    -0.313 A  
HETATM   16  N   UNL     1      -9.832  13.559  66.326  1.00  0.00    -0.295 NA 
HETATM   17  N   UNL     1     -10.815  12.759  65.805  1.00  0.00    -0.269 NA 
HETATM   18  N   UNL     1     -11.199  14.797  65.003  1.00  0.00    -0.375 NA 
HETATM   19  C   UNL     1     -11.561  13.541  64.945  1.00  0.00    -0.335 A  
BRANCH  17  20
HETATM   20  C   UNL     1     -10.924  11.383  66.057  1.00  0.00    -0.226 C  
HETATM   21  C   UNL     1     -11.034  10.688  67.206  1.00  0.00    -0.348 C  
BRANCH  21  22
HETATM   22  C   UNL     1     -10.876  11.230  68.577  1.00  0.00    -0.205 C  
HETATM   23  N   UNL     1     -11.343  12.508  68.773  1.00  0.00    -0.271 N  
HETATM   24  O   UNL     1     -10.401  10.577  69.502  1.00  0.00    -0.229 OA 
HETATM   25  H   UNL     1     -11.823  13.031  68.040  1.00  0.00     0.000 HD 
BRANCH  23  26
HETATM   26  N   UNL     1     -11.114  13.047  70.060  1.00  0.00    -0.318 NA 
HETATM   27  H   UNL     1     -10.195  13.058  70.500  1.00  0.00     0.000 HD 
BRANCH  26  28
HETATM   28  C   UNL     1     -12.273  13.571  70.685  1.00  0.00    -0.358 A  
HETATM   29  N   UNL     1     -12.667  14.851  70.473  1.00  0.00    -0.354 NA 
HETATM   30  C   UNL     1     -13.745  15.262  71.191  1.00  0.00    -0.443 A  
HETATM   31  C   UNL     1     -14.407  14.448  72.097  1.00  0.00    -0.519 A  
HETATM   32  N   UNL     1     -14.024  13.178  72.332  1.00  0.00    -0.626 NA 
HETATM   33  C   UNL     1     -12.946  12.769  71.617  1.00  0.00    -0.303 A  
ENDBRANCH  26  28
ENDBRANCH  23  26
ENDBRANCH  21  22
ENDBRANCH  17  20
ENDBRANCH  10  15
TORSDOF 5
ENDMDL
MODEL       21
REMARK 921   NORMALIZED FREE ENERGY PREDICTED BY IDOCK:   -8.00 KCAL/MOL
REMARK 922        TOTAL FREE ENERGY PREDICTED BY IDOCK:  -11.60 KCAL/MOL
REMARK 923 INTER-LIGAND FREE ENERGY PREDICTED BY IDOCK:  -10.03 KCAL/MOL
REMARK 924 INTRA-LIGAND FREE ENERGY PREDICTED BY IDOCK:   -1.57 KCAL/MOL
REMARK 927      BINDING AFFINITY PREDICTED BY RF-SCORE:    0.00 PKD
ROOT
HETATM    1  F   UNL     1     -12.080   7.755  70.808  1.00  0.00    -0.297 F  
HETATM    2  C   UNL     1     -12.276   9.082  71.046  1.00  0.00    -0.223 C  
HETATM    3  F   UNL     1     -13.623   9.247  71.144  1.00  0.00    -0.379 F  
HETATM    4  F   UNL     1     -11.775   9.312  72.291  1.00  0.00    -0.411 F  
HETATM    5  C   UNL     1     -11.656   9.977  70.001  1.00  0.00    -0.279 A  
HETATM    6  C   UNL     1     -10.948   9.456  68.908  1.00  0.00    -0.081 A  
HETATM    7  C   UNL     1     -10.386  10.305  67.938  1.00  0.00    -0.234 A  
HETATM    8  C   UNL     1      -9.636   9.737  66.757  1.00  0.00    -0.177 C  
HETATM    9  C   UNL     1     -10.535  11.699  68.078  1.00  0.00    -0.217 A  
HETATM   10  C   UNL     1     -11.230  12.243  69.166  1.00  0.00    -0.300 A  
HETATM   11  F   UNL     1      -8.348  10.179  66.692  1.00  0.00    -0.119 F  
HETATM   12  F   UNL     1      -9.561   8.377  66.765  1.00  0.00    -0.196 F  
HETATM   13  F   UNL     1     -10.208  10.069  65.567  1.00  0.00    -0.347 F  
HETATM   14  C   UNL     1     -11.788  11.370  70.113  1.00  0.00    -0.440 A  
ENDROOT
BRANCH  10  15
HETATM   15  C   UNL     1     -11.405  13.686  69.335  1.00  0.00    -0.245 A  
HETATM   16  N   UNL     1     -10.541  14.627  68.928  1.00  0.00    -0.247 NA 
HETATM   17  N   UNL     1     -11.207  15.799  69.169  1.00  0.00    -0.297 NA 
HETATM   18  N   UNL     1     -12.509  14.184  69.969  1.00  0.00    -0.335 NA 
HETATM   19  C   UNL     1     -12.349  15.479  69.877  1.00  0.00    -0.277 A  
BRANCH  17  20
HETATM   20  C   UNL     1     -10.714  17.067  68.826  1.00  0.00    -0.313 C  
HETATM   21  C   UNL     1     -10.109  17.523  67.712  1.00  0.00    -0.330 C  
BRANCH  21  22
HETATM   22  C   UNL     1      -9.625  16.700  66.578  1.00  0.00    -0.273 C  
HETATM   23  N   UNL     1     -10.396  15.606  66.261  1.00  0.00    -0.293 N  
HETATM   24  O   UNL     1      -8.628  16.987  65.923  1.00  0.00    -0.521 OA 
HETATM   25  H   UNL     1     -11.276  15.404  66.735  1.00  0.00     0.000 HD 
BRANCH  23  26
HETATM   26  N   UNL     1      -9.884  14.781  65.233  1.00  0.00    -0.469 NA 
HETATM   27  H   UNL     1      -8.943  14.886  64.856  1.00  0.00     0.000 HD 
BRANCH  26  28
HETATM   28  C   UNL     1     -10.792  13.796  64.773  1.00  0.00    -0.401 A  
HETATM   29  N   UNL     1     -10.462  12.953  63.763  1.00  0.00    -0.320 NA 
HETATM   30  C   UNL     1     -11.445  12.107  63.356  1.00  0.00    -0.416 A  
HETATM   31  C   UNL     1     -12.714  12.098  63.913  1.00  0.00    -0.377 A  
HETATM   32  N   UNL     1     -13.067  12.934  64.909  1.00  0.00    -0.808 NA 
HETATM   33  C   UNL     1     -12.086  13.780  65.312  1.00  0.00    -0.407 A  
ENDBRANCH  26  28
ENDBRANCH  23  26
ENDBRANCH  21  22
ENDBRANCH  17  20
ENDBRANCH  10  15
TORSDOF 5
ENDMDL
MODEL       22
REMARK 921   NORMALIZED FREE ENERGY PREDICTED BY IDOCK:   -7.95 KCAL/MOL
REMARK 922        TOTAL FREE ENERGY PREDICTED BY IDOCK:  -11.54 KCAL/MOL
REMARK 923 INTER-LIGAND FREE ENERGY PREDICTED BY IDOCK:   -9.83 KCAL/MOL
REMARK 924 INTRA-LIGAND FREE ENERGY PREDICTED BY IDOCK:   -1.71 KCAL/MOL
REMARK 927      BINDING AFFINITY PREDICTED BY RF-SCORE:    0.00 PKD
ROOT
HETATM    1  F   UNL     1      -9.749   8.482  66.506  1.00  0.00    -0.233 F  
HETATM    2  C   UNL     1      -9.825   9.841  66.562  1.00  0.00    -0.225 C  
HETATM    3  F   UNL     1      -8.548  10.291  66.434  1.00  0.00    -0.127 F  
HETATM    4  F   UNL     1     -10.477  10.224  65.430  1.00  0.00    -0.344 F  
HETATM    5  C   UNL     1     -10.496  10.353  67.814  1.00  0.00    -0.268 A  
HETATM    6  C   UNL     1     -10.988   9.482  68.798  1.00  0.00    -0.116 A  
HETATM    7  C   UNL     1     -11.601   9.977  69.962  1.00  0.00    -0.279 A  
HETATM    8  C   UNL     1     -12.117   9.034  71.023  1.00  0.00    -0.251 C  
HETATM    9  C   UNL     1     -11.726  11.370  70.133  1.00  0.00    -0.414 A  
HETATM   10  C   UNL     1     -11.251  12.260  69.160  1.00  0.00    -0.300 A  
HETATM   11  F   UNL     1     -13.452   9.185  71.253  1.00  0.00    -0.362 F  
HETATM   12  F   UNL     1     -11.940   7.720  70.712  1.00  0.00    -0.300 F  
HETATM   13  F   UNL     1     -11.504   9.216  72.225  1.00  0.00    -0.423 F  
HETATM   14  C   UNL     1     -10.635  11.736  68.012  1.00  0.00    -0.235 A  
ENDROOT
BRANCH  10  15
HETATM   15  C   UNL     1     -11.362  13.711  69.311  1.00  0.00    -0.269 A  
HETATM   16  N   UNL     1     -10.379  14.593  69.080  1.00  0.00    -0.238 NA 
HETATM   17  N   UNL     1     -11.002  15.806  69.209  1.00  0.00    -0.259 NA 
HETATM   18  N   UNL     1     -12.529  14.279  69.737  1.00  0.00    -0.287 NA 
HETATM   19  C   UNL     1     -12.273  15.561  69.691  1.00  0.00    -0.270 A  
BRANCH  17  20
HETATM   20  C   UNL     1     -10.374  17.040  68.977  1.00  0.00    -0.330 C  
HETATM   21  C   UNL     1      -9.963  17.637  67.841  1.00  0.00    -0.323 C  
BRANCH  21  22
HETATM   22  C   UNL     1      -9.906  17.017  66.495  1.00  0.00    -0.294 C  
HETATM   23  N   UNL     1      -9.721  15.655  66.472  1.00  0.00    -0.250 N  
HETATM   24  O   UNL     1     -10.059  17.657  65.459  1.00  0.00    -0.566 OA 
HETATM   25  H   UNL     1      -9.684  15.095  67.324  1.00  0.00     0.000 HD 
BRANCH  23  26
HETATM   26  N   UNL     1      -9.586  15.083  65.185  1.00  0.00    -0.314 NA 
HETATM   27  H   UNL     1      -8.818  15.314  64.555  1.00  0.00     0.000 HD 
BRANCH  26  28
HETATM   28  C   UNL     1     -10.609  14.163  64.847  1.00  0.00    -0.430 A  
HETATM   29  N   UNL     1     -10.438  13.258  63.853  1.00  0.00    -0.246 NA 
HETATM   30  C   UNL     1     -11.519  12.485  63.568  1.00  0.00    -0.496 A  
HETATM   31  C   UNL     1     -12.731  12.605  64.229  1.00  0.00    -0.305 A  
HETATM   32  N   UNL     1     -12.926  13.506  65.213  1.00  0.00    -0.711 NA 
HETATM   33  C   UNL     1     -11.847  14.279  65.494  1.00  0.00    -0.363 A  
ENDBRANCH  26  28
ENDBRANCH  23  26
ENDBRANCH  21  22
ENDBRANCH  17  20
ENDBRANCH  10  15
TORSDOF 5
ENDMDL
MODEL       23
REMARK 921   NORMALIZED FREE ENERGY PREDICTED BY IDOCK:   -7.92 KCAL/MOL
REMARK 922        TOTAL FREE ENERGY PREDICTED BY IDOCK:  -11.50 KCAL/MOL
REMARK 923 INTER-LIGAND FREE ENERGY PREDICTED BY IDOCK:   -9.84 KCAL/MOL
REMARK 924 INTRA-LIGAND FREE ENERGY PREDICTED BY IDOCK:   -1.66 KCAL/MOL
REMARK 927      BINDING AFFINITY PREDICTED BY RF-SCORE:    0.00 PKD
ROOT
HETATM    1  F   UNL     1     -12.527  13.738  63.438  1.00  0.00    -0.515 F  
HETATM    2  C   UNL     1     -11.925  12.532  63.638  1.00  0.00    -0.537 C  
HETATM    3  F   UNL     1     -12.810  11.597  63.196  1.00  0.00    -0.706 F  
HETATM    4  F   UNL     1     -10.873  12.495  62.774  1.00  0.00    -0.226 F  
HETATM    5  C   UNL     1     -11.503  12.301  65.069  1.00  0.00    -0.386 A  
HETATM    6  C   UNL     1     -11.721  13.263  66.067  1.00  0.00    -0.408 A  
HETATM    7  C   UNL     1     -11.331  13.026  67.396  1.00  0.00    -0.347 A  
HETATM    8  C   UNL     1     -11.580  14.060  68.469  1.00  0.00    -0.322 C  
HETATM    9  C   UNL     1     -10.707  11.805  67.722  1.00  0.00    -0.244 A  
HETATM   10  C   UNL     1     -10.471  10.834  66.741  1.00  0.00    -0.305 A  
HETATM   11  F   UNL     1     -10.431  14.469  69.078  1.00  0.00    -0.225 F  
HETATM   12  F   UNL     1     -12.176  15.192  68.002  1.00  0.00    -0.283 F  
HETATM   13  F   UNL     1     -12.389  13.598  69.462  1.00  0.00    -0.352 F  
HETATM   14  C   UNL     1     -10.879  11.095  65.423  1.00  0.00    -0.212 A  
ENDROOT
BRANCH  10  15
HETATM   15  C   UNL     1      -9.829   9.556  67.049  1.00  0.00    -0.190 A  
HETATM   16  N   UNL     1     -10.398   8.349  66.915  1.00  0.00    -0.311 NA 
HETATM   17  N   UNL     1      -9.371   7.481  67.175  1.00  0.00    -0.137 NA 
HETATM   18  N   UNL     1      -8.553   9.517  67.535  1.00  0.00    -0.125 NA 
HETATM   19  C   UNL     1      -8.306   8.235  67.629  1.00  0.00    -0.127 A  
BRANCH  17  20
HETATM   20  C   UNL     1      -9.479   6.085  67.079  1.00  0.00    -0.127 C  
HETATM   21  C   UNL     1     -10.032   5.169  67.898  1.00  0.00    -0.202 C  
BRANCH  21  22
HETATM   22  C   UNL     1     -10.532   5.411  69.273  1.00  0.00    -0.239 C  
HETATM   23  N   UNL     1     -11.476   6.403  69.400  1.00  0.00    -0.607 N  
HETATM   24  O   UNL     1     -10.171   4.748  70.240  1.00  0.00    -0.247 OA 
HETATM   25  H   UNL     1     -11.854   6.901  68.594  1.00  0.00     0.000 HD 
BRANCH  23  26
HETATM   26  N   UNL     1     -11.887   6.683  70.724  1.00  0.00    -0.388 NA 
HETATM   27  H   UNL     1     -11.963   5.966  71.444  1.00  0.00     0.000 HD 
BRANCH  26  28
HETATM   28  C   UNL     1     -12.184   8.048  70.963  1.00  0.00    -0.185 A  
HETATM   29  N   UNL     1     -11.399   9.035  70.466  1.00  0.00    -0.259 NA 
HETATM   30  C   UNL     1     -11.740  10.299  70.831  1.00  0.00    -0.379 A  
HETATM   31  C   UNL     1     -12.808  10.584  71.667  1.00  0.00    -0.475 A  
HETATM   32  N   UNL     1     -13.594   9.617  72.181  1.00  0.00    -0.423 NA 
HETATM   33  C   UNL     1     -13.251   8.356  71.818  1.00  0.00    -0.355 A  
ENDBRANCH  26  28
ENDBRANCH  23  26
ENDBRANCH  21  22
ENDBRANCH  17  20
ENDBRANCH  10  15
TORSDOF 5
ENDMDL
MODEL       24
REMARK 921   NORMALIZED FREE ENERGY PREDICTED BY IDOCK:   -7.91 KCAL/MOL
REMARK 922        TOTAL FREE ENERGY PREDICTED BY IDOCK:  -11.49 KCAL/MOL
REMARK 923 INTER-LIGAND FREE ENERGY PREDICTED BY IDOCK:  -10.12 KCAL/MOL
REMARK 924 INTRA-LIGAND FREE ENERGY PREDICTED BY IDOCK:   -1.37 KCAL/MOL
REMARK 927      BINDING AFFINITY PREDICTED BY RF-SCORE:    0.00 PKD
ROOT
HETATM    1  F   UNL     1      -8.385   7.889  71.646  1.00  0.00    -0.100 F  
HETATM    2  C   UNL     1      -8.247   8.788  70.631  1.00  0.00    -0.144 C  
HETATM    3  F   UNL     1      -7.180   9.564  70.964  1.00  0.00    -0.111 F  
HETATM    4  F   UNL     1      -7.864   8.064  69.544  1.00  0.00    -0.095 F  
HETATM    5  C   UNL     1      -9.495   9.598  70.374  1.00  0.00    -0.280 A  
HETATM    6  C   UNL     1     -10.666   9.408  71.123  1.00  0.00    -0.417 A  
HETATM    7  C   UNL     1     -11.815  10.179  70.877  1.00  0.00    -0.468 A  
HETATM    8  C   UNL     1     -13.068   9.979  71.696  1.00  0.00    -0.445 C  
HETATM    9  C   UNL     1     -11.785  11.149  69.855  1.00  0.00    -0.433 A  
HETATM   10  C   UNL     1     -10.631  11.349  69.087  1.00  0.00    -0.196 A  
HETATM   11  F   UNL     1     -14.144   9.637  70.932  1.00  0.00    -0.330 F  
HETATM   12  F   UNL     1     -12.952   8.999  72.634  1.00  0.00    -0.460 F  
HETATM   13  F   UNL     1     -13.431  11.101  72.377  1.00  0.00    -0.538 F  
HETATM   14  C   UNL     1      -9.495  10.571  69.363  1.00  0.00    -0.158 A  
ENDROOT
BRANCH  10  15
HETATM   15  C   UNL     1     -10.568  12.351  68.023  1.00  0.00    -0.221 A  
HETATM   16  N   UNL     1     -11.542  12.608  67.139  1.00  0.00    -0.348 NA 
HETATM   17  N   UNL     1     -11.079  13.706  66.462  1.00  0.00    -0.302 NA 
HETATM   18  N   UNL     1      -9.445  13.110  67.847  1.00  0.00    -0.211 NA 
HETATM   19  C   UNL     1      -9.775  13.912  66.868  1.00  0.00    -0.268 A  
BRANCH  17  20
HETATM   20  C   UNL     1     -11.810  14.385  65.476  1.00  0.00    -0.357 C  
HETATM   21  C   UNL     1     -12.295  13.986  64.284  1.00  0.00    -0.393 C  
BRANCH  21  22
HETATM   22  C   UNL     1     -12.000  12.702  63.603  1.00  0.00    -0.535 C  
HETATM   23  N   UNL     1     -10.668  12.398  63.451  1.00  0.00    -0.529 N  
HETATM   24  O   UNL     1     -12.877  11.926  63.233  1.00  0.00    -0.702 OA 
HETATM   25  H   UNL     1      -9.927  12.986  63.834  1.00  0.00     0.000 HD 
BRANCH  23  26
HETATM   26  N   UNL     1     -10.395  11.213  62.729  1.00  0.00    -0.741 NA 
HETATM   27  H   UNL     1     -10.716  11.061  61.773  1.00  0.00     0.000 HD 
BRANCH  26  28
HETATM   28  C   UNL     1      -9.636  10.256  63.447  1.00  0.00    -0.264 A  
HETATM   29  N   UNL     1      -8.759   9.438  62.816  1.00  0.00    -0.224 NA 
HETATM   30  C   UNL     1      -8.151   8.508  63.599  1.00  0.00    -0.154 A  
HETATM   31  C   UNL     1      -8.407   8.377  64.955  1.00  0.00    -0.158 A  
HETATM   32  N   UNL     1      -9.283   9.172  65.600  1.00  0.00    -0.225 NA 
HETATM   33  C   UNL     1      -9.891  10.098  64.816  1.00  0.00    -0.312 A  
ENDBRANCH  26  28
ENDBRANCH  23  26
ENDBRANCH  21  22
ENDBRANCH  17  20
ENDBRANCH  10  15
TORSDOF 5
ENDMDL
MODEL       25
REMARK 921   NORMALIZED FREE ENERGY PREDICTED BY IDOCK:   -7.88 KCAL/MOL
REMARK 922        TOTAL FREE ENERGY PREDICTED BY IDOCK:  -11.44 KCAL/MOL
REMARK 923 INTER-LIGAND FREE ENERGY PREDICTED BY IDOCK:   -9.91 KCAL/MOL
REMARK 924 INTRA-LIGAND FREE ENERGY PREDICTED BY IDOCK:   -1.53 KCAL/MOL
REMARK 927      BINDING AFFINITY PREDICTED BY RF-SCORE:    0.00 PKD
ROOT
HETATM    1  F   UNL     1     -13.593   9.101  72.994  1.00  0.00    -0.454 F  
HETATM    2  C   UNL     1     -13.286   9.726  71.822  1.00  0.00    -0.436 C  
HETATM    3  F   UNL     1     -14.157   9.235  70.899  1.00  0.00    -0.340 F  
HETATM    4  F   UNL     1     -13.621  11.033  72.001  1.00  0.00    -0.458 F  
HETATM    5  C   UNL     1     -11.844   9.551  71.410  1.00  0.00    -0.464 A  
HETATM    6  C   UNL     1     -10.937   8.816  72.187  1.00  0.00    -0.404 A  
HETATM    7  C   UNL     1      -9.601   8.656  71.782  1.00  0.00    -0.360 A  
HETATM    8  C   UNL     1      -8.633   7.851  72.618  1.00  0.00    -0.153 C  
HETATM    9  C   UNL     1      -9.172   9.251  70.579  1.00  0.00    -0.311 A  
HETATM   10  C   UNL     1     -10.057   9.998  69.791  1.00  0.00    -0.284 A  
HETATM   11  F   UNL     1      -7.555   8.583  73.018  1.00  0.00    -0.168 F  
HETATM   12  F   UNL     1      -9.186   7.351  73.757  1.00  0.00    -0.206 F  
HETATM   13  F   UNL     1      -8.132   6.778  71.947  1.00  0.00    -0.100 F  
HETATM   14  C   UNL     1     -11.388  10.133  70.217  1.00  0.00    -0.387 A  
ENDROOT
BRANCH  10  15
HETATM   15  C   UNL     1      -9.643  10.624  68.535  1.00  0.00    -0.175 A  
HETATM   16  N   UNL     1     -10.293  10.526  67.367  1.00  0.00    -0.210 NA 
HETATM   17  N   UNL     1      -9.614  11.391  66.549  1.00  0.00    -0.193 NA 
HETATM   18  N   UNL     1      -8.498  11.368  68.473  1.00  0.00    -0.154 NA 
HETATM   19  C   UNL     1      -8.491  11.804  67.239  1.00  0.00    -0.160 A  
BRANCH  17  20
HETATM   20  C   UNL     1      -9.988  11.680  65.228  1.00  0.00    -0.255 C  
HETATM   21  C   UNL     1     -10.880  12.552  64.719  1.00  0.00    -0.332 C  
BRANCH  21  22
HETATM   22  C   UNL     1     -11.874  13.338  65.487  1.00  0.00    -0.370 C  
HETATM   23  N   UNL     1     -11.513  13.667  66.772  1.00  0.00    -0.331 N  
HETATM   24  O   UNL     1     -12.938  13.720  65.008  1.00  0.00    -0.732 OA 
HETATM   25  H   UNL     1     -10.596  13.437  67.156  1.00  0.00     0.000 HD 
BRANCH  23  26
HETATM   26  N   UNL     1     -12.499  14.345  67.526  1.00  0.00    -0.529 NA 
HETATM   27  H   UNL     1     -13.411  14.596  67.146  1.00  0.00     0.000 HD 
BRANCH  26  28
HETATM   28  C   UNL     1     -12.110  14.646  68.855  1.00  0.00    -0.216 A  
HETATM   29  N   UNL     1     -12.515  13.877  69.896  1.00  0.00    -0.290 NA 
HETATM   30  C   UNL     1     -12.145  14.313  71.129  1.00  0.00    -0.336 A  
HETATM   31  C   UNL     1     -11.414  15.472  71.334  1.00  0.00    -0.414 A  
HETATM   32  N   UNL     1     -11.012  16.257  70.315  1.00  0.00    -0.339 NA 
HETATM   33  C   UNL     1     -11.384  15.822  69.085  1.00  0.00    -0.349 A  
ENDBRANCH  26  28
ENDBRANCH  23  26
ENDBRANCH  21  22
ENDBRANCH  17  20
ENDBRANCH  10  15
TORSDOF 5
ENDMDL
MODEL       26
REMARK 921   NORMALIZED FREE ENERGY PREDICTED BY IDOCK:   -7.87 KCAL/MOL
REMARK 922        TOTAL FREE ENERGY PREDICTED BY IDOCK:  -11.44 KCAL/MOL
REMARK 923 INTER-LIGAND FREE ENERGY PREDICTED BY IDOCK:   -9.81 KCAL/MOL
REMARK 924 INTRA-LIGAND FREE ENERGY PREDICTED BY IDOCK:   -1.63 KCAL/MOL
REMARK 927      BINDING AFFINITY PREDICTED BY RF-SCORE:    0.00 PKD
ROOT
HETATM    1  F   UNL     1      -5.822  17.214  67.510  1.00  0.00    -0.116 F  
HETATM    2  C   UNL     1      -6.613  16.242  68.046  1.00  0.00    -0.134 C  
HETATM    3  F   UNL     1      -6.540  15.189  67.187  1.00  0.00    -0.192 F  
HETATM    4  F   UNL     1      -5.988  15.843  69.187  1.00  0.00    -0.109 F  
HETATM    5  C   UNL     1      -8.033  16.691  68.292  1.00  0.00    -0.192 A  
HETATM    6  C   UNL     1      -8.458  17.994  67.993  1.00  0.00    -0.263 A  
HETATM    7  C   UNL     1      -9.786  18.392  68.219  1.00  0.00    -0.383 A  
HETATM    8  C   UNL     1     -10.241  19.793  67.883  1.00  0.00    -0.444 C  
HETATM    9  C   UNL     1     -10.698  17.464  68.762  1.00  0.00    -0.197 A  
HETATM   10  C   UNL     1     -10.294  16.160  69.078  1.00  0.00    -0.258 A  
HETATM   11  F   UNL     1     -10.730  20.459  68.967  1.00  0.00    -0.429 F  
HETATM   12  F   UNL     1      -9.248  20.578  67.382  1.00  0.00    -0.445 F  
HETATM   13  F   UNL     1     -11.232  19.810  66.951  1.00  0.00    -0.546 F  
HETATM   14  C   UNL     1      -8.963  15.789  68.832  1.00  0.00    -0.226 A  
ENDROOT
BRANCH  10  15
HETATM   15  C   UNL     1     -11.218  15.173  69.638  1.00  0.00    -0.272 A  
HETATM   16  N   UNL     1     -11.110  13.844  69.503  1.00  0.00    -0.181 NA 
HETATM   17  N   UNL     1     -12.101  13.358  70.314  1.00  0.00    -0.358 NA 
HETATM   18  N   UNL     1     -12.313  15.571  70.352  1.00  0.00    -0.405 NA 
HETATM   19  C   UNL     1     -12.851  14.441  70.731  1.00  0.00    -0.353 A  
BRANCH  17  20
HETATM   20  C   UNL     1     -12.323  11.993  70.552  1.00  0.00    -0.282 C  
HETATM   21  C   UNL     1     -12.032  10.897  69.825  1.00  0.00    -0.423 C  
BRANCH  21  22
HETATM   22  C   UNL     1     -11.540  10.878  68.426  1.00  0.00    -0.276 C  
HETATM   23  N   UNL     1     -12.018  11.876  67.610  1.00  0.00    -0.174 N  
HETATM   24  O   UNL     1     -10.722  10.059  68.018  1.00  0.00    -0.223 OA 
HETATM   25  H   UNL     1     -12.626  12.619  67.957  1.00  0.00     0.000 HD 
BRANCH  23  26
HETATM   26  N   UNL     1     -11.608  11.803  66.258  1.00  0.00    -0.460 NA 
HETATM   27  H   UNL     1     -11.421  10.921  65.784  1.00  0.00     0.000 HD 
BRANCH  26  28
HETATM   28  C   UNL     1     -11.480  13.062  65.621  1.00  0.00    -0.333 A  
HETATM   29  N   UNL     1     -10.557  13.966  66.033  1.00  0.00    -0.288 NA 
HETATM   30  C   UNL     1     -10.585  15.168  65.398  1.00  0.00    -0.391 A  
HETATM   31  C   UNL     1     -11.498  15.476  64.401  1.00  0.00    -0.259 A  
HETATM   32  N   UNL     1     -12.430  14.597  63.985  1.00  0.00    -0.813 NA 
HETATM   33  C   UNL     1     -12.403  13.399  64.622  1.00  0.00    -0.382 A  
ENDBRANCH  26  28
ENDBRANCH  23  26
ENDBRANCH  21  22
ENDBRANCH  17  20
ENDBRANCH  10  15
TORSDOF 5
ENDMDL
MODEL       27
REMARK 921   NORMALIZED FREE ENERGY PREDICTED BY IDOCK:   -7.85 KCAL/MOL
REMARK 922        TOTAL FREE ENERGY PREDICTED BY IDOCK:  -11.41 KCAL/MOL
REMARK 923 INTER-LIGAND FREE ENERGY PREDICTED BY IDOCK:   -9.71 KCAL/MOL
REMARK 924 INTRA-LIGAND FREE ENERGY PREDICTED BY IDOCK:   -1.70 KCAL/MOL
REMARK 927      BINDING AFFINITY PREDICTED BY RF-SCORE:    0.00 PKD
ROOT
HETATM    1  F   UNL     1     -11.561  12.626  63.129  1.00  0.00    -0.524 F  
HETATM    2  C   UNL     1     -11.966  12.735  64.426  1.00  0.00    -0.399 C  
HETATM    3  F   UNL     1     -11.701  14.019  64.791  1.00  0.00    -0.335 F  
HETATM    4  F   UNL     1     -13.322  12.621  64.402  1.00  0.00    -0.257 F  
HETATM    5  C   UNL     1     -11.318  11.726  65.343  1.00  0.00    -0.284 A  
HETATM    6  C   UNL     1     -10.400  10.778  64.868  1.00  0.00    -0.369 A  
HETATM    7  C   UNL     1      -9.799   9.853  65.738  1.00  0.00    -0.356 A  
HETATM    8  C   UNL     1      -8.801   8.843  65.222  1.00  0.00    -0.184 C  
HETATM    9  C   UNL     1     -10.136   9.879  67.106  1.00  0.00    -0.270 A  
HETATM   10  C   UNL     1     -11.058  10.809  67.603  1.00  0.00    -0.384 A  
HETATM   11  F   UNL     1      -9.188   7.557  65.455  1.00  0.00    -0.095 F  
HETATM   12  F   UNL     1      -8.589   8.929  63.880  1.00  0.00    -0.184 F  
HETATM   13  F   UNL     1      -7.576   8.979  65.800  1.00  0.00    -0.086 F  
HETATM   14  C   UNL     1     -11.634  11.728  66.710  1.00  0.00    -0.287 A  
ENDROOT
BRANCH  10  15
HETATM   15  C   UNL     1     -11.424  10.864  69.018  1.00  0.00    -0.302 A  
HETATM   16  N   UNL     1     -12.236  11.773  69.576  1.00  0.00    -0.221 NA 
HETATM   17  N   UNL     1     -12.386  11.322  70.861  1.00  0.00    -0.387 NA 
HETATM   18  N   UNL     1     -10.916   9.956  69.904  1.00  0.00    -0.264 NA 
HETATM   19  C   UNL     1     -11.501  10.276  71.030  1.00  0.00    -0.302 A  
BRANCH  17  20
HETATM   20  C   UNL     1     -13.225  11.924  71.811  1.00  0.00    -0.321 C  
HETATM   21  C   UNL     1     -13.502  13.216  72.073  1.00  0.00    -0.598 C  
BRANCH  21  22
HETATM   22  C   UNL     1     -12.805  14.395  71.504  1.00  0.00    -0.341 C  
HETATM   23  N   UNL     1     -11.543  14.163  71.009  1.00  0.00    -0.499 N  
HETATM   24  O   UNL     1     -13.324  15.505  71.429  1.00  0.00    -0.484 OA 
HETATM   25  H   UNL     1     -11.133  13.229  70.980  1.00  0.00     0.000 HD 
BRANCH  23  26
HETATM   26  N   UNL     1     -10.854  15.306  70.544  1.00  0.00    -0.449 NA 
HETATM   27  H   UNL     1     -10.678  16.123  71.129  1.00  0.00     0.000 HD 
BRANCH  26  28
HETATM   28  C   UNL     1     -10.428  15.220  69.195  1.00  0.00    -0.247 A  
HETATM   29  N   UNL     1      -9.555  14.263  68.795  1.00  0.00    -0.191 NA 
HETATM   30  C   UNL     1      -9.160  14.332  67.496  1.00  0.00    -0.193 A  
HETATM   31  C   UNL     1      -9.598  15.316  66.623  1.00  0.00    -0.257 A  
HETATM   32  N   UNL     1     -10.456  16.283  67.003  1.00  0.00    -0.310 NA 
HETATM   33  C   UNL     1     -10.847  16.214  68.301  1.00  0.00    -0.326 A  
ENDBRANCH  26  28
ENDBRANCH  23  26
ENDBRANCH  21  22
ENDBRANCH  17  20
ENDBRANCH  10  15
TORSDOF 5
ENDMDL
MODEL       28
REMARK 921   NORMALIZED FREE ENERGY PREDICTED BY IDOCK:   -7.85 KCAL/MOL
REMARK 922        TOTAL FREE ENERGY PREDICTED BY IDOCK:  -11.40 KCAL/MOL
REMARK 923 INTER-LIGAND FREE ENERGY PREDICTED BY IDOCK:   -9.96 KCAL/MOL
REMARK 924 INTRA-LIGAND FREE ENERGY PREDICTED BY IDOCK:   -1.45 KCAL/MOL
REMARK 927      BINDING AFFINITY PREDICTED BY RF-SCORE:    0.00 PKD
ROOT
HETATM    1  F   UNL     1      -6.034  18.390  69.077  1.00  0.00    -0.193 F  
HETATM    2  C   UNL     1      -6.585  17.159  68.884  1.00  0.00    -0.199 C  
HETATM    3  F   UNL     1      -5.672  16.451  68.165  1.00  0.00    -0.095 F  
HETATM    4  F   UNL     1      -6.632  16.576  70.113  1.00  0.00    -0.164 F  
HETATM    5  C   UNL     1      -7.938  17.206  68.215  1.00  0.00    -0.236 A  
HETATM    6  C   UNL     1      -8.540  18.420  67.851  1.00  0.00    -0.285 A  
HETATM    7  C   UNL     1      -9.796  18.444  67.221  1.00  0.00    -0.327 A  
HETATM    8  C   UNL     1     -10.433  19.754  66.819  1.00  0.00    -0.489 C  
HETATM    9  C   UNL     1     -10.457  17.227  66.960  1.00  0.00    -0.287 A  
HETATM   10  C   UNL     1      -9.880  16.003  67.324  1.00  0.00    -0.236 A  
HETATM   11  F   UNL     1     -11.648  19.946  67.406  1.00  0.00    -0.228 F  
HETATM   12  F   UNL     1      -9.685  20.843  67.148  1.00  0.00    -0.595 F  
HETATM   13  F   UNL     1     -10.644  19.841  65.477  1.00  0.00    -0.553 F  
HETATM   14  C   UNL     1      -8.620  16.010  67.944  1.00  0.00    -0.165 A  
ENDROOT
BRANCH  10  15
HETATM   15  C   UNL     1     -10.540  14.723  67.063  1.00  0.00    -0.290 A  
HETATM   16  N   UNL     1      -9.926  13.534  66.986  1.00  0.00    -0.243 NA 
HETATM   17  N   UNL     1     -10.962  12.645  66.882  1.00  0.00    -0.254 NA 
HETATM   18  N   UNL     1     -11.889  14.666  66.852  1.00  0.00    -0.364 NA 
HETATM   19  C   UNL     1     -12.117  13.384  66.717  1.00  0.00    -0.365 A  
BRANCH  17  20
HETATM   20  C   UNL     1     -10.801  11.251  66.852  1.00  0.00    -0.282 C  
HETATM   21  C   UNL     1     -10.915  10.314  67.813  1.00  0.00    -0.360 C  
BRANCH  21  22
HETATM   22  C   UNL     1     -11.070  10.562  69.266  1.00  0.00    -0.246 C  
HETATM   23  N   UNL     1     -12.213  11.229  69.640  1.00  0.00    -0.298 N  
HETATM   24  O   UNL     1     -10.263  10.165  70.101  1.00  0.00    -0.255 OA 
HETATM   25  H   UNL     1     -12.939  11.485  68.969  1.00  0.00     0.000 HD 
BRANCH  23  26
HETATM   26  N   UNL     1     -12.315  11.535  71.017  1.00  0.00    -0.361 NA 
HETATM   27  H   UNL     1     -12.120  10.855  71.751  1.00  0.00     0.000 HD 
BRANCH  26  28
HETATM   28  C   UNL     1     -12.711  12.868  71.288  1.00  0.00    -0.278 A  
HETATM   29  N   UNL     1     -13.534  13.158  72.326  1.00  0.00    -0.567 NA 
HETATM   30  C   UNL     1     -13.907  14.460  72.435  1.00  0.00    -0.494 A  
HETATM   31  C   UNL     1     -13.497  15.443  71.547  1.00  0.00    -0.513 A  
HETATM   32  N   UNL     1     -12.688  15.174  70.504  1.00  0.00    -0.372 NA 
HETATM   33  C   UNL     1     -12.318  13.873  70.394  1.00  0.00    -0.363 A  
ENDBRANCH  26  28
ENDBRANCH  23  26
ENDBRANCH  21  22
ENDBRANCH  17  20
ENDBRANCH  10  15
TORSDOF 5
ENDMDL
MODEL       29
REMARK 921   NORMALIZED FREE ENERGY PREDICTED BY IDOCK:   -7.84 KCAL/MOL
REMARK 922        TOTAL FREE ENERGY PREDICTED BY IDOCK:  -11.40 KCAL/MOL
REMARK 923 INTER-LIGAND FREE ENERGY PREDICTED BY IDOCK:  -10.42 KCAL/MOL
REMARK 924 INTRA-LIGAND FREE ENERGY PREDICTED BY IDOCK:   -0.98 KCAL/MOL
REMARK 927      BINDING AFFINITY PREDICTED BY RF-SCORE:    0.00 PKD
ROOT
HETATM    1  F   UNL     1      -8.862   7.711  73.259  1.00  0.00    -0.166 F  
HETATM    2  C   UNL     1      -8.478   8.098  72.010  1.00  0.00    -0.155 C  
HETATM    3  F   UNL     1      -7.346   8.834  72.180  1.00  0.00    -0.127 F  
HETATM    4  F   UNL     1      -8.096   6.958  71.370  1.00  0.00    -0.104 F  
HETATM    5  C   UNL     1      -9.550   8.849  71.259  1.00  0.00    -0.348 A  
HETATM    6  C   UNL     1     -10.810   9.099  71.822  1.00  0.00    -0.416 A  
HETATM    7  C   UNL     1     -11.793   9.809  71.112  1.00  0.00    -0.466 A  
HETATM    8  C   UNL     1     -13.143  10.086  71.731  1.00  0.00    -0.457 C  
HETATM    9  C   UNL     1     -11.503  10.268  69.812  1.00  0.00    -0.320 A  
HETATM   10  C   UNL     1     -10.256  10.022  69.224  1.00  0.00    -0.229 A  
HETATM   11  F   UNL     1     -14.170   9.568  70.999  1.00  0.00    -0.310 F  
HETATM   12  F   UNL     1     -13.282   9.570  72.982  1.00  0.00    -0.297 F  
HETATM   13  F   UNL     1     -13.399  11.418  71.849  1.00  0.00    -0.527 F  
HETATM   14  C   UNL     1      -9.290   9.318  69.961  1.00  0.00    -0.232 A  
ENDROOT
BRANCH  10  15
HETATM   15  C   UNL     1      -9.923  10.489  67.878  1.00  0.00    -0.169 A  
HETATM   16  N   UNL     1     -10.213   9.845  66.738  1.00  0.00    -0.233 NA 
HETATM   17  N   UNL     1      -9.844  10.735  65.765  1.00  0.00    -0.227 NA 
HETATM   18  N   UNL     1      -9.246  11.662  67.695  1.00  0.00    -0.173 NA 
HETATM   19  C   UNL     1      -9.187  11.775  66.393  1.00  0.00    -0.217 A  
BRANCH  17  20
HETATM   20  C   UNL     1     -10.036  10.521  64.391  1.00  0.00    -0.343 C  
HETATM   21  C   UNL     1     -10.625  11.272  63.440  1.00  0.00    -0.393 C  
BRANCH  21  22
HETATM   22  C   UNL     1     -11.423  12.501  63.662  1.00  0.00    -0.493 C  
HETATM   23  N   UNL     1     -10.708  13.623  64.012  1.00  0.00    -0.513 N  
HETATM   24  O   UNL     1     -12.639  12.545  63.504  1.00  0.00    -0.690 OA 
HETATM   25  H   UNL     1      -9.689  13.627  64.059  1.00  0.00     0.000 HD 
BRANCH  23  26
HETATM   26  N   UNL     1     -11.483  14.770  64.303  1.00  0.00    -0.649 NA 
HETATM   27  H   UNL     1     -12.249  15.086  63.709  1.00  0.00     0.000 HD 
BRANCH  26  28
HETATM   28  C   UNL     1     -11.104  15.441  65.491  1.00  0.00    -0.298 A  
HETATM   29  N   UNL     1     -10.418  16.611  65.449  1.00  0.00    -0.622 NA 
HETATM   30  C   UNL     1     -10.040  17.116  66.652  1.00  0.00    -0.306 A  
HETATM   31  C   UNL     1     -10.314  16.489  67.857  1.00  0.00    -0.294 A  
HETATM   32  N   UNL     1     -10.984  15.321  67.921  1.00  0.00    -0.296 NA 
HETATM   33  C   UNL     1     -11.358  14.815  66.719  1.00  0.00    -0.346 A  
ENDBRANCH  26  28
ENDBRANCH  23  26
ENDBRANCH  21  22
ENDBRANCH  17  20
ENDBRANCH  10  15
TORSDOF 5
ENDMDL
MODEL       30
REMARK 921   NORMALIZED FREE ENERGY PREDICTED BY IDOCK:   -7.82 KCAL/MOL
REMARK 922        TOTAL FREE ENERGY PREDICTED BY IDOCK:  -11.37 KCAL/MOL
REMARK 923 INTER-LIGAND FREE ENERGY PREDICTED BY IDOCK:   -9.79 KCAL/MOL
REMARK 924 INTRA-LIGAND FREE ENERGY PREDICTED BY IDOCK:   -1.59 KCAL/MOL
REMARK 927      BINDING AFFINITY PREDICTED BY RF-SCORE:    0.00 PKD
ROOT
HETATM    1  F   UNL     1     -12.509  13.642  63.106  1.00  0.00    -0.556 F  
HETATM    2  C   UNL     1     -12.260  12.503  63.811  1.00  0.00    -0.525 C  
HETATM    3  F   UNL     1     -13.477  12.026  64.189  1.00  0.00    -0.435 F  
HETATM    4  F   UNL     1     -11.767  11.609  62.910  1.00  0.00    -0.310 F  
HETATM    5  C   UNL     1     -11.331  12.713  64.982  1.00  0.00    -0.345 A  
HETATM    6  C   UNL     1     -10.790  13.972  65.279  1.00  0.00    -0.352 A  
HETATM    7  C   UNL     1      -9.935  14.151  66.380  1.00  0.00    -0.302 A  
HETATM    8  C   UNL     1      -9.366  15.513  66.702  1.00  0.00    -0.266 C  
HETATM    9  C   UNL     1      -9.615  13.042  67.188  1.00  0.00    -0.230 A  
HETATM   10  C   UNL     1     -10.135  11.772  66.905  1.00  0.00    -0.231 A  
HETATM   11  F   UNL     1      -8.003  15.526  66.695  1.00  0.00    -0.255 F  
HETATM   12  F   UNL     1      -9.750  16.482  65.826  1.00  0.00    -0.319 F  
HETATM   13  F   UNL     1      -9.741  15.957  67.933  1.00  0.00    -0.212 F  
HETATM   14  C   UNL     1     -10.995  11.626  65.804  1.00  0.00    -0.329 A  
ENDROOT
BRANCH  10  15
HETATM   15  C   UNL     1      -9.825  10.603  67.728  1.00  0.00    -0.165 A  
HETATM   16  N   UNL     1      -9.600  10.620  69.050  1.00  0.00    -0.199 NA 
HETATM   17  N   UNL     1      -9.510   9.293  69.377  1.00  0.00    -0.162 NA 
HETATM   18  N   UNL     1      -9.723   9.362  67.165  1.00  0.00    -0.164 NA 
HETATM   19  C   UNL     1      -9.503   8.583  68.192  1.00  0.00    -0.141 A  
BRANCH  17  20
HETATM   20  C   UNL     1      -9.351   8.816  70.687  1.00  0.00    -0.195 C  
HETATM   21  C   UNL     1     -10.205   8.749  71.727  1.00  0.00    -0.408 C  
BRANCH  21  22
HETATM   22  C   UNL     1     -11.551   9.367  71.797  1.00  0.00    -0.363 C  
HETATM   23  N   UNL     1     -11.698  10.557  71.125  1.00  0.00    -0.298 N  
HETATM   24  O   UNL     1     -12.497   8.841  72.375  1.00  0.00    -0.379 OA 
HETATM   25  H   UNL     1     -10.949  10.962  70.563  1.00  0.00     0.000 HD 
BRANCH  23  26
HETATM   26  N   UNL     1     -12.960  11.182  71.265  1.00  0.00    -0.390 NA 
HETATM   27  H   UNL     1     -13.833  10.659  71.323  1.00  0.00     0.000 HD 
BRANCH  26  28
HETATM   28  C   UNL     1     -12.905  12.596  71.318  1.00  0.00    -0.250 A  
HETATM   29  N   UNL     1     -12.000  13.292  70.585  1.00  0.00    -0.268 NA 
HETATM   30  C   UNL     1     -11.992  14.636  70.782  1.00  0.00    -0.317 A  
HETATM   31  C   UNL     1     -12.834  15.276  71.677  1.00  0.00    -0.395 A  
HETATM   32  N   UNL     1     -13.732  14.603  72.423  1.00  0.00    -0.437 NA 
HETATM   33  C   UNL     1     -13.738  13.260  72.228  1.00  0.00    -0.589 A  
ENDBRANCH  26  28
ENDBRANCH  23  26
ENDBRANCH  21  22
ENDBRANCH  17  20
ENDBRANCH  10  15
TORSDOF 5
ENDMDL
MODEL       31
REMARK 921   NORMALIZED FREE ENERGY PREDICTED BY IDOCK:   -7.81 KCAL/MOL
REMARK 922        TOTAL FREE ENERGY PREDICTED BY IDOCK:  -11.36 KCAL/MOL
REMARK 923 INTER-LIGAND FREE ENERGY PREDICTED BY IDOCK:   -9.83 KCAL/MOL
REMARK 924 INTRA-LIGAND FREE ENERGY PREDICTED BY IDOCK:   -1.53 KCAL/MOL
REMARK 927      BINDING AFFINITY PREDICTED BY RF-SCORE:    0.00 PKD
ROOT
HETATM    1  F   UNL     1      -9.035   7.438  73.727  1.00  0.00    -0.182 F  
HETATM    2  C   UNL     1      -8.582   7.886  72.522  1.00  0.00    -0.152 C  
HETATM    3  F   UNL     1      -7.505   8.670  72.799  1.00  0.00    -0.150 F  
HETATM    4  F   UNL     1      -8.096   6.789  71.878  1.00  0.00    -0.100 F  
HETATM    5  C   UNL     1      -9.634   8.609  71.717  1.00  0.00    -0.360 A  
HETATM    6  C   UNL     1     -10.943   8.776  72.192  1.00  0.00    -0.404 A  
HETATM    7  C   UNL     1     -11.907   9.461  71.433  1.00  0.00    -0.447 A  
HETATM    8  C   UNL     1     -13.311   9.649  71.957  1.00  0.00    -0.457 C  
HETATM    9  C   UNL     1     -11.547   9.978  70.172  1.00  0.00    -0.320 A  
HETATM   10  C   UNL     1     -10.249   9.815  69.672  1.00  0.00    -0.254 A  
HETATM   11  F   UNL     1     -14.254   9.107  71.135  1.00  0.00    -0.403 F  
HETATM   12  F   UNL     1     -13.514   9.083  73.179  1.00  0.00    -0.406 F  
HETATM   13  F   UNL     1     -13.644  10.962  72.097  1.00  0.00    -0.490 F  
HETATM   14  C   UNL     1      -9.305   9.134  70.458  1.00  0.00    -0.287 A  
ENDROOT
BRANCH  10  15
HETATM   15  C   UNL     1      -9.844  10.344  68.369  1.00  0.00    -0.162 A  
HETATM   16  N   UNL     1     -10.517  10.181  67.221  1.00  0.00    -0.240 NA 
HETATM   17  N   UNL     1      -9.835  10.972  66.335  1.00  0.00    -0.205 NA 
HETATM   18  N   UNL     1      -8.686  11.057  68.237  1.00  0.00    -0.137 NA 
HETATM   19  C   UNL     1      -8.691  11.407  66.976  1.00  0.00    -0.160 A  
BRANCH  17  20
HETATM   20  C   UNL     1     -10.226  11.177  65.004  1.00  0.00    -0.296 C  
HETATM   21  C   UNL     1     -11.085  12.053  64.446  1.00  0.00    -0.399 C  
BRANCH  21  22
HETATM   22  C   UNL     1     -12.020  12.947  65.171  1.00  0.00    -0.414 C  
HETATM   23  N   UNL     1     -11.476  13.662  66.212  1.00  0.00    -0.323 N  
HETATM   24  O   UNL     1     -13.196  13.087  64.848  1.00  0.00    -0.735 OA 
HETATM   25  H   UNL     1     -10.482  13.628  66.437  1.00  0.00     0.000 HD 
BRANCH  23  26
HETATM   26  N   UNL     1     -12.391  14.449  66.951  1.00  0.00    -0.547 NA 
HETATM   27  H   UNL     1     -13.174  14.939  66.519  1.00  0.00     0.000 HD 
BRANCH  26  28
HETATM   28  C   UNL     1     -12.125  14.498  68.341  1.00  0.00    -0.214 A  
HETATM   29  N   UNL     1     -12.281  13.402  69.125  1.00  0.00    -0.246 NA 
HETATM   30  C   UNL     1     -12.074  13.594  70.454  1.00  0.00    -0.351 A  
HETATM   31  C   UNL     1     -11.738  14.823  70.998  1.00  0.00    -0.306 A  
HETATM   32  N   UNL     1     -11.589  15.927  70.240  1.00  0.00    -0.343 NA 
HETATM   33  C   UNL     1     -11.799  15.735  68.913  1.00  0.00    -0.341 A  
ENDBRANCH  26  28
ENDBRANCH  23  26
ENDBRANCH  21  22
ENDBRANCH  17  20
ENDBRANCH  10  15
TORSDOF 5
ENDMDL
MODEL       32
REMARK 921   NORMALIZED FREE ENERGY PREDICTED BY IDOCK:   -7.81 KCAL/MOL
REMARK 922        TOTAL FREE ENERGY PREDICTED BY IDOCK:  -11.36 KCAL/MOL
REMARK 923 INTER-LIGAND FREE ENERGY PREDICTED BY IDOCK:   -9.84 KCAL/MOL
REMARK 924 INTRA-LIGAND FREE ENERGY PREDICTED BY IDOCK:   -1.52 KCAL/MOL
REMARK 927      BINDING AFFINITY PREDICTED BY RF-SCORE:    0.00 PKD
ROOT
HETATM    1  F   UNL     1     -12.894   9.201  72.554  1.00  0.00    -0.443 F  
HETATM    2  C   UNL     1     -12.948  10.195  71.623  1.00  0.00    -0.456 C  
HETATM    3  F   UNL     1     -14.020   9.909  70.835  1.00  0.00    -0.335 F  
HETATM    4  F   UNL     1     -13.272  11.326  72.307  1.00  0.00    -0.590 F  
HETATM    5  C   UNL     1     -11.671  10.345  70.832  1.00  0.00    -0.455 A  
HETATM    6  C   UNL     1     -10.555   9.528  71.067  1.00  0.00    -0.392 A  
HETATM    7  C   UNL     1      -9.379   9.675  70.313  1.00  0.00    -0.292 A  
HETATM    8  C   UNL     1      -8.186   8.782  70.562  1.00  0.00    -0.131 C  
HETATM    9  C   UNL     1      -9.323  10.667  69.313  1.00  0.00    -0.136 A  
HETATM   10  C   UNL     1     -10.421  11.502  69.067  1.00  0.00    -0.175 A  
HETATM   11  F   UNL     1      -7.069   9.485  70.904  1.00  0.00    -0.100 F  
HETATM   12  F   UNL     1      -8.381   7.885  71.567  1.00  0.00    -0.098 F  
HETATM   13  F   UNL     1      -7.847   8.046  69.468  1.00  0.00    -0.095 F  
HETATM   14  C   UNL     1     -11.587  11.325  69.830  1.00  0.00    -0.408 A  
ENDROOT
BRANCH  10  15
HETATM   15  C   UNL     1     -10.396  12.537  68.033  1.00  0.00    -0.222 A  
HETATM   16  N   UNL     1     -11.362  12.757  67.131  1.00  0.00    -0.296 NA 
HETATM   17  N   UNL     1     -10.954  13.901  66.498  1.00  0.00    -0.298 NA 
HETATM   18  N   UNL     1      -9.320  13.370  67.909  1.00  0.00    -0.208 NA 
HETATM   19  C   UNL     1      -9.677  14.179  66.944  1.00  0.00    -0.269 A  
BRANCH  17  20
HETATM   20  C   UNL     1     -11.701  14.562  65.511  1.00  0.00    -0.343 C  
HETATM   21  C   UNL     1     -12.282  14.120  64.379  1.00  0.00    -0.466 C  
BRANCH  21  22
HETATM   22  C   UNL     1     -12.107  12.779  63.770  1.00  0.00    -0.517 C  
HETATM   23  N   UNL     1     -10.814  12.317  63.702  1.00  0.00    -0.435 N  
HETATM   24  O   UNL     1     -13.049  12.091  63.388  1.00  0.00    -0.747 OA 
HETATM   25  H   UNL     1     -10.029  12.835  64.097  1.00  0.00     0.000 HD 
BRANCH  23  26
HETATM   26  N   UNL     1     -10.646  11.075  63.046  1.00  0.00    -0.805 NA 
HETATM   27  H   UNL     1     -11.118  10.842  62.173  1.00  0.00     0.000 HD 
BRANCH  26  28
HETATM   28  C   UNL     1      -9.767  10.183  63.707  1.00  0.00    -0.137 A  
HETATM   29  N   UNL     1      -8.938   9.368  63.009  1.00  0.00    -0.211 NA 
HETATM   30  C   UNL     1      -8.201   8.501  63.752  1.00  0.00    -0.125 A  
HETATM   31  C   UNL     1      -8.285   8.426  65.133  1.00  0.00    -0.157 A  
HETATM   32  N   UNL     1      -9.110   9.218  65.846  1.00  0.00    -0.182 NA 
HETATM   33  C   UNL     1      -9.847  10.082  65.103  1.00  0.00    -0.318 A  
ENDBRANCH  26  28
ENDBRANCH  23  26
ENDBRANCH  21  22
ENDBRANCH  17  20
ENDBRANCH  10  15
TORSDOF 5
ENDMDL
MODEL       33
REMARK 921   NORMALIZED FREE ENERGY PREDICTED BY IDOCK:   -7.81 KCAL/MOL
REMARK 922        TOTAL FREE ENERGY PREDICTED BY IDOCK:  -11.35 KCAL/MOL
REMARK 923 INTER-LIGAND FREE ENERGY PREDICTED BY IDOCK:  -10.69 KCAL/MOL
REMARK 924 INTRA-LIGAND FREE ENERGY PREDICTED BY IDOCK:   -0.67 KCAL/MOL
REMARK 927      BINDING AFFINITY PREDICTED BY RF-SCORE:    0.00 PKD
ROOT
HETATM    1  F   UNL     1     -12.644   8.411  73.027  1.00  0.00    -0.339 F  
HETATM    2  C   UNL     1     -13.061   9.235  72.025  1.00  0.00    -0.436 C  
HETATM    3  F   UNL     1     -14.067   8.572  71.393  1.00  0.00    -0.410 F  
HETATM    4  F   UNL     1     -13.639  10.303  72.640  1.00  0.00    -0.352 F  
HETATM    5  C   UNL     1     -11.953   9.642  71.084  1.00  0.00    -0.452 A  
HETATM    6  C   UNL     1     -10.633   9.200  71.261  1.00  0.00    -0.399 A  
HETATM    7  C   UNL     1      -9.617   9.580  70.368  1.00  0.00    -0.326 A  
HETATM    8  C   UNL     1      -8.201   9.090  70.557  1.00  0.00    -0.168 C  
HETATM    9  C   UNL     1      -9.934  10.425  69.286  1.00  0.00    -0.246 A  
HETATM   10  C   UNL     1     -11.243  10.887  69.094  1.00  0.00    -0.318 A  
HETATM   11  F   UNL     1      -7.309  10.110  70.707  1.00  0.00    -0.121 F  
HETATM   12  F   UNL     1      -8.044   8.297  71.652  1.00  0.00    -0.100 F  
HETATM   13  F   UNL     1      -7.758   8.355  69.501  1.00  0.00    -0.086 F  
HETATM   14  C   UNL     1     -12.239  10.482  69.997  1.00  0.00    -0.323 A  
ENDROOT
BRANCH  10  15
HETATM   15  C   UNL     1     -11.605  11.760  67.977  1.00  0.00    -0.316 A  
HETATM   16  N   UNL     1     -11.632  11.400  66.686  1.00  0.00    -0.401 NA 
HETATM   17  N   UNL     1     -12.167  12.494  66.060  1.00  0.00    -0.620 NA 
HETATM   18  N   UNL     1     -11.934  13.069  68.195  1.00  0.00    -0.329 NA 
HETATM   19  C   UNL     1     -12.248  13.502  67.001  1.00  0.00    -0.303 A  
BRANCH  17  20
HETATM   20  C   UNL     1     -12.459  12.550  64.688  1.00  0.00    -0.463 C  
HETATM   21  C   UNL     1     -12.356  13.548  63.789  1.00  0.00    -0.392 C  
BRANCH  21  22
HETATM   22  C   UNL     1     -12.061  14.970  64.087  1.00  0.00    -0.223 C  
HETATM   23  N   UNL     1     -10.797  15.233  64.560  1.00  0.00    -0.640 N  
HETATM   24  O   UNL     1     -12.867  15.874  63.888  1.00  0.00    -0.516 OA 
HETATM   25  H   UNL     1     -10.086  14.507  64.645  1.00  0.00     0.000 HD 
BRANCH  23  26
HETATM   26  N   UNL     1     -10.552  16.578  64.920  1.00  0.00    -0.690 NA 
HETATM   27  H   UNL     1     -10.916  17.369  64.389  1.00  0.00     0.000 HD 
BRANCH  26  28
HETATM   28  C   UNL     1      -9.755  16.733  66.082  1.00  0.00    -0.291 A  
HETATM   29  N   UNL     1      -8.446  17.075  65.995  1.00  0.00    -0.517 NA 
HETATM   30  C   UNL     1      -7.768  17.113  67.173  1.00  0.00    -0.177 A  
HETATM   31  C   UNL     1      -8.352  16.812  68.393  1.00  0.00    -0.222 A  
HETATM   32  N   UNL     1      -9.648  16.458  68.500  1.00  0.00    -0.222 NA 
HETATM   33  C   UNL     1     -10.323  16.418  67.324  1.00  0.00    -0.287 A  
ENDBRANCH  26  28
ENDBRANCH  23  26
ENDBRANCH  21  22
ENDBRANCH  17  20
ENDBRANCH  10  15
TORSDOF 5
ENDMDL
MODEL       34
REMARK 921   NORMALIZED FREE ENERGY PREDICTED BY IDOCK:   -7.79 KCAL/MOL
REMARK 922        TOTAL FREE ENERGY PREDICTED BY IDOCK:  -11.33 KCAL/MOL
REMARK 923 INTER-LIGAND FREE ENERGY PREDICTED BY IDOCK:  -10.55 KCAL/MOL
REMARK 924 INTRA-LIGAND FREE ENERGY PREDICTED BY IDOCK:   -0.78 KCAL/MOL
REMARK 927      BINDING AFFINITY PREDICTED BY RF-SCORE:    0.00 PKD
ROOT
HETATM    1  F   UNL     1      -7.516   8.563  71.427  1.00  0.00    -0.068 F  
HETATM    2  C   UNL     1      -7.809   9.361  70.362  1.00  0.00    -0.164 C  
HETATM    3  F   UNL     1      -7.046  10.478  70.513  1.00  0.00    -0.152 F  
HETATM    4  F   UNL     1      -7.321   8.715  69.268  1.00  0.00    -0.067 F  
HETATM    5  C   UNL     1      -9.280   9.678  70.237  1.00  0.00    -0.285 A  
HETATM    6  C   UNL     1     -10.224   9.173  71.144  1.00  0.00    -0.384 A  
HETATM    7  C   UNL     1     -11.588   9.487  71.018  1.00  0.00    -0.419 A  
HETATM    8  C   UNL     1     -12.597   8.951  72.006  1.00  0.00    -0.394 C  
HETATM    9  C   UNL     1     -12.007  10.315  69.957  1.00  0.00    -0.273 A  
HETATM   10  C   UNL     1     -11.084  10.823  69.034  1.00  0.00    -0.308 A  
HETATM   11  F   UNL     1     -13.566   8.200  71.409  1.00  0.00    -0.339 F  
HETATM   12  F   UNL     1     -12.048   8.155  72.964  1.00  0.00    -0.400 F  
HETATM   13  F   UNL     1     -13.248   9.941  72.676  1.00  0.00    -0.419 F  
HETATM   14  C   UNL     1      -9.727  10.500  69.191  1.00  0.00    -0.226 A  
ENDROOT
BRANCH  10  15
HETATM   15  C   UNL     1     -11.488  11.688  67.925  1.00  0.00    -0.311 A  
HETATM   16  N   UNL     1     -11.449  11.357  66.627  1.00  0.00    -0.408 NA 
HETATM   17  N   UNL     1     -12.057  12.417  66.008  1.00  0.00    -0.638 NA 
HETATM   18  N   UNL     1     -11.933  12.959  68.161  1.00  0.00    -0.317 NA 
HETATM   19  C   UNL     1     -12.250  13.392  66.967  1.00  0.00    -0.268 A  
BRANCH  17  20
HETATM   20  C   UNL     1     -12.315  12.479  64.630  1.00  0.00    -0.474 C  
HETATM   21  C   UNL     1     -12.253  13.499  63.751  1.00  0.00    -0.449 C  
BRANCH  21  22
HETATM   22  C   UNL     1     -12.060  14.931  64.082  1.00  0.00    -0.267 C  
HETATM   23  N   UNL     1     -10.814  15.274  64.553  1.00  0.00    -0.640 N  
HETATM   24  O   UNL     1     -12.930  15.779  63.910  1.00  0.00    -0.463 OA 
HETATM   25  H   UNL     1     -10.051  14.599  64.616  1.00  0.00     0.000 HD 
BRANCH  23  26
HETATM   26  N   UNL     1     -10.663  16.625  64.945  1.00  0.00    -0.717 NA 
HETATM   27  H   UNL     1     -10.833  17.406  64.312  1.00  0.00     0.000 HD 
BRANCH  26  28
HETATM   28  C   UNL     1     -10.256  16.798  66.291  1.00  0.00    -0.332 A  
HETATM   29  N   UNL     1     -10.460  17.970  66.940  1.00  0.00    -0.360 NA 
HETATM   30  C   UNL     1      -9.954  18.042  68.199  1.00  0.00    -0.353 A  
HETATM   31  C   UNL     1      -9.258  17.002  68.796  1.00  0.00    -0.252 A  
HETATM   32  N   UNL     1      -9.034  15.833  68.164  1.00  0.00    -0.178 NA 
HETATM   33  C   UNL     1      -9.538  15.764  66.906  1.00  0.00    -0.230 A  
ENDBRANCH  26  28
ENDBRANCH  23  26
ENDBRANCH  21  22
ENDBRANCH  17  20
ENDBRANCH  10  15
TORSDOF 5
ENDMDL
MODEL       35
REMARK 921   NORMALIZED FREE ENERGY PREDICTED BY IDOCK:   -7.79 KCAL/MOL
REMARK 922        TOTAL FREE ENERGY PREDICTED BY IDOCK:  -11.33 KCAL/MOL
REMARK 923 INTER-LIGAND FREE ENERGY PREDICTED BY IDOCK:   -9.59 KCAL/MOL
REMARK 924 INTRA-LIGAND FREE ENERGY PREDICTED BY IDOCK:   -1.74 KCAL/MOL
REMARK 927      BINDING AFFINITY PREDICTED BY RF-SCORE:    0.00 PKD
ROOT
HETATM    1  F   UNL     1      -7.792   9.793  65.068  1.00  0.00    -0.109 F  
HETATM    2  C   UNL     1      -7.872  10.634  66.137  1.00  0.00    -0.152 C  
HETATM    3  F   UNL     1      -7.879   9.835  67.238  1.00  0.00    -0.097 F  
HETATM    4  F   UNL     1      -6.691  11.310  66.167  1.00  0.00    -0.123 F  
HETATM    5  C   UNL     1      -9.065  11.559  66.085  1.00  0.00    -0.217 A  
HETATM    6  C   UNL     1      -9.975  11.531  65.019  1.00  0.00    -0.305 A  
HETATM    7  C   UNL     1     -11.085  12.392  64.993  1.00  0.00    -0.344 A  
HETATM    8  C   UNL     1     -12.069  12.348  63.847  1.00  0.00    -0.499 C  
HETATM    9  C   UNL     1     -11.276  13.300  66.053  1.00  0.00    -0.316 A  
HETATM   10  C   UNL     1     -10.374  13.353  67.125  1.00  0.00    -0.246 A  
HETATM   11  F   UNL     1     -12.173  13.543  63.199  1.00  0.00    -0.582 F  
HETATM   12  F   UNL     1     -11.747  11.434  62.891  1.00  0.00    -0.253 F  
HETATM   13  F   UNL     1     -13.329  12.030  64.253  1.00  0.00    -0.474 F  
HETATM   14  C   UNL     1      -9.280  12.473  67.128  1.00  0.00    -0.205 A  
ENDROOT
BRANCH  10  15
HETATM   15  C   UNL     1     -10.548  14.280  68.243  1.00  0.00    -0.245 A  
HETATM   16  N   UNL     1     -11.724  14.669  68.754  1.00  0.00    -0.314 NA 
HETATM   17  N   UNL     1     -11.368  15.401  69.856  1.00  0.00    -0.278 NA 
HETATM   18  N   UNL     1      -9.464  14.848  68.850  1.00  0.00    -0.209 NA 
HETATM   19  C   UNL     1      -9.995  15.551  69.817  1.00  0.00    -0.274 A  
BRANCH  17  20
HETATM   20  C   UNL     1     -12.286  15.955  70.761  1.00  0.00    -0.333 C  
HETATM   21  C   UNL     1     -13.106  15.388  71.667  1.00  0.00    -0.540 C  
BRANCH  21  22
HETATM   22  C   UNL     1     -13.387  13.939  71.809  1.00  0.00    -0.381 C  
HETATM   23  N   UNL     1     -12.584  13.099  71.074  1.00  0.00    -0.353 N  
HETATM   24  O   UNL     1     -14.247  13.497  72.565  1.00  0.00    -0.734 OA 
HETATM   25  H   UNL     1     -11.806  13.444  70.511  1.00  0.00     0.000 HD 
BRANCH  23  26
HETATM   26  N   UNL     1     -12.911  11.725  71.150  1.00  0.00    -0.264 NA 
HETATM   27  H   UNL     1     -13.710  11.375  71.679  1.00  0.00     0.000 HD 
BRANCH  26  28
HETATM   28  C   UNL     1     -12.034  10.878  70.430  1.00  0.00    -0.362 A  
HETATM   29  N   UNL     1     -11.980  10.911  69.076  1.00  0.00    -0.407 NA 
HETATM   30  C   UNL     1     -11.160   9.996  68.496  1.00  0.00    -0.167 A  
HETATM   31  C   UNL     1     -10.427   9.069  69.220  1.00  0.00    -0.228 A  
HETATM   32  N   UNL     1     -10.475   9.011  70.566  1.00  0.00    -0.209 NA 
HETATM   33  C   UNL     1     -11.296   9.923  71.144  1.00  0.00    -0.370 A  
ENDBRANCH  26  28
ENDBRANCH  23  26
ENDBRANCH  21  22
ENDBRANCH  17  20
ENDBRANCH  10  15
TORSDOF 5
ENDMDL
MODEL       36
REMARK 921   NORMALIZED FREE ENERGY PREDICTED BY IDOCK:   -7.75 KCAL/MOL
REMARK 922        TOTAL FREE ENERGY PREDICTED BY IDOCK:  -11.28 KCAL/MOL
REMARK 923 INTER-LIGAND FREE ENERGY PREDICTED BY IDOCK:   -9.59 KCAL/MOL
REMARK 924 INTRA-LIGAND FREE ENERGY PREDICTED BY IDOCK:   -1.69 KCAL/MOL
REMARK 927      BINDING AFFINITY PREDICTED BY RF-SCORE:    0.00 PKD
ROOT
HETATM    1  F   UNL     1      -8.353   8.119  68.949  1.00  0.00    -0.118 F  
HETATM    2  C   UNL     1      -8.379   9.434  68.592  1.00  0.00    -0.117 C  
HETATM    3  F   UNL     1      -7.205   9.962  69.033  1.00  0.00    -0.067 F  
HETATM    4  F   UNL     1      -8.315   9.451  67.233  1.00  0.00    -0.119 F  
HETATM    5  C   UNL     1      -9.583  10.175  69.123  1.00  0.00    -0.222 A  
HETATM    6  C   UNL     1     -10.563   9.535  69.897  1.00  0.00    -0.269 A  
HETATM    7  C   UNL     1     -11.671  10.244  70.391  1.00  0.00    -0.404 A  
HETATM    8  C   UNL     1     -12.715   9.551  71.235  1.00  0.00    -0.332 C  
HETATM    9  C   UNL     1     -11.798  11.615  70.093  1.00  0.00    -0.428 A  
HETATM   10  C   UNL     1     -10.838  12.273  69.314  1.00  0.00    -0.082 A  
HETATM   11  F   UNL     1     -13.962   9.621  70.687  1.00  0.00    -0.294 F  
HETATM   12  F   UNL     1     -12.467   8.226  71.425  1.00  0.00    -0.300 F  
HETATM   13  F   UNL     1     -12.821  10.091  72.480  1.00  0.00    -0.403 F  
HETATM   14  C   UNL     1      -9.736  11.542  68.842  1.00  0.00    -0.069 A  
ENDROOT
BRANCH  10  15
HETATM   15  C   UNL     1     -10.939  13.697  68.992  1.00  0.00    -0.234 A  
HETATM   16  N   UNL     1     -10.082  14.382  68.221  1.00  0.00    -0.232 NA 
HETATM   17  N   UNL     1     -10.675  15.611  68.098  1.00  0.00    -0.277 NA 
HETATM   18  N   UNL     1     -11.955  14.455  69.501  1.00  0.00    -0.315 NA 
HETATM   19  C   UNL     1     -11.755  15.629  68.959  1.00  0.00    -0.395 A  
BRANCH  17  20
HETATM   20  C   UNL     1     -10.169  16.651  67.304  1.00  0.00    -0.290 C  
HETATM   21  C   UNL     1     -10.293  16.918  65.989  1.00  0.00    -0.335 C  
BRANCH  21  22
HETATM   22  C   UNL     1     -10.882  16.023  64.964  1.00  0.00    -0.404 C  
HETATM   23  N   UNL     1     -10.674  14.677  65.155  1.00  0.00    -0.385 N  
HETATM   24  O   UNL     1     -11.554  16.436  64.024  1.00  0.00    -1.071 OA 
HETATM   25  H   UNL     1     -10.196  14.311  65.979  1.00  0.00     0.000 HD 
BRANCH  23  26
HETATM   26  N   UNL     1     -11.167  13.835  64.131  1.00  0.00    -0.593 NA 
HETATM   27  H   UNL     1     -11.889  14.128  63.473  1.00  0.00     0.000 HD 
BRANCH  26  28
HETATM   28  C   UNL     1     -10.573  12.550  64.099  1.00  0.00    -0.398 A  
HETATM   29  N   UNL     1      -9.979  12.078  62.975  1.00  0.00    -0.303 NA 
HETATM   30  C   UNL     1      -9.518  10.802  63.043  1.00  0.00    -0.351 A  
HETATM   31  C   UNL     1      -9.646  10.010  64.173  1.00  0.00    -0.208 A  
HETATM   32  N   UNL     1     -10.242  10.454  65.297  1.00  0.00    -0.291 NA 
HETATM   33  C   UNL     1     -10.705  11.727  65.227  1.00  0.00    -0.287 A  
ENDBRANCH  26  28
ENDBRANCH  23  26
ENDBRANCH  21  22
ENDBRANCH  17  20
ENDBRANCH  10  15
TORSDOF 5
ENDMDL
MODEL       37
REMARK 921   NORMALIZED FREE ENERGY PREDICTED BY IDOCK:   -7.71 KCAL/MOL
REMARK 922        TOTAL FREE ENERGY PREDICTED BY IDOCK:  -11.22 KCAL/MOL
REMARK 923 INTER-LIGAND FREE ENERGY PREDICTED BY IDOCK:  -10.42 KCAL/MOL
REMARK 924 INTRA-LIGAND FREE ENERGY PREDICTED BY IDOCK:   -0.81 KCAL/MOL
REMARK 927      BINDING AFFINITY PREDICTED BY RF-SCORE:    0.00 PKD
ROOT
HETATM    1  F   UNL     1     -13.477   9.904  72.645  1.00  0.00    -0.417 F  
HETATM    2  C   UNL     1     -13.183  10.297  71.374  1.00  0.00    -0.370 C  
HETATM    3  F   UNL     1     -14.145   9.748  70.583  1.00  0.00    -0.258 F  
HETATM    4  F   UNL     1     -13.390  11.642  71.343  1.00  0.00    -0.426 F  
HETATM    5  C   UNL     1     -11.788   9.918  70.937  1.00  0.00    -0.443 A  
HETATM    6  C   UNL     1     -10.907   9.236  71.789  1.00  0.00    -0.358 A  
HETATM    7  C   UNL     1      -9.616   8.882  71.362  1.00  0.00    -0.359 A  
HETATM    8  C   UNL     1      -8.677   8.136  72.280  1.00  0.00    -0.182 C  
HETATM    9  C   UNL     1      -9.205   9.228  70.059  1.00  0.00    -0.231 A  
HETATM   10  C   UNL     1     -10.063   9.918  69.194  1.00  0.00    -0.210 A  
HETATM   11  F   UNL     1      -7.517   8.815  72.507  1.00  0.00    -0.127 F  
HETATM   12  F   UNL     1      -9.206   7.885  73.509  1.00  0.00    -0.261 F  
HETATM   13  F   UNL     1      -8.312   6.924  71.780  1.00  0.00    -0.107 F  
HETATM   14  C   UNL     1     -11.351  10.250  69.645  1.00  0.00    -0.315 A  
ENDROOT
BRANCH  10  15
HETATM   15  C   UNL     1      -9.667  10.287  67.834  1.00  0.00    -0.145 A  
HETATM   16  N   UNL     1     -10.226   9.821  66.709  1.00  0.00    -0.232 NA 
HETATM   17  N   UNL     1      -9.628  10.562  65.724  1.00  0.00    -0.197 NA 
HETATM   18  N   UNL     1      -8.638  11.160  67.622  1.00  0.00    -0.125 NA 
HETATM   19  C   UNL     1      -8.618  11.290  66.321  1.00  0.00    -0.172 A  
BRANCH  17  20
HETATM   20  C   UNL     1      -9.959  10.472  64.363  1.00  0.00    -0.343 C  
HETATM   21  C   UNL     1     -10.755  11.229  63.582  1.00  0.00    -0.438 C  
BRANCH  21  22
HETATM   22  C   UNL     1     -11.673  12.299  64.042  1.00  0.00    -0.425 C  
HETATM   23  N   UNL     1     -11.469  13.541  63.487  1.00  0.00    -0.584 N  
HETATM   24  O   UNL     1     -12.591  12.098  64.831  1.00  0.00    -0.500 OA 
HETATM   25  H   UNL     1     -10.770  13.706  62.761  1.00  0.00     0.000 HD 
BRANCH  23  26
HETATM   26  N   UNL     1     -12.293  14.574  63.991  1.00  0.00    -0.974 NA 
HETATM   27  H   UNL     1     -13.275  14.673  63.734  1.00  0.00     0.000 HD 
BRANCH  26  28
HETATM   28  C   UNL     1     -11.638  15.458  64.882  1.00  0.00    -0.248 A  
HETATM   29  N   UNL     1     -11.310  16.719  64.505  1.00  0.00    -0.993 NA 
HETATM   30  C   UNL     1     -10.612  17.444  65.419  1.00  0.00    -0.034 A  
HETATM   31  C   UNL     1     -10.236  16.944  66.656  1.00  0.00    -0.312 A  
HETATM   32  N   UNL     1     -10.541  15.690  67.045  1.00  0.00    -0.308 NA 
HETATM   33  C   UNL     1     -11.236  14.966  66.131  1.00  0.00    -0.325 A  
ENDBRANCH  26  28
ENDBRANCH  23  26
ENDBRANCH  21  22
ENDBRANCH  17  20
ENDBRANCH  10  15
TORSDOF 5
ENDMDL
MODEL       38
REMARK 921   NORMALIZED FREE ENERGY PREDICTED BY IDOCK:   -7.63 KCAL/MOL
REMARK 922        TOTAL FREE ENERGY PREDICTED BY IDOCK:  -11.13 KCAL/MOL
REMARK 923 INTER-LIGAND FREE ENERGY PREDICTED BY IDOCK:   -9.14 KCAL/MOL
REMARK 924 INTRA-LIGAND FREE ENERGY PREDICTED BY IDOCK:   -1.99 KCAL/MOL
REMARK 927      BINDING AFFINITY PREDICTED BY RF-SCORE:    0.00 PKD
ROOT
HETATM    1  F   UNL     1      -9.846  16.684  65.644  1.00  0.00    -0.313 F  
HETATM    2  C   UNL     1     -10.126  16.158  66.869  1.00  0.00    -0.272 C  
HETATM    3  F   UNL     1      -8.949  16.160  67.552  1.00  0.00    -0.185 F  
HETATM    4  F   UNL     1     -10.925  17.068  67.490  1.00  0.00    -0.328 F  
HETATM    5  C   UNL     1     -10.755  14.787  66.804  1.00  0.00    -0.309 A  
HETATM    6  C   UNL     1     -11.018  14.152  65.582  1.00  0.00    -0.308 A  
HETATM    7  C   UNL     1     -11.595  12.871  65.541  1.00  0.00    -0.395 A  
HETATM    8  C   UNL     1     -11.864  12.188  64.221  1.00  0.00    -0.378 C  
HETATM    9  C   UNL     1     -11.918  12.225  66.751  1.00  0.00    -0.230 A  
HETATM   10  C   UNL     1     -11.673  12.843  67.984  1.00  0.00    -0.401 A  
HETATM   11  F   UNL     1     -13.181  11.880  64.050  1.00  0.00    -0.529 F  
HETATM   12  F   UNL     1     -11.515  12.939  63.141  1.00  0.00    -0.528 F  
HETATM   13  F   UNL     1     -11.184  11.016  64.092  1.00  0.00    -0.400 F  
HETATM   14  C   UNL     1     -11.087  14.119  67.993  1.00  0.00    -0.285 A  
ENDROOT
BRANCH  10  15
HETATM   15  C   UNL     1     -11.992  12.195  69.257  1.00  0.00    -0.262 A  
HETATM   16  N   UNL     1     -11.970  10.874  69.483  1.00  0.00    -0.325 NA 
HETATM   17  N   UNL     1     -12.188  10.777  70.832  1.00  0.00    -0.357 NA 
HETATM   18  N   UNL     1     -12.370  12.937  70.340  1.00  0.00    -0.299 NA 
HETATM   19  C   UNL     1     -12.510  12.042  71.283  1.00  0.00    -0.198 A  
BRANCH  17  20
HETATM   20  C   UNL     1     -12.174   9.568  71.545  1.00  0.00    -0.386 C  
HETATM   21  C   UNL     1     -11.160   8.830  72.038  1.00  0.00    -0.441 C  
BRANCH  21  22
HETATM   22  C   UNL     1      -9.716   9.035  71.773  1.00  0.00    -0.241 C  
HETATM   23  N   UNL     1      -9.412   9.744  70.635  1.00  0.00    -0.334 N  
HETATM   24  O   UNL     1      -8.836   8.644  72.534  1.00  0.00    -0.356 OA 
HETATM   25  H   UNL     1     -10.131  10.155  70.040  1.00  0.00     0.000 HD 
BRANCH  23  26
HETATM   26  N   UNL     1      -8.032   9.865  70.346  1.00  0.00    -0.351 NA 
HETATM   27  H   UNL     1      -7.313   9.353  70.856  1.00  0.00     0.000 HD 
BRANCH  26  28
HETATM   28  C   UNL     1      -7.737  10.758  69.287  1.00  0.00    -0.129 A  
HETATM   29  N   UNL     1      -6.739  11.670  69.395  1.00  0.00    -0.118 NA 
HETATM   30  C   UNL     1      -6.606  12.524  68.347  1.00  0.00    -0.070 A  
HETATM   31  C   UNL     1      -7.432  12.493  67.234  1.00  0.00    -0.125 A  
HETATM   32  N   UNL     1      -8.436  11.602  67.111  1.00  0.00    -0.156 NA 
HETATM   33  C   UNL     1      -8.570  10.752  68.160  1.00  0.00    -0.129 A  
ENDBRANCH  26  28
ENDBRANCH  23  26
ENDBRANCH  21  22
ENDBRANCH  17  20
ENDBRANCH  10  15
TORSDOF 5
ENDMDL
MODEL       39
REMARK 921   NORMALIZED FREE ENERGY PREDICTED BY IDOCK:   -7.62 KCAL/MOL
REMARK 922        TOTAL FREE ENERGY PREDICTED BY IDOCK:  -11.11 KCAL/MOL
REMARK 923 INTER-LIGAND FREE ENERGY PREDICTED BY IDOCK:   -9.50 KCAL/MOL
REMARK 924 INTRA-LIGAND FREE ENERGY PREDICTED BY IDOCK:   -1.60 KCAL/MOL
REMARK 927      BINDING AFFINITY PREDICTED BY RF-SCORE:    0.00 PKD
ROOT
HETATM    1  F   UNL     1     -12.679   9.335  72.973  1.00  0.00    -0.286 F  
HETATM    2  C   UNL     1     -12.980   9.880  71.761  1.00  0.00    -0.449 C  
HETATM    3  F   UNL     1     -14.007   9.139  71.265  1.00  0.00    -0.418 F  
HETATM    4  F   UNL     1     -13.496  11.112  72.026  1.00  0.00    -0.513 F  
HETATM    5  C   UNL     1     -11.801   9.940  70.820  1.00  0.00    -0.415 A  
HETATM    6  C   UNL     1     -10.532   9.476  71.196  1.00  0.00    -0.358 A  
HETATM    7  C   UNL     1      -9.448   9.529  70.303  1.00  0.00    -0.307 A  
HETATM    8  C   UNL     1      -8.087   9.015  70.710  1.00  0.00    -0.166 C  
HETATM    9  C   UNL     1      -9.645  10.065  69.015  1.00  0.00    -0.200 A  
HETATM   10  C   UNL     1     -10.901  10.544  68.620  1.00  0.00    -0.276 A  
HETATM   11  F   UNL     1      -7.122   9.976  70.638  1.00  0.00    -0.131 F  
HETATM   12  F   UNL     1      -8.045   8.542  71.986  1.00  0.00    -0.150 F  
HETATM   13  F   UNL     1      -7.658   7.992  69.922  1.00  0.00    -0.078 F  
HETATM   14  C   UNL     1     -11.968  10.469  69.531  1.00  0.00    -0.258 A  
ENDROOT
BRANCH  10  15
HETATM   15  C   UNL     1     -11.139  11.102  67.288  1.00  0.00    -0.302 A  
HETATM   16  N   UNL     1     -12.100  11.982  66.975  1.00  0.00    -0.545 NA 
HETATM   17  N   UNL     1     -11.823  12.308  65.674  1.00  0.00    -0.478 NA 
HETATM   18  N   UNL     1     -10.365  10.723  66.227  1.00  0.00    -0.248 NA 
HETATM   19  C   UNL     1     -10.823  11.457  65.246  1.00  0.00    -0.233 A  
BRANCH  17  20
HETATM   20  C   UNL     1     -12.531  13.269  64.937  1.00  0.00    -0.409 C  
HETATM   21  C   UNL     1     -12.236  14.541  64.604  1.00  0.00    -0.474 C  
BRANCH  21  22
HETATM   22  C   UNL     1     -11.100  15.342  65.120  1.00  0.00    -0.404 C  
HETATM   23  N   UNL     1     -10.435  14.809  66.199  1.00  0.00    -0.293 N  
HETATM   24  O   UNL     1     -10.734  16.393  64.602  1.00  0.00    -0.693 OA 
HETATM   25  H   UNL     1     -10.667  13.893  66.585  1.00  0.00     0.000 HD 
BRANCH  23  26
HETATM   26  N   UNL     1      -9.406  15.617  66.737  1.00  0.00    -0.231 NA 
HETATM   27  H   UNL     1      -9.493  16.627  66.844  1.00  0.00     0.000 HD 
BRANCH  26  28
HETATM   28  C   UNL     1      -8.242  14.901  67.114  1.00  0.00    -0.215 A  
HETATM   29  N   UNL     1      -8.299  13.582  67.423  1.00  0.00    -0.186 NA 
HETATM   30  C   UNL     1      -7.133  13.026  67.847  1.00  0.00    -0.128 A  
HETATM   31  C   UNL     1      -5.955  13.744  67.977  1.00  0.00    -0.135 A  
HETATM   32  N   UNL     1      -5.879  15.058  67.686  1.00  0.00    -0.317 NA 
HETATM   33  C   UNL     1      -7.044  15.612  67.265  1.00  0.00    -0.207 A  
ENDBRANCH  26  28
ENDBRANCH  23  26
ENDBRANCH  21  22
ENDBRANCH  17  20
ENDBRANCH  10  15
TORSDOF 5
ENDMDL
MODEL       40
REMARK 921   NORMALIZED FREE ENERGY PREDICTED BY IDOCK:   -7.59 KCAL/MOL
REMARK 922        TOTAL FREE ENERGY PREDICTED BY IDOCK:  -11.08 KCAL/MOL
REMARK 923 INTER-LIGAND FREE ENERGY PREDICTED BY IDOCK:   -9.20 KCAL/MOL
REMARK 924 INTRA-LIGAND FREE ENERGY PREDICTED BY IDOCK:   -1.88 KCAL/MOL
REMARK 927      BINDING AFFINITY PREDICTED BY RF-SCORE:    0.00 PKD
ROOT
HETATM    1  F   UNL     1     -13.056  15.839  70.638  1.00  0.00    -0.501 F  
HETATM    2  C   UNL     1     -12.253  14.772  70.367  1.00  0.00    -0.336 C  
HETATM    3  F   UNL     1     -11.715  14.399  71.560  1.00  0.00    -0.376 F  
HETATM    4  F   UNL     1     -13.090  13.763  69.999  1.00  0.00    -0.166 F  
HETATM    5  C   UNL     1     -11.203  15.061  69.322  1.00  0.00    -0.297 A  
HETATM    6  C   UNL     1     -11.100  16.317  68.706  1.00  0.00    -0.355 A  
HETATM    7  C   UNL     1     -10.109  16.570  67.742  1.00  0.00    -0.264 A  
HETATM    8  C   UNL     1      -9.995  17.930  67.092  1.00  0.00    -0.327 C  
HETATM    9  C   UNL     1      -9.214  15.541  67.389  1.00  0.00    -0.209 A  
HETATM   10  C   UNL     1      -9.304  14.275  67.984  1.00  0.00    -0.200 A  
HETATM   11  F   UNL     1     -10.127  17.874  65.737  1.00  0.00    -0.286 F  
HETATM   12  F   UNL     1     -10.935  18.816  67.522  1.00  0.00    -0.473 F  
HETATM   13  F   UNL     1      -8.792  18.522  67.329  1.00  0.00    -0.259 F  
HETATM   14  C   UNL     1     -10.298  14.054  68.950  1.00  0.00    -0.183 A  
ENDROOT
BRANCH  10  15
HETATM   15  C   UNL     1      -8.387  13.187  67.642  1.00  0.00    -0.174 A  
HETATM   16  N   UNL     1      -8.748  11.930  67.349  1.00  0.00    -0.159 NA 
HETATM   17  N   UNL     1      -7.574  11.343  66.957  1.00  0.00    -0.144 NA 
HETATM   18  N   UNL     1      -7.037  13.396  67.619  1.00  0.00    -0.152 NA 
HETATM   19  C   UNL     1      -6.562  12.244  67.223  1.00  0.00    -0.146 A  
BRANCH  17  20
HETATM   20  C   UNL     1      -7.476  10.027  66.480  1.00  0.00    -0.105 C  
HETATM   21  C   UNL     1      -7.898   9.454  65.335  1.00  0.00    -0.104 C  
BRANCH  21  22
HETATM   22  C   UNL     1      -8.784  10.072  64.320  1.00  0.00    -0.206 C  
HETATM   23  N   UNL     1      -8.851  11.445  64.342  1.00  0.00    -0.365 N  
HETATM   24  O   UNL     1      -9.389   9.419  63.476  1.00  0.00    -0.042 OA 
HETATM   25  H   UNL     1      -8.284  12.009  64.976  1.00  0.00     0.000 HD 
BRANCH  23  26
HETATM   26  N   UNL     1      -9.761  12.023  63.426  1.00  0.00    -0.597 NA 
HETATM   27  H   UNL     1      -9.666  11.925  62.415  1.00  0.00     0.000 HD 
BRANCH  26  28
HETATM   28  C   UNL     1     -10.814  12.750  64.033  1.00  0.00    -0.424 A  
HETATM   29  N   UNL     1     -10.626  14.016  64.481  1.00  0.00    -0.389 NA 
HETATM   30  C   UNL     1     -11.687  14.579  65.118  1.00  0.00    -0.376 A  
HETATM   31  C   UNL     1     -12.888  13.918  65.319  1.00  0.00    -0.398 A  
HETATM   32  N   UNL     1     -13.092  12.656  64.891  1.00  0.00    -0.809 NA 
HETATM   33  C   UNL     1     -12.032  12.093  64.259  1.00  0.00    -0.380 A  
ENDBRANCH  26  28
ENDBRANCH  23  26
ENDBRANCH  21  22
ENDBRANCH  17  20
ENDBRANCH  10  15
TORSDOF 5
ENDMDL
MODEL       41
REMARK 921   NORMALIZED FREE ENERGY PREDICTED BY IDOCK:   -7.58 KCAL/MOL
REMARK 922        TOTAL FREE ENERGY PREDICTED BY IDOCK:  -11.06 KCAL/MOL
REMARK 923 INTER-LIGAND FREE ENERGY PREDICTED BY IDOCK:   -9.36 KCAL/MOL
REMARK 924 INTRA-LIGAND FREE ENERGY PREDICTED BY IDOCK:   -1.70 KCAL/MOL
REMARK 927      BINDING AFFINITY PREDICTED BY RF-SCORE:    0.00 PKD
ROOT
HETATM    1  F   UNL     1     -12.540  13.478  62.639  1.00  0.00    -0.245 F  
HETATM    2  C   UNL     1     -12.051  12.513  63.468  1.00  0.00    -0.562 C  
HETATM    3  F   UNL     1     -13.122  11.755  63.829  1.00  0.00    -0.577 F  
HETATM    4  F   UNL     1     -11.270  11.716  62.688  1.00  0.00     0.008 F  
HETATM    5  C   UNL     1     -11.305  13.066  64.658  1.00  0.00    -0.361 A  
HETATM    6  C   UNL     1     -11.144  14.446  64.853  1.00  0.00    -0.404 A  
HETATM    7  C   UNL     1     -10.456  14.942  65.973  1.00  0.00    -0.326 A  
HETATM    8  C   UNL     1     -10.298  16.430  66.184  1.00  0.00    -0.344 C  
HETATM    9  C   UNL     1      -9.914  14.035  66.905  1.00  0.00    -0.263 A  
HETATM   10  C   UNL     1     -10.054  12.652  66.726  1.00  0.00    -0.243 A  
HETATM   11  F   UNL     1      -8.991  16.814  66.246  1.00  0.00    -0.261 F  
HETATM   12  F   UNL     1     -10.858  17.180  65.195  1.00  0.00    -0.386 F  
HETATM   13  F   UNL     1     -10.871  16.856  67.342  1.00  0.00    -0.323 F  
HETATM   14  C   UNL     1     -10.755  12.185  65.603  1.00  0.00    -0.312 A  
ENDROOT
BRANCH  10  15
HETATM   15  C   UNL     1      -9.507  11.685  67.678  1.00  0.00    -0.177 A  
HETATM   16  N   UNL     1      -9.922  10.418  67.823  1.00  0.00    -0.171 NA 
HETATM   17  N   UNL     1      -9.022   9.886  68.708  1.00  0.00    -0.134 NA 
HETATM   18  N   UNL     1      -8.502  12.041  68.533  1.00  0.00    -0.136 NA 
HETATM   19  C   UNL     1      -8.243  10.929  69.171  1.00  0.00    -0.084 A  
BRANCH  17  20
HETATM   20  C   UNL     1      -9.014   8.541  69.107  1.00  0.00    -0.146 C  
HETATM   21  C   UNL     1      -9.915   7.800  69.781  1.00  0.00    -0.189 C  
BRANCH  21  22
HETATM   22  C   UNL     1     -11.130   8.305  70.466  1.00  0.00    -0.249 C  
HETATM   23  N   UNL     1     -11.703   9.428  69.916  1.00  0.00    -0.445 N  
HETATM   24  O   UNL     1     -11.632   7.744  71.435  1.00  0.00    -0.264 OA 
HETATM   25  H   UNL     1     -11.352   9.853  69.057  1.00  0.00     0.000 HD 
BRANCH  23  26
HETATM   26  N   UNL     1     -12.811   9.951  70.621  1.00  0.00    -0.551 NA 
HETATM   27  H   UNL     1     -13.613   9.383  70.893  1.00  0.00     0.000 HD 
BRANCH  26  28
HETATM   28  C   UNL     1     -12.712  11.333  70.917  1.00  0.00    -0.318 A  
HETATM   29  N   UNL     1     -13.283  11.856  72.030  1.00  0.00    -0.456 NA 
HETATM   30  C   UNL     1     -13.189  13.205  72.163  1.00  0.00    -0.462 A  
HETATM   31  C   UNL     1     -12.566  14.016  71.227  1.00  0.00    -0.367 A  
HETATM   32  N   UNL     1     -12.002  13.519  70.109  1.00  0.00    -0.333 NA 
HETATM   33  C   UNL     1     -12.099  12.172  69.976  1.00  0.00    -0.277 A  
ENDBRANCH  26  28
ENDBRANCH  23  26
ENDBRANCH  21  22
ENDBRANCH  17  20
ENDBRANCH  10  15
TORSDOF 5
ENDMDL
MODEL       42
REMARK 921   NORMALIZED FREE ENERGY PREDICTED BY IDOCK:   -7.58 KCAL/MOL
REMARK 922        TOTAL FREE ENERGY PREDICTED BY IDOCK:  -11.06 KCAL/MOL
REMARK 923 INTER-LIGAND FREE ENERGY PREDICTED BY IDOCK:   -9.65 KCAL/MOL
REMARK 924 INTRA-LIGAND FREE ENERGY PREDICTED BY IDOCK:   -1.41 KCAL/MOL
REMARK 927      BINDING AFFINITY PREDICTED BY RF-SCORE:    0.00 PKD
ROOT
HETATM    1  F   UNL     1     -10.345   5.207  67.975  1.00  0.00    -0.220 F  
HETATM    2  C   UNL     1     -10.379   6.352  67.236  1.00  0.00    -0.218 C  
HETATM    3  F   UNL     1      -9.210   6.381  66.541  1.00  0.00    -0.138 F  
HETATM    4  F   UNL     1     -11.363   6.168  66.313  1.00  0.00    -0.208 F  
HETATM    5  C   UNL     1     -10.592   7.595  68.066  1.00  0.00    -0.213 A  
HETATM    6  C   UNL     1     -10.744   7.537  69.459  1.00  0.00    -0.222 A  
HETATM    7  C   UNL     1     -10.930   8.706  70.216  1.00  0.00    -0.251 A  
HETATM    8  C   UNL     1     -11.080   8.636  71.718  1.00  0.00    -0.326 C  
HETATM    9  C   UNL     1     -10.973   9.951  69.558  1.00  0.00    -0.274 A  
HETATM   10  C   UNL     1     -10.834  10.033  68.166  1.00  0.00    -0.303 A  
HETATM   11  F   UNL     1     -12.262   9.160  72.151  1.00  0.00    -0.408 F  
HETATM   12  F   UNL     1     -11.034   7.368  72.209  1.00  0.00    -0.231 F  
HETATM   13  F   UNL     1     -10.102   9.322  72.371  1.00  0.00    -0.232 F  
HETATM   14  C   UNL     1     -10.639   8.849  67.437  1.00  0.00    -0.305 A  
ENDROOT
BRANCH  10  15
HETATM   15  C   UNL     1     -10.868  11.312  67.455  1.00  0.00    -0.262 A  
HETATM   16  N   UNL     1      -9.896  12.234  67.467  1.00  0.00    -0.190 NA 
HETATM   17  N   UNL     1     -10.320  13.159  66.550  1.00  0.00    -0.278 NA 
HETATM   18  N   UNL     1     -11.960  11.666  66.713  1.00  0.00    -0.457 NA 
HETATM   19  C   UNL     1     -11.609  12.813  66.192  1.00  0.00    -0.379 A  
BRANCH  17  20
HETATM   20  C   UNL     1      -9.575  14.284  66.167  1.00  0.00    -0.275 C  
HETATM   21  C   UNL     1      -9.551  15.547  66.637  1.00  0.00    -0.273 C  
BRANCH  21  22
HETATM   22  C   UNL     1     -10.497  16.136  67.616  1.00  0.00    -0.292 C  
HETATM   23  N   UNL     1     -11.168  15.239  68.413  1.00  0.00    -0.293 N  
HETATM   24  O   UNL     1     -10.649  17.346  67.751  1.00  0.00    -0.365 OA 
HETATM   25  H   UNL     1     -10.987  14.236  68.377  1.00  0.00     0.000 HD 
BRANCH  23  26
HETATM   26  N   UNL     1     -12.128  15.803  69.286  1.00  0.00    -0.512 NA 
HETATM   27  H   UNL     1     -12.500  16.744  69.165  1.00  0.00     0.000 HD 
BRANCH  26  28
HETATM   28  C   UNL     1     -12.526  14.947  70.342  1.00  0.00    -0.350 A  
HETATM   29  N   UNL     1     -12.255  13.619  70.310  1.00  0.00    -0.349 NA 
HETATM   30  C   UNL     1     -12.758  12.890  71.340  1.00  0.00    -0.270 A  
HETATM   31  C   UNL     1     -13.514  13.443  72.361  1.00  0.00    -0.584 A  
HETATM   32  N   UNL     1     -13.805  14.758  72.407  1.00  0.00    -0.454 NA 
HETATM   33  C   UNL     1     -13.304  15.485  71.376  1.00  0.00    -0.511 A  
ENDBRANCH  26  28
ENDBRANCH  23  26
ENDBRANCH  21  22
ENDBRANCH  17  20
ENDBRANCH  10  15
TORSDOF 5
ENDMDL
MODEL       43
REMARK 921   NORMALIZED FREE ENERGY PREDICTED BY IDOCK:   -7.57 KCAL/MOL
REMARK 922        TOTAL FREE ENERGY PREDICTED BY IDOCK:  -11.05 KCAL/MOL
REMARK 923 INTER-LIGAND FREE ENERGY PREDICTED BY IDOCK:  -10.05 KCAL/MOL
REMARK 924 INTRA-LIGAND FREE ENERGY PREDICTED BY IDOCK:   -1.00 KCAL/MOL
REMARK 927      BINDING AFFINITY PREDICTED BY RF-SCORE:    0.00 PKD
ROOT
HETATM    1  F   UNL     1     -11.305  11.024  63.620  1.00  0.00    -0.384 F  
HETATM    2  C   UNL     1     -11.144  12.361  63.828  1.00  0.00    -0.445 C  
HETATM    3  F   UNL     1      -9.993  12.701  63.188  1.00  0.00    -0.222 F  
HETATM    4  F   UNL     1     -12.152  12.967  63.141  1.00  0.00    -0.580 F  
HETATM    5  C   UNL     1     -11.131  12.743  65.288  1.00  0.00    -0.320 A  
HETATM    6  C   UNL     1     -11.280  11.787  66.304  1.00  0.00    -0.370 A  
HETATM    7  C   UNL     1     -11.254  12.160  67.658  1.00  0.00    -0.345 A  
HETATM    8  C   UNL     1     -11.403  11.123  68.747  1.00  0.00    -0.277 C  
HETATM    9  C   UNL     1     -11.084  13.518  67.993  1.00  0.00    -0.283 A  
HETATM   10  C   UNL     1     -10.942  14.492  66.997  1.00  0.00    -0.312 A  
HETATM   11  F   UNL     1     -12.472  11.364  69.558  1.00  0.00    -0.311 F  
HETATM   12  F   UNL     1     -11.575   9.859  68.271  1.00  0.00    -0.192 F  
HETATM   13  F   UNL     1     -10.315  11.066  69.564  1.00  0.00    -0.234 F  
HETATM   14  C   UNL     1     -10.962  14.088  65.652  1.00  0.00    -0.300 A  
ENDROOT
BRANCH  10  15
HETATM   15  C   UNL     1     -10.759  15.909  67.313  1.00  0.00    -0.306 A  
HETATM   16  N   UNL     1     -10.539  16.883  66.419  1.00  0.00    -0.238 NA 
HETATM   17  N   UNL     1     -10.587  18.026  67.172  1.00  0.00    -0.358 NA 
HETATM   18  N   UNL     1     -10.782  16.341  68.609  1.00  0.00    -0.290 NA 
HETATM   19  C   UNL     1     -10.648  17.638  68.496  1.00  0.00    -0.280 A  
BRANCH  17  20
HETATM   20  C   UNL     1     -10.485  19.321  66.641  1.00  0.00    -0.449 C  
HETATM   21  C   UNL     1      -9.420  20.045  66.242  1.00  0.00    -0.485 C  
BRANCH  21  22
HETATM   22  C   UNL     1      -7.994  19.695  66.449  1.00  0.00    -0.318 C  
HETATM   23  N   UNL     1      -7.728  18.886  67.528  1.00  0.00    -0.232 N  
HETATM   24  O   UNL     1      -7.101  20.057  65.689  1.00  0.00    -0.297 OA 
HETATM   25  H   UNL     1      -8.468  18.500  68.116  1.00  0.00     0.000 HD 
BRANCH  23  26
HETATM   26  N   UNL     1      -6.359  18.624  67.767  1.00  0.00    -0.201 NA 
HETATM   27  H   UNL     1      -5.738  18.234  67.059  1.00  0.00     0.000 HD 
BRANCH  26  28
HETATM   28  C   UNL     1      -5.925  18.949  69.076  1.00  0.00    -0.225 A  
HETATM   29  N   UNL     1      -5.556  17.984  69.954  1.00  0.00    -0.230 NA 
HETATM   30  C   UNL     1      -5.237  18.414  71.203  1.00  0.00    -0.267 A  
HETATM   31  C   UNL     1      -5.292  19.746  71.582  1.00  0.00    -0.409 A  
HETATM   32  N   UNL     1      -5.667  20.720  70.730  1.00  0.00    -0.555 NA 
HETATM   33  C   UNL     1      -5.988  20.289  69.483  1.00  0.00    -0.342 A  
ENDBRANCH  26  28
ENDBRANCH  23  26
ENDBRANCH  21  22
ENDBRANCH  17  20
ENDBRANCH  10  15
TORSDOF 5
ENDMDL
MODEL       44
REMARK 921   NORMALIZED FREE ENERGY PREDICTED BY IDOCK:   -7.55 KCAL/MOL
REMARK 922        TOTAL FREE ENERGY PREDICTED BY IDOCK:  -11.02 KCAL/MOL
REMARK 923 INTER-LIGAND FREE ENERGY PREDICTED BY IDOCK:   -9.03 KCAL/MOL
REMARK 924 INTRA-LIGAND FREE ENERGY PREDICTED BY IDOCK:   -2.00 KCAL/MOL
REMARK 927      BINDING AFFINITY PREDICTED BY RF-SCORE:    0.00 PKD
ROOT
HETATM    1  F   UNL     1     -11.510  13.277  63.372  1.00  0.00    -0.423 F  
HETATM    2  C   UNL     1     -11.853  12.527  64.457  1.00  0.00    -0.383 C  
HETATM    3  F   UNL     1     -13.167  12.216  64.294  1.00  0.00    -0.513 F  
HETATM    4  F   UNL     1     -11.169  11.356  64.329  1.00  0.00    -0.403 F  
HETATM    5  C   UNL     1     -11.578  13.214  65.772  1.00  0.00    -0.383 A  
HETATM    6  C   UNL     1     -11.016  14.498  65.832  1.00  0.00    -0.320 A  
HETATM    7  C   UNL     1     -10.778  15.127  67.066  1.00  0.00    -0.307 A  
HETATM    8  C   UNL     1     -10.185  16.515  67.122  1.00  0.00    -0.284 C  
HETATM    9  C   UNL     1     -11.103  14.448  68.257  1.00  0.00    -0.275 A  
HETATM   10  C   UNL     1     -11.656  13.161  68.223  1.00  0.00    -0.370 A  
HETATM   11  F   UNL     1      -9.012  16.556  67.815  1.00  0.00    -0.195 F  
HETATM   12  F   UNL     1      -9.909  17.037  65.895  1.00  0.00    -0.291 F  
HETATM   13  F   UNL     1     -11.011  17.411  67.728  1.00  0.00    -0.364 F  
HETATM   14  C   UNL     1     -11.892  12.562  66.975  1.00  0.00    -0.394 A  
ENDROOT
BRANCH  10  15
HETATM   15  C   UNL     1     -12.009  12.433  69.442  1.00  0.00    -0.260 A  
HETATM   16  N   UNL     1     -11.944  11.103  69.598  1.00  0.00    -0.335 NA 
HETATM   17  N   UNL     1     -12.221  10.923  70.928  1.00  0.00    -0.364 NA 
HETATM   18  N   UNL     1     -12.466  13.099  70.543  1.00  0.00    -0.289 NA 
HETATM   19  C   UNL     1     -12.614  12.149  71.430  1.00  0.00    -0.209 A  
BRANCH  17  20
HETATM   20  C   UNL     1     -12.192   9.679  71.575  1.00  0.00    -0.399 C  
HETATM   21  C   UNL     1     -11.171   8.873  71.924  1.00  0.00    -0.447 C  
BRANCH  21  22
HETATM   22  C   UNL     1      -9.752   9.032  71.523  1.00  0.00    -0.295 C  
HETATM   23  N   UNL     1      -9.538   9.409  70.218  1.00  0.00    -0.232 N  
HETATM   24  O   UNL     1      -8.817   8.884  72.304  1.00  0.00    -0.397 OA 
HETATM   25  H   UNL     1     -10.305   9.625  69.581  1.00  0.00     0.000 HD 
BRANCH  23  26
HETATM   26  N   UNL     1      -8.183   9.478  69.820  1.00  0.00    -0.133 NA 
HETATM   27  H   UNL     1      -7.515   8.729  69.999  1.00  0.00     0.000 HD 
BRANCH  26  28
HETATM   28  C   UNL     1      -7.834  10.678  69.153  1.00  0.00    -0.142 A  
HETATM   29  N   UNL     1      -6.881  11.506  69.650  1.00  0.00    -0.086 NA 
HETATM   30  C   UNL     1      -6.693  12.665  68.965  1.00  0.00    -0.097 A  
HETATM   31  C   UNL     1      -7.423  13.006  67.838  1.00  0.00    -0.137 A  
HETATM   32  N   UNL     1      -8.382  12.204  67.334  1.00  0.00    -0.165 NA 
HETATM   33  C   UNL     1      -8.572  11.048  68.021  1.00  0.00    -0.134 A  
ENDBRANCH  26  28
ENDBRANCH  23  26
ENDBRANCH  21  22
ENDBRANCH  17  20
ENDBRANCH  10  15
TORSDOF 5
ENDMDL
MODEL       45
REMARK 921   NORMALIZED FREE ENERGY PREDICTED BY IDOCK:   -7.55 KCAL/MOL
REMARK 922        TOTAL FREE ENERGY PREDICTED BY IDOCK:  -11.02 KCAL/MOL
REMARK 923 INTER-LIGAND FREE ENERGY PREDICTED BY IDOCK:   -9.68 KCAL/MOL
REMARK 924 INTRA-LIGAND FREE ENERGY PREDICTED BY IDOCK:   -1.34 KCAL/MOL
REMARK 927      BINDING AFFINITY PREDICTED BY RF-SCORE:    0.00 PKD
ROOT
HETATM    1  F   UNL     1      -8.980   8.856  66.317  1.00  0.00    -0.145 F  
HETATM    2  C   UNL     1      -9.607   9.928  66.877  1.00  0.00    -0.179 C  
HETATM    3  F   UNL     1      -8.667  10.907  66.962  1.00  0.00    -0.135 F  
HETATM    4  F   UNL     1     -10.513  10.352  65.954  1.00  0.00    -0.305 F  
HETATM    5  C   UNL     1     -10.245   9.619  68.211  1.00  0.00    -0.216 A  
HETATM    6  C   UNL     1     -10.182   8.339  68.781  1.00  0.00    -0.226 A  
HETATM    7  C   UNL     1     -10.772   8.074  70.029  1.00  0.00    -0.244 A  
HETATM    8  C   UNL     1     -10.689   6.696  70.643  1.00  0.00    -0.241 C  
HETATM    9  C   UNL     1     -11.441   9.112  70.707  1.00  0.00    -0.337 A  
HETATM   10  C   UNL     1     -11.525  10.396  70.153  1.00  0.00    -0.396 A  
HETATM   11  F   UNL     1     -11.918   6.153  70.877  1.00  0.00    -0.365 F  
HETATM   12  F   UNL     1     -10.027   5.795  69.867  1.00  0.00    -0.190 F  
HETATM   13  F   UNL     1     -10.044   6.697  71.842  1.00  0.00    -0.182 F  
HETATM   14  C   UNL     1     -10.918  10.634  68.909  1.00  0.00    -0.296 A  
ENDROOT
BRANCH  10  15
HETATM   15  C   UNL     1     -12.209  11.495  70.835  1.00  0.00    -0.322 A  
HETATM   16  N   UNL     1     -12.042  12.798  70.569  1.00  0.00    -0.349 NA 
HETATM   17  N   UNL     1     -12.991  13.408  71.346  1.00  0.00    -0.349 NA 
HETATM   18  N   UNL     1     -13.090  11.245  71.849  1.00  0.00    -0.477 NA 
HETATM   19  C   UNL     1     -13.534  12.435  72.162  1.00  0.00    -0.378 A  
BRANCH  17  20
HETATM   20  C   UNL     1     -13.242  14.788  71.339  1.00  0.00    -0.371 C  
HETATM   21  C   UNL     1     -12.754  15.786  70.576  1.00  0.00    -0.277 C  
BRANCH  21  22
HETATM   22  C   UNL     1     -11.626  15.685  69.618  1.00  0.00    -0.356 C  
HETATM   23  N   UNL     1     -11.835  14.868  68.533  1.00  0.00    -0.475 N  
HETATM   24  O   UNL     1     -10.583  16.320  69.746  1.00  0.00    -0.308 OA 
HETATM   25  H   UNL     1     -12.729  14.405  68.362  1.00  0.00     0.000 HD 
BRANCH  23  26
HETATM   26  N   UNL     1     -10.727  14.713  67.668  1.00  0.00    -0.267 NA 
HETATM   27  H   UNL     1      -9.801  15.081  67.883  1.00  0.00     0.000 HD 
BRANCH  26  28
HETATM   28  C   UNL     1     -11.014  14.001  66.477  1.00  0.00    -0.306 A  
HETATM   29  N   UNL     1     -10.251  14.153  65.366  1.00  0.00    -0.348 NA 
HETATM   30  C   UNL     1     -10.675  13.480  64.264  1.00  0.00    -0.308 A  
HETATM   31  C   UNL     1     -11.816  12.695  64.248  1.00  0.00    -0.393 A  
HETATM   32  N   UNL     1     -12.595  12.539  65.337  1.00  0.00    -0.615 NA 
HETATM   33  C   UNL     1     -12.173  13.213  66.436  1.00  0.00    -0.329 A  
ENDBRANCH  26  28
ENDBRANCH  23  26
ENDBRANCH  21  22
ENDBRANCH  17  20
ENDBRANCH  10  15
TORSDOF 5
ENDMDL
MODEL       46
REMARK 921   NORMALIZED FREE ENERGY PREDICTED BY IDOCK:   -7.55 KCAL/MOL
REMARK 922        TOTAL FREE ENERGY PREDICTED BY IDOCK:  -11.02 KCAL/MOL
REMARK 923 INTER-LIGAND FREE ENERGY PREDICTED BY IDOCK:   -9.38 KCAL/MOL
REMARK 924 INTRA-LIGAND FREE ENERGY PREDICTED BY IDOCK:   -1.64 KCAL/MOL
REMARK 927      BINDING AFFINITY PREDICTED BY RF-SCORE:    0.00 PKD
ROOT
HETATM    1  F   UNL     1     -11.627  10.019  68.432  1.00  0.00    -0.228 F  
HETATM    2  C   UNL     1     -11.422  11.288  68.884  1.00  0.00    -0.297 C  
HETATM    3  F   UNL     1     -12.460  11.556  69.722  1.00  0.00    -0.299 F  
HETATM    4  F   UNL     1     -10.310  11.227  69.667  1.00  0.00    -0.174 F  
HETATM    5  C   UNL     1     -11.293  12.306  67.777  1.00  0.00    -0.362 A  
HETATM    6  C   UNL     1     -11.373  11.940  66.425  1.00  0.00    -0.400 A  
HETATM    7  C   UNL     1     -11.261  12.903  65.407  1.00  0.00    -0.314 A  
HETATM    8  C   UNL     1     -11.362  12.505  63.953  1.00  0.00    -0.438 C  
HETATM    9  C   UNL     1     -11.057  14.252  65.758  1.00  0.00    -0.310 A  
HETATM   10  C   UNL     1     -10.963  14.640  67.101  1.00  0.00    -0.316 A  
HETATM   11  F   UNL     1     -10.245  12.829  63.243  1.00  0.00    -0.296 F  
HETATM   12  F   UNL     1     -11.544  11.168  63.769  1.00  0.00    -0.387 F  
HETATM   13  F   UNL     1     -12.402  13.111  63.318  1.00  0.00    -0.579 F  
HETATM   14  C   UNL     1     -11.089  13.657  68.096  1.00  0.00    -0.281 A  
ENDROOT
BRANCH  10  15
HETATM   15  C   UNL     1     -10.756  16.033  67.497  1.00  0.00    -0.314 A  
HETATM   16  N   UNL     1     -10.656  17.073  66.657  1.00  0.00    -0.238 NA 
HETATM   17  N   UNL     1     -10.624  18.158  67.493  1.00  0.00    -0.413 NA 
HETATM   18  N   UNL     1     -10.627  16.370  68.815  1.00  0.00    -0.289 NA 
HETATM   19  C   UNL     1     -10.521  17.674  68.782  1.00  0.00    -0.287 A  
BRANCH  17  20
HETATM   20  C   UNL     1     -10.599  19.489  67.051  1.00  0.00    -0.492 C  
HETATM   21  C   UNL     1      -9.586  20.281  66.646  1.00  0.00    -0.522 C  
BRANCH  21  22
HETATM   22  C   UNL     1      -8.139  19.974  66.748  1.00  0.00    -0.317 C  
HETATM   23  N   UNL     1      -7.791  18.659  66.551  1.00  0.00    -0.259 N  
HETATM   24  O   UNL     1      -7.287  20.835  66.949  1.00  0.00    -0.300 OA 
HETATM   25  H   UNL     1      -8.475  17.947  66.292  1.00  0.00     0.000 HD 
BRANCH  23  26
HETATM   26  N   UNL     1      -6.420  18.360  66.731  1.00  0.00    -0.180 NA 
HETATM   27  H   UNL     1      -5.673  18.924  66.327  1.00  0.00     0.000 HD 
BRANCH  26  28
HETATM   28  C   UNL     1      -6.176  17.210  67.521  1.00  0.00    -0.145 A  
HETATM   29  N   UNL     1      -5.447  16.171  67.042  1.00  0.00    -0.345 NA 
HETATM   30  C   UNL     1      -5.350  15.092  67.862  1.00  0.00    -0.096 A  
HETATM   31  C   UNL     1      -5.959  15.028  69.105  1.00  0.00    -0.098 A  
HETATM   32  N   UNL     1      -6.696  16.044  69.596  1.00  0.00    -0.195 NA 
HETATM   33  C   UNL     1      -6.795  17.120  68.775  1.00  0.00    -0.209 A  
ENDBRANCH  26  28
ENDBRANCH  23  26
ENDBRANCH  21  22
ENDBRANCH  17  20
ENDBRANCH  10  15
TORSDOF 5
ENDMDL
MODEL       47
REMARK 921   NORMALIZED FREE ENERGY PREDICTED BY IDOCK:   -7.55 KCAL/MOL
REMARK 922        TOTAL FREE ENERGY PREDICTED BY IDOCK:  -11.02 KCAL/MOL
REMARK 923 INTER-LIGAND FREE ENERGY PREDICTED BY IDOCK:   -9.54 KCAL/MOL
REMARK 924 INTRA-LIGAND FREE ENERGY PREDICTED BY IDOCK:   -1.48 KCAL/MOL
REMARK 927      BINDING AFFINITY PREDICTED BY RF-SCORE:    0.00 PKD
ROOT
HETATM    1  F   UNL     1     -11.258   7.312  72.303  1.00  0.00    -0.240 F  
HETATM    2  C   UNL     1     -11.131   8.564  71.780  1.00  0.00    -0.307 C  
HETATM    3  F   UNL     1     -12.265   9.230  72.128  1.00  0.00    -0.419 F  
HETATM    4  F   UNL     1     -10.118   9.154  72.472  1.00  0.00    -0.258 F  
HETATM    5  C   UNL     1     -10.890   8.569  70.289  1.00  0.00    -0.249 A  
HETATM    6  C   UNL     1     -10.804   7.380  69.551  1.00  0.00    -0.201 A  
HETATM    7  C   UNL     1     -10.591   7.404  68.162  1.00  0.00    -0.216 A  
HETATM    8  C   UNL     1     -10.512   6.120  67.371  1.00  0.00    -0.247 C  
HETATM    9  C   UNL     1     -10.454   8.646  67.510  1.00  0.00    -0.335 A  
HETATM   10  C   UNL     1     -10.526   9.847  68.228  1.00  0.00    -0.246 A  
HETATM   11  F   UNL     1      -9.325   5.980  66.715  1.00  0.00    -0.124 F  
HETATM   12  F   UNL     1     -10.646   5.002  68.137  1.00  0.00    -0.178 F  
HETATM   13  F   UNL     1     -11.481   6.034  66.418  1.00  0.00    -0.219 F  
HETATM   14  C   UNL     1     -10.750   9.791  69.613  1.00  0.00    -0.264 A  
ENDROOT
BRANCH  10  15
HETATM   15  C   UNL     1     -10.393  11.151  67.579  1.00  0.00    -0.196 A  
HETATM   16  N   UNL     1      -9.664  12.178  68.040  1.00  0.00    -0.198 NA 
HETATM   17  N   UNL     1      -9.732  13.099  67.029  1.00  0.00    -0.234 NA 
HETATM   18  N   UNL     1     -11.053  11.419  66.413  1.00  0.00    -0.277 NA 
HETATM   19  C   UNL     1     -10.652  12.628  66.112  1.00  0.00    -0.258 A  
BRANCH  17  20
HETATM   20  C   UNL     1      -9.047  14.323  67.034  1.00  0.00    -0.233 C  
HETATM   21  C   UNL     1      -9.358  15.523  67.561  1.00  0.00    -0.207 C  
BRANCH  21  22
HETATM   22  C   UNL     1     -10.665  15.912  68.144  1.00  0.00    -0.302 C  
HETATM   23  N   UNL     1     -11.317  14.934  68.857  1.00  0.00    -0.268 N  
HETATM   24  O   UNL     1     -11.129  17.044  68.045  1.00  0.00    -0.324 OA 
HETATM   25  H   UNL     1     -10.903  14.017  69.027  1.00  0.00     0.000 HD 
BRANCH  23  26
HETATM   26  N   UNL     1     -12.599  15.287  69.340  1.00  0.00    -0.599 NA 
HETATM   27  H   UNL     1     -13.382  15.500  68.724  1.00  0.00     0.000 HD 
BRANCH  26  28
HETATM   28  C   UNL     1     -12.699  15.318  70.752  1.00  0.00    -0.433 A  
HETATM   29  N   UNL     1     -11.940  16.164  71.492  1.00  0.00    -0.461 NA 
HETATM   30  C   UNL     1     -12.067  16.044  72.840  1.00  0.00    -0.520 A  
HETATM   31  C   UNL     1     -12.901  15.116  73.442  1.00  0.00    -0.537 A  
HETATM   32  N   UNL     1     -13.656  14.259  72.727  1.00  0.00    -0.637 NA 
HETATM   33  C   UNL     1     -13.526  14.377  71.381  1.00  0.00    -0.351 A  
ENDBRANCH  26  28
ENDBRANCH  23  26
ENDBRANCH  21  22
ENDBRANCH  17  20
ENDBRANCH  10  15
TORSDOF 5
ENDMDL
MODEL       48
REMARK 921   NORMALIZED FREE ENERGY PREDICTED BY IDOCK:   -7.54 KCAL/MOL
REMARK 922        TOTAL FREE ENERGY PREDICTED BY IDOCK:  -11.00 KCAL/MOL
REMARK 923 INTER-LIGAND FREE ENERGY PREDICTED BY IDOCK:   -9.51 KCAL/MOL
REMARK 924 INTRA-LIGAND FREE ENERGY PREDICTED BY IDOCK:   -1.49 KCAL/MOL
REMARK 927      BINDING AFFINITY PREDICTED BY RF-SCORE:    0.00 PKD
ROOT
HETATM    1  F   UNL     1      -8.809  17.879  65.952  1.00  0.00    -0.192 F  
HETATM    2  C   UNL     1      -8.313  16.789  66.601  1.00  0.00    -0.261 C  
HETATM    3  F   UNL     1      -7.024  16.663  66.183  1.00  0.00    -0.230 F  
HETATM    4  F   UNL     1      -8.252  17.135  67.916  1.00  0.00    -0.188 F  
HETATM    5  C   UNL     1      -9.121  15.534  66.371  1.00  0.00    -0.351 A  
HETATM    6  C   UNL     1     -10.271  15.534  65.568  1.00  0.00    -0.415 A  
HETATM    7  C   UNL     1     -11.005  14.355  65.356  1.00  0.00    -0.343 A  
HETATM    8  C   UNL     1     -12.236  14.358  64.480  1.00  0.00    -0.463 C  
HETATM    9  C   UNL     1     -10.578  13.160  65.970  1.00  0.00    -0.291 A  
HETATM   10  C   UNL     1      -9.439  13.138  66.785  1.00  0.00    -0.252 A  
HETATM   11  F   UNL     1     -13.354  13.951  65.145  1.00  0.00    -0.338 F  
HETATM   12  F   UNL     1     -12.533  15.585  63.969  1.00  0.00    -0.453 F  
HETATM   13  F   UNL     1     -12.114  13.530  63.406  1.00  0.00    -0.527 F  
HETATM   14  C   UNL     1      -8.720  14.330  66.970  1.00  0.00    -0.231 A  
ENDROOT
BRANCH  10  15
HETATM   15  C   UNL     1      -8.967  11.914  67.432  1.00  0.00    -0.173 A  
HETATM   16  N   UNL     1      -9.033  11.654  68.745  1.00  0.00    -0.074 NA 
HETATM   17  N   UNL     1      -8.617  10.352  68.835  1.00  0.00    -0.140 NA 
HETATM   18  N   UNL     1      -8.385  10.919  66.698  1.00  0.00    -0.138 NA 
HETATM   19  C   UNL     1      -8.156   9.986  67.586  1.00  0.00    -0.110 A  
BRANCH  17  20
HETATM   20  C   UNL     1      -8.594   9.616  70.030  1.00  0.00    -0.215 C  
HETATM   21  C   UNL     1      -9.580   9.217  70.857  1.00  0.00    -0.339 C  
BRANCH  21  22
HETATM   22  C   UNL     1     -10.999   9.641  70.798  1.00  0.00    -0.327 C  
HETATM   23  N   UNL     1     -11.215  10.981  70.578  1.00  0.00    -0.407 N  
HETATM   24  O   UNL     1     -11.936   8.853  70.890  1.00  0.00    -0.282 OA 
HETATM   25  H   UNL     1     -10.450  11.635  70.407  1.00  0.00     0.000 HD 
BRANCH  23  26
HETATM   26  N   UNL     1     -12.568  11.391  70.604  1.00  0.00    -0.298 NA 
HETATM   27  H   UNL     1     -13.337  10.781  70.328  1.00  0.00     0.000 HD 
BRANCH  26  28
HETATM   28  C   UNL     1     -12.764  12.722  71.048  1.00  0.00    -0.243 A  
HETATM   29  N   UNL     1     -12.208  13.770  70.391  1.00  0.00    -0.346 NA 
HETATM   30  C   UNL     1     -12.399  14.990  70.959  1.00  0.00    -0.332 A  
HETATM   31  C   UNL     1     -13.102  15.174  72.140  1.00  0.00    -0.363 A  
HETATM   32  N   UNL     1     -13.652  14.145  72.815  1.00  0.00    -0.663 NA 
HETATM   33  C   UNL     1     -13.458  12.927  72.248  1.00  0.00    -0.531 A  
ENDBRANCH  26  28
ENDBRANCH  23  26
ENDBRANCH  21  22
ENDBRANCH  17  20
ENDBRANCH  10  15
TORSDOF 5
ENDMDL
MODEL       49
REMARK 921   NORMALIZED FREE ENERGY PREDICTED BY IDOCK:   -7.52 KCAL/MOL
REMARK 922        TOTAL FREE ENERGY PREDICTED BY IDOCK:  -10.99 KCAL/MOL
REMARK 923 INTER-LIGAND FREE ENERGY PREDICTED BY IDOCK:   -9.59 KCAL/MOL
REMARK 924 INTRA-LIGAND FREE ENERGY PREDICTED BY IDOCK:   -1.40 KCAL/MOL
REMARK 927      BINDING AFFINITY PREDICTED BY RF-SCORE:    0.00 PKD
ROOT
HETATM    1  F   UNL     1     -11.916  13.228  63.357  1.00  0.00    -0.528 F  
HETATM    2  C   UNL     1     -12.037  12.322  64.369  1.00  0.00    -0.399 C  
HETATM    3  F   UNL     1     -13.319  11.870  64.311  1.00  0.00    -0.442 F  
HETATM    4  F   UNL     1     -11.248  11.269  64.020  1.00  0.00    -0.433 F  
HETATM    5  C   UNL     1     -11.682  12.885  65.724  1.00  0.00    -0.437 A  
HETATM    6  C   UNL     1     -11.264  14.215  65.885  1.00  0.00    -0.313 A  
HETATM    7  C   UNL     1     -10.948  14.724  67.155  1.00  0.00    -0.320 A  
HETATM    8  C   UNL     1     -10.511  16.161  67.323  1.00  0.00    -0.309 C  
HETATM    9  C   UNL     1     -11.047  13.880  68.279  1.00  0.00    -0.280 A  
HETATM   10  C   UNL     1     -11.453  12.546  68.141  1.00  0.00    -0.368 A  
HETATM   11  F   UNL     1      -9.273  16.269  67.885  1.00  0.00    -0.195 F  
HETATM   12  F   UNL     1     -10.447  16.849  66.150  1.00  0.00    -0.307 F  
HETATM   13  F   UNL     1     -11.351  16.872  68.124  1.00  0.00    -0.349 F  
HETATM   14  C   UNL     1     -11.772  12.067  66.860  1.00  0.00    -0.342 A  
ENDROOT
BRANCH  10  15
HETATM   15  C   UNL     1     -11.570  11.645  69.289  1.00  0.00    -0.320 A  
HETATM   16  N   UNL     1     -10.722  10.651  69.586  1.00  0.00    -0.252 NA 
HETATM   17  N   UNL     1     -11.161  10.209  70.805  1.00  0.00    -0.330 NA 
HETATM   18  N   UNL     1     -12.617  11.760  70.160  1.00  0.00    -0.066 NA 
HETATM   19  C   UNL     1     -12.356  10.851  71.064  1.00  0.00    -0.393 A  
BRANCH  17  20
HETATM   20  C   UNL     1     -10.522   9.209  71.555  1.00  0.00    -0.352 C  
HETATM   21  C   UNL     1     -10.292   7.906  71.301  1.00  0.00    -0.222 C  
BRANCH  21  22
HETATM   22  C   UNL     1     -10.851   7.121  70.175  1.00  0.00    -0.257 C  
HETATM   23  N   UNL     1     -10.623   7.631  68.918  1.00  0.00    -0.319 N  
HETATM   24  O   UNL     1     -11.443   6.057  70.332  1.00  0.00    -0.317 OA 
HETATM   25  H   UNL     1     -10.055   8.464  68.763  1.00  0.00     0.000 HD 
BRANCH  23  26
HETATM   26  N   UNL     1     -11.230   6.921  67.856  1.00  0.00    -0.558 NA 
HETATM   27  H   UNL     1     -12.241   6.837  67.752  1.00  0.00     0.000 HD 
BRANCH  26  28
HETATM   28  C   UNL     1     -10.312   6.336  66.949  1.00  0.00    -0.244 A  
HETATM   29  N   UNL     1      -9.199   7.001  66.550  1.00  0.00    -0.162 NA 
HETATM   30  C   UNL     1      -8.439   6.370  65.617  1.00  0.00    -0.146 A  
HETATM   31  C   UNL     1      -8.767   5.135  65.082  1.00  0.00    -0.151 A  
HETATM   32  N   UNL     1      -9.874   4.463  65.455  1.00  0.00    -0.199 NA 
HETATM   33  C   UNL     1     -10.634   5.094  66.385  1.00  0.00    -0.276 A  
ENDBRANCH  26  28
ENDBRANCH  23  26
ENDBRANCH  21  22
ENDBRANCH  17  20
ENDBRANCH  10  15
TORSDOF 5
ENDMDL
MODEL       50
REMARK 921   NORMALIZED FREE ENERGY PREDICTED BY IDOCK:   -7.51 KCAL/MOL
REMARK 922        TOTAL FREE ENERGY PREDICTED BY IDOCK:  -10.96 KCAL/MOL
REMARK 923 INTER-LIGAND FREE ENERGY PREDICTED BY IDOCK:   -9.72 KCAL/MOL
REMARK 924 INTRA-LIGAND FREE ENERGY PREDICTED BY IDOCK:   -1.24 KCAL/MOL
REMARK 927      BINDING AFFINITY PREDICTED BY RF-SCORE:    0.00 PKD
ROOT
HETATM    1  F   UNL     1     -13.993   8.971  73.108  1.00  0.00    -0.377 F  
HETATM    2  C   UNL     1     -13.096   8.624  72.143  1.00  0.00    -0.383 C  
HETATM    3  F   UNL     1     -12.115   7.928  72.780  1.00  0.00    -0.345 F  
HETATM    4  F   UNL     1     -13.738   7.727  71.346  1.00  0.00    -0.368 F  
HETATM    5  C   UNL     1     -12.561   9.804  71.369  1.00  0.00    -0.482 A  
HETATM    6  C   UNL     1     -12.976  11.116  71.641  1.00  0.00    -0.548 A  
HETATM    7  C   UNL     1     -12.459  12.203  70.917  1.00  0.00    -0.374 A  
HETATM    8  C   UNL     1     -12.901  13.615  71.225  1.00  0.00    -0.344 C  
HETATM    9  C   UNL     1     -11.514  11.964  69.900  1.00  0.00    -0.264 A  
HETATM   10  C   UNL     1     -11.091  10.662  69.603  1.00  0.00    -0.342 A  
HETATM   11  F   UNL     1     -13.464  14.233  70.148  1.00  0.00    -0.095 F  
HETATM   12  F   UNL     1     -13.827  13.688  72.220  1.00  0.00    -0.492 F  
HETATM   13  F   UNL     1     -11.870  14.411  71.619  1.00  0.00    -0.374 F  
HETATM   14  C   UNL     1     -11.619   9.596  70.350  1.00  0.00    -0.299 A  
ENDROOT
BRANCH  10  15
HETATM   15  C   UNL     1     -10.109  10.382  68.556  1.00  0.00    -0.171 A  
HETATM   16  N   UNL     1     -10.220   9.426  67.622  1.00  0.00    -0.212 NA 
HETATM   17  N   UNL     1      -9.149   9.657  66.800  1.00  0.00    -0.144 NA 
HETATM   18  N   UNL     1      -8.951  11.103  68.476  1.00  0.00    -0.164 NA 
HETATM   19  C   UNL     1      -8.369  10.621  67.408  1.00  0.00    -0.119 A  
BRANCH  17  20
HETATM   20  C   UNL     1      -8.894   8.938  65.622  1.00  0.00    -0.191 C  
HETATM   21  C   UNL     1      -8.957   9.292  64.323  1.00  0.00    -0.142 C  
BRANCH  21  22
HETATM   22  C   UNL     1      -9.521  10.553  63.785  1.00  0.00    -0.298 C  
HETATM   23  N   UNL     1      -9.487  11.634  64.634  1.00  0.00    -0.414 N  
HETATM   24  O   UNL     1      -9.953  10.657  62.641  1.00  0.00    -0.215 OA 
HETATM   25  H   UNL     1      -9.049  11.590  65.555  1.00  0.00     0.000 HD 
BRANCH  23  26
HETATM   26  N   UNL     1     -10.101  12.811  64.145  1.00  0.00    -0.599 NA 
HETATM   27  H   UNL     1     -10.133  13.047  63.154  1.00  0.00     0.000 HD 
BRANCH  26  28
HETATM   28  C   UNL     1     -10.668  13.632  65.150  1.00  0.00    -0.353 A  
HETATM   29  N   UNL     1     -10.232  14.900  65.350  1.00  0.00    -0.363 NA 
HETATM   30  C   UNL     1     -10.796  15.560  66.396  1.00  0.00    -0.277 A  
HETATM   31  C   UNL     1     -11.747  14.989  67.227  1.00  0.00    -0.223 A  
HETATM   32  N   UNL     1     -12.186  13.727  67.053  1.00  0.00    -0.386 NA 
HETATM   33  C   UNL     1     -11.620  13.068  66.011  1.00  0.00    -0.365 A  
ENDBRANCH  26  28
ENDBRANCH  23  26
ENDBRANCH  21  22
ENDBRANCH  17  20
ENDBRANCH  10  15
TORSDOF 5
ENDMDL
MODEL       51
REMARK 921   NORMALIZED FREE ENERGY PREDICTED BY IDOCK:   -7.51 KCAL/MOL
REMARK 922        TOTAL FREE ENERGY PREDICTED BY IDOCK:  -10.96 KCAL/MOL
REMARK 923 INTER-LIGAND FREE ENERGY PREDICTED BY IDOCK:   -9.58 KCAL/MOL
REMARK 924 INTRA-LIGAND FREE ENERGY PREDICTED BY IDOCK:   -1.39 KCAL/MOL
REMARK 927      BINDING AFFINITY PREDICTED BY RF-SCORE:    0.00 PKD
ROOT
HETATM    1  F   UNL     1     -11.572  14.721  65.301  1.00  0.00    -0.337 F  
HETATM    2  C   UNL     1     -11.667  13.857  66.351  1.00  0.00    -0.383 C  
HETATM    3  F   UNL     1     -11.136  14.510  67.420  1.00  0.00    -0.280 F  
HETATM    4  F   UNL     1     -12.998  13.730  66.607  1.00  0.00    -0.236 F  
HETATM    5  C   UNL     1     -11.000  12.527  66.094  1.00  0.00    -0.318 A  
HETATM    6  C   UNL     1     -10.361  12.243  64.878  1.00  0.00    -0.319 A  
HETATM    7  C   UNL     1      -9.736  11.003  64.662  1.00  0.00    -0.315 A  
HETATM    8  C   UNL     1      -9.039  10.709  63.354  1.00  0.00    -0.241 C  
HETATM    9  C   UNL     1      -9.763  10.033  65.683  1.00  0.00    -0.336 A  
HETATM   10  C   UNL     1     -10.403  10.290  66.902  1.00  0.00    -0.298 A  
HETATM   11  F   UNL     1      -9.559   9.622  62.716  1.00  0.00    -0.274 F  
HETATM   12  F   UNL     1      -9.109  11.733  62.460  1.00  0.00    -0.330 F  
HETATM   13  F   UNL     1      -7.712  10.451  63.517  1.00  0.00    -0.149 F  
HETATM   14  C   UNL     1     -11.011  11.541  67.094  1.00  0.00    -0.338 A  
ENDROOT
BRANCH  10  15
HETATM   15  C   UNL     1     -10.443   9.305  67.983  1.00  0.00    -0.223 A  
HETATM   16  N   UNL     1     -10.390   9.586  69.293  1.00  0.00    -0.200 NA 
HETATM   17  N   UNL     1     -10.612   8.373  69.890  1.00  0.00    -0.227 NA 
HETATM   18  N   UNL     1     -10.523   7.969  67.705  1.00  0.00    -0.228 NA 
HETATM   19  C   UNL     1     -10.597   7.420  68.891  1.00  0.00    -0.176 A  
BRANCH  17  20
HETATM   20  C   UNL     1     -10.721   8.189  71.277  1.00  0.00    -0.227 C  
HETATM   21  C   UNL     1     -11.662   8.572  72.161  1.00  0.00    -0.448 C  
BRANCH  21  22
HETATM   22  C   UNL     1     -12.791   9.496  71.895  1.00  0.00    -0.420 C  
HETATM   23  N   UNL     1     -12.445  10.785  71.566  1.00  0.00    -0.364 N  
HETATM   24  O   UNL     1     -13.966   9.138  71.917  1.00  0.00    -0.386 OA 
HETATM   25  H   UNL     1     -11.473  11.076  71.454  1.00  0.00     0.000 HD 
BRANCH  23  26
HETATM   26  N   UNL     1     -13.527  11.680  71.395  1.00  0.00     0.098 NA 
HETATM   27  H   UNL     1     -14.460  11.374  71.123  1.00  0.00     0.000 HD 
BRANCH  26  28
HETATM   28  C   UNL     1     -13.201  13.038  71.633  1.00  0.00    -0.336 A  
HETATM   29  N   UNL     1     -13.837  13.754  72.592  1.00  0.00    -0.740 NA 
HETATM   30  C   UNL     1     -13.495  15.067  72.671  1.00  0.00    -0.460 A  
HETATM   31  C   UNL     1     -12.569  15.661  71.827  1.00  0.00    -0.442 A  
HETATM   32  N   UNL     1     -11.934  14.970  70.860  1.00  0.00    -0.295 NA 
HETATM   33  C   UNL     1     -12.278  13.660  70.781  1.00  0.00    -0.347 A  
ENDBRANCH  26  28
ENDBRANCH  23  26
ENDBRANCH  21  22
ENDBRANCH  17  20
ENDBRANCH  10  15
TORSDOF 5
ENDMDL
MODEL       52
REMARK 921   NORMALIZED FREE ENERGY PREDICTED BY IDOCK:   -7.50 KCAL/MOL
REMARK 922        TOTAL FREE ENERGY PREDICTED BY IDOCK:  -10.95 KCAL/MOL
REMARK 923 INTER-LIGAND FREE ENERGY PREDICTED BY IDOCK:   -9.55 KCAL/MOL
REMARK 924 INTRA-LIGAND FREE ENERGY PREDICTED BY IDOCK:   -1.40 KCAL/MOL
REMARK 927      BINDING AFFINITY PREDICTED BY RF-SCORE:    0.00 PKD
ROOT
HETATM    1  F   UNL     1     -10.389  18.761  69.196  1.00  0.00    -0.391 F  
HETATM    2  C   UNL     1     -10.175  17.801  68.253  1.00  0.00    -0.382 C  
HETATM    3  F   UNL     1     -10.618  18.327  67.079  1.00  0.00    -0.368 F  
HETATM    4  F   UNL     1      -8.824  17.693  68.133  1.00  0.00    -0.239 F  
HETATM    5  C   UNL     1     -10.832  16.481  68.581  1.00  0.00    -0.345 A  
HETATM    6  C   UNL     1     -11.576  16.298  69.756  1.00  0.00    -0.140 A  
HETATM    7  C   UNL     1     -12.189  15.066  70.040  1.00  0.00    -0.373 A  
HETATM    8  C   UNL     1     -12.999  14.880  71.301  1.00  0.00    -0.363 C  
HETATM    9  C   UNL     1     -12.044  14.001  69.129  1.00  0.00    -0.375 A  
HETATM   10  C   UNL     1     -11.298  14.157  67.953  1.00  0.00    -0.318 A  
HETATM   11  F   UNL     1     -12.516  13.880  72.091  1.00  0.00    -0.352 F  
HETATM   12  F   UNL     1     -13.037  15.990  72.089  1.00  0.00    -0.489 F  
HETATM   13  F   UNL     1     -14.298  14.564  71.045  1.00  0.00    -0.387 F  
HETATM   14  C   UNL     1     -10.705  15.403  67.692  1.00  0.00    -0.292 A  
ENDROOT
BRANCH  10  15
HETATM   15  C   UNL     1     -11.133  13.071  66.986  1.00  0.00    -0.281 A  
HETATM   16  N   UNL     1     -10.048  12.293  66.870  1.00  0.00    -0.209 NA 
HETATM   17  N   UNL     1     -10.427  11.351  65.951  1.00  0.00    -0.252 NA 
HETATM   18  N   UNL     1     -12.120  12.786  66.086  1.00  0.00    -0.528 NA 
HETATM   19  C   UNL     1     -11.651  11.745  65.446  1.00  0.00    -0.125 A  
BRANCH  17  20
HETATM   20  C   UNL     1      -9.627  10.265  65.563  1.00  0.00    -0.242 C  
HETATM   21  C   UNL     1      -9.639   8.967  65.926  1.00  0.00    -0.317 C  
BRANCH  21  22
HETATM   22  C   UNL     1     -10.434   8.372  67.027  1.00  0.00    -0.305 C  
HETATM   23  N   UNL     1     -10.669   9.192  68.106  1.00  0.00    -0.415 N  
HETATM   24  O   UNL     1     -10.900   7.238  66.976  1.00  0.00    -0.357 OA 
HETATM   25  H   UNL     1     -10.368  10.166  68.125  1.00  0.00     0.000 HD 
BRANCH  23  26
HETATM   26  N   UNL     1     -11.356   8.591  69.186  1.00  0.00    -0.225 NA 
HETATM   27  H   UNL     1     -12.300   8.216  69.102  1.00  0.00     0.000 HD 
BRANCH  26  28
HETATM   28  C   UNL     1     -10.619   8.555  70.396  1.00  0.00    -0.223 A  
HETATM   29  N   UNL     1      -9.269   8.682  70.399  1.00  0.00    -0.162 NA 
HETATM   30  C   UNL     1      -8.669   8.550  71.611  1.00  0.00    -0.199 A  
HETATM   31  C   UNL     1      -9.368   8.290  72.779  1.00  0.00    -0.268 A  
HETATM   32  N   UNL     1     -10.708   8.149  72.796  1.00  0.00    -0.354 NA 
HETATM   33  C   UNL     1     -11.307   8.278  71.585  1.00  0.00    -0.272 A  
ENDBRANCH  26  28
ENDBRANCH  23  26
ENDBRANCH  21  22
ENDBRANCH  17  20
ENDBRANCH  10  15
TORSDOF 5
ENDMDL
MODEL       53
REMARK 921   NORMALIZED FREE ENERGY PREDICTED BY IDOCK:   -7.46 KCAL/MOL
REMARK 922        TOTAL FREE ENERGY PREDICTED BY IDOCK:  -10.91 KCAL/MOL
REMARK 923 INTER-LIGAND FREE ENERGY PREDICTED BY IDOCK:   -9.44 KCAL/MOL
REMARK 924 INTRA-LIGAND FREE ENERGY PREDICTED BY IDOCK:   -1.47 KCAL/MOL
REMARK 927      BINDING AFFINITY PREDICTED BY RF-SCORE:    0.00 PKD
ROOT
HETATM    1  F   UNL     1      -8.349  10.130  62.557  1.00  0.00    -0.126 F  
HETATM    2  C   UNL     1      -8.300   9.594  63.809  1.00  0.00    -0.173 C  
HETATM    3  F   UNL     1      -8.527   8.262  63.653  1.00  0.00    -0.156 F  
HETATM    4  F   UNL     1      -7.006   9.713  64.213  1.00  0.00    -0.097 F  
HETATM    5  C   UNL     1      -9.267  10.237  64.774  1.00  0.00    -0.287 A  
HETATM    6  C   UNL     1     -10.112  11.286  64.385  1.00  0.00    -0.357 A  
HETATM    7  C   UNL     1     -11.013  11.865  65.294  1.00  0.00    -0.354 A  
HETATM    8  C   UNL     1     -11.930  12.987  64.864  1.00  0.00    -0.396 C  
HETATM    9  C   UNL     1     -11.058  11.384  66.618  1.00  0.00    -0.333 A  
HETATM   10  C   UNL     1     -10.217  10.343  67.033  1.00  0.00    -0.277 A  
HETATM   11  F   UNL     1     -11.748  14.121  65.598  1.00  0.00    -0.325 F  
HETATM   12  F   UNL     1     -11.763  13.355  63.564  1.00  0.00    -0.449 F  
HETATM   13  F   UNL     1     -13.246  12.663  64.991  1.00  0.00    -0.475 F  
HETATM   14  C   UNL     1      -9.333   9.778  66.099  1.00  0.00    -0.243 A  
ENDROOT
BRANCH  10  15
HETATM   15  C   UNL     1     -10.243   9.819  68.399  1.00  0.00    -0.185 A  
HETATM   16  N   UNL     1     -11.140   8.946  68.878  1.00  0.00     0.093 NA 
HETATM   17  N   UNL     1     -10.663   8.652  70.129  1.00  0.00    -0.232 NA 
HETATM   18  N   UNL     1      -9.317  10.224  69.318  1.00  0.00    -0.203 NA 
HETATM   19  C   UNL     1      -9.614   9.515  70.376  1.00  0.00    -0.269 A  
BRANCH  17  20
HETATM   20  C   UNL     1     -11.245   7.709  70.989  1.00  0.00    -0.267 C  
HETATM   21  C   UNL     1     -12.321   7.776  71.797  1.00  0.00    -0.346 C  
BRANCH  21  22
HETATM   22  C   UNL     1     -13.093   8.997  72.130  1.00  0.00    -0.435 C  
HETATM   23  N   UNL     1     -12.551  10.184  71.696  1.00  0.00    -0.411 N  
HETATM   24  O   UNL     1     -14.172   8.967  72.714  1.00  0.00    -0.557 OA 
HETATM   25  H   UNL     1     -11.703  10.221  71.130  1.00  0.00     0.000 HD 
BRANCH  23  26
HETATM   26  N   UNL     1     -13.250  11.350  72.088  1.00  0.00    -0.556 NA 
HETATM   27  H   UNL     1     -13.939  11.356  72.840  1.00  0.00     0.000 HD 
BRANCH  26  28
HETATM   28  C   UNL     1     -12.909  12.508  71.346  1.00  0.00    -0.260 A  
HETATM   29  N   UNL     1     -12.142  12.427  70.231  1.00  0.00    -0.341 NA 
HETATM   30  C   UNL     1     -11.816  13.613  69.653  1.00  0.00    -0.335 A  
HETATM   31  C   UNL     1     -12.219  14.839  70.160  1.00  0.00    -0.337 A  
HETATM   32  N   UNL     1     -12.972  14.942  71.273  1.00  0.00    -0.336 NA 
HETATM   33  C   UNL     1     -13.294  13.758  71.851  1.00  0.00    -0.414 A  
ENDBRANCH  26  28
ENDBRANCH  23  26
ENDBRANCH  21  22
ENDBRANCH  17  20
ENDBRANCH  10  15
TORSDOF 5
ENDMDL
MODEL       54
REMARK 921   NORMALIZED FREE ENERGY PREDICTED BY IDOCK:   -7.46 KCAL/MOL
REMARK 922        TOTAL FREE ENERGY PREDICTED BY IDOCK:  -10.91 KCAL/MOL
REMARK 923 INTER-LIGAND FREE ENERGY PREDICTED BY IDOCK:  -10.28 KCAL/MOL
REMARK 924 INTRA-LIGAND FREE ENERGY PREDICTED BY IDOCK:   -0.63 KCAL/MOL
REMARK 927      BINDING AFFINITY PREDICTED BY RF-SCORE:    0.00 PKD
ROOT
HETATM    1  F   UNL     1     -12.181  13.216  62.911  1.00  0.00    -0.589 F  
HETATM    2  C   UNL     1     -12.240  12.352  63.962  1.00  0.00    -0.490 C  
HETATM    3  F   UNL     1     -13.534  11.936  64.030  1.00  0.00    -0.453 F  
HETATM    4  F   UNL     1     -11.512  11.264  63.589  1.00  0.00    -0.471 F  
HETATM    5  C   UNL     1     -11.755  12.952  65.260  1.00  0.00    -0.399 A  
HETATM    6  C   UNL     1     -11.290  14.273  65.334  1.00  0.00    -0.329 A  
HETATM    7  C   UNL     1     -10.853  14.819  66.554  1.00  0.00    -0.319 A  
HETATM    8  C   UNL     1     -10.365  16.246  66.629  1.00  0.00    -0.302 C  
HETATM    9  C   UNL     1     -10.878  14.018  67.713  1.00  0.00    -0.257 A  
HETATM   10  C   UNL     1     -11.329  12.693  67.661  1.00  0.00    -0.362 A  
HETATM   11  F   UNL     1      -9.081  16.338  67.080  1.00  0.00    -0.196 F  
HETATM   12  F   UNL     1     -10.383  16.889  65.429  1.00  0.00    -0.307 F  
HETATM   13  F   UNL     1     -11.115  17.010  67.470  1.00  0.00    -0.291 F  
HETATM   14  C   UNL     1     -11.769  12.178  66.431  1.00  0.00    -0.394 A  
ENDROOT
BRANCH  10  15
HETATM   15  C   UNL     1     -11.372  11.838  68.848  1.00  0.00    -0.267 A  
HETATM   16  N   UNL     1     -12.276  11.923  69.834  1.00  0.00    -0.238 NA 
HETATM   17  N   UNL     1     -11.995  10.837  70.620  1.00  0.00    -0.339 NA 
HETATM   18  N   UNL     1     -10.432  10.864  69.039  1.00  0.00    -0.210 NA 
HETATM   19  C   UNL     1     -10.822  10.284  70.145  1.00  0.00    -0.302 A  
BRANCH  17  20
HETATM   20  C   UNL     1     -12.744  10.469  71.748  1.00  0.00    -0.402 C  
HETATM   21  C   UNL     1     -13.242   9.281  72.146  1.00  0.00    -0.535 C  
BRANCH  21  22
HETATM   22  C   UNL     1     -13.276   8.033  71.347  1.00  0.00    -0.227 C  
HETATM   23  N   UNL     1     -12.078   7.642  70.798  1.00  0.00    -0.484 N  
HETATM   24  O   UNL     1     -14.290   7.354  71.213  1.00  0.00    -0.421 OA 
HETATM   25  H   UNL     1     -11.207   8.144  70.975  1.00  0.00     0.000 HD 
BRANCH  23  26
HETATM   26  N   UNL     1     -12.135   6.497  69.970  1.00  0.00    -0.499 NA 
HETATM   27  H   UNL     1     -12.934   5.865  69.953  1.00  0.00     0.000 HD 
BRANCH  26  28
HETATM   28  C   UNL     1     -10.984   6.303  69.166  1.00  0.00    -0.377 A  
HETATM   29  N   UNL     1      -9.792   5.963  69.716  1.00  0.00    -0.161 NA 
HETATM   30  C   UNL     1      -8.745   5.886  68.853  1.00  0.00    -0.116 A  
HETATM   31  C   UNL     1      -8.861   6.146  67.497  1.00  0.00    -0.106 A  
HETATM   32  N   UNL     1     -10.034   6.497  66.931  1.00  0.00    -0.162 NA 
HETATM   33  C   UNL     1     -11.077   6.576  67.795  1.00  0.00    -0.270 A  
ENDBRANCH  26  28
ENDBRANCH  23  26
ENDBRANCH  21  22
ENDBRANCH  17  20
ENDBRANCH  10  15
TORSDOF 5
ENDMDL
MODEL       55
REMARK 921   NORMALIZED FREE ENERGY PREDICTED BY IDOCK:   -7.43 KCAL/MOL
REMARK 922        TOTAL FREE ENERGY PREDICTED BY IDOCK:  -10.86 KCAL/MOL
REMARK 923 INTER-LIGAND FREE ENERGY PREDICTED BY IDOCK:   -9.71 KCAL/MOL
REMARK 924 INTRA-LIGAND FREE ENERGY PREDICTED BY IDOCK:   -1.16 KCAL/MOL
REMARK 927      BINDING AFFINITY PREDICTED BY RF-SCORE:    0.00 PKD
ROOT
HETATM    1  F   UNL     1     -10.566  16.869  65.895  1.00  0.00    -0.334 F  
HETATM    2  C   UNL     1     -10.454  16.114  67.023  1.00  0.00    -0.306 C  
HETATM    3  F   UNL     1      -9.155  16.223  67.416  1.00  0.00    -0.190 F  
HETATM    4  F   UNL     1     -11.191  16.753  67.972  1.00  0.00    -0.353 F  
HETATM    5  C   UNL     1     -10.882  14.679  66.830  1.00  0.00    -0.312 A  
HETATM    6  C   UNL     1     -11.353  14.209  65.595  1.00  0.00    -0.319 A  
HETATM    7  C   UNL     1     -11.737  12.867  65.431  1.00  0.00    -0.413 A  
HETATM    8  C   UNL     1     -12.231  12.364  64.094  1.00  0.00    -0.468 C  
HETATM    9  C   UNL     1     -11.654  11.989  66.530  1.00  0.00    -0.384 A  
HETATM   10  C   UNL     1     -11.197  12.439  67.775  1.00  0.00    -0.327 A  
HETATM   11  F   UNL     1     -13.492  11.853  64.161  1.00  0.00    -0.430 F  
HETATM   12  F   UNL     1     -12.271  13.328  63.134  1.00  0.00    -0.613 F  
HETATM   13  F   UNL     1     -11.448  11.371  63.589  1.00  0.00    -0.477 F  
HETATM   14  C   UNL     1     -10.810  13.782  67.907  1.00  0.00    -0.257 A  
ENDROOT
BRANCH  10  15
HETATM   15  C   UNL     1     -11.094  11.550  68.934  1.00  0.00    -0.232 A  
HETATM   16  N   UNL     1     -12.079  11.294  69.806  1.00  0.00    -0.323 NA 
HETATM   17  N   UNL     1     -11.555  10.310  70.601  1.00  0.00    -0.323 NA 
HETATM   18  N   UNL     1      -9.920  10.912  69.220  1.00  0.00    -0.164 NA 
HETATM   19  C   UNL     1     -10.223  10.180  70.261  1.00  0.00    -0.120 A  
BRANCH  17  20
HETATM   20  C   UNL     1     -12.266   9.665  71.624  1.00  0.00    -0.402 C  
HETATM   21  C   UNL     1     -12.377   8.364  71.958  1.00  0.00    -0.413 C  
BRANCH  21  22
HETATM   22  C   UNL     1     -11.887   7.211  71.164  1.00  0.00    -0.325 C  
HETATM   23  N   UNL     1     -11.897   7.377  69.800  1.00  0.00    -0.337 N  
HETATM   24  O   UNL     1     -11.454   6.183  71.677  1.00  0.00    -0.286 OA 
HETATM   25  H   UNL     1     -12.167   8.257  69.360  1.00  0.00     0.000 HD 
BRANCH  23  26
HETATM   26  N   UNL     1     -11.507   6.244  69.047  1.00  0.00    -0.523 NA 
HETATM   27  H   UNL     1     -11.900   5.316  69.201  1.00  0.00     0.000 HD 
BRANCH  26  28
HETATM   28  C   UNL     1     -10.524   6.511  68.063  1.00  0.00    -0.216 A  
HETATM   29  N   UNL     1      -9.512   5.640  67.827  1.00  0.00    -0.113 NA 
HETATM   30  C   UNL     1      -8.587   6.044  66.917  1.00  0.00    -0.108 A  
HETATM   31  C   UNL     1      -8.645   7.268  66.270  1.00  0.00    -0.142 A  
HETATM   32  N   UNL     1      -9.635   8.153  66.498  1.00  0.00    -0.224 NA 
HETATM   33  C   UNL     1     -10.557   7.750  67.409  1.00  0.00    -0.275 A  
ENDBRANCH  26  28
ENDBRANCH  23  26
ENDBRANCH  21  22
ENDBRANCH  17  20
ENDBRANCH  10  15
TORSDOF 5
ENDMDL
MODEL       56
REMARK 921   NORMALIZED FREE ENERGY PREDICTED BY IDOCK:   -7.42 KCAL/MOL
REMARK 922        TOTAL FREE ENERGY PREDICTED BY IDOCK:  -10.86 KCAL/MOL
REMARK 923 INTER-LIGAND FREE ENERGY PREDICTED BY IDOCK:  -10.20 KCAL/MOL
REMARK 924 INTRA-LIGAND FREE ENERGY PREDICTED BY IDOCK:   -0.66 KCAL/MOL
REMARK 927      BINDING AFFINITY PREDICTED BY RF-SCORE:    0.00 PKD
ROOT
HETATM    1  F   UNL     1     -13.154  14.836  73.766  1.00  0.00    -0.551 F  
HETATM    2  C   UNL     1     -12.845  15.344  72.540  1.00  0.00    -0.397 C  
HETATM    3  F   UNL     1     -13.870  16.178  72.214  1.00  0.00    -0.430 F  
HETATM    4  F   UNL     1     -11.757  16.140  72.732  1.00  0.00    -0.515 F  
HETATM    5  C   UNL     1     -12.607  14.282  71.494  1.00  0.00    -0.432 A  
HETATM    6  C   UNL     1     -12.695  12.915  71.795  1.00  0.00    -0.250 A  
HETATM    7  C   UNL     1     -12.480  11.941  70.805  1.00  0.00    -0.384 A  
HETATM    8  C   UNL     1     -12.590  10.470  71.134  1.00  0.00    -0.417 C  
HETATM    9  C   UNL     1     -12.163  12.351  69.495  1.00  0.00    -0.145 A  
HETATM   10  C   UNL     1     -12.060  13.711  69.173  1.00  0.00    -0.361 A  
HETATM   11  F   UNL     1     -11.436   9.790  70.882  1.00  0.00    -0.319 F  
HETATM   12  F   UNL     1     -12.886  10.228  72.440  1.00  0.00    -0.446 F  
HETATM   13  F   UNL     1     -13.561   9.846  70.412  1.00  0.00    -0.263 F  
HETATM   14  C   UNL     1     -12.289  14.661  70.180  1.00  0.00    -0.390 A  
ENDROOT
BRANCH  10  15
HETATM   15  C   UNL     1     -11.737  14.168  67.821  1.00  0.00    -0.373 A  
HETATM   16  N   UNL     1     -12.222  13.642  66.687  1.00  0.00    -0.410 NA 
HETATM   17  N   UNL     1     -11.757  14.491  65.717  1.00  0.00    -0.358 NA 
HETATM   18  N   UNL     1     -10.862  15.199  67.625  1.00  0.00    -0.287 NA 
HETATM   19  C   UNL     1     -10.872  15.358  66.326  1.00  0.00    -0.301 A  
BRANCH  17  20
HETATM   20  C   UNL     1     -12.079  14.379  64.356  1.00  0.00    -0.470 C  
HETATM   21  C   UNL     1     -12.119  13.317  63.527  1.00  0.00    -0.550 C  
BRANCH  21  22
HETATM   22  C   UNL     1     -11.625  11.951  63.829  1.00  0.00    -0.462 C  
HETATM   23  N   UNL     1     -10.605  11.494  63.028  1.00  0.00    -0.674 N  
HETATM   24  O   UNL     1     -12.056  11.276  64.759  1.00  0.00     0.253 OA 
HETATM   25  H   UNL     1     -10.173  12.076  62.310  1.00  0.00     0.000 HD 
BRANCH  23  26
HETATM   26  N   UNL     1     -10.196  10.161  63.268  1.00  0.00    -0.366 NA 
HETATM   27  H   UNL     1     -10.782   9.355  63.052  1.00  0.00     0.000 HD 
BRANCH  26  28
HETATM   28  C   UNL     1      -8.903  10.043  63.834  1.00  0.00    -0.229 A  
HETATM   29  N   UNL     1      -8.668  10.381  65.126  1.00  0.00    -0.174 NA 
HETATM   30  C   UNL     1      -7.373  10.302  65.530  1.00  0.00    -0.149 A  
HETATM   31  C   UNL     1      -6.340   9.917  64.689  1.00  0.00    -0.117 A  
HETATM   32  N   UNL     1      -6.549   9.589  63.399  1.00  0.00    -0.099 NA 
HETATM   33  C   UNL     1      -7.842   9.671  62.996  1.00  0.00    -0.127 A  
ENDBRANCH  26  28
ENDBRANCH  23  26
ENDBRANCH  21  22
ENDBRANCH  17  20
ENDBRANCH  10  15
TORSDOF 5
ENDMDL
MODEL       57
REMARK 921   NORMALIZED FREE ENERGY PREDICTED BY IDOCK:   -7.40 KCAL/MOL
REMARK 922        TOTAL FREE ENERGY PREDICTED BY IDOCK:  -10.83 KCAL/MOL
REMARK 923 INTER-LIGAND FREE ENERGY PREDICTED BY IDOCK:  -10.01 KCAL/MOL
REMARK 924 INTRA-LIGAND FREE ENERGY PREDICTED BY IDOCK:   -0.81 KCAL/MOL
REMARK 927      BINDING AFFINITY PREDICTED BY RF-SCORE:    0.00 PKD
ROOT
HETATM    1  F   UNL     1      -9.949  21.133  67.265  1.00  0.00    -0.594 F  
HETATM    2  C   UNL     1     -10.365  19.961  66.708  1.00  0.00    -0.474 C  
HETATM    3  F   UNL     1     -11.645  19.781  67.132  1.00  0.00    -0.304 F  
HETATM    4  F   UNL     1     -10.439  20.193  65.369  1.00  0.00    -0.529 F  
HETATM    5  C   UNL     1      -9.474  18.788  67.041  1.00  0.00    -0.322 A  
HETATM    6  C   UNL     1      -8.333  18.932  67.844  1.00  0.00    -0.310 A  
HETATM    7  C   UNL     1      -7.521  17.828  68.152  1.00  0.00    -0.237 A  
HETATM    8  C   UNL     1      -6.300  17.988  69.028  1.00  0.00    -0.236 C  
HETATM    9  C   UNL     1      -7.861  16.561  67.638  1.00  0.00    -0.175 A  
HETATM   10  C   UNL     1      -8.991  16.394  66.826  1.00  0.00    -0.264 A  
HETATM   11  F   UNL     1      -5.152  17.605  68.400  1.00  0.00    -0.140 F  
HETATM   12  F   UNL     1      -6.091  19.269  69.437  1.00  0.00    -0.244 F  
HETATM   13  F   UNL     1      -6.373  17.243  70.166  1.00  0.00    -0.212 F  
HETATM   14  C   UNL     1      -9.788  17.514  66.543  1.00  0.00    -0.315 A  
ENDROOT
BRANCH  10  15
HETATM   15  C   UNL     1      -9.372  15.091  66.281  1.00  0.00    -0.307 A  
HETATM   16  N   UNL     1      -8.937  13.904  66.728  1.00  0.00    -0.222 NA 
HETATM   17  N   UNL     1      -9.680  13.001  66.014  1.00  0.00    -0.250 NA 
HETATM   18  N   UNL     1     -10.224  15.004  65.216  1.00  0.00    -0.377 NA 
HETATM   19  C   UNL     1     -10.374  13.714  65.056  1.00  0.00    -0.374 A  
BRANCH  17  20
HETATM   20  C   UNL     1      -9.620  11.612  66.202  1.00  0.00    -0.232 C  
HETATM   21  C   UNL     1     -10.286  10.791  67.037  1.00  0.00    -0.275 C  
BRANCH  21  22
HETATM   22  C   UNL     1     -11.167  11.204  68.156  1.00  0.00    -0.292 C  
HETATM   23  N   UNL     1     -10.538  11.449  69.353  1.00  0.00    -0.424 N  
HETATM   24  O   UNL     1     -12.377  11.368  68.027  1.00  0.00    -0.444 OA 
HETATM   25  H   UNL     1      -9.523  11.407  69.454  1.00  0.00     0.000 HD 
BRANCH  23  26
HETATM   26  N   UNL     1     -11.393  11.763  70.435  1.00  0.00    -0.378 NA 
HETATM   27  H   UNL     1     -11.692  12.714  70.647  1.00  0.00     0.000 HD 
BRANCH  26  28
HETATM   28  C   UNL     1     -11.799  10.641  71.199  1.00  0.00    -0.241 A  
HETATM   29  N   UNL     1     -10.946   9.616  71.449  1.00  0.00    -0.344 NA 
HETATM   30  C   UNL     1     -11.475   8.560  72.122  1.00  0.00    -0.376 A  
HETATM   31  C   UNL     1     -12.800   8.507  72.526  1.00  0.00    -0.255 A  
HETATM   32  N   UNL     1     -13.666   9.509  72.279  1.00  0.00    -0.422 NA 
HETATM   33  C   UNL     1     -13.138  10.561  71.604  1.00  0.00    -0.446 A  
ENDBRANCH  26  28
ENDBRANCH  23  26
ENDBRANCH  21  22
ENDBRANCH  17  20
ENDBRANCH  10  15
TORSDOF 5
ENDMDL
MODEL       58
REMARK 921   NORMALIZED FREE ENERGY PREDICTED BY IDOCK:   -7.37 KCAL/MOL
REMARK 922        TOTAL FREE ENERGY PREDICTED BY IDOCK:  -10.79 KCAL/MOL
REMARK 923 INTER-LIGAND FREE ENERGY PREDICTED BY IDOCK:   -9.02 KCAL/MOL
REMARK 924 INTRA-LIGAND FREE ENERGY PREDICTED BY IDOCK:   -1.77 KCAL/MOL
REMARK 927      BINDING AFFINITY PREDICTED BY RF-SCORE:    0.00 PKD
ROOT
HETATM    1  F   UNL     1     -10.508   9.101  66.817  1.00  0.00    -0.312 F  
HETATM    2  C   UNL     1      -9.574  10.027  67.173  1.00  0.00    -0.165 C  
HETATM    3  F   UNL     1      -9.499   9.977  68.530  1.00  0.00    -0.139 F  
HETATM    4  F   UNL     1      -8.385   9.550  66.711  1.00  0.00    -0.113 F  
HETATM    5  C   UNL     1      -9.878  11.414  66.660  1.00  0.00    -0.233 A  
HETATM    6  C   UNL     1     -11.018  11.682  65.888  1.00  0.00    -0.334 A  
HETATM    7  C   UNL     1     -11.290  12.982  65.428  1.00  0.00    -0.327 A  
HETATM    8  C   UNL     1     -12.527  13.266  64.608  1.00  0.00    -0.349 C  
HETATM    9  C   UNL     1     -10.396  14.024  65.744  1.00  0.00    -0.330 A  
HETATM   10  C   UNL     1      -9.246  13.778  66.505  1.00  0.00    -0.210 A  
HETATM   11  F   UNL     1     -12.234  13.787  63.382  1.00  0.00    -0.529 F  
HETATM   12  F   UNL     1     -13.286  12.161  64.370  1.00  0.00    -0.512 F  
HETATM   13  F   UNL     1     -13.357  14.162  65.209  1.00  0.00    -0.430 F  
HETATM   14  C   UNL     1      -9.005  12.471  66.959  1.00  0.00    -0.211 A  
ENDROOT
BRANCH  10  15
HETATM   15  C   UNL     1      -8.302  14.840  66.854  1.00  0.00    -0.151 A  
HETATM   16  N   UNL     1      -8.494  16.150  66.646  1.00  0.00    -0.250 NA 
HETATM   17  N   UNL     1      -7.422  16.734  67.267  1.00  0.00    -0.159 NA 
HETATM   18  N   UNL     1      -7.097  14.540  67.425  1.00  0.00    -0.178 NA 
HETATM   19  C   UNL     1      -6.567  15.716  67.643  1.00  0.00    -0.172 A  
BRANCH  17  20
HETATM   20  C   UNL     1      -7.237  18.120  67.376  1.00  0.00    -0.199 C  
HETATM   21  C   UNL     1      -7.963  19.077  67.987  1.00  0.00    -0.322 C  
BRANCH  21  22
HETATM   22  C   UNL     1      -9.313  18.911  68.576  1.00  0.00    -0.366 C  
HETATM   23  N   UNL     1      -9.694  17.617  68.843  1.00  0.00    -0.287 N  
HETATM   24  O   UNL     1     -10.041  19.859  68.857  1.00  0.00    -0.435 OA 
HETATM   25  H   UNL     1      -9.068  16.824  68.702  1.00  0.00     0.000 HD 
BRANCH  23  26
HETATM   26  N   UNL     1     -11.014  17.460  69.328  1.00  0.00    -0.198 NA 
HETATM   27  H   UNL     1     -11.665  18.239  69.422  1.00  0.00     0.000 HD 
BRANCH  26  28
HETATM   28  C   UNL     1     -11.353  16.128  69.671  1.00  0.00    -0.316 A  
HETATM   29  N   UNL     1     -11.576  15.192  68.715  1.00  0.00    -0.333 NA 
HETATM   30  C   UNL     1     -11.973  13.973  69.166  1.00  0.00    -0.360 A  
HETATM   31  C   UNL     1     -12.157  13.686  70.510  1.00  0.00    -0.339 A  
HETATM   32  N   UNL     1     -11.952  14.604  71.474  1.00  0.00    -0.351 NA 
HETATM   33  C   UNL     1     -11.558  15.822  71.023  1.00  0.00    -0.411 A  
ENDBRANCH  26  28
ENDBRANCH  23  26
ENDBRANCH  21  22
ENDBRANCH  17  20
ENDBRANCH  10  15
TORSDOF 5
ENDMDL
MODEL       59
REMARK 921   NORMALIZED FREE ENERGY PREDICTED BY IDOCK:   -7.35 KCAL/MOL
REMARK 922        TOTAL FREE ENERGY PREDICTED BY IDOCK:  -10.76 KCAL/MOL
REMARK 923 INTER-LIGAND FREE ENERGY PREDICTED BY IDOCK:   -9.81 KCAL/MOL
REMARK 924 INTRA-LIGAND FREE ENERGY PREDICTED BY IDOCK:   -0.95 KCAL/MOL
REMARK 927      BINDING AFFINITY PREDICTED BY RF-SCORE:    0.00 PKD
ROOT
HETATM    1  F   UNL     1     -11.569   9.594  68.339  1.00  0.00    -0.058 F  
HETATM    2  C   UNL     1     -11.432  10.853  68.842  1.00  0.00    -0.300 C  
HETATM    3  F   UNL     1     -12.532  11.068  69.614  1.00  0.00    -0.360 F  
HETATM    4  F   UNL     1     -10.374  10.798  69.697  1.00  0.00    -0.247 F  
HETATM    5  C   UNL     1     -11.257  11.909  67.776  1.00  0.00    -0.330 A  
HETATM    6  C   UNL     1     -11.235  11.584  66.412  1.00  0.00    -0.307 A  
HETATM    7  C   UNL     1     -11.082  12.582  65.434  1.00  0.00    -0.337 A  
HETATM    8  C   UNL     1     -11.073  12.227  63.965  1.00  0.00    -0.386 C  
HETATM    9  C   UNL     1     -10.941  13.924  65.838  1.00  0.00    -0.284 A  
HETATM   10  C   UNL     1     -10.950  14.271  67.195  1.00  0.00    -0.305 A  
HETATM   11  F   UNL     1      -9.920  12.603  63.343  1.00  0.00    -0.357 F  
HETATM   12  F   UNL     1     -11.203  10.892  63.729  1.00  0.00    -0.339 F  
HETATM   13  F   UNL     1     -12.084  12.825  63.278  1.00  0.00    -0.534 F  
HETATM   14  C   UNL     1     -11.114  13.254  68.149  1.00  0.00    -0.286 A  
ENDROOT
BRANCH  10  15
HETATM   15  C   UNL     1     -10.810  15.656  67.646  1.00  0.00    -0.307 A  
HETATM   16  N   UNL     1     -10.767  16.732  66.847  1.00  0.00    -0.205 NA 
HETATM   17  N   UNL     1     -10.784  17.783  67.725  1.00  0.00    -0.375 NA 
HETATM   18  N   UNL     1     -10.690  15.947  68.975  1.00  0.00    -0.235 NA 
HETATM   19  C   UNL     1     -10.649  17.255  68.994  1.00  0.00    -0.247 A  
BRANCH  17  20
HETATM   20  C   UNL     1     -10.828  19.131  67.337  1.00  0.00    -0.435 C  
HETATM   21  C   UNL     1      -9.860  19.986  66.953  1.00  0.00    -0.571 C  
BRANCH  21  22
HETATM   22  C   UNL     1      -8.399  19.745  67.027  1.00  0.00    -0.309 C  
HETATM   23  N   UNL     1      -7.979  18.921  68.043  1.00  0.00    -0.278 N  
HETATM   24  O   UNL     1      -7.604  20.208  66.213  1.00  0.00    -0.286 OA 
HETATM   25  H   UNL     1      -8.633  18.455  68.673  1.00  0.00     0.000 HD 
BRANCH  23  26
HETATM   26  N   UNL     1      -6.578  18.763  68.158  1.00  0.00    -0.219 NA 
HETATM   27  H   UNL     1      -5.995  18.423  67.394  1.00  0.00     0.000 HD 
BRANCH  26  28
HETATM   28  C   UNL     1      -6.055  19.118  69.426  1.00  0.00    -0.264 A  
HETATM   29  N   UNL     1      -5.754  18.173  70.350  1.00  0.00    -0.213 NA 
HETATM   30  C   UNL     1      -5.336  18.641  71.556  1.00  0.00    -0.204 A  
HETATM   31  C   UNL     1      -5.231  19.991  71.849  1.00  0.00    -0.357 A  
HETATM   32  N   UNL     1      -5.536  20.947  70.949  1.00  0.00    -0.552 NA 
HETATM   33  C   UNL     1      -5.955  20.479  69.746  1.00  0.00    -0.317 A  
ENDBRANCH  26  28
ENDBRANCH  23  26
ENDBRANCH  21  22
ENDBRANCH  17  20
ENDBRANCH  10  15
TORSDOF 5
ENDMDL
MODEL       60
REMARK 921   NORMALIZED FREE ENERGY PREDICTED BY IDOCK:   -7.31 KCAL/MOL
REMARK 922        TOTAL FREE ENERGY PREDICTED BY IDOCK:  -10.71 KCAL/MOL
REMARK 923 INTER-LIGAND FREE ENERGY PREDICTED BY IDOCK:   -8.80 KCAL/MOL
REMARK 924 INTRA-LIGAND FREE ENERGY PREDICTED BY IDOCK:   -1.91 KCAL/MOL
REMARK 927      BINDING AFFINITY PREDICTED BY RF-SCORE:    0.00 PKD
ROOT
HETATM    1  F   UNL     1     -10.099  18.719  68.889  1.00  0.00    -0.387 F  
HETATM    2  C   UNL     1     -10.199  18.000  67.735  1.00  0.00    -0.378 C  
HETATM    3  F   UNL     1     -10.898  18.783  66.869  1.00  0.00    -0.433 F  
HETATM    4  F   UNL     1      -8.935  17.920  67.237  1.00  0.00    -0.239 F  
HETATM    5  C   UNL     1     -10.831  16.642  67.928  1.00  0.00    -0.321 A  
HETATM    6  C   UNL     1     -11.253  16.196  69.189  1.00  0.00    -0.336 A  
HETATM    7  C   UNL     1     -11.848  14.933  69.347  1.00  0.00    -0.356 A  
HETATM    8  C   UNL     1     -12.312  14.464  70.706  1.00  0.00    -0.347 C  
HETATM    9  C   UNL     1     -12.013  14.105  68.219  1.00  0.00    -0.367 A  
HETATM   10  C   UNL     1     -11.591  14.525  66.951  1.00  0.00    -0.399 A  
HETATM   11  F   UNL     1     -11.705  13.308  71.096  1.00  0.00    -0.189 F  
HETATM   12  F   UNL     1     -12.073  15.363  71.701  1.00  0.00    -0.311 F  
HETATM   13  F   UNL     1     -13.651  14.218  70.744  1.00  0.00    -0.362 F  
HETATM   14  C   UNL     1     -11.008  15.796  66.822  1.00  0.00    -0.192 A  
ENDROOT
BRANCH  10  15
HETATM   15  C   UNL     1     -11.753  13.691  65.760  1.00  0.00    -0.348 A  
HETATM   16  N   UNL     1     -10.768  13.325  64.928  1.00  0.00    -0.331 NA 
HETATM   17  N   UNL     1     -11.379  12.443  64.076  1.00  0.00    -0.365 NA 
HETATM   18  N   UNL     1     -12.986  13.226  65.398  1.00  0.00    -0.627 NA 
HETATM   19  C   UNL     1     -12.733  12.488  64.349  1.00  0.00    -0.358 A  
BRANCH  17  20
HETATM   20  C   UNL     1     -10.711  11.735  63.066  1.00  0.00    -0.101 C  
HETATM   21  C   UNL     1      -9.717  10.826  63.116  1.00  0.00    -0.394 C  
BRANCH  21  22
HETATM   22  C   UNL     1      -8.916  10.466  64.311  1.00  0.00    -0.226 C  
HETATM   23  N   UNL     1      -9.478  10.785  65.525  1.00  0.00    -0.197 N  
HETATM   24  O   UNL     1      -7.840   9.880  64.242  1.00  0.00    -0.128 OA 
HETATM   25  H   UNL     1     -10.411  11.190  65.604  1.00  0.00     0.000 HD 
BRANCH  23  26
HETATM   26  N   UNL     1      -8.673  10.514  66.656  1.00  0.00    -0.132 NA 
HETATM   27  H   UNL     1      -8.513   9.571  67.008  1.00  0.00     0.000 HD 
BRANCH  26  28
HETATM   28  C   UNL     1      -8.108  11.667  67.257  1.00  0.00    -0.160 A  
HETATM   29  N   UNL     1      -8.863  12.509  68.005  1.00  0.00    -0.181 NA 
HETATM   30  C   UNL     1      -8.228  13.621  68.460  1.00  0.00    -0.112 A  
HETATM   31  C   UNL     1      -6.900  13.904  68.179  1.00  0.00    -0.122 A  
HETATM   32  N   UNL     1      -6.136  13.086  67.428  1.00  0.00    -0.298 NA 
HETATM   33  C   UNL     1      -6.772  11.978  66.972  1.00  0.00    -0.099 A  
ENDBRANCH  26  28
ENDBRANCH  23  26
ENDBRANCH  21  22
ENDBRANCH  17  20
ENDBRANCH  10  15
TORSDOF 5
ENDMDL
MODEL       61
REMARK 921   NORMALIZED FREE ENERGY PREDICTED BY IDOCK:   -7.30 KCAL/MOL
REMARK 922        TOTAL FREE ENERGY PREDICTED BY IDOCK:  -10.70 KCAL/MOL
REMARK 923 INTER-LIGAND FREE ENERGY PREDICTED BY IDOCK:   -9.88 KCAL/MOL
REMARK 924 INTRA-LIGAND FREE ENERGY PREDICTED BY IDOCK:   -0.82 KCAL/MOL
REMARK 927      BINDING AFFINITY PREDICTED BY RF-SCORE:    0.00 PKD
ROOT
HETATM    1  F   UNL     1     -13.089  14.727  73.165  1.00  0.00    -0.462 F  
HETATM    2  C   UNL     1     -12.663  14.830  71.875  1.00  0.00    -0.328 C  
HETATM    3  F   UNL     1     -13.550  15.653  71.254  1.00  0.00    -0.527 F  
HETATM    4  F   UNL     1     -11.486  15.512  71.927  1.00  0.00    -0.394 F  
HETATM    5  C   UNL     1     -12.526  13.496  71.180  1.00  0.00    -0.424 A  
HETATM    6  C   UNL     1     -12.812  12.289  71.835  1.00  0.00    -0.318 A  
HETATM    7  C   UNL     1     -12.690  11.058  71.169  1.00  0.00    -0.521 A  
HETATM    8  C   UNL     1     -13.012   9.763  71.877  1.00  0.00    -0.440 C  
HETATM    9  C   UNL     1     -12.265  11.043  69.826  1.00  0.00    -0.388 A  
HETATM   10  C   UNL     1     -11.964  12.235  69.154  1.00  0.00    -0.303 A  
HETATM   11  F   UNL     1     -11.952   8.907  71.912  1.00  0.00    -0.346 F  
HETATM   12  F   UNL     1     -13.393   9.934  73.173  1.00  0.00     0.117 F  
HETATM   13  F   UNL     1     -14.027   9.080  71.279  1.00  0.00    -0.415 F  
HETATM   14  C   UNL     1     -12.105  13.451  69.842  1.00  0.00    -0.389 A  
ENDROOT
BRANCH  10  15
HETATM   15  C   UNL     1     -11.526  12.252  67.758  1.00  0.00    -0.329 A  
HETATM   16  N   UNL     1     -11.117  13.338  67.085  1.00  0.00    -0.279 NA 
HETATM   17  N   UNL     1     -10.676  12.828  65.893  1.00  0.00    -0.267 NA 
HETATM   18  N   UNL     1     -11.525  11.106  67.014  1.00  0.00    -0.439 NA 
HETATM   19  C   UNL     1     -11.026  11.492  65.868  1.00  0.00    -0.243 A  
BRANCH  17  20
HETATM   20  C   UNL     1     -10.080  13.598  64.882  1.00  0.00    -0.266 C  
HETATM   21  C   UNL     1      -9.906  14.927  64.753  1.00  0.00     0.315 C  
BRANCH  21  22
HETATM   22  C   UNL     1     -10.500  15.978  65.614  1.00  0.00    -0.397 C  
HETATM   23  N   UNL     1     -10.088  15.980  66.925  1.00  0.00    -0.259 N  
HETATM   24  O   UNL     1     -11.277  16.828  65.190  1.00  0.00    -0.216 OA 
HETATM   25  H   UNL     1      -9.374  15.339  67.273  1.00  0.00     0.000 HD 
BRANCH  23  26
HETATM   26  N   UNL     1     -10.721  16.931  67.759  1.00  0.00    -0.337 NA 
HETATM   27  H   UNL     1     -11.551  16.718  68.311  1.00  0.00     0.000 HD 
BRANCH  26  28
HETATM   28  C   UNL     1     -10.101  18.205  67.762  1.00  0.00    -0.362 A  
HETATM   29  N   UNL     1     -10.743  19.299  67.282  1.00  0.00    -0.478 NA 
HETATM   30  C   UNL     1     -10.016  20.447  67.263  1.00  0.00    -0.424 A  
HETATM   31  C   UNL     1      -8.698  20.517  67.687  1.00  0.00    -0.170 A  
HETATM   32  N   UNL     1      -8.038  19.439  68.156  1.00  0.00    -0.309 NA 
HETATM   33  C   UNL     1      -8.764  18.293  68.173  1.00  0.00    -0.281 A  
ENDBRANCH  26  28
ENDBRANCH  23  26
ENDBRANCH  21  22
ENDBRANCH  17  20
ENDBRANCH  10  15
TORSDOF 5
ENDMDL
MODEL       62
REMARK 921   NORMALIZED FREE ENERGY PREDICTED BY IDOCK:   -7.28 KCAL/MOL
REMARK 922        TOTAL FREE ENERGY PREDICTED BY IDOCK:  -10.68 KCAL/MOL
REMARK 923 INTER-LIGAND FREE ENERGY PREDICTED BY IDOCK:   -9.06 KCAL/MOL
REMARK 924 INTRA-LIGAND FREE ENERGY PREDICTED BY IDOCK:   -1.62 KCAL/MOL
REMARK 927      BINDING AFFINITY PREDICTED BY RF-SCORE:    0.00 PKD
ROOT
HETATM    1  F   UNL     1      -9.969  16.945  65.534  1.00  0.00    -0.262 F  
HETATM    2  C   UNL     1      -9.377  16.051  66.376  1.00  0.00    -0.298 C  
HETATM    3  F   UNL     1      -8.038  16.266  66.264  1.00  0.00    -0.294 F  
HETATM    4  F   UNL     1      -9.719  16.444  67.634  1.00  0.00    -0.229 F  
HETATM    5  C   UNL     1      -9.759  14.618  66.095  1.00  0.00    -0.344 A  
HETATM    6  C   UNL     1     -10.648  14.280  65.064  1.00  0.00    -0.444 A  
HETATM    7  C   UNL     1     -10.984  12.939  64.810  1.00  0.00    -0.344 A  
HETATM    8  C   UNL     1     -11.932  12.580  63.689  1.00  0.00    -0.537 C  
HETATM    9  C   UNL     1     -10.423  11.926  65.613  1.00  0.00    -0.302 A  
HETATM   10  C   UNL     1      -9.541  12.241  66.655  1.00  0.00    -0.227 A  
HETATM   11  F   UNL     1     -13.033  11.908  64.129  1.00  0.00    -0.495 F  
HETATM   12  F   UNL     1     -12.404  13.663  63.012  1.00  0.00    -0.565 F  
HETATM   13  F   UNL     1     -11.352  11.781  62.752  1.00  0.00    -0.144 F  
HETATM   14  C   UNL     1      -9.216  13.588  66.879  1.00  0.00    -0.254 A  
ENDROOT
BRANCH  10  15
HETATM   15  C   UNL     1      -8.939  11.212  67.503  1.00  0.00    -0.139 A  
HETATM   16  N   UNL     1      -9.376   9.950  67.622  1.00  0.00    -0.140 NA 
HETATM   17  N   UNL     1      -8.414   9.350  68.392  1.00  0.00    -0.119 NA 
HETATM   18  N   UNL     1      -7.849  11.497  68.276  1.00  0.00    -0.130 NA 
HETATM   19  C   UNL     1      -7.565  10.347  68.831  1.00  0.00    -0.103 A  
BRANCH  17  20
HETATM   20  C   UNL     1      -8.409   7.986  68.720  1.00  0.00    -0.127 C  
HETATM   21  C   UNL     1      -9.365   7.182  69.226  1.00  0.00    -0.146 C  
BRANCH  21  22
HETATM   22  C   UNL     1     -10.679   7.611  69.761  1.00  0.00    -0.240 C  
HETATM   23  N   UNL     1     -10.837   8.965  69.944  1.00  0.00    -0.253 N  
HETATM   24  O   UNL     1     -11.596   6.827  69.989  1.00  0.00    -0.343 OA 
HETATM   25  H   UNL     1     -10.120   9.639  69.674  1.00  0.00     0.000 HD 
BRANCH  23  26
HETATM   26  N   UNL     1     -12.062   9.360  70.531  1.00  0.00    -0.467 NA 
HETATM   27  H   UNL     1     -12.793   8.696  70.785  1.00  0.00     0.000 HD 
BRANCH  26  28
HETATM   28  C   UNL     1     -12.185  10.756  70.736  1.00  0.00    -0.381 A  
HETATM   29  N   UNL     1     -12.858  11.253  71.803  1.00  0.00    -0.405 NA 
HETATM   30  C   UNL     1     -12.977  12.606  71.846  1.00  0.00    -0.297 A  
HETATM   31  C   UNL     1     -12.464  13.443  70.868  1.00  0.00    -0.359 A  
HETATM   32  N   UNL     1     -11.801  12.970  69.794  1.00  0.00    -0.321 NA 
HETATM   33  C   UNL     1     -11.686  11.619  69.750  1.00  0.00    -0.352 A  
ENDBRANCH  26  28
ENDBRANCH  23  26
ENDBRANCH  21  22
ENDBRANCH  17  20
ENDBRANCH  10  15
TORSDOF 5
ENDMDL
MODEL       63
REMARK 921   NORMALIZED FREE ENERGY PREDICTED BY IDOCK:   -7.28 KCAL/MOL
REMARK 922        TOTAL FREE ENERGY PREDICTED BY IDOCK:  -10.67 KCAL/MOL
REMARK 923 INTER-LIGAND FREE ENERGY PREDICTED BY IDOCK:   -9.90 KCAL/MOL
REMARK 924 INTRA-LIGAND FREE ENERGY PREDICTED BY IDOCK:   -0.76 KCAL/MOL
REMARK 927      BINDING AFFINITY PREDICTED BY RF-SCORE:    0.00 PKD
ROOT
HETATM    1  F   UNL     1      -9.672  16.520  65.458  1.00  0.00    -0.295 F  
HETATM    2  C   UNL     1      -9.843  15.911  66.665  1.00  0.00    -0.254 C  
HETATM    3  F   UNL     1      -8.610  15.869  67.239  1.00  0.00    -0.168 F  
HETATM    4  F   UNL     1     -10.580  16.776  67.415  1.00  0.00    -0.307 F  
HETATM    5  C   UNL     1     -10.482  14.547  66.564  1.00  0.00    -0.285 A  
HETATM    6  C   UNL     1     -10.857  13.997  65.329  1.00  0.00    -0.352 A  
HETATM    7  C   UNL     1     -11.441  12.721  65.253  1.00  0.00    -0.360 A  
HETATM    8  C   UNL     1     -11.830  12.129  63.919  1.00  0.00    -0.466 C  
HETATM    9  C   UNL     1     -11.657  11.993  66.440  1.00  0.00    -0.381 A  
HETATM   10  C   UNL     1     -11.301  12.526  67.685  1.00  0.00    -0.362 A  
HETATM   11  F   UNL     1     -13.158  11.832  63.845  1.00  0.00    -0.540 F  
HETATM   12  F   UNL     1     -11.575  12.953  62.865  1.00  0.00    -0.474 F  
HETATM   13  F   UNL     1     -11.169  10.969  63.650  1.00  0.00    -0.413 F  
HETATM   14  C   UNL     1     -10.710  13.799  67.729  1.00  0.00    -0.254 A  
ENDROOT
BRANCH  10  15
HETATM   15  C   UNL     1     -11.509  11.793  68.934  1.00  0.00    -0.297 A  
HETATM   16  N   UNL     1     -12.386  12.123  69.892  1.00  0.00    -0.126 NA 
HETATM   17  N   UNL     1     -12.317  11.070  70.766  1.00  0.00    -0.368 NA 
HETATM   18  N   UNL     1     -10.767  10.681  69.220  1.00  0.00    -0.223 NA 
HETATM   19  C   UNL     1     -11.264  10.274  70.360  1.00  0.00    -0.332 A  
BRANCH  17  20
HETATM   20  C   UNL     1     -13.128  10.940  71.904  1.00  0.00    -0.432 C  
HETATM   21  C   UNL     1     -13.608   9.855  72.543  1.00  0.00    -0.139 C  
BRANCH  21  22
HETATM   22  C   UNL     1     -13.541   8.454  72.064  1.00  0.00    -0.357 C  
HETATM   23  N   UNL     1     -12.600   7.658  72.673  1.00  0.00    -0.492 N  
HETATM   24  O   UNL     1     -14.301   8.003  71.212  1.00  0.00    -0.366 OA 
HETATM   25  H   UNL     1     -12.023   7.990  73.447  1.00  0.00     0.000 HD 
BRANCH  23  26
HETATM   26  N   UNL     1     -12.486   6.347  72.154  1.00  0.00    -0.524 NA 
HETATM   27  H   UNL     1     -13.192   5.628  72.306  1.00  0.00     0.000 HD 
BRANCH  26  28
HETATM   28  C   UNL     1     -11.304   6.119  71.406  1.00  0.00    -0.275 A  
HETATM   29  N   UNL     1     -10.124   5.860  72.020  1.00  0.00    -0.186 NA 
HETATM   30  C   UNL     1      -9.047   5.740  71.199  1.00  0.00    -0.146 A  
HETATM   31  C   UNL     1      -9.124   5.883  69.823  1.00  0.00    -0.138 A  
HETATM   32  N   UNL     1     -10.285   6.152  69.194  1.00  0.00    -0.178 NA 
HETATM   33  C   UNL     1     -11.359   6.274  70.014  1.00  0.00    -0.416 A  
ENDBRANCH  26  28
ENDBRANCH  23  26
ENDBRANCH  21  22
ENDBRANCH  17  20
ENDBRANCH  10  15
TORSDOF 5
ENDMDL
MODEL       64
REMARK 921   NORMALIZED FREE ENERGY PREDICTED BY IDOCK:   -7.25 KCAL/MOL
REMARK 922        TOTAL FREE ENERGY PREDICTED BY IDOCK:  -10.63 KCAL/MOL
REMARK 923 INTER-LIGAND FREE ENERGY PREDICTED BY IDOCK:   -8.73 KCAL/MOL
REMARK 924 INTRA-LIGAND FREE ENERGY PREDICTED BY IDOCK:   -1.90 KCAL/MOL
REMARK 927      BINDING AFFINITY PREDICTED BY RF-SCORE:    0.00 PKD
ROOT
HETATM    1  F   UNL     1      -9.266  18.851  67.843  1.00  0.00    -0.297 F  
HETATM    2  C   UNL     1      -8.433  17.860  67.418  1.00  0.00    -0.235 C  
HETATM    3  F   UNL     1      -8.336  18.010  66.069  1.00  0.00    -0.262 F  
HETATM    4  F   UNL     1      -7.206  18.164  67.922  1.00  0.00    -0.207 F  
HETATM    5  C   UNL     1      -8.894  16.478  67.815  1.00  0.00    -0.197 A  
HETATM    6  C   UNL     1     -10.066  16.275  68.558  1.00  0.00    -0.239 A  
HETATM    7  C   UNL     1     -10.484  14.980  68.910  1.00  0.00    -0.241 A  
HETATM    8  C   UNL     1     -11.755  14.768  69.699  1.00  0.00    -0.314 C  
HETATM    9  C   UNL     1      -9.705  13.875  68.514  1.00  0.00    -0.202 A  
HETATM   10  C   UNL     1      -8.525  14.054  67.780  1.00  0.00    -0.184 A  
HETATM   11  F   UNL     1     -11.537  14.122  70.879  1.00  0.00    -0.329 F  
HETATM   12  F   UNL     1     -12.392  15.927  70.022  1.00  0.00    -0.367 F  
HETATM   13  F   UNL     1     -12.670  14.020  69.023  1.00  0.00    -0.235 F  
HETATM   14  C   UNL     1      -8.137  15.358  67.434  1.00  0.00    -0.204 A  
ENDROOT
BRANCH  10  15
HETATM   15  C   UNL     1      -7.698  12.926  67.350  1.00  0.00    -0.159 A  
HETATM   16  N   UNL     1      -8.147  11.695  67.069  1.00  0.00    -0.159 NA 
HETATM   17  N   UNL     1      -7.041  11.055  66.576  1.00  0.00    -0.137 NA 
HETATM   18  N   UNL     1      -6.344  13.065  67.221  1.00  0.00    -0.264 NA 
HETATM   19  C   UNL     1      -5.964  11.897  66.772  1.00  0.00    -0.053 A  
BRANCH  17  20
HETATM   20  C   UNL     1      -7.050   9.745  66.074  1.00  0.00    -0.101 C  
HETATM   21  C   UNL     1      -7.574   9.219  64.949  1.00  0.00    -0.108 C  
BRANCH  21  22
HETATM   22  C   UNL     1      -8.479   9.907  63.999  1.00  0.00    -0.180 C  
HETATM   23  N   UNL     1      -8.796  11.209  64.310  1.00  0.00    -0.379 N  
HETATM   24  O   UNL     1      -8.893   9.380  62.970  1.00  0.00    -0.228 OA 
HETATM   25  H   UNL     1      -8.388  11.692  65.111  1.00  0.00     0.000 HD 
BRANCH  23  26
HETATM   26  N   UNL     1      -9.724  11.832  63.444  1.00  0.00    -0.521 NA 
HETATM   27  H   UNL     1      -9.697  11.721  62.431  1.00  0.00     0.000 HD 
BRANCH  26  28
HETATM   28  C   UNL     1     -10.696  12.622  64.105  1.00  0.00    -0.406 A  
HETATM   29  N   UNL     1     -10.370  13.814  64.664  1.00  0.00    -0.422 NA 
HETATM   30  C   UNL     1     -11.369  14.440  65.341  1.00  0.00    -0.339 A  
HETATM   31  C   UNL     1     -12.642  13.909  65.475  1.00  0.00    -0.526 A  
HETATM   32  N   UNL     1     -12.984  12.721  64.938  1.00  0.00    -0.853 NA 
HETATM   33  C   UNL     1     -11.985  12.095  64.265  1.00  0.00    -0.380 A  
ENDBRANCH  26  28
ENDBRANCH  23  26
ENDBRANCH  21  22
ENDBRANCH  17  20
ENDBRANCH  10  15
TORSDOF 5
ENDMDL
MODEL       65
REMARK 921   NORMALIZED FREE ENERGY PREDICTED BY IDOCK:   -7.24 KCAL/MOL
REMARK 922        TOTAL FREE ENERGY PREDICTED BY IDOCK:  -10.63 KCAL/MOL
REMARK 923 INTER-LIGAND FREE ENERGY PREDICTED BY IDOCK:   -8.86 KCAL/MOL
REMARK 924 INTRA-LIGAND FREE ENERGY PREDICTED BY IDOCK:   -1.76 KCAL/MOL
REMARK 927      BINDING AFFINITY PREDICTED BY RF-SCORE:    0.00 PKD
ROOT
HETATM    1  F   UNL     1     -10.993   7.967  71.115  1.00  0.00    -0.229 F  
HETATM    2  C   UNL     1     -11.401   9.186  70.664  1.00  0.00    -0.273 C  
HETATM    3  F   UNL     1     -12.761   9.146  70.662  1.00  0.00    -0.176 F  
HETATM    4  F   UNL     1     -11.050  10.076  71.632  1.00  0.00    -0.370 F  
HETATM    5  C   UNL     1     -10.830   9.547  69.313  1.00  0.00    -0.211 A  
HETATM    6  C   UNL     1      -9.961   8.688  68.625  1.00  0.00    -0.197 A  
HETATM    7  C   UNL     1      -9.448   9.037  67.364  1.00  0.00    -0.179 A  
HETATM    8  C   UNL     1      -8.522   8.101  66.622  1.00  0.00    -0.128 C  
HETATM    9  C   UNL     1      -9.810  10.272  66.793  1.00  0.00    -0.246 A  
HETATM   10  C   UNL     1     -10.669  11.151  67.465  1.00  0.00    -0.280 A  
HETATM   11  F   UNL     1      -7.313   8.667  66.350  1.00  0.00    -0.076 F  
HETATM   12  F   UNL     1      -8.250   6.954  67.304  1.00  0.00    -0.112 F  
HETATM   13  F   UNL     1      -9.031   7.706  65.423  1.00  0.00    -0.135 F  
HETATM   14  C   UNL     1     -11.174  10.772  68.720  1.00  0.00    -0.331 A  
ENDROOT
BRANCH  10  15
HETATM   15  C   UNL     1     -11.068  12.439  66.896  1.00  0.00    -0.287 A  
HETATM   16  N   UNL     1     -10.231  13.427  66.548  1.00  0.00    -0.276 NA 
HETATM   17  N   UNL     1     -11.050  14.339  65.937  1.00  0.00    -0.305 NA 
HETATM   18  N   UNL     1     -12.387  12.732  66.693  1.00  0.00    -0.400 NA 
HETATM   19  C   UNL     1     -12.349  13.912  66.130  1.00  0.00    -0.465 A  
BRANCH  17  20
HETATM   20  C   UNL     1     -10.595  15.522  65.335  1.00  0.00    -0.408 C  
HETATM   21  C   UNL     1     -10.267  16.723  65.851  1.00  0.00    -0.345 C  
BRANCH  21  22
HETATM   22  C   UNL     1     -10.493  17.169  67.247  1.00  0.00    -0.313 C  
HETATM   23  N   UNL     1     -10.272  16.223  68.220  1.00  0.00    -0.245 N  
HETATM   24  O   UNL     1     -10.813  18.318  67.537  1.00  0.00    -0.399 OA 
HETATM   25  H   UNL     1      -9.918  15.291  68.004  1.00  0.00     0.000 HD 
BRANCH  23  26
HETATM   26  N   UNL     1     -10.569  16.630  69.542  1.00  0.00    -0.323 NA 
HETATM   27  H   UNL     1     -10.297  17.539  69.915  1.00  0.00     0.000 HD 
BRANCH  26  28
HETATM   28  C   UNL     1     -11.277  15.667  70.301  1.00  0.00    -0.344 A  
HETATM   29  N   UNL     1     -11.550  14.438  69.798  1.00  0.00    -0.284 NA 
HETATM   30  C   UNL     1     -12.305  13.631  70.589  1.00  0.00    -0.368 A  
HETATM   31  C   UNL     1     -12.788  14.023  71.828  1.00  0.00    -0.340 A  
HETATM   32  N   UNL     1     -12.539  15.243  72.342  1.00  0.00    -0.333 NA 
HETATM   33  C   UNL     1     -11.787  16.049  71.550  1.00  0.00    -0.486 A  
ENDBRANCH  26  28
ENDBRANCH  23  26
ENDBRANCH  21  22
ENDBRANCH  17  20
ENDBRANCH  10  15
TORSDOF 5
ENDMDL
MODEL       66
REMARK 921   NORMALIZED FREE ENERGY PREDICTED BY IDOCK:   -7.24 KCAL/MOL
REMARK 922        TOTAL FREE ENERGY PREDICTED BY IDOCK:  -10.62 KCAL/MOL
REMARK 923 INTER-LIGAND FREE ENERGY PREDICTED BY IDOCK:   -9.03 KCAL/MOL
REMARK 924 INTRA-LIGAND FREE ENERGY PREDICTED BY IDOCK:   -1.59 KCAL/MOL
REMARK 927      BINDING AFFINITY PREDICTED BY RF-SCORE:    0.00 PKD
ROOT
HETATM    1  F   UNL     1     -10.408   6.161  72.756  1.00  0.00    -0.189 F  
HETATM    2  C   UNL     1     -10.687   7.495  72.762  1.00  0.00    -0.330 C  
HETATM    3  F   UNL     1     -11.877   7.624  73.408  1.00  0.00    -0.149 F  
HETATM    4  F   UNL     1      -9.753   8.065  73.572  1.00  0.00    -0.338 F  
HETATM    5  C   UNL     1     -10.706   8.110  71.383  1.00  0.00    -0.280 A  
HETATM    6  C   UNL     1     -10.450   7.350  70.232  1.00  0.00    -0.229 A  
HETATM    7  C   UNL     1     -10.484   7.937  68.956  1.00  0.00    -0.210 A  
HETATM    8  C   UNL     1     -10.220   7.110  67.719  1.00  0.00    -0.184 C  
HETATM    9  C   UNL     1     -10.771   9.311  68.839  1.00  0.00    -0.182 A  
HETATM   10  C   UNL     1     -11.021  10.093  69.975  1.00  0.00    -0.364 A  
HETATM   11  F   UNL     1      -9.161   7.573  66.996  1.00  0.00    -0.123 F  
HETATM   12  F   UNL     1      -9.941   5.805  67.989  1.00  0.00    -0.121 F  
HETATM   13  F   UNL     1     -11.281   7.093  66.867  1.00  0.00    -0.449 F  
HETATM   14  C   UNL     1     -10.990   9.476  71.236  1.00  0.00    -0.440 A  
ENDROOT
BRANCH  10  15
HETATM   15  C   UNL     1     -11.327  11.520  69.886  1.00  0.00    -0.186 A  
HETATM   16  N   UNL     1     -10.810  12.372  68.989  1.00  0.00    -0.190 NA 
HETATM   17  N   UNL     1     -11.505  13.531  69.210  1.00  0.00    -0.279 NA 
HETATM   18  N   UNL     1     -12.190  12.104  70.771  1.00  0.00    -0.351 NA 
HETATM   19  C   UNL     1     -12.260  13.341  70.350  1.00  0.00    -0.332 A  
BRANCH  17  20
HETATM   20  C   UNL     1     -11.354  14.696  68.442  1.00  0.00    -0.292 C  
HETATM   21  C   UNL     1     -11.659  14.970  67.159  1.00  0.00    -0.271 C  
BRANCH  21  22
HETATM   22  C   UNL     1     -12.089  13.992  66.131  1.00  0.00    -0.446 C  
HETATM   23  N   UNL     1     -11.364  12.825  66.076  1.00  0.00    -0.306 N  
HETATM   24  O   UNL     1     -13.057  14.175  65.399  1.00  0.00    -0.743 OA 
HETATM   25  H   UNL     1     -10.615  12.617  66.738  1.00  0.00     0.000 HD 
BRANCH  23  26
HETATM   26  N   UNL     1     -11.728  11.933  65.041  1.00  0.00    -0.245 NA 
HETATM   27  H   UNL     1     -12.693  11.791  64.746  1.00  0.00     0.000 HD 
BRANCH  26  28
HETATM   28  C   UNL     1     -10.634  11.253  64.449  1.00  0.00    -0.345 A  
HETATM   29  N   UNL     1     -10.059  10.186  65.056  1.00  0.00    -0.305 NA 
HETATM   30  C   UNL     1      -8.968   9.670  64.431  1.00  0.00    -0.234 A  
HETATM   31  C   UNL     1      -8.451  10.192  63.256  1.00  0.00    -0.184 A  
HETATM   32  N   UNL     1      -8.999  11.259  62.643  1.00  0.00    -0.315 NA 
HETATM   33  C   UNL     1     -10.087  11.775  63.269  1.00  0.00    -0.420 A  
ENDBRANCH  26  28
ENDBRANCH  23  26
ENDBRANCH  21  22
ENDBRANCH  17  20
ENDBRANCH  10  15
TORSDOF 5
ENDMDL
MODEL       67
REMARK 921   NORMALIZED FREE ENERGY PREDICTED BY IDOCK:   -7.20 KCAL/MOL
REMARK 922        TOTAL FREE ENERGY PREDICTED BY IDOCK:  -10.56 KCAL/MOL
REMARK 923 INTER-LIGAND FREE ENERGY PREDICTED BY IDOCK:   -9.50 KCAL/MOL
REMARK 924 INTRA-LIGAND FREE ENERGY PREDICTED BY IDOCK:   -1.07 KCAL/MOL
REMARK 927      BINDING AFFINITY PREDICTED BY RF-SCORE:    0.00 PKD
ROOT
HETATM    1  F   UNL     1     -12.100  16.454  71.414  1.00  0.00    -0.448 F  
HETATM    2  C   UNL     1     -11.988  15.390  70.569  1.00  0.00    -0.357 C  
HETATM    3  F   UNL     1     -11.266  14.455  71.243  1.00  0.00    -0.189 F  
HETATM    4  F   UNL     1     -13.245  14.881  70.445  1.00  0.00    -0.362 F  
HETATM    5  C   UNL     1     -11.376  15.745  69.235  1.00  0.00    -0.350 A  
HETATM    6  C   UNL     1     -10.981  17.056  68.929  1.00  0.00    -0.141 A  
HETATM    7  C   UNL     1     -10.403  17.366  67.686  1.00  0.00    -0.355 A  
HETATM    8  C   UNL     1      -9.967  18.777  67.368  1.00  0.00    -0.335 C  
HETATM    9  C   UNL     1     -10.229  16.341  66.735  1.00  0.00    -0.280 A  
HETATM   10  C   UNL     1     -10.625  15.026  67.014  1.00  0.00    -0.293 A  
HETATM   11  F   UNL     1     -10.595  19.283  66.269  1.00  0.00    -0.446 F  
HETATM   12  F   UNL     1     -10.213  19.660  68.375  1.00  0.00    -0.457 F  
HETATM   13  F   UNL     1      -8.633  18.866  67.115  1.00  0.00    -0.266 F  
HETATM   14  C   UNL     1     -11.190  14.745  68.269  1.00  0.00    -0.299 A  
ENDROOT
BRANCH  10  15
HETATM   15  C   UNL     1     -10.452  13.940  66.050  1.00  0.00    -0.298 A  
HETATM   16  N   UNL     1     -10.125  12.676  66.354  1.00  0.00    -0.248 NA 
HETATM   17  N   UNL     1     -10.234  12.020  65.156  1.00  0.00    -0.269 NA 
HETATM   18  N   UNL     1     -10.605  14.167  64.711  1.00  0.00    -0.424 NA 
HETATM   19  C   UNL     1     -10.439  12.980  64.185  1.00  0.00    -0.372 A  
BRANCH  17  20
HETATM   20  C   UNL     1     -10.055  10.637  64.998  1.00  0.00    -0.321 C  
HETATM   21  C   UNL     1      -9.799   9.659  65.889  1.00  0.00    -0.358 C  
BRANCH  21  22
HETATM   22  C   UNL     1      -9.441   9.844  67.316  1.00  0.00    -0.153 C  
HETATM   23  N   UNL     1     -10.455  10.283  68.134  1.00  0.00    -0.177 N  
HETATM   24  O   UNL     1      -8.329   9.582  67.765  1.00  0.00    -0.117 OA 
HETATM   25  H   UNL     1     -11.408  10.418  67.796  1.00  0.00     0.000 HD 
BRANCH  23  26
HETATM   26  N   UNL     1     -10.086  10.536  69.476  1.00  0.00    -0.345 NA 
HETATM   27  H   UNL     1      -9.365  11.209  69.734  1.00  0.00     0.000 HD 
BRANCH  26  28
HETATM   28  C   UNL     1     -10.804   9.773  70.429  1.00  0.00    -0.311 A  
HETATM   29  N   UNL     1     -11.910  10.269  71.037  1.00  0.00    -0.363 NA 
HETATM   30  C   UNL     1     -12.463   9.476  71.992  1.00  0.00    -0.349 A  
HETATM   31  C   UNL     1     -11.942   8.242  72.347  1.00  0.00    -0.384 A  
HETATM   32  N   UNL     1     -10.838   7.735  71.764  1.00  0.00    -0.231 NA 
HETATM   33  C   UNL     1     -10.284   8.529  70.813  1.00  0.00    -0.198 A  
ENDBRANCH  26  28
ENDBRANCH  23  26
ENDBRANCH  21  22
ENDBRANCH  17  20
ENDBRANCH  10  15
TORSDOF 5
ENDMDL
MODEL       68
REMARK 921   NORMALIZED FREE ENERGY PREDICTED BY IDOCK:   -7.19 KCAL/MOL
REMARK 922        TOTAL FREE ENERGY PREDICTED BY IDOCK:  -10.56 KCAL/MOL
REMARK 923 INTER-LIGAND FREE ENERGY PREDICTED BY IDOCK:   -8.95 KCAL/MOL
REMARK 924 INTRA-LIGAND FREE ENERGY PREDICTED BY IDOCK:   -1.60 KCAL/MOL
REMARK 927      BINDING AFFINITY PREDICTED BY RF-SCORE:    0.00 PKD
ROOT
HETATM    1  F   UNL     1      -9.619   4.864  68.648  1.00  0.00    -0.153 F  
HETATM    2  C   UNL     1      -9.681   6.040  67.962  1.00  0.00    -0.119 C  
HETATM    3  F   UNL     1      -8.442   6.228  67.433  1.00  0.00    -0.109 F  
HETATM    4  F   UNL     1     -10.512   5.811  66.909  1.00  0.00    -0.201 F  
HETATM    5  C   UNL     1     -10.132   7.205  68.810  1.00  0.00    -0.175 A  
HETATM    6  C   UNL     1     -10.455   7.051  70.166  1.00  0.00    -0.232 A  
HETATM    7  C   UNL     1     -10.862   8.149  70.942  1.00  0.00    -0.254 A  
HETATM    8  C   UNL     1     -11.195   7.978  72.406  1.00  0.00    -0.369 C  
HETATM    9  C   UNL     1     -10.954   9.419  70.340  1.00  0.00    -0.317 A  
HETATM   10  C   UNL     1     -10.647   9.596  68.985  1.00  0.00    -0.237 A  
HETATM   11  F   UNL     1     -12.473   8.353  72.700  1.00  0.00    -0.410 F  
HETATM   12  F   UNL     1     -11.076   6.694  72.843  1.00  0.00    -0.246 F  
HETATM   13  F   UNL     1     -10.390   8.720  73.214  1.00  0.00     0.094 F  
HETATM   14  C   UNL     1     -10.233   8.482  68.237  1.00  0.00    -0.244 A  
ENDROOT
BRANCH  10  15
HETATM   15  C   UNL     1     -10.728  10.903  68.332  1.00  0.00    -0.203 A  
HETATM   16  N   UNL     1     -11.750  11.334  67.580  1.00  0.00    -0.599 NA 
HETATM   17  N   UNL     1     -11.434  12.643  67.329  1.00  0.00    -0.321 NA 
HETATM   18  N   UNL     1      -9.703  11.800  68.441  1.00  0.00    -0.198 NA 
HETATM   19  C   UNL     1     -10.150  12.847  67.795  1.00  0.00    -0.229 A  
BRANCH  17  20
HETATM   20  C   UNL     1     -12.264  13.531  66.629  1.00  0.00    -0.358 C  
HETATM   21  C   UNL     1     -12.769  13.492  65.380  1.00  0.00    -0.495 C  
BRANCH  21  22
HETATM   22  C   UNL     1     -12.400  12.530  64.315  1.00  0.00    -0.456 C  
HETATM   23  N   UNL     1     -11.081  12.143  64.289  1.00  0.00    -0.322 N  
HETATM   24  O   UNL     1     -13.216  12.062  63.526  1.00  0.00    -0.724 OA 
HETATM   25  H   UNL     1     -10.409  12.451  64.993  1.00  0.00     0.000 HD 
BRANCH  23  26
HETATM   26  N   UNL     1     -10.719  11.290  63.221  1.00  0.00    -0.744 NA 
HETATM   27  H   UNL     1     -11.143  11.351  62.296  1.00  0.00     0.000 HD 
BRANCH  26  28
HETATM   28  C   UNL     1      -9.716  10.344  63.547  1.00  0.00    -0.275 A  
HETATM   29  N   UNL     1      -9.044   9.671  62.580  1.00  0.00    -0.271 NA 
HETATM   30  C   UNL     1      -8.165   8.731  63.019  1.00  0.00    -0.188 A  
HETATM   31  C   UNL     1      -7.963   8.452  64.361  1.00  0.00    -0.148 A  
HETATM   32  N   UNL     1      -8.628   9.100  65.337  1.00  0.00    -0.158 NA 
HETATM   33  C   UNL     1      -9.507  10.036  64.898  1.00  0.00    -0.293 A  
ENDBRANCH  26  28
ENDBRANCH  23  26
ENDBRANCH  21  22
ENDBRANCH  17  20
ENDBRANCH  10  15
TORSDOF 5
ENDMDL
MODEL       69
REMARK 921   NORMALIZED FREE ENERGY PREDICTED BY IDOCK:   -7.19 KCAL/MOL
REMARK 922        TOTAL FREE ENERGY PREDICTED BY IDOCK:  -10.55 KCAL/MOL
REMARK 923 INTER-LIGAND FREE ENERGY PREDICTED BY IDOCK:   -8.87 KCAL/MOL
REMARK 924 INTRA-LIGAND FREE ENERGY PREDICTED BY IDOCK:   -1.68 KCAL/MOL
REMARK 927      BINDING AFFINITY PREDICTED BY RF-SCORE:    0.00 PKD
ROOT
HETATM    1  F   UNL     1      -8.248   6.865  67.574  1.00  0.00    -0.111 F  
HETATM    2  C   UNL     1      -8.521   8.034  66.930  1.00  0.00    -0.124 C  
HETATM    3  F   UNL     1      -7.320   8.645  66.743  1.00  0.00    -0.075 F  
HETATM    4  F   UNL     1      -8.962   7.681  65.692  1.00  0.00    -0.180 F  
HETATM    5  C   UNL     1      -9.507   8.908  67.666  1.00  0.00    -0.164 A  
HETATM    6  C   UNL     1     -10.072   8.516  68.889  1.00  0.00    -0.213 A  
HETATM    7  C   UNL     1     -10.981   9.348  69.565  1.00  0.00    -0.193 A  
HETATM    8  C   UNL     1     -11.576   8.926  70.888  1.00  0.00    -0.283 C  
HETATM    9  C   UNL     1     -11.331  10.589  68.997  1.00  0.00    -0.319 A  
HETATM   10  C   UNL     1     -10.787  10.997  67.772  1.00  0.00    -0.297 A  
HETATM   11  F   UNL     1     -12.937   8.862  70.854  1.00  0.00    -0.228 F  
HETATM   12  F   UNL     1     -11.157   7.699  71.304  1.00  0.00    -0.237 F  
HETATM   13  F   UNL     1     -11.265   9.784  71.898  1.00  0.00    -0.402 F  
HETATM   14  C   UNL     1      -9.874  10.149  67.124  1.00  0.00    -0.231 A  
ENDROOT
BRANCH  10  15
HETATM   15  C   UNL     1     -11.127  12.282  67.159  1.00  0.00    -0.278 A  
HETATM   16  N   UNL     1     -10.269  13.287  66.936  1.00  0.00    -0.248 NA 
HETATM   17  N   UNL     1     -11.012  14.189  66.221  1.00  0.00    -0.300 NA 
HETATM   18  N   UNL     1     -12.410  12.552  66.774  1.00  0.00    -0.351 NA 
HETATM   19  C   UNL     1     -12.317  13.736  66.228  1.00  0.00    -0.433 A  
BRANCH  17  20
HETATM   20  C   UNL     1     -10.501  15.385  65.693  1.00  0.00    -0.372 C  
HETATM   21  C   UNL     1     -10.232  16.575  66.265  1.00  0.00    -0.343 C  
BRANCH  21  22
HETATM   22  C   UNL     1     -10.605  16.991  67.638  1.00  0.00    -0.333 C  
HETATM   23  N   UNL     1     -10.675  15.984  68.571  1.00  0.00    -0.271 N  
HETATM   24  O   UNL     1     -10.798  18.163  67.951  1.00  0.00    -0.363 OA 
HETATM   25  H   UNL     1     -10.429  15.018  68.350  1.00  0.00     0.000 HD 
BRANCH  23  26
HETATM   26  N   UNL     1     -11.111  16.376  69.858  1.00  0.00    -0.364 NA 
HETATM   27  H   UNL     1     -10.799  17.235  70.310  1.00  0.00     0.000 HD 
BRANCH  26  28
HETATM   28  C   UNL     1     -12.019  15.473  70.465  1.00  0.00    -0.371 A  
HETATM   29  N   UNL     1     -13.036  15.918  71.244  1.00  0.00    -0.428 NA 
HETATM   30  C   UNL     1     -13.789  14.953  71.835  1.00  0.00    -0.459 A  
HETATM   31  C   UNL     1     -13.544  13.598  71.679  1.00  0.00    -0.293 A  
HETATM   32  N   UNL     1     -12.532  13.136  70.918  1.00  0.00    -0.359 NA 
HETATM   33  C   UNL     1     -11.779  14.099  70.330  1.00  0.00    -0.243 A  
ENDBRANCH  26  28
ENDBRANCH  23  26
ENDBRANCH  21  22
ENDBRANCH  17  20
ENDBRANCH  10  15
TORSDOF 5
ENDMDL
MODEL       70
REMARK 921   NORMALIZED FREE ENERGY PREDICTED BY IDOCK:   -7.17 KCAL/MOL
REMARK 922        TOTAL FREE ENERGY PREDICTED BY IDOCK:  -10.53 KCAL/MOL
REMARK 923 INTER-LIGAND FREE ENERGY PREDICTED BY IDOCK:   -9.05 KCAL/MOL
REMARK 924 INTRA-LIGAND FREE ENERGY PREDICTED BY IDOCK:   -1.48 KCAL/MOL
REMARK 927      BINDING AFFINITY PREDICTED BY RF-SCORE:    0.00 PKD
ROOT
HETATM    1  F   UNL     1     -12.030  15.307  71.997  1.00  0.00    -0.350 F  
HETATM    2  C   UNL     1     -11.711  15.270  70.673  1.00  0.00    -0.332 C  
HETATM    3  F   UNL     1     -12.507  16.196  70.072  1.00  0.00    -0.275 F  
HETATM    4  F   UNL     1     -10.440  15.750  70.585  1.00  0.00    -0.305 F  
HETATM    5  C   UNL     1     -11.853  13.898  70.059  1.00  0.00    -0.384 A  
HETATM    6  C   UNL     1     -12.269  12.791  70.813  1.00  0.00    -0.338 A  
HETATM    7  C   UNL     1     -12.406  11.524  70.222  1.00  0.00    -0.355 A  
HETATM    8  C   UNL     1     -12.867  10.338  71.037  1.00  0.00    -0.397 C  
HETATM    9  C   UNL     1     -12.112  11.369  68.853  1.00  0.00    -0.285 A  
HETATM   10  C   UNL     1     -11.685  12.458  68.081  1.00  0.00    -0.408 A  
HETATM   11  F   UNL     1     -11.958   9.322  71.043  1.00  0.00    -0.308 F  
HETATM   12  F   UNL     1     -13.098  10.637  72.345  1.00  0.00    -0.513 F  
HETATM   13  F   UNL     1     -14.028   9.803  70.569  1.00  0.00    -0.254 F  
HETATM   14  C   UNL     1     -11.567  13.714  68.697  1.00  0.00    -0.364 A  
ENDROOT
BRANCH  10  15
HETATM   15  C   UNL     1     -11.377  12.330  66.657  1.00  0.00    -0.343 A  
HETATM   16  N   UNL     1     -10.202  11.931  66.149  1.00  0.00    -0.220 NA 
HETATM   17  N   UNL     1     -10.452  11.829  64.806  1.00  0.00    -0.278 NA 
HETATM   18  N   UNL     1     -12.312  12.643  65.711  1.00  0.00    -0.619 NA 
HETATM   19  C   UNL     1     -11.711  12.353  64.586  1.00  0.00    -0.365 A  
BRANCH  17  20
HETATM   20  C   UNL     1      -9.519  11.364  63.867  1.00  0.00    -0.153 C  
HETATM   21  C   UNL     1      -8.920  10.167  63.715  1.00  0.00    -0.270 C  
BRANCH  21  22
HETATM   22  C   UNL     1      -8.967   9.035  64.671  1.00  0.00    -0.061 C  
HETATM   23  N   UNL     1      -9.923   9.123  65.656  1.00  0.00    -0.425 N  
HETATM   24  O   UNL     1      -8.238   8.052  64.578  1.00  0.00    -0.148 OA 
HETATM   25  H   UNL     1     -10.597   9.888  65.694  1.00  0.00     0.000 HD 
BRANCH  23  26
HETATM   26  N   UNL     1      -9.907   8.081  66.612  1.00  0.00    -0.271 NA 
HETATM   27  H   UNL     1     -10.083   7.107  66.372  1.00  0.00     0.000 HD 
BRANCH  26  28
HETATM   28  C   UNL     1      -9.627   8.510  67.933  1.00  0.00    -0.152 A  
HETATM   29  N   UNL     1      -9.004   9.690  68.171  1.00  0.00    -0.123 NA 
HETATM   30  C   UNL     1      -8.717   9.953  69.474  1.00  0.00    -0.190 A  
HETATM   31  C   UNL     1      -9.020   9.080  70.507  1.00  0.00    -0.213 A  
HETATM   32  N   UNL     1      -9.629   7.897  70.291  1.00  0.00    -0.171 NA 
HETATM   33  C   UNL     1      -9.912   7.634  68.990  1.00  0.00    -0.181 A  
ENDBRANCH  26  28
ENDBRANCH  23  26
ENDBRANCH  21  22
ENDBRANCH  17  20
ENDBRANCH  10  15
TORSDOF 5
ENDMDL
MODEL       71
REMARK 921   NORMALIZED FREE ENERGY PREDICTED BY IDOCK:   -7.11 KCAL/MOL
REMARK 922        TOTAL FREE ENERGY PREDICTED BY IDOCK:  -10.45 KCAL/MOL
REMARK 923 INTER-LIGAND FREE ENERGY PREDICTED BY IDOCK:   -8.98 KCAL/MOL
REMARK 924 INTRA-LIGAND FREE ENERGY PREDICTED BY IDOCK:   -1.47 KCAL/MOL
REMARK 927      BINDING AFFINITY PREDICTED BY RF-SCORE:    0.00 PKD
ROOT
HETATM    1  F   UNL     1     -12.220  15.084  68.215  1.00  0.00    -0.287 F  
HETATM    2  C   UNL     1     -11.647  13.913  68.614  1.00  0.00    -0.328 C  
HETATM    3  F   UNL     1     -10.493  14.260  69.247  1.00  0.00    -0.231 F  
HETATM    4  F   UNL     1     -12.468  13.407  69.574  1.00  0.00    -0.310 F  
HETATM    5  C   UNL     1     -11.417  12.942  67.481  1.00  0.00    -0.386 A  
HETATM    6  C   UNL     1     -11.778  13.248  66.160  1.00  0.00    -0.416 A  
HETATM    7  C   UNL     1     -11.547  12.336  65.117  1.00  0.00    -0.402 A  
HETATM    8  C   UNL     1     -11.927  12.677  63.695  1.00  0.00    -0.535 C  
HETATM    9  C   UNL     1     -10.949  11.094  65.411  1.00  0.00    -0.151 A  
HETATM   10  C   UNL     1     -10.588  10.762  66.723  1.00  0.00    -0.307 A  
HETATM   11  F   UNL     1     -12.813  11.789  63.163  1.00  0.00    -0.714 F  
HETATM   12  F   UNL     1     -12.507  13.902  63.569  1.00  0.00    -0.498 F  
HETATM   13  F   UNL     1     -10.854  12.687  62.857  1.00  0.00    -0.318 F  
HETATM   14  C   UNL     1     -10.823  11.698  67.743  1.00  0.00    -0.264 A  
ENDROOT
BRANCH  10  15
HETATM   15  C   UNL     1      -9.962   9.483  67.058  1.00  0.00    -0.213 A  
HETATM   16  N   UNL     1      -8.753   9.333  67.617  1.00  0.00    -0.116 NA 
HETATM   17  N   UNL     1      -8.681   7.989  67.870  1.00  0.00    -0.128 NA 
HETATM   18  N   UNL     1     -10.598   8.304  66.789  1.00  0.00    -0.262 NA 
HETATM   19  C   UNL     1      -9.780   7.404  67.272  1.00  0.00    -0.157 A  
BRANCH  17  20
HETATM   20  C   UNL     1      -7.608   7.369  68.529  1.00  0.00    -0.114 C  
HETATM   21  C   UNL     1      -7.331   7.212  69.839  1.00  0.00    -0.084 C  
BRANCH  21  22
HETATM   22  C   UNL     1      -8.045   7.853  70.969  1.00  0.00    -0.098 C  
HETATM   23  N   UNL     1      -9.360   8.178  70.739  1.00  0.00    -0.156 N  
HETATM   24  O   UNL     1      -7.523   8.047  72.063  1.00  0.00    -0.076 OA 
HETATM   25  H   UNL     1      -9.836   7.941  69.867  1.00  0.00     0.000 HD 
BRANCH  23  26
HETATM   26  N   UNL     1     -10.010   8.863  71.792  1.00  0.00    -0.325 NA 
HETATM   27  H   UNL     1      -9.505   9.311  72.556  1.00  0.00     0.000 HD 
BRANCH  26  28
HETATM   28  C   UNL     1     -11.423   8.873  71.694  1.00  0.00    -0.339 A  
HETATM   29  N   UNL     1     -12.115  10.038  71.640  1.00  0.00    -0.378 NA 
HETATM   30  C   UNL     1     -13.469   9.919  71.630  1.00  0.00    -0.336 A  
HETATM   31  C   UNL     1     -14.123   8.698  71.684  1.00  0.00    -0.400 A  
HETATM   32  N   UNL     1     -13.455   7.529  71.750  1.00  0.00    -0.342 NA 
HETATM   33  C   UNL     1     -12.103   7.649  71.763  1.00  0.00    -0.305 A  
ENDBRANCH  26  28
ENDBRANCH  23  26
ENDBRANCH  21  22
ENDBRANCH  17  20
ENDBRANCH  10  15
TORSDOF 5
ENDMDL
MODEL       72
REMARK 921   NORMALIZED FREE ENERGY PREDICTED BY IDOCK:   -7.10 KCAL/MOL
REMARK 922        TOTAL FREE ENERGY PREDICTED BY IDOCK:  -10.44 KCAL/MOL
REMARK 923 INTER-LIGAND FREE ENERGY PREDICTED BY IDOCK:   -9.05 KCAL/MOL
REMARK 924 INTRA-LIGAND FREE ENERGY PREDICTED BY IDOCK:   -1.40 KCAL/MOL
REMARK 927      BINDING AFFINITY PREDICTED BY RF-SCORE:    0.00 PKD
ROOT
HETATM    1  F   UNL     1      -9.675  20.748  67.258  1.00  0.00    -0.578 F  
HETATM    2  C   UNL     1     -10.383  19.787  66.599  1.00  0.00    -0.496 C  
HETATM    3  F   UNL     1     -11.660  19.887  67.056  1.00  0.00    -0.243 F  
HETATM    4  F   UNL     1     -10.415  20.178  65.296  1.00  0.00    -0.497 F  
HETATM    5  C   UNL     1      -9.813  18.399  66.771  1.00  0.00    -0.351 A  
HETATM    6  C   UNL     1      -8.661  18.163  67.535  1.00  0.00    -0.249 A  
HETATM    7  C   UNL     1      -8.151  16.863  67.692  1.00  0.00    -0.193 A  
HETATM    8  C   UNL     1      -6.917  16.614  68.528  1.00  0.00    -0.161 C  
HETATM    9  C   UNL     1      -8.808  15.787  67.063  1.00  0.00    -0.241 A  
HETATM   10  C   UNL     1      -9.955  16.000  66.287  1.00  0.00    -0.329 A  
HETATM   11  F   UNL     1      -5.913  16.029  67.817  1.00  0.00    -0.106 F  
HETATM   12  F   UNL     1      -6.385  17.749  69.059  1.00  0.00    -0.185 F  
HETATM   13  F   UNL     1      -7.160  15.790  69.584  1.00  0.00    -0.184 F  
HETATM   14  C   UNL     1     -10.446  17.308  66.155  1.00  0.00    -0.279 A  
ENDROOT
BRANCH  10  15
HETATM   15  C   UNL     1     -10.662  14.902  65.625  1.00  0.00    -0.342 A  
HETATM   16  N   UNL     1     -10.116  14.039  64.757  1.00  0.00    -0.307 NA 
HETATM   17  N   UNL     1     -11.117  13.128  64.541  1.00  0.00    -0.338 NA 
HETATM   18  N   UNL     1     -11.993  14.696  65.852  1.00  0.00    -0.292 NA 
HETATM   19  C   UNL     1     -12.252  13.619  65.154  1.00  0.00    -0.433 A  
BRANCH  17  20
HETATM   20  C   UNL     1     -10.976  11.981  63.745  1.00  0.00    -0.426 C  
HETATM   21  C   UNL     1     -10.567  10.731  64.039  1.00  0.00    -0.175 C  
BRANCH  21  22
HETATM   22  C   UNL     1      -9.958  10.284  65.315  1.00  0.00    -0.317 C  
HETATM   23  N   UNL     1     -10.072  11.158  66.370  1.00  0.00    -0.219 N  
HETATM   24  O   UNL     1      -9.422   9.188  65.451  1.00  0.00    -0.241 OA 
HETATM   25  H   UNL     1     -10.593  12.033  66.299  1.00  0.00     0.000 HD 
BRANCH  23  26
HETATM   26  N   UNL     1      -9.417  10.763  67.560  1.00  0.00    -0.154 NA 
HETATM   27  H   UNL     1      -8.406  10.647  67.623  1.00  0.00     0.000 HD 
BRANCH  26  28
HETATM   28  C   UNL     1     -10.287  10.540  68.655  1.00  0.00    -0.185 A  
HETATM   29  N   UNL     1     -11.504  11.136  68.717  1.00  0.00    -0.271 NA 
HETATM   30  C   UNL     1     -12.213  10.910  69.855  1.00  0.00    -0.336 A  
HETATM   31  C   UNL     1     -11.738  10.137  70.902  1.00  0.00    -0.378 A  
HETATM   32  N   UNL     1     -10.527   9.546  70.866  1.00  0.00    -0.307 NA 
HETATM   33  C   UNL     1      -9.819   9.774  69.731  1.00  0.00    -0.234 A  
ENDBRANCH  26  28
ENDBRANCH  23  26
ENDBRANCH  21  22
ENDBRANCH  17  20
ENDBRANCH  10  15
TORSDOF 5
ENDMDL
MODEL       73
REMARK 921   NORMALIZED FREE ENERGY PREDICTED BY IDOCK:   -7.10 KCAL/MOL
REMARK 922        TOTAL FREE ENERGY PREDICTED BY IDOCK:  -10.44 KCAL/MOL
REMARK 923 INTER-LIGAND FREE ENERGY PREDICTED BY IDOCK:   -8.83 KCAL/MOL
REMARK 924 INTRA-LIGAND FREE ENERGY PREDICTED BY IDOCK:   -1.61 KCAL/MOL
REMARK 927      BINDING AFFINITY PREDICTED BY RF-SCORE:    0.00 PKD
ROOT
HETATM    1  F   UNL     1      -7.662  10.063  64.544  1.00  0.00    -0.126 F  
HETATM    2  C   UNL     1      -8.108  10.080  65.832  1.00  0.00    -0.126 C  
HETATM    3  F   UNL     1      -8.174   8.777  66.220  1.00  0.00    -0.106 F  
HETATM    4  F   UNL     1      -7.107  10.642  66.563  1.00  0.00    -0.102 F  
HETATM    5  C   UNL     1      -9.422  10.803  66.001  1.00  0.00    -0.230 A  
HETATM    6  C   UNL     1     -10.086  11.393  64.916  1.00  0.00    -0.323 A  
HETATM    7  C   UNL     1     -11.315  12.053  65.091  1.00  0.00    -0.359 A  
HETATM    8  C   UNL     1     -12.031  12.675  63.916  1.00  0.00    -0.479 C  
HETATM    9  C   UNL     1     -11.878  12.125  66.381  1.00  0.00    -0.321 A  
HETATM   10  C   UNL     1     -11.229  11.551  67.482  1.00  0.00    -0.360 A  
HETATM   11  F   UNL     1     -12.234  14.014  64.076  1.00  0.00    -0.469 F  
HETATM   12  F   UNL     1     -11.359  12.540  62.739  1.00  0.00    -0.290 F  
HETATM   13  F   UNL     1     -13.260  12.130  63.705  1.00  0.00    -0.487 F  
HETATM   14  C   UNL     1     -10.007  10.890  67.274  1.00  0.00    -0.216 A  
ENDROOT
BRANCH  10  15
HETATM   15  C   UNL     1     -11.790  11.605  68.832  1.00  0.00    -0.329 A  
HETATM   16  N   UNL     1     -12.458  10.611  69.435  1.00  0.00    -0.247 NA 
HETATM   17  N   UNL     1     -12.641  11.077  70.711  1.00  0.00    -0.366 NA 
HETATM   18  N   UNL     1     -11.677  12.737  69.588  1.00  0.00    -0.312 NA 
HETATM   19  C   UNL     1     -12.230  12.395  70.724  1.00  0.00    -0.242 A  
BRANCH  17  20
HETATM   20  C   UNL     1     -13.237  10.334  71.740  1.00  0.00    -0.430 C  
HETATM   21  C   UNL     1     -12.811   9.260  72.435  1.00  0.00    -0.418 C  
BRANCH  21  22
HETATM   22  C   UNL     1     -11.610   8.444  72.136  1.00  0.00    -0.374 C  
HETATM   23  N   UNL     1     -11.103   8.568  70.865  1.00  0.00    -0.249 N  
HETATM   24  O   UNL     1     -11.062   7.732  72.973  1.00  0.00    -0.398 OA 
HETATM   25  H   UNL     1     -11.490   9.224  70.185  1.00  0.00     0.000 HD 
BRANCH  23  26
HETATM   26  N   UNL     1     -10.008   7.725  70.562  1.00  0.00    -0.187 NA 
HETATM   27  H   UNL     1      -9.196   7.633  71.172  1.00  0.00     0.000 HD 
BRANCH  26  28
HETATM   28  C   UNL     1     -10.137   7.022  69.339  1.00  0.00    -0.169 A  
HETATM   29  N   UNL     1     -10.509   7.656  68.200  1.00  0.00    -0.200 NA 
HETATM   30  C   UNL     1     -10.677   6.860  67.111  1.00  0.00    -0.366 A  
HETATM   31  C   UNL     1     -10.498   5.486  67.142  1.00  0.00    -0.257 A  
HETATM   32  N   UNL     1     -10.139   4.835  68.266  1.00  0.00    -0.087 NA 
HETATM   33  C   UNL     1      -9.975   5.630  69.353  1.00  0.00    -0.197 A  
ENDBRANCH  26  28
ENDBRANCH  23  26
ENDBRANCH  21  22
ENDBRANCH  17  20
ENDBRANCH  10  15
TORSDOF 5
ENDMDL
MODEL       74
REMARK 921   NORMALIZED FREE ENERGY PREDICTED BY IDOCK:   -7.09 KCAL/MOL
REMARK 922        TOTAL FREE ENERGY PREDICTED BY IDOCK:  -10.43 KCAL/MOL
REMARK 923 INTER-LIGAND FREE ENERGY PREDICTED BY IDOCK:   -8.95 KCAL/MOL
REMARK 924 INTRA-LIGAND FREE ENERGY PREDICTED BY IDOCK:   -1.48 KCAL/MOL
REMARK 927      BINDING AFFINITY PREDICTED BY RF-SCORE:    0.00 PKD
ROOT
HETATM    1  F   UNL     1     -13.375  15.868  71.336  1.00  0.00    -0.528 F  
HETATM    2  C   UNL     1     -12.889  14.645  70.981  1.00  0.00    -0.348 C  
HETATM    3  F   UNL     1     -12.283  14.149  72.093  1.00  0.00    -0.328 F  
HETATM    4  F   UNL     1     -13.981  13.861  70.764  1.00  0.00    -0.083 F  
HETATM    5  C   UNL     1     -11.965  14.690  69.788  1.00  0.00    -0.378 A  
HETATM    6  C   UNL     1     -11.666  15.892  69.130  1.00  0.00    -0.369 A  
HETATM    7  C   UNL     1     -10.796  15.916  68.028  1.00  0.00    -0.317 A  
HETATM    8  C   UNL     1     -10.468  17.217  67.332  1.00  0.00    -0.334 C  
HETATM    9  C   UNL     1     -10.224  14.710  67.577  1.00  0.00    -0.225 A  
HETATM   10  C   UNL     1     -10.516  13.495  68.212  1.00  0.00    -0.258 A  
HETATM   11  F   UNL     1     -10.806  17.204  66.012  1.00  0.00    -0.270 F  
HETATM   12  F   UNL     1     -11.105  18.294  67.868  1.00  0.00    -0.360 F  
HETATM   13  F   UNL     1      -9.139  17.512  67.377  1.00  0.00    -0.230 F  
HETATM   14  C   UNL     1     -11.382  13.504  69.317  1.00  0.00    -0.317 A  
ENDROOT
BRANCH  10  15
HETATM   15  C   UNL     1      -9.935  12.227  67.770  1.00  0.00    -0.200 A  
HETATM   16  N   UNL     1     -10.616  11.206  67.232  1.00  0.00    -0.225 NA 
HETATM   17  N   UNL     1      -9.634  10.330  66.852  1.00  0.00    -0.168 NA 
HETATM   18  N   UNL     1      -8.596  11.990  67.906  1.00  0.00    -0.157 NA 
HETATM   19  C   UNL     1      -8.443  10.811  67.361  1.00  0.00    -0.119 A  
BRANCH  17  20
HETATM   20  C   UNL     1      -9.874   9.131  66.165  1.00  0.00    -0.293 C  
HETATM   21  C   UNL     1     -10.247   7.909  66.595  1.00  0.00    -0.303 C  
BRANCH  21  22
HETATM   22  C   UNL     1     -10.323   7.463  68.007  1.00  0.00    -0.199 C  
HETATM   23  N   UNL     1     -10.544   8.452  68.936  1.00  0.00    -0.358 N  
HETATM   24  O   UNL     1     -10.242   6.284  68.339  1.00  0.00    -0.145 OA 
HETATM   25  H   UNL     1     -10.705   9.424  68.670  1.00  0.00     0.000 HD 
BRANCH  23  26
HETATM   26  N   UNL     1     -10.533   8.030  70.286  1.00  0.00    -0.217 NA 
HETATM   27  H   UNL     1      -9.703   7.652  70.741  1.00  0.00     0.000 HD 
BRANCH  26  28
HETATM   28  C   UNL     1     -11.776   8.177  70.950  1.00  0.00    -0.244 A  
HETATM   29  N   UNL     1     -12.613   7.123  71.115  1.00  0.00    -0.366 NA 
HETATM   30  C   UNL     1     -13.809   7.406  71.695  1.00  0.00    -0.382 A  
HETATM   31  C   UNL     1     -14.177   8.683  72.088  1.00  0.00    -0.439 A  
HETATM   32  N   UNL     1     -13.365   9.746  71.923  1.00  0.00    -0.426 NA 
HETATM   33  C   UNL     1     -12.172   9.463  71.341  1.00  0.00    -0.356 A  
ENDBRANCH  26  28
ENDBRANCH  23  26
ENDBRANCH  21  22
ENDBRANCH  17  20
ENDBRANCH  10  15
TORSDOF 5
ENDMDL
MODEL       75
REMARK 921   NORMALIZED FREE ENERGY PREDICTED BY IDOCK:   -7.05 KCAL/MOL
REMARK 922        TOTAL FREE ENERGY PREDICTED BY IDOCK:  -10.38 KCAL/MOL
REMARK 923 INTER-LIGAND FREE ENERGY PREDICTED BY IDOCK:   -8.61 KCAL/MOL
REMARK 924 INTRA-LIGAND FREE ENERGY PREDICTED BY IDOCK:   -1.77 KCAL/MOL
REMARK 927      BINDING AFFINITY PREDICTED BY RF-SCORE:    0.00 PKD
ROOT
HETATM    1  F   UNL     1     -12.438  16.118  71.591  1.00  0.00    -0.469 F  
HETATM    2  C   UNL     1     -12.334  15.105  70.686  1.00  0.00    -0.368 C  
HETATM    3  F   UNL     1     -11.689  14.095  71.330  1.00  0.00    -0.358 F  
HETATM    4  F   UNL     1     -13.605  14.667  70.472  1.00  0.00    -0.325 F  
HETATM    5  C   UNL     1     -11.642  15.511  69.407  1.00  0.00    -0.366 A  
HETATM    6  C   UNL     1     -11.172  16.817  69.205  1.00  0.00    -0.040 A  
HETATM    7  C   UNL     1     -10.521  17.175  68.012  1.00  0.00    -0.369 A  
HETATM    8  C   UNL     1     -10.005  18.580  67.806  1.00  0.00    -0.343 C  
HETATM    9  C   UNL     1     -10.348  16.204  67.006  1.00  0.00    -0.290 A  
HETATM   10  C   UNL     1     -10.817  14.896  67.181  1.00  0.00    -0.311 A  
HETATM   11  F   UNL     1     -10.554  19.184  66.714  1.00  0.00    -0.418 F  
HETATM   12  F   UNL     1     -10.259  19.410  68.855  1.00  0.00    -0.459 F  
HETATM   13  F   UNL     1      -8.657  18.620  67.620  1.00  0.00    -0.264 F  
HETATM   14  C   UNL     1     -11.456  14.565  68.388  1.00  0.00    -0.328 A  
ENDROOT
BRANCH  10  15
HETATM   15  C   UNL     1     -10.648  13.864  66.158  1.00  0.00    -0.291 A  
HETATM   16  N   UNL     1     -10.364  12.575  66.393  1.00  0.00    -0.239 NA 
HETATM   17  N   UNL     1     -10.458  11.996  65.155  1.00  0.00    -0.278 NA 
HETATM   18  N   UNL     1     -10.757  14.175  64.832  1.00  0.00    -0.407 NA 
HETATM   19  C   UNL     1     -10.609  13.018  64.239  1.00  0.00    -0.412 A  
BRANCH  17  20
HETATM   20  C   UNL     1     -10.313  10.620  64.919  1.00  0.00    -0.277 C  
HETATM   21  C   UNL     1      -9.341   9.750  65.256  1.00  0.00    -0.315 C  
BRANCH  21  22
HETATM   22  C   UNL     1      -8.020  10.092  65.836  1.00  0.00    -0.124 C  
HETATM   23  N   UNL     1      -7.683  11.424  65.810  1.00  0.00    -0.353 N  
HETATM   24  O   UNL     1      -7.281   9.258  66.352  1.00  0.00    -0.087 OA 
HETATM   25  H   UNL     1      -8.323  12.142  65.469  1.00  0.00     0.000 HD 
BRANCH  23  26
HETATM   26  N   UNL     1      -6.388  11.732  66.290  1.00  0.00    -0.445 NA 
HETATM   27  H   UNL     1      -5.536  11.428  65.819  1.00  0.00     0.000 HD 
BRANCH  26  28
HETATM   28  C   UNL     1      -6.377  12.499  67.481  1.00  0.00    -0.154 A  
HETATM   29  N   UNL     1      -5.705  12.078  68.581  1.00  0.00    -0.052 NA 
HETATM   30  C   UNL     1      -5.835  12.859  69.686  1.00  0.00    -0.112 A  
HETATM   31  C   UNL     1      -6.611  14.007  69.714  1.00  0.00    -0.081 A  
HETATM   32  N   UNL     1      -7.296  14.437  68.636  1.00  0.00    -0.116 NA 
HETATM   33  C   UNL     1      -7.167  13.656  67.534  1.00  0.00    -0.156 A  
ENDBRANCH  26  28
ENDBRANCH  23  26
ENDBRANCH  21  22
ENDBRANCH  17  20
ENDBRANCH  10  15
TORSDOF 5
ENDMDL
MODEL       76
REMARK 921   NORMALIZED FREE ENERGY PREDICTED BY IDOCK:   -7.05 KCAL/MOL
REMARK 922        TOTAL FREE ENERGY PREDICTED BY IDOCK:  -10.37 KCAL/MOL
REMARK 923 INTER-LIGAND FREE ENERGY PREDICTED BY IDOCK:   -8.71 KCAL/MOL
REMARK 924 INTRA-LIGAND FREE ENERGY PREDICTED BY IDOCK:   -1.66 KCAL/MOL
REMARK 927      BINDING AFFINITY PREDICTED BY RF-SCORE:    0.00 PKD
ROOT
HETATM    1  F   UNL     1      -8.494   8.040  71.997  1.00  0.00    -0.122 F  
HETATM    2  C   UNL     1      -8.470   8.840  70.894  1.00  0.00    -0.175 C  
HETATM    3  F   UNL     1      -7.472   9.739  71.108  1.00  0.00    -0.075 F  
HETATM    4  F   UNL     1      -8.052   8.047  69.870  1.00  0.00    -0.106 F  
HETATM    5  C   UNL     1      -9.796   9.503  70.606  1.00  0.00    -0.328 A  
HETATM    6  C   UNL     1     -10.922   9.285  71.414  1.00  0.00    -0.429 A  
HETATM    7  C   UNL     1     -12.145   9.920  71.136  1.00  0.00    -0.466 A  
HETATM    8  C   UNL     1     -13.350   9.691  72.018  1.00  0.00    -0.457 C  
HETATM    9  C   UNL     1     -12.235  10.780  70.024  1.00  0.00    -0.409 A  
HETATM   10  C   UNL     1     -11.127  11.005  69.197  1.00  0.00    -0.301 A  
HETATM   11  F   UNL     1     -14.410   9.177  71.333  1.00  0.00    -0.377 F  
HETATM   12  F   UNL     1     -13.115   8.826  73.043  1.00  0.00    -0.410 F  
HETATM   13  F   UNL     1     -13.797  10.839  72.598  1.00  0.00    -0.166 F  
HETATM   14  C   UNL     1      -9.916  10.365  69.504  1.00  0.00    -0.229 A  
ENDROOT
BRANCH  10  15
HETATM   15  C   UNL     1     -11.189  11.895  68.037  1.00  0.00    -0.257 A  
HETATM   16  N   UNL     1     -11.558  11.535  66.800  1.00  0.00    -0.492 NA 
HETATM   17  N   UNL     1     -11.601  12.724  66.120  1.00  0.00    -0.358 NA 
HETATM   18  N   UNL     1     -10.837  13.211  68.151  1.00  0.00    -0.243 NA 
HETATM   19  C   UNL     1     -11.073  13.689  66.956  1.00  0.00    -0.301 A  
BRANCH  17  20
HETATM   20  C   UNL     1     -12.018  12.851  64.787  1.00  0.00    -0.396 C  
HETATM   21  C   UNL     1     -11.595  12.257  63.654  1.00  0.00    -0.581 C  
BRANCH  21  22
HETATM   22  C   UNL     1     -10.390  11.405  63.508  1.00  0.00    -0.423 C  
HETATM   23  N   UNL     1     -10.302  10.340  64.373  1.00  0.00    -0.370 N  
HETATM   24  O   UNL     1      -9.538  11.596  62.645  1.00  0.00    -0.249 OA 
HETATM   25  H   UNL     1     -11.044  10.113  65.035  1.00  0.00     0.000 HD 
BRANCH  23  26
HETATM   26  N   UNL     1      -9.111   9.582  64.283  1.00  0.00    -0.380 NA 
HETATM   27  H   UNL     1      -8.900   8.975  63.492  1.00  0.00     0.000 HD 
BRANCH  26  28
HETATM   28  C   UNL     1      -8.238   9.737  65.388  1.00  0.00    -0.131 A  
HETATM   29  N   UNL     1      -8.309  10.828  66.191  1.00  0.00    -0.162 NA 
HETATM   30  C   UNL     1      -7.367  10.903  67.167  1.00  0.00    -0.105 A  
HETATM   31  C   UNL     1      -6.379   9.946  67.342  1.00  0.00    -0.067 A  
HETATM   32  N   UNL     1      -6.284   8.861  66.549  1.00  0.00    -0.060 NA 
HETATM   33  C   UNL     1      -7.223   8.788  65.572  1.00  0.00    -0.084 A  
ENDBRANCH  26  28
ENDBRANCH  23  26
ENDBRANCH  21  22
ENDBRANCH  17  20
ENDBRANCH  10  15
TORSDOF 5
ENDMDL
MODEL       77
REMARK 921   NORMALIZED FREE ENERGY PREDICTED BY IDOCK:   -7.02 KCAL/MOL
REMARK 922        TOTAL FREE ENERGY PREDICTED BY IDOCK:  -10.34 KCAL/MOL
REMARK 923 INTER-LIGAND FREE ENERGY PREDICTED BY IDOCK:   -8.78 KCAL/MOL
REMARK 924 INTRA-LIGAND FREE ENERGY PREDICTED BY IDOCK:   -1.56 KCAL/MOL
REMARK 927      BINDING AFFINITY PREDICTED BY RF-SCORE:    0.00 PKD
ROOT
HETATM    1  F   UNL     1     -11.931  11.171  63.448  1.00  0.00    -0.304 F  
HETATM    2  C   UNL     1     -12.123  12.424  63.948  1.00  0.00    -0.499 C  
HETATM    3  F   UNL     1     -12.090  13.261  62.875  1.00  0.00    -0.585 F  
HETATM    4  F   UNL     1     -13.404  12.448  64.408  1.00  0.00    -0.402 F  
HETATM    5  C   UNL     1     -11.121  12.805  65.011  1.00  0.00    -0.317 A  
HETATM    6  C   UNL     1     -10.110  11.924  65.424  1.00  0.00    -0.285 A  
HETATM    7  C   UNL     1      -9.180  12.301  66.408  1.00  0.00    -0.203 A  
HETATM    8  C   UNL     1      -8.086  11.352  66.838  1.00  0.00    -0.158 C  
HETATM    9  C   UNL     1      -9.275  13.580  66.989  1.00  0.00    -0.248 A  
HETATM   10  C   UNL     1     -10.282  14.474  66.601  1.00  0.00    -0.276 A  
HETATM   11  F   UNL     1      -8.133  11.068  68.170  1.00  0.00    -0.105 F  
HETATM   12  F   UNL     1      -8.130  10.149  66.201  1.00  0.00    -0.111 F  
HETATM   13  F   UNL     1      -6.841  11.850  66.603  1.00  0.00    -0.125 F  
HETATM   14  C   UNL     1     -11.191  14.074  65.608  1.00  0.00    -0.310 A  
ENDROOT
BRANCH  10  15
HETATM   15  C   UNL     1     -10.404  15.811  67.182  1.00  0.00    -0.291 A  
HETATM   16  N   UNL     1     -10.318  16.964  66.504  1.00  0.00    -0.311 NA 
HETATM   17  N   UNL     1     -10.644  17.910  67.439  1.00  0.00    -0.383 NA 
HETATM   18  N   UNL     1     -10.604  15.970  68.525  1.00  0.00    -0.255 NA 
HETATM   19  C   UNL     1     -10.720  17.267  68.659  1.00  0.00    -0.280 A  
BRANCH  17  20
HETATM   20  C   UNL     1     -10.761  19.281  67.162  1.00  0.00    -0.480 C  
HETATM   21  C   UNL     1      -9.839  20.217  66.862  1.00  0.00    -0.597 C  
BRANCH  21  22
HETATM   22  C   UNL     1      -8.367  20.054  66.935  1.00  0.00    -0.326 C  
HETATM   23  N   UNL     1      -7.882  18.827  66.548  1.00  0.00    -0.260 N  
HETATM   24  O   UNL     1      -7.611  20.960  67.273  1.00  0.00    -0.353 OA 
HETATM   25  H   UNL     1      -8.487  18.094  66.177  1.00  0.00     0.000 HD 
BRANCH  23  26
HETATM   26  N   UNL     1      -6.487  18.651  66.698  1.00  0.00    -0.182 NA 
HETATM   27  H   UNL     1      -5.801  19.262  66.255  1.00  0.00     0.000 HD 
BRANCH  26  28
HETATM   28  C   UNL     1      -6.124  17.554  67.519  1.00  0.00    -0.142 A  
HETATM   29  N   UNL     1      -5.634  16.409  66.983  1.00  0.00    -0.330 NA 
HETATM   30  C   UNL     1      -5.400  15.400  67.863  1.00  0.00    -0.121 A  
HETATM   31  C   UNL     1      -5.651  15.507  69.222  1.00  0.00    -0.102 A  
HETATM   32  N   UNL     1      -6.148  16.632  69.773  1.00  0.00    -0.221 NA 
HETATM   33  C   UNL     1      -6.384  17.638  68.893  1.00  0.00    -0.213 A  
ENDBRANCH  26  28
ENDBRANCH  23  26
ENDBRANCH  21  22
ENDBRANCH  17  20
ENDBRANCH  10  15
TORSDOF 5
ENDMDL
MODEL       78
REMARK 921   NORMALIZED FREE ENERGY PREDICTED BY IDOCK:   -6.99 KCAL/MOL
REMARK 922        TOTAL FREE ENERGY PREDICTED BY IDOCK:  -10.30 KCAL/MOL
REMARK 923 INTER-LIGAND FREE ENERGY PREDICTED BY IDOCK:   -8.56 KCAL/MOL
REMARK 924 INTRA-LIGAND FREE ENERGY PREDICTED BY IDOCK:   -1.74 KCAL/MOL
REMARK 927      BINDING AFFINITY PREDICTED BY RF-SCORE:    0.00 PKD
ROOT
HETATM    1  F   UNL     1     -10.072  17.535  68.547  1.00  0.00    -0.281 F  
HETATM    2  C   UNL     1      -9.705  16.282  68.157  1.00  0.00    -0.227 C  
HETATM    3  F   UNL     1      -9.906  16.237  66.812  1.00  0.00    -0.222 F  
HETATM    4  F   UNL     1      -8.358  16.217  68.341  1.00  0.00    -0.157 F  
HETATM    5  C   UNL     1     -10.441  15.186  68.890  1.00  0.00    -0.241 A  
HETATM    6  C   UNL     1     -11.398  15.471  69.876  1.00  0.00    -0.323 A  
HETATM    7  C   UNL     1     -12.081  14.438  70.541  1.00  0.00    -0.404 A  
HETATM    8  C   UNL     1     -13.119  14.751  71.592  1.00  0.00    -0.337 C  
HETATM    9  C   UNL     1     -11.789  13.099  70.212  1.00  0.00    -0.299 A  
HETATM   10  C   UNL     1     -10.831  12.790  69.237  1.00  0.00    -0.044 A  
HETATM   11  F   UNL     1     -12.817  14.208  72.805  1.00  0.00    -0.444 F  
HETATM   12  F   UNL     1     -13.281  16.085  71.813  1.00  0.00    -0.517 F  
HETATM   13  F   UNL     1     -14.353  14.278  71.264  1.00  0.00    -0.403 F  
HETATM   14  C   UNL     1     -10.172  13.844  68.584  1.00  0.00    -0.218 A  
ENDROOT
BRANCH  10  15
HETATM   15  C   UNL     1     -10.510  11.411  68.871  1.00  0.00    -0.193 A  
HETATM   16  N   UNL     1      -9.450  11.026  68.146  1.00  0.00    -0.166 NA 
HETATM   17  N   UNL     1      -9.502   9.659  68.203  1.00  0.00    -0.132 NA 
HETATM   18  N   UNL     1     -11.326  10.382  69.249  1.00  0.00    -0.243 NA 
HETATM   19  C   UNL     1     -10.699   9.323  68.804  1.00  0.00    -0.154 A  
BRANCH  17  20
HETATM   20  C   UNL     1      -8.535   8.812  67.641  1.00  0.00    -0.125 C  
HETATM   21  C   UNL     1      -7.998   8.758  66.406  1.00  0.00    -0.103 C  
BRANCH  21  22
HETATM   22  C   UNL     1      -8.459   9.512  65.216  1.00  0.00    -0.148 C  
HETATM   23  N   UNL     1      -9.809   9.765  65.154  1.00  0.00    -0.405 N  
HETATM   24  O   UNL     1      -7.693   9.932  64.353  1.00  0.00    -0.132 OA 
HETATM   25  H   UNL     1     -10.448   9.504  65.907  1.00  0.00     0.000 HD 
BRANCH  23  26
HETATM   26  N   UNL     1     -10.253  10.412  63.977  1.00  0.00    -0.434 NA 
HETATM   27  H   UNL     1     -10.005  10.091  63.042  1.00  0.00     0.000 HD 
BRANCH  26  28
HETATM   28  C   UNL     1     -11.073  11.544  64.210  1.00  0.00    -0.315 A  
HETATM   29  N   UNL     1     -11.305  12.455  63.233  1.00  0.00    -0.409 NA 
HETATM   30  C   UNL     1     -12.039  13.538  63.600  1.00  0.00    -0.400 A  
HETATM   31  C   UNL     1     -12.518  13.728  64.887  1.00  0.00    -0.386 A  
HETATM   32  N   UNL     1     -12.289  12.841  65.876  1.00  0.00    -0.576 NA 
HETATM   33  C   UNL     1     -11.553  11.761  65.509  1.00  0.00    -0.126 A  
ENDBRANCH  26  28
ENDBRANCH  23  26
ENDBRANCH  21  22
ENDBRANCH  17  20
ENDBRANCH  10  15
TORSDOF 5
ENDMDL
MODEL       79
REMARK 921   NORMALIZED FREE ENERGY PREDICTED BY IDOCK:   -6.97 KCAL/MOL
REMARK 922        TOTAL FREE ENERGY PREDICTED BY IDOCK:  -10.27 KCAL/MOL
REMARK 923 INTER-LIGAND FREE ENERGY PREDICTED BY IDOCK:   -9.76 KCAL/MOL
REMARK 924 INTRA-LIGAND FREE ENERGY PREDICTED BY IDOCK:   -0.51 KCAL/MOL
REMARK 927      BINDING AFFINITY PREDICTED BY RF-SCORE:    0.00 PKD
ROOT
HETATM    1  F   UNL     1     -12.115  13.274  63.044  1.00  0.00    -0.608 F  
HETATM    2  C   UNL     1     -12.202  12.403  64.089  1.00  0.00    -0.468 C  
HETATM    3  F   UNL     1     -13.495  11.980  64.114  1.00  0.00    -0.435 F  
HETATM    4  F   UNL     1     -11.457  11.321  63.733  1.00  0.00    -0.465 F  
HETATM    5  C   UNL     1     -11.762  12.999  65.405  1.00  0.00    -0.401 A  
HETATM    6  C   UNL     1     -11.307  14.322  65.501  1.00  0.00    -0.325 A  
HETATM    7  C   UNL     1     -10.911  14.863  66.736  1.00  0.00    -0.326 A  
HETATM    8  C   UNL     1     -10.434  16.294  66.834  1.00  0.00    -0.302 C  
HETATM    9  C   UNL     1     -10.969  14.056  67.889  1.00  0.00    -0.261 A  
HETATM   10  C   UNL     1     -11.411  12.729  67.816  1.00  0.00    -0.342 A  
HETATM   11  F   UNL     1      -9.167  16.390  67.326  1.00  0.00    -0.207 F  
HETATM   12  F   UNL     1     -10.419  16.943  65.638  1.00  0.00    -0.338 F  
HETATM   13  F   UNL     1     -11.215  17.048  67.655  1.00  0.00    -0.268 F  
HETATM   14  C   UNL     1     -11.808  12.218  66.570  1.00  0.00    -0.378 A  
ENDROOT
BRANCH  10  15
HETATM   15  C   UNL     1     -11.486  11.867  68.997  1.00  0.00    -0.297 A  
HETATM   16  N   UNL     1     -12.389  11.976  69.981  1.00  0.00    -0.163 NA 
HETATM   17  N   UNL     1     -12.147  10.875  70.760  1.00  0.00    -0.350 NA 
HETATM   18  N   UNL     1     -10.580  10.861  69.183  1.00  0.00    -0.212 NA 
HETATM   19  C   UNL     1     -10.992  10.286  70.283  1.00  0.00    -0.309 A  
BRANCH  17  20
HETATM   20  C   UNL     1     -12.912  10.524  71.883  1.00  0.00    -0.447 C  
HETATM   21  C   UNL     1     -13.179   9.331  72.449  1.00  0.00    -0.501 C  
BRANCH  21  22
HETATM   22  C   UNL     1     -12.859   7.999  71.881  1.00  0.00    -0.320 C  
HETATM   23  N   UNL     1     -11.603   7.516  72.163  1.00  0.00    -0.286 N  
HETATM   24  O   UNL     1     -13.667   7.337  71.237  1.00  0.00    -0.361 OA 
HETATM   25  H   UNL     1     -10.952   8.011  72.772  1.00  0.00     0.000 HD 
BRANCH  23  26
HETATM   26  N   UNL     1     -11.275   6.284  71.550  1.00  0.00    -0.280 NA 
HETATM   27  H   UNL     1     -11.478   6.081  70.571  1.00  0.00     0.000 HD 
BRANCH  26  28
HETATM   28  C   UNL     1     -10.642   5.356  72.412  1.00  0.00    -0.224 A  
HETATM   29  N   UNL     1     -11.224   4.966  73.573  1.00  0.00    -0.333 NA 
HETATM   30  C   UNL     1     -10.483   4.135  74.354  1.00  0.00    -0.235 A  
HETATM   31  C   UNL     1      -9.208   3.713  74.013  1.00  0.00    -0.089 A  
HETATM   32  N   UNL     1      -8.606   4.098  72.871  1.00  0.00    -0.100 NA 
HETATM   33  C   UNL     1      -9.345   4.929  72.093  1.00  0.00    -0.136 A  
ENDBRANCH  26  28
ENDBRANCH  23  26
ENDBRANCH  21  22
ENDBRANCH  17  20
ENDBRANCH  10  15
TORSDOF 5
ENDMDL
MODEL       80
REMARK 921   NORMALIZED FREE ENERGY PREDICTED BY IDOCK:   -6.95 KCAL/MOL
REMARK 922        TOTAL FREE ENERGY PREDICTED BY IDOCK:  -10.24 KCAL/MOL
REMARK 923 INTER-LIGAND FREE ENERGY PREDICTED BY IDOCK:   -8.58 KCAL/MOL
REMARK 924 INTRA-LIGAND FREE ENERGY PREDICTED BY IDOCK:   -1.66 KCAL/MOL
REMARK 927      BINDING AFFINITY PREDICTED BY RF-SCORE:    0.00 PKD
ROOT
HETATM    1  F   UNL     1     -12.118  14.553  63.994  1.00  0.00    -0.464 F  
HETATM    2  C   UNL     1     -12.533  13.689  64.963  1.00  0.00    -0.414 C  
HETATM    3  F   UNL     1     -13.764  14.124  65.345  1.00  0.00    -0.221 F  
HETATM    4  F   UNL     1     -12.730  12.497  64.337  1.00  0.00    -0.505 F  
HETATM    5  C   UNL     1     -11.571  13.580  66.122  1.00  0.00    -0.371 A  
HETATM    6  C   UNL     1     -10.372  14.308  66.158  1.00  0.00    -0.305 A  
HETATM    7  C   UNL     1      -9.494  14.202  67.250  1.00  0.00    -0.229 A  
HETATM    8  C   UNL     1      -8.211  14.998  67.288  1.00  0.00    -0.211 C  
HETATM    9  C   UNL     1      -9.826  13.344  68.317  1.00  0.00    -0.235 A  
HETATM   10  C   UNL     1     -11.013  12.600  68.299  1.00  0.00    -0.275 A  
HETATM   11  F   UNL     1      -7.106  14.206  67.386  1.00  0.00    -0.176 F  
HETATM   12  F   UNL     1      -8.019  15.769  66.183  1.00  0.00    -0.252 F  
HETATM   13  F   UNL     1      -8.158  15.851  68.348  1.00  0.00    -0.135 F  
HETATM   14  C   UNL     1     -11.876  12.734  67.199  1.00  0.00    -0.415 A  
ENDROOT
BRANCH  10  15
HETATM   15  C   UNL     1     -11.388  11.704  69.394  1.00  0.00    -0.278 A  
HETATM   16  N   UNL     1     -10.738  10.583  69.738  1.00  0.00    -0.269 NA 
HETATM   17  N   UNL     1     -11.367  10.190  70.889  1.00  0.00    -0.348 NA 
HETATM   18  N   UNL     1     -12.491  11.963  70.158  1.00  0.00    -0.136 NA 
HETATM   19  C   UNL     1     -12.470  11.005  71.049  1.00  0.00    -0.409 A  
BRANCH  17  20
HETATM   20  C   UNL     1     -10.972   9.087  71.662  1.00  0.00    -0.365 C  
HETATM   21  C   UNL     1     -10.600   7.838  71.319  1.00  0.00    -0.241 C  
BRANCH  21  22
HETATM   22  C   UNL     1     -10.698   7.234  69.968  1.00  0.00    -0.245 C  
HETATM   23  N   UNL     1      -9.887   7.787  69.005  1.00  0.00    -0.165 N  
HETATM   24  O   UNL     1     -11.418   6.272  69.718  1.00  0.00    -0.430 OA 
HETATM   25  H   UNL     1      -9.216   8.526  69.217  1.00  0.00     0.000 HD 
BRANCH  23  26
HETATM   26  N   UNL     1     -10.046   7.261  67.702  1.00  0.00    -0.168 NA 
HETATM   27  H   UNL     1     -10.382   6.315  67.524  1.00  0.00     0.000 HD 
BRANCH  26  28
HETATM   28  C   UNL     1      -9.699   8.162  66.665  1.00  0.00    -0.248 A  
HETATM   29  N   UNL     1     -10.353   9.339  66.510  1.00  0.00    -0.238 NA 
HETATM   30  C   UNL     1      -9.985  10.080  65.432  1.00  0.00    -0.294 A  
HETATM   31  C   UNL     1      -9.015   9.673  64.528  1.00  0.00    -0.235 A  
HETATM   32  N   UNL     1      -8.361   8.501  64.658  1.00  0.00    -0.165 NA 
HETATM   33  C   UNL     1      -8.732   7.761  65.733  1.00  0.00    -0.133 A  
ENDBRANCH  26  28
ENDBRANCH  23  26
ENDBRANCH  21  22
ENDBRANCH  17  20
ENDBRANCH  10  15
TORSDOF 5
ENDMDL
MODEL       81
REMARK 921   NORMALIZED FREE ENERGY PREDICTED BY IDOCK:   -6.94 KCAL/MOL
REMARK 922        TOTAL FREE ENERGY PREDICTED BY IDOCK:  -10.24 KCAL/MOL
REMARK 923 INTER-LIGAND FREE ENERGY PREDICTED BY IDOCK:   -9.63 KCAL/MOL
REMARK 924 INTRA-LIGAND FREE ENERGY PREDICTED BY IDOCK:   -0.61 KCAL/MOL
REMARK 927      BINDING AFFINITY PREDICTED BY RF-SCORE:    0.00 PKD
ROOT
HETATM    1  F   UNL     1      -6.004  18.292  69.152  1.00  0.00    -0.192 F  
HETATM    2  C   UNL     1      -6.444  17.106  68.647  1.00  0.00    -0.175 C  
HETATM    3  F   UNL     1      -5.412  16.610  67.911  1.00  0.00    -0.098 F  
HETATM    4  F   UNL     1      -6.580  16.275  69.716  1.00  0.00    -0.198 F  
HETATM    5  C   UNL     1      -7.719  17.231  67.847  1.00  0.00    -0.196 A  
HETATM    6  C   UNL     1      -8.362  18.465  67.671  1.00  0.00    -0.260 A  
HETATM    7  C   UNL     1      -9.542  18.563  66.914  1.00  0.00    -0.314 A  
HETATM    8  C   UNL     1     -10.223  19.898  66.718  1.00  0.00    -0.477 C  
HETATM    9  C   UNL     1     -10.085  17.400  66.334  1.00  0.00    -0.330 A  
HETATM   10  C   UNL     1      -9.466  16.155  66.504  1.00  0.00    -0.289 A  
HETATM   11  F   UNL     1     -11.505  19.905  67.183  1.00  0.00    -0.363 F  
HETATM   12  F   UNL     1      -9.593  20.926  67.350  1.00  0.00    -0.570 F  
HETATM   13  F   UNL     1     -10.297  20.258  65.407  1.00  0.00    -0.515 F  
HETATM   14  C   UNL     1      -8.282  16.089  67.257  1.00  0.00    -0.209 A  
ENDROOT
BRANCH  10  15
HETATM   15  C   UNL     1     -10.002  14.931  65.910  1.00  0.00    -0.331 A  
HETATM   16  N   UNL     1      -9.501  13.699  66.082  1.00  0.00    -0.202 NA 
HETATM   17  N   UNL     1     -10.419  12.891  65.465  1.00  0.00    -0.285 NA 
HETATM   18  N   UNL     1     -11.091  14.976  65.085  1.00  0.00    -0.380 NA 
HETATM   19  C   UNL     1     -11.309  13.717  64.806  1.00  0.00    -0.354 A  
BRANCH  17  20
HETATM   20  C   UNL     1     -10.351  11.490  65.455  1.00  0.00    -0.273 C  
HETATM   21  C   UNL     1     -10.756  10.566  66.348  1.00  0.00    -0.166 C  
BRANCH  21  22
HETATM   22  C   UNL     1     -11.241  10.830  67.724  1.00  0.00    -0.316 C  
HETATM   23  N   UNL     1     -11.463   9.719  68.504  1.00  0.00    -0.496 N  
HETATM   24  O   UNL     1     -11.395  11.963  68.172  1.00  0.00    -0.243 OA 
HETATM   25  H   UNL     1     -11.253   8.775  68.179  1.00  0.00     0.000 HD 
BRANCH  23  26
HETATM   26  N   UNL     1     -12.002   9.975  69.786  1.00  0.00    -0.475 NA 
HETATM   27  H   UNL     1     -12.813  10.575  69.936  1.00  0.00     0.000 HD 
BRANCH  26  28
HETATM   28  C   UNL     1     -11.319   9.326  70.844  1.00  0.00    -0.308 A  
HETATM   29  N   UNL     1      -9.969   9.389  70.951  1.00  0.00    -0.291 NA 
HETATM   30  C   UNL     1      -9.423   8.660  71.960  1.00  0.00    -0.300 A  
HETATM   31  C   UNL     1     -10.176   7.884  72.826  1.00  0.00    -0.314 A  
HETATM   32  N   UNL     1     -11.518   7.798  72.730  1.00  0.00    -0.379 NA 
HETATM   33  C   UNL     1     -12.061   8.524  71.721  1.00  0.00    -0.333 A  
ENDBRANCH  26  28
ENDBRANCH  23  26
ENDBRANCH  21  22
ENDBRANCH  17  20
ENDBRANCH  10  15
TORSDOF 5
ENDMDL
MODEL       82
REMARK 921   NORMALIZED FREE ENERGY PREDICTED BY IDOCK:   -6.94 KCAL/MOL
REMARK 922        TOTAL FREE ENERGY PREDICTED BY IDOCK:  -10.23 KCAL/MOL
REMARK 923 INTER-LIGAND FREE ENERGY PREDICTED BY IDOCK:   -8.72 KCAL/MOL
REMARK 924 INTRA-LIGAND FREE ENERGY PREDICTED BY IDOCK:   -1.51 KCAL/MOL
REMARK 927      BINDING AFFINITY PREDICTED BY RF-SCORE:    0.00 PKD
ROOT
HETATM    1  F   UNL     1     -12.874  14.439  64.498  1.00  0.00    -0.357 F  
HETATM    2  C   UNL     1     -12.145  13.288  64.518  1.00  0.00    -0.408 C  
HETATM    3  F   UNL     1     -12.943  12.333  63.968  1.00  0.00    -0.518 F  
HETATM    4  F   UNL     1     -11.124  13.480  63.639  1.00  0.00    -0.286 F  
HETATM    5  C   UNL     1     -11.656  12.912  65.896  1.00  0.00    -0.423 A  
HETATM    6  C   UNL     1     -11.939  13.701  67.021  1.00  0.00    -0.448 A  
HETATM    7  C   UNL     1     -11.485  13.329  68.298  1.00  0.00    -0.351 A  
HETATM    8  C   UNL     1     -11.804  14.177  69.507  1.00  0.00    -0.322 C  
HETATM    9  C   UNL     1     -10.728  12.149  68.441  1.00  0.00    -0.252 A  
HETATM   10  C   UNL     1     -10.425  11.351  67.331  1.00  0.00    -0.239 A  
HETATM   11  F   UNL     1     -10.685  14.619  70.147  1.00  0.00    -0.216 F  
HETATM   12  F   UNL     1     -12.528  15.291  69.212  1.00  0.00    -0.257 F  
HETATM   13  F   UNL     1     -12.529  13.501  70.441  1.00  0.00    -0.369 F  
HETATM   14  C   UNL     1     -10.900  11.742  66.069  1.00  0.00    -0.343 A  
ENDROOT
BRANCH  10  15
HETATM   15  C   UNL     1      -9.645  10.118  67.448  1.00  0.00    -0.154 A  
HETATM   16  N   UNL     1      -8.603   9.933  68.271  1.00  0.00    -0.114 NA 
HETATM   17  N   UNL     1      -8.316   8.601  68.129  1.00  0.00    -0.126 NA 
HETATM   18  N   UNL     1      -9.937   9.033  66.671  1.00  0.00    -0.256 NA 
HETATM   19  C   UNL     1      -9.091   8.127  67.089  1.00  0.00    -0.140 A  
BRANCH  17  20
HETATM   20  C   UNL     1      -7.330   7.928  68.866  1.00  0.00    -0.085 C  
HETATM   21  C   UNL     1      -7.214   7.671  70.184  1.00  0.00    -0.067 C  
BRANCH  21  22
HETATM   22  C   UNL     1      -8.062   8.230  71.264  1.00  0.00    -0.120 C  
HETATM   23  N   UNL     1      -9.411   8.273  71.004  1.00  0.00    -0.155 N  
HETATM   24  O   UNL     1      -7.610   8.594  72.347  1.00  0.00    -0.296 OA 
HETATM   25  H   UNL     1      -9.813   7.891  70.148  1.00  0.00     0.000 HD 
BRANCH  23  26
HETATM   26  N   UNL     1     -10.203   8.883  72.004  1.00  0.00    -0.334 NA 
HETATM   27  H   UNL     1      -9.805   9.382  72.799  1.00  0.00     0.000 HD 
BRANCH  26  28
HETATM   28  C   UNL     1     -11.599   8.739  71.808  1.00  0.00    -0.346 A  
HETATM   29  N   UNL     1     -12.401   9.821  71.652  1.00  0.00    -0.388 NA 
HETATM   30  C   UNL     1     -13.731   9.559  71.553  1.00  0.00    -0.270 A  
HETATM   31  C   UNL     1     -14.258   8.279  71.618  1.00  0.00    -0.447 A  
HETATM   32  N   UNL     1     -13.480   7.191  71.784  1.00  0.00    -0.331 NA 
HETATM   33  C   UNL     1     -12.153   7.454  71.886  1.00  0.00    -0.307 A  
ENDBRANCH  26  28
ENDBRANCH  23  26
ENDBRANCH  21  22
ENDBRANCH  17  20
ENDBRANCH  10  15
TORSDOF 5
ENDMDL
MODEL       83
REMARK 921   NORMALIZED FREE ENERGY PREDICTED BY IDOCK:   -6.93 KCAL/MOL
REMARK 922        TOTAL FREE ENERGY PREDICTED BY IDOCK:  -10.22 KCAL/MOL
REMARK 923 INTER-LIGAND FREE ENERGY PREDICTED BY IDOCK:   -8.87 KCAL/MOL
REMARK 924 INTRA-LIGAND FREE ENERGY PREDICTED BY IDOCK:   -1.35 KCAL/MOL
REMARK 927      BINDING AFFINITY PREDICTED BY RF-SCORE:    0.00 PKD
ROOT
HETATM    1  F   UNL     1      -8.324   8.145  64.804  1.00  0.00    -0.149 F  
HETATM    2  C   UNL     1      -8.819   8.368  66.054  1.00  0.00    -0.167 C  
HETATM    3  F   UNL     1      -9.475   7.228  66.403  1.00  0.00    -0.197 F  
HETATM    4  F   UNL     1      -7.735   8.447  66.874  1.00  0.00    -0.087 F  
HETATM    5  C   UNL     1      -9.699   9.592  66.141  1.00  0.00    -0.324 A  
HETATM    6  C   UNL     1      -9.952  10.401  65.024  1.00  0.00    -0.399 A  
HETATM    7  C   UNL     1     -10.782  11.531  65.121  1.00  0.00    -0.348 A  
HETATM    8  C   UNL     1     -11.061  12.390  63.911  1.00  0.00    -0.415 C  
HETATM    9  C   UNL     1     -11.359  11.853  66.366  1.00  0.00    -0.400 A  
HETATM   10  C   UNL     1     -11.113  11.066  67.498  1.00  0.00    -0.366 A  
HETATM   11  F   UNL     1     -10.675  13.685  64.088  1.00  0.00    -0.397 F  
HETATM   12  F   UNL     1     -10.424  11.964  62.786  1.00  0.00    -0.295 F  
HETATM   13  F   UNL     1     -12.384  12.431  63.594  1.00  0.00    -0.497 F  
HETATM   14  C   UNL     1     -10.287   9.938  67.368  1.00  0.00    -0.301 A  
ENDROOT
BRANCH  10  15
HETATM   15  C   UNL     1     -11.701  11.373  68.802  1.00  0.00    -0.339 A  
HETATM   16  N   UNL     1     -12.469  10.543  69.523  1.00  0.00    -0.174 NA 
HETATM   17  N   UNL     1     -12.641  11.212  70.705  1.00  0.00    -0.357 NA 
HETATM   18  N   UNL     1     -11.508  12.594  69.384  1.00  0.00    -0.279 NA 
HETATM   19  C   UNL     1     -12.116  12.478  70.536  1.00  0.00    -0.274 A  
BRANCH  17  20
HETATM   20  C   UNL     1     -13.326  10.687  71.812  1.00  0.00    -0.334 C  
HETATM   21  C   UNL     1     -13.515   9.421  72.232  1.00  0.00    -0.539 C  
BRANCH  21  22
HETATM   22  C   UNL     1     -13.177   8.188  71.481  1.00  0.00    -0.284 C  
HETATM   23  N   UNL     1     -11.857   8.049  71.123  1.00  0.00    -0.289 N  
HETATM   24  O   UNL     1     -14.001   7.315  71.225  1.00  0.00    -0.369 OA 
HETATM   25  H   UNL     1     -11.142   8.720  71.407  1.00  0.00     0.000 HD 
BRANCH  23  26
HETATM   26  N   UNL     1     -11.557   6.913  70.337  1.00  0.00    -0.418 NA 
HETATM   27  H   UNL     1     -12.198   6.538  69.638  1.00  0.00     0.000 HD 
BRANCH  26  28
HETATM   28  C   UNL     1     -10.289   6.339  70.603  1.00  0.00    -0.203 A  
HETATM   29  N   UNL     1     -10.048   5.677  71.762  1.00  0.00    -0.186 NA 
HETATM   30  C   UNL     1      -8.772   5.243  71.937  1.00  0.00    -0.131 A  
HETATM   31  C   UNL     1      -7.763   5.463  71.013  1.00  0.00    -0.098 A  
HETATM   32  N   UNL     1      -7.979   6.128  69.861  1.00  0.00    -0.112 NA 
HETATM   33  C   UNL     1      -9.252   6.564  69.688  1.00  0.00    -0.143 A  
ENDBRANCH  26  28
ENDBRANCH  23  26
ENDBRANCH  21  22
ENDBRANCH  17  20
ENDBRANCH  10  15
TORSDOF 5
ENDMDL
MODEL       84
REMARK 921   NORMALIZED FREE ENERGY PREDICTED BY IDOCK:   -6.91 KCAL/MOL
REMARK 922        TOTAL FREE ENERGY PREDICTED BY IDOCK:  -10.19 KCAL/MOL
REMARK 923 INTER-LIGAND FREE ENERGY PREDICTED BY IDOCK:   -8.96 KCAL/MOL
REMARK 924 INTRA-LIGAND FREE ENERGY PREDICTED BY IDOCK:   -1.23 KCAL/MOL
REMARK 927      BINDING AFFINITY PREDICTED BY RF-SCORE:    0.00 PKD
ROOT
HETATM    1  F   UNL     1     -10.843  19.052  65.575  1.00  0.00    -0.523 F  
HETATM    2  C   UNL     1      -9.822  18.498  66.289  1.00  0.00    -0.337 C  
HETATM    3  F   UNL     1      -8.681  19.051  65.795  1.00  0.00    -0.216 F  
HETATM    4  F   UNL     1      -9.956  18.975  67.557  1.00  0.00    -0.328 F  
HETATM    5  C   UNL     1      -9.804  16.989  66.238  1.00  0.00    -0.310 A  
HETATM    6  C   UNL     1     -10.767  16.263  65.522  1.00  0.00    -0.326 A  
HETATM    7  C   UNL     1     -10.728  14.859  65.477  1.00  0.00    -0.369 A  
HETATM    8  C   UNL     1     -11.760  14.083  64.693  1.00  0.00    -0.405 C  
HETATM    9  C   UNL     1      -9.708  14.178  66.172  1.00  0.00    -0.310 A  
HETATM   10  C   UNL     1      -8.742  14.881  66.902  1.00  0.00    -0.276 A  
HETATM   11  F   UNL     1     -12.463  13.212  65.471  1.00  0.00    -0.442 F  
HETATM   12  F   UNL     1     -12.689  14.874  64.089  1.00  0.00    -0.463 F  
HETATM   13  F   UNL     1     -11.206  13.337  63.698  1.00  0.00    -0.398 F  
HETATM   14  C   UNL     1      -8.801  16.284  66.920  1.00  0.00    -0.242 A  
ENDROOT
BRANCH  10  15
HETATM   15  C   UNL     1      -7.669  14.203  67.629  1.00  0.00    -0.174 A  
HETATM   16  N   UNL     1      -7.841  13.309  68.613  1.00  0.00    -0.105 NA 
HETATM   17  N   UNL     1      -6.572  12.857  68.861  1.00  0.00    -0.090 NA 
HETATM   18  N   UNL     1      -6.359  14.469  67.345  1.00  0.00    -0.311 NA 
HETATM   19  C   UNL     1      -5.709  13.652  68.133  1.00  0.00    -0.116 A  
BRANCH  17  20
HETATM   20  C   UNL     1      -6.266  11.839  69.777  1.00  0.00    -0.138 C  
HETATM   21  C   UNL     1      -6.817  10.628  69.990  1.00  0.00    -0.150 C  
BRANCH  21  22
HETATM   22  C   UNL     1      -8.075  10.120  69.391  1.00  0.00    -0.160 C  
HETATM   23  N   UNL     1      -9.193  10.891  69.604  1.00  0.00    -0.335 N  
HETATM   24  O   UNL     1      -8.124   9.102  68.706  1.00  0.00    -0.099 OA 
HETATM   25  H   UNL     1      -9.153  11.786  70.092  1.00  0.00     0.000 HD 
BRANCH  23  26
HETATM   26  N   UNL     1     -10.403  10.358  69.101  1.00  0.00    -0.209 NA 
HETATM   27  H   UNL     1     -10.524  10.086  68.126  1.00  0.00     0.000 HD 
BRANCH  26  28
HETATM   28  C   UNL     1     -11.431  10.236  70.068  1.00  0.00    -0.296 A  
HETATM   29  N   UNL     1     -12.133  11.317  70.487  1.00  0.00    -0.366 NA 
HETATM   30  C   UNL     1     -13.036  11.086  71.476  1.00  0.00    -0.448 A  
HETATM   31  C   UNL     1     -13.235   9.838  72.044  1.00  0.00    -0.460 A  
HETATM   32  N   UNL     1     -12.540   8.752  71.650  1.00  0.00    -0.330 NA 
HETATM   33  C   UNL     1     -11.636   8.984  70.665  1.00  0.00    -0.224 A  
ENDBRANCH  26  28
ENDBRANCH  23  26
ENDBRANCH  21  22
ENDBRANCH  17  20
ENDBRANCH  10  15
TORSDOF 5
ENDMDL
MODEL       85
REMARK 921   NORMALIZED FREE ENERGY PREDICTED BY IDOCK:   -6.90 KCAL/MOL
REMARK 922        TOTAL FREE ENERGY PREDICTED BY IDOCK:  -10.18 KCAL/MOL
REMARK 923 INTER-LIGAND FREE ENERGY PREDICTED BY IDOCK:   -9.60 KCAL/MOL
REMARK 924 INTRA-LIGAND FREE ENERGY PREDICTED BY IDOCK:   -0.58 KCAL/MOL
REMARK 927      BINDING AFFINITY PREDICTED BY RF-SCORE:    0.00 PKD
ROOT
HETATM    1  F   UNL     1      -9.681   4.865  68.032  1.00  0.00    -0.153 F  
HETATM    2  C   UNL     1     -10.069   6.171  68.043  1.00  0.00    -0.153 C  
HETATM    3  F   UNL     1      -8.982   6.886  67.642  1.00  0.00    -0.119 F  
HETATM    4  F   UNL     1     -10.990   6.293  67.048  1.00  0.00    -0.333 F  
HETATM    5  C   UNL     1     -10.600   6.627  69.381  1.00  0.00    -0.279 A  
HETATM    6  C   UNL     1     -10.679   5.759  70.479  1.00  0.00    -0.361 A  
HETATM    7  C   UNL     1     -11.167   6.204  71.720  1.00  0.00    -0.338 A  
HETATM    8  C   UNL     1     -11.237   5.267  72.902  1.00  0.00    -0.312 C  
HETATM    9  C   UNL     1     -11.589   7.542  71.852  1.00  0.00    -0.312 A  
HETATM   10  C   UNL     1     -11.529   8.425  70.766  1.00  0.00    -0.277 A  
HETATM   11  F   UNL     1     -12.504   5.131  73.389  1.00  0.00     0.009 F  
HETATM   12  F   UNL     1     -10.811   4.005  72.620  1.00  0.00    -0.236 F  
HETATM   13  F   UNL     1     -10.476   5.689  73.949  1.00  0.00    -0.206 F  
HETATM   14  C   UNL     1     -11.028   7.955  69.542  1.00  0.00    -0.078 A  
ENDROOT
BRANCH  10  15
HETATM   15  C   UNL     1     -11.955   9.821  70.873  1.00  0.00    -0.328 A  
HETATM   16  N   UNL     1     -12.854  10.294  71.748  1.00  0.00    -0.443 NA 
HETATM   17  N   UNL     1     -12.798  11.650  71.563  1.00  0.00    -0.401 NA 
HETATM   18  N   UNL     1     -11.448  10.770  70.031  1.00  0.00    -0.306 NA 
HETATM   19  C   UNL     1     -12.001  11.876  70.458  1.00  0.00    -0.267 A  
BRANCH  17  20
HETATM   20  C   UNL     1     -13.524  12.577  72.326  1.00  0.00    -0.386 C  
HETATM   21  C   UNL     1     -13.487  13.924  72.373  1.00  0.00    -0.661 C  
BRANCH  21  22
HETATM   22  C   UNL     1     -12.482  14.797  71.722  1.00  0.00    -0.343 C  
HETATM   23  N   UNL     1     -12.823  15.279  70.480  1.00  0.00    -0.581 N  
HETATM   24  O   UNL     1     -11.427  15.118  72.261  1.00  0.00    -0.425 OA 
HETATM   25  H   UNL     1     -13.734  15.097  70.056  1.00  0.00     0.000 HD 
BRANCH  23  26
HETATM   26  N   UNL     1     -11.826  16.043  69.830  1.00  0.00    -0.313 NA 
HETATM   27  H   UNL     1     -11.372  16.845  70.266  1.00  0.00     0.000 HD 
BRANCH  26  28
HETATM   28  C   UNL     1     -11.513  15.598  68.522  1.00  0.00    -0.375 A  
HETATM   29  N   UNL     1     -11.978  14.413  68.054  1.00  0.00    -0.322 NA 
HETATM   30  C   UNL     1     -11.544  14.059  66.816  1.00  0.00    -0.386 A  
HETATM   31  C   UNL     1     -10.672  14.834  66.068  1.00  0.00    -0.312 A  
HETATM   32  N   UNL     1     -10.190  16.009  66.519  1.00  0.00    -0.283 NA 
HETATM   33  C   UNL     1     -10.621  16.361  67.756  1.00  0.00    -0.321 A  
ENDBRANCH  26  28
ENDBRANCH  23  26
ENDBRANCH  21  22
ENDBRANCH  17  20
ENDBRANCH  10  15
TORSDOF 5
ENDMDL
MODEL       86
REMARK 921   NORMALIZED FREE ENERGY PREDICTED BY IDOCK:   -6.88 KCAL/MOL
REMARK 922        TOTAL FREE ENERGY PREDICTED BY IDOCK:  -10.16 KCAL/MOL
REMARK 923 INTER-LIGAND FREE ENERGY PREDICTED BY IDOCK:   -8.47 KCAL/MOL
REMARK 924 INTRA-LIGAND FREE ENERGY PREDICTED BY IDOCK:   -1.69 KCAL/MOL
REMARK 927      BINDING AFFINITY PREDICTED BY RF-SCORE:    0.00 PKD
ROOT
HETATM    1  F   UNL     1      -8.401   8.245  71.376  1.00  0.00    -0.100 F  
HETATM    2  C   UNL     1      -8.473   9.141  70.352  1.00  0.00    -0.199 C  
HETATM    3  F   UNL     1      -7.496  10.057  70.590  1.00  0.00    -0.157 F  
HETATM    4  F   UNL     1      -8.091   8.460  69.237  1.00  0.00    -0.105 F  
HETATM    5  C   UNL     1      -9.836   9.773  70.203  1.00  0.00    -0.306 A  
HETATM    6  C   UNL     1     -10.902   9.439  71.051  1.00  0.00    -0.406 A  
HETATM    7  C   UNL     1     -12.161  10.046  70.904  1.00  0.00    -0.441 A  
HETATM    8  C   UNL     1     -13.302   9.691  71.829  1.00  0.00    -0.419 C  
HETATM    9  C   UNL     1     -12.350  10.998  69.882  1.00  0.00    -0.356 A  
HETATM   10  C   UNL     1     -11.303  11.340  69.017  1.00  0.00    -0.344 A  
HETATM   11  F   UNL     1     -14.383   9.198  71.162  1.00  0.00    -0.381 F  
HETATM   12  F   UNL     1     -12.975   8.748  72.755  1.00  0.00    -0.454 F  
HETATM   13  F   UNL     1     -13.752  10.763  72.537  1.00  0.00    -0.344 F  
HETATM   14  C   UNL     1     -10.053  10.724  69.194  1.00  0.00    -0.224 A  
ENDROOT
BRANCH  10  15
HETATM   15  C   UNL     1     -11.466  12.328  67.950  1.00  0.00    -0.330 A  
HETATM   16  N   UNL     1     -11.042  13.599  67.996  1.00  0.00    -0.253 NA 
HETATM   17  N   UNL     1     -11.285  14.064  66.731  1.00  0.00    -0.307 NA 
HETATM   18  N   UNL     1     -12.111  12.000  66.790  1.00  0.00    -0.542 NA 
HETATM   19  C   UNL     1     -12.009  13.089  66.072  1.00  0.00    -0.440 A  
BRANCH  17  20
HETATM   20  C   UNL     1     -10.929  15.345  66.283  1.00  0.00    -0.278 C  
HETATM   21  C   UNL     1      -9.730  15.939  66.127  1.00  0.00    -0.351 C  
BRANCH  21  22
HETATM   22  C   UNL     1      -8.424  15.413  66.592  1.00  0.00    -0.260 C  
HETATM   23  N   UNL     1      -8.347  14.049  66.740  1.00  0.00    -0.412 N  
HETATM   24  O   UNL     1      -7.448  16.131  66.793  1.00  0.00    -0.225 OA 
HETATM   25  H   UNL     1      -9.118  13.429  66.490  1.00  0.00     0.000 HD 
BRANCH  23  26
HETATM   26  N   UNL     1      -7.126  13.562  67.263  1.00  0.00    -0.339 NA 
HETATM   27  H   UNL     1      -6.446  14.162  67.729  1.00  0.00     0.000 HD 
BRANCH  26  28
HETATM   28  C   UNL     1      -6.929  12.171  67.081  1.00  0.00    -0.117 A  
HETATM   29  N   UNL     1      -7.808  11.425  66.366  1.00  0.00    -0.114 NA 
HETATM   30  C   UNL     1      -7.555  10.090  66.331  1.00  0.00    -0.104 A  
HETATM   31  C   UNL     1      -6.484   9.505  66.987  1.00  0.00    -0.067 A  
HETATM   32  N   UNL     1      -5.606  10.226  67.713  1.00  0.00    -0.041 NA 
HETATM   33  C   UNL     1      -5.860  11.558  67.749  1.00  0.00    -0.049 A  
ENDBRANCH  26  28
ENDBRANCH  23  26
ENDBRANCH  21  22
ENDBRANCH  17  20
ENDBRANCH  10  15
TORSDOF 5
ENDMDL
MODEL       87
REMARK 921   NORMALIZED FREE ENERGY PREDICTED BY IDOCK:   -6.86 KCAL/MOL
REMARK 922        TOTAL FREE ENERGY PREDICTED BY IDOCK:  -10.13 KCAL/MOL
REMARK 923 INTER-LIGAND FREE ENERGY PREDICTED BY IDOCK:   -8.80 KCAL/MOL
REMARK 924 INTRA-LIGAND FREE ENERGY PREDICTED BY IDOCK:   -1.33 KCAL/MOL
REMARK 927      BINDING AFFINITY PREDICTED BY RF-SCORE:    0.00 PKD
ROOT
HETATM    1  F   UNL     1     -10.778  13.528  65.891  1.00  0.00    -0.270 F  
HETATM    2  C   UNL     1     -10.830  12.363  66.597  1.00  0.00    -0.246 C  
HETATM    3  F   UNL     1     -11.616  11.523  65.870  1.00  0.00    -0.330 F  
HETATM    4  F   UNL     1      -9.573  11.843  66.547  1.00  0.00    -0.193 F  
HETATM    5  C   UNL     1     -11.325  12.541  68.012  1.00  0.00    -0.339 A  
HETATM    6  C   UNL     1     -11.679  13.800  68.518  1.00  0.00    -0.391 A  
HETATM    7  C   UNL     1     -12.148  13.945  69.835  1.00  0.00    -0.406 A  
HETATM    8  C   UNL     1     -12.541  15.302  70.369  1.00  0.00    -0.375 C  
HETATM    9  C   UNL     1     -12.253  12.804  70.655  1.00  0.00    -0.374 A  
HETATM   10  C   UNL     1     -11.896  11.538  70.176  1.00  0.00    -0.440 A  
HETATM   11  F   UNL     1     -11.819  15.661  71.468  1.00  0.00    -0.315 F  
HETATM   12  F   UNL     1     -12.371  16.309  69.468  1.00  0.00    -0.175 F  
HETATM   13  F   UNL     1     -13.848  15.357  70.743  1.00  0.00    -0.439 F  
HETATM   14  C   UNL     1     -11.440  11.423  68.852  1.00  0.00    -0.363 A  
ENDROOT
BRANCH  10  15
HETATM   15  C   UNL     1     -11.999  10.334  71.002  1.00  0.00    -0.385 A  
HETATM   16  N   UNL     1     -10.973   9.553  71.367  1.00  0.00    -0.365 NA 
HETATM   17  N   UNL     1     -11.542   8.664  72.240  1.00  0.00    -0.368 NA 
HETATM   18  N   UNL     1     -13.213   9.904  71.457  1.00  0.00    -0.396 NA 
HETATM   19  C   UNL     1     -12.908   8.865  72.190  1.00  0.00    -0.409 A  
BRANCH  17  20
HETATM   20  C   UNL     1     -10.824   7.687  72.946  1.00  0.00    -0.389 C  
HETATM   21  C   UNL     1     -10.354   6.479  72.579  1.00  0.00    -0.216 C  
BRANCH  21  22
HETATM   22  C   UNL     1     -10.658   5.768  71.313  1.00  0.00    -0.257 C  
HETATM   23  N   UNL     1     -10.891   6.568  70.220  1.00  0.00    -0.255 N  
HETATM   24  O   UNL     1     -10.659   4.544  71.219  1.00  0.00    -0.014 OA 
HETATM   25  H   UNL     1     -10.804   7.584  70.258  1.00  0.00     0.000 HD 
BRANCH  23  26
HETATM   26  N   UNL     1     -11.261   5.886  69.037  1.00  0.00    -0.240 NA 
HETATM   27  H   UNL     1     -12.206   5.542  68.868  1.00  0.00     0.000 HD 
BRANCH  26  28
HETATM   28  C   UNL     1     -10.205   5.721  68.107  1.00  0.00    -0.190 A  
HETATM   29  N   UNL     1     -10.311   4.853  67.070  1.00  0.00    -0.190 NA 
HETATM   30  C   UNL     1      -9.203   4.723  66.295  1.00  0.00    -0.141 A  
HETATM   31  C   UNL     1      -8.024   5.412  66.537  1.00  0.00    -0.105 A  
HETATM   32  N   UNL     1      -7.893   6.269  67.568  1.00  0.00    -0.104 NA 
HETATM   33  C   UNL     1      -9.000   6.396  68.343  1.00  0.00    -0.120 A  
ENDBRANCH  26  28
ENDBRANCH  23  26
ENDBRANCH  21  22
ENDBRANCH  17  20
ENDBRANCH  10  15
TORSDOF 5
ENDMDL
MODEL       88
REMARK 921   NORMALIZED FREE ENERGY PREDICTED BY IDOCK:   -6.86 KCAL/MOL
REMARK 922        TOTAL FREE ENERGY PREDICTED BY IDOCK:  -10.13 KCAL/MOL
REMARK 923 INTER-LIGAND FREE ENERGY PREDICTED BY IDOCK:   -9.47 KCAL/MOL
REMARK 924 INTRA-LIGAND FREE ENERGY PREDICTED BY IDOCK:   -0.65 KCAL/MOL
REMARK 927      BINDING AFFINITY PREDICTED BY RF-SCORE:    0.00 PKD
ROOT
HETATM    1  F   UNL     1      -9.695   3.054  69.771  1.00  0.00    -0.226 F  
HETATM    2  C   UNL     1      -9.409   3.955  68.790  1.00  0.00    -0.166 C  
HETATM    3  F   UNL     1      -8.051   4.009  68.719  1.00  0.00    -0.069 F  
HETATM    4  F   UNL     1      -9.826   3.383  67.628  1.00  0.00    -0.239 F  
HETATM    5  C   UNL     1     -10.031   5.312  69.022  1.00  0.00    -0.260 A  
HETATM    6  C   UNL     1     -10.827   5.577  70.146  1.00  0.00    -0.299 A  
HETATM    7  C   UNL     1     -11.389   6.848  70.350  1.00  0.00    -0.376 A  
HETATM    8  C   UNL     1     -12.235   7.131  71.569  1.00  0.00    -0.360 C  
HETATM    9  C   UNL     1     -11.151   7.865  69.403  1.00  0.00     0.068 A  
HETATM   10  C   UNL     1     -10.368   7.621  68.268  1.00  0.00    -0.238 A  
HETATM   11  F   UNL     1     -13.496   7.538  71.249  1.00  0.00    -0.381 F  
HETATM   12  F   UNL     1     -12.389   6.051  72.384  1.00  0.00    -0.354 F  
HETATM   13  F   UNL     1     -11.710   8.113  72.352  1.00  0.00    -0.345 F  
HETATM   14  C   UNL     1      -9.811   6.343  68.095  1.00  0.00    -0.127 A  
ENDROOT
BRANCH  10  15
HETATM   15  C   UNL     1     -10.099   8.656  67.270  1.00  0.00    -0.244 A  
HETATM   16  N   UNL     1      -9.609   8.442  66.040  1.00  0.00    -0.176 NA 
HETATM   17  N   UNL     1      -9.680   9.675  65.449  1.00  0.00    -0.310 NA 
HETATM   18  N   UNL     1     -10.325   9.973  67.555  1.00  0.00    -0.215 NA 
HETATM   19  C   UNL     1     -10.035  10.578  66.432  1.00  0.00    -0.218 A  
BRANCH  17  20
HETATM   20  C   UNL     1      -9.340   9.925  64.110  1.00  0.00    -0.237 C  
HETATM   21  C   UNL     1      -9.721  10.892  63.253  1.00  0.00    -0.398 C  
BRANCH  21  22
HETATM   22  C   UNL     1     -10.798  11.886  63.476  1.00  0.00    -0.434 C  
HETATM   23  N   UNL     1     -10.383  13.162  63.776  1.00  0.00    -0.485 N  
HETATM   24  O   UNL     1     -11.990  11.616  63.359  1.00  0.00    -0.424 OA 
HETATM   25  H   UNL     1      -9.397  13.425  63.787  1.00  0.00     0.000 HD 
BRANCH  23  26
HETATM   26  N   UNL     1     -11.414  14.084  64.068  1.00  0.00    -0.614 NA 
HETATM   27  H   UNL     1     -12.274  14.143  63.524  1.00  0.00     0.000 HD 
BRANCH  26  28
HETATM   28  C   UNL     1     -11.150  14.919  65.182  1.00  0.00    -0.393 A  
HETATM   29  N   UNL     1     -10.497  16.098  65.036  1.00  0.00    -0.615 NA 
HETATM   30  C   UNL     1     -10.231  16.770  66.187  1.00  0.00    -0.351 A  
HETATM   31  C   UNL     1     -10.581  16.294  67.440  1.00  0.00    -0.307 A  
HETATM   32  N   UNL     1     -11.220  15.119  67.609  1.00  0.00    -0.320 NA 
HETATM   33  C   UNL     1     -11.483  14.448  66.459  1.00  0.00    -0.362 A  
ENDBRANCH  26  28
ENDBRANCH  23  26
ENDBRANCH  21  22
ENDBRANCH  17  20
ENDBRANCH  10  15
TORSDOF 5
ENDMDL
MODEL       89
REMARK 921   NORMALIZED FREE ENERGY PREDICTED BY IDOCK:   -6.85 KCAL/MOL
REMARK 922        TOTAL FREE ENERGY PREDICTED BY IDOCK:  -10.12 KCAL/MOL
REMARK 923 INTER-LIGAND FREE ENERGY PREDICTED BY IDOCK:   -8.54 KCAL/MOL
REMARK 924 INTRA-LIGAND FREE ENERGY PREDICTED BY IDOCK:   -1.59 KCAL/MOL
REMARK 927      BINDING AFFINITY PREDICTED BY RF-SCORE:    0.00 PKD
ROOT
HETATM    1  F   UNL     1     -13.971   9.511  73.002  1.00  0.00    -0.285 F  
HETATM    2  C   UNL     1     -13.382   9.346  71.784  1.00  0.00    -0.415 C  
HETATM    3  F   UNL     1     -12.337   8.499  71.988  1.00  0.00    -0.320 F  
HETATM    4  F   UNL     1     -14.283   8.660  71.027  1.00  0.00    -0.350 F  
HETATM    5  C   UNL     1     -12.959  10.644  71.141  1.00  0.00    -0.483 A  
HETATM    6  C   UNL     1     -13.175  11.882  71.764  1.00  0.00    -0.426 A  
HETATM    7  C   UNL     1     -12.765  13.080  71.156  1.00  0.00    -0.372 A  
HETATM    8  C   UNL     1     -12.989  14.409  71.839  1.00  0.00    -0.349 C  
HETATM    9  C   UNL     1     -12.135  13.030  69.896  1.00  0.00    -0.347 A  
HETATM   10  C   UNL     1     -11.917  11.807  69.250  1.00  0.00    -0.354 A  
HETATM   11  F   UNL     1     -13.750  15.259  71.093  1.00  0.00    -0.453 F  
HETATM   12  F   UNL     1     -13.622  14.301  73.040  1.00  0.00    -0.553 F  
HETATM   13  F   UNL     1     -11.825  15.069  72.092  1.00  0.00    -0.377 F  
HETATM   14  C   UNL     1     -12.329  10.625  69.887  1.00  0.00    -0.304 A  
ENDROOT
BRANCH  10  15
HETATM   15  C   UNL     1     -11.261  11.722  67.944  1.00  0.00    -0.267 A  
HETATM   16  N   UNL     1     -10.010  11.291  67.730  1.00  0.00    -0.174 NA 
HETATM   17  N   UNL     1      -9.914  11.253  66.364  1.00  0.00    -0.208 NA 
HETATM   18  N   UNL     1     -11.914  12.116  66.810  1.00  0.00    -0.615 NA 
HETATM   19  C   UNL     1     -11.057  11.843  65.861  1.00  0.00    -0.316 A  
BRANCH  17  20
HETATM   20  C   UNL     1      -8.789  10.784  65.669  1.00  0.00    -0.190 C  
HETATM   21  C   UNL     1      -8.289   9.544  65.505  1.00  0.00    -0.137 C  
BRANCH  21  22
HETATM   22  C   UNL     1      -8.731   8.319  66.215  1.00  0.00    -0.151 C  
HETATM   23  N   UNL     1      -9.204   8.507  67.493  1.00  0.00    -0.133 N  
HETATM   24  O   UNL     1      -8.726   7.208  65.695  1.00  0.00    -0.143 OA 
HETATM   25  H   UNL     1      -9.301   9.434  67.907  1.00  0.00     0.000 HD 
BRANCH  23  26
HETATM   26  N   UNL     1      -9.546   7.326  68.193  1.00  0.00    -0.139 NA 
HETATM   27  H   UNL     1     -10.184   6.625  67.817  1.00  0.00     0.000 HD 
BRANCH  26  28
HETATM   28  C   UNL     1      -8.925   7.202  69.460  1.00  0.00    -0.140 A  
HETATM   29  N   UNL     1      -9.650   7.257  70.605  1.00  0.00    -0.172 NA 
HETATM   30  C   UNL     1      -8.933   7.207  71.759  1.00  0.00    -0.128 A  
HETATM   31  C   UNL     1      -7.550   7.120  71.788  1.00  0.00    -0.087 A  
HETATM   32  N   UNL     1      -6.810   7.075  70.663  1.00  0.00    -0.053 NA 
HETATM   33  C   UNL     1      -7.527   7.128  69.511  1.00  0.00    -0.095 A  
ENDBRANCH  26  28
ENDBRANCH  23  26
ENDBRANCH  21  22
ENDBRANCH  17  20
ENDBRANCH  10  15
TORSDOF 5
ENDMDL
MODEL       90
REMARK 921   NORMALIZED FREE ENERGY PREDICTED BY IDOCK:   -6.85 KCAL/MOL
REMARK 922        TOTAL FREE ENERGY PREDICTED BY IDOCK:  -10.12 KCAL/MOL
REMARK 923 INTER-LIGAND FREE ENERGY PREDICTED BY IDOCK:   -9.55 KCAL/MOL
REMARK 924 INTRA-LIGAND FREE ENERGY PREDICTED BY IDOCK:   -0.58 KCAL/MOL
REMARK 927      BINDING AFFINITY PREDICTED BY RF-SCORE:    0.00 PKD
ROOT
HETATM    1  F   UNL     1      -9.197   3.986  68.167  1.00  0.00    -0.135 F  
HETATM    2  C   UNL     1      -9.872   5.162  68.302  1.00  0.00    -0.156 C  
HETATM    3  F   UNL     1      -9.032   6.128  67.840  1.00  0.00    -0.116 F  
HETATM    4  F   UNL     1     -10.903   5.102  67.415  1.00  0.00    -0.222 F  
HETATM    5  C   UNL     1     -10.340   5.427  69.713  1.00  0.00    -0.375 A  
HETATM    6  C   UNL     1     -10.091   4.522  70.755  1.00  0.00    -0.233 A  
HETATM    7  C   UNL     1     -10.525   4.790  72.065  1.00  0.00    -0.225 A  
HETATM    8  C   UNL     1     -10.242   3.817  73.185  1.00  0.00    -0.157 C  
HETATM    9  C   UNL     1     -11.226   5.984  72.325  1.00  0.00    -0.341 A  
HETATM   10  C   UNL     1     -11.495   6.898  71.298  1.00  0.00    -0.337 A  
HETATM   11  F   UNL     1     -11.379   3.367  73.787  1.00  0.00    -0.297 F  
HETATM   12  F   UNL     1      -9.571   2.704  72.780  1.00  0.00    -0.117 F  
HETATM   13  F   UNL     1      -9.485   4.367  74.174  1.00  0.00    -0.108 F  
HETATM   14  C   UNL     1     -11.041   6.608  70.001  1.00  0.00    -0.394 A  
ENDROOT
BRANCH  10  15
HETATM   15  C   UNL     1     -12.216   8.149  71.538  1.00  0.00    -0.301 A  
HETATM   16  N   UNL     1     -11.688   9.378  71.456  1.00  0.00    -0.369 NA 
HETATM   17  N   UNL     1     -12.771  10.202  71.612  1.00  0.00    -0.414 NA 
HETATM   18  N   UNL     1     -13.535   8.134  71.896  1.00  0.00    -0.335 NA 
HETATM   19  C   UNL     1     -13.842   9.404  71.961  1.00  0.00    -0.340 A  
BRANCH  17  20
HETATM   20  C   UNL     1     -12.713  11.601  71.522  1.00  0.00    -0.318 C  
HETATM   21  C   UNL     1     -12.380  12.422  70.506  1.00  0.00    -0.346 C  
BRANCH  21  22
HETATM   22  C   UNL     1     -11.783  12.016  69.210  1.00  0.00    -0.330 C  
HETATM   23  N   UNL     1     -10.761  12.810  68.748  1.00  0.00    -0.320 N  
HETATM   24  O   UNL     1     -12.135  11.011  68.599  1.00  0.00    -0.551 OA 
HETATM   25  H   UNL     1     -10.394  13.595  69.287  1.00  0.00     0.000 HD 
BRANCH  23  26
HETATM   26  N   UNL     1     -10.253  12.465  67.474  1.00  0.00    -0.207 NA 
HETATM   27  H   UNL     1      -9.526  11.763  67.339  1.00  0.00     0.000 HD 
BRANCH  26  28
HETATM   28  C   UNL     1     -10.840  13.179  66.401  1.00  0.00    -0.287 A  
HETATM   29  N   UNL     1     -10.495  14.465  66.141  1.00  0.00    -0.284 NA 
HETATM   30  C   UNL     1     -11.186  15.069  65.138  1.00  0.00    -0.388 A  
HETATM   31  C   UNL     1     -12.191  14.437  64.423  1.00  0.00    -0.458 A  
HETATM   32  N   UNL     1     -12.558  13.164  64.673  1.00  0.00    -0.648 NA 
HETATM   33  C   UNL     1     -11.869  12.563  65.676  1.00  0.00    -0.438 A  
ENDBRANCH  26  28
ENDBRANCH  23  26
ENDBRANCH  21  22
ENDBRANCH  17  20
ENDBRANCH  10  15
TORSDOF 5
ENDMDL
MODEL       91
REMARK 921   NORMALIZED FREE ENERGY PREDICTED BY IDOCK:   -6.85 KCAL/MOL
REMARK 922        TOTAL FREE ENERGY PREDICTED BY IDOCK:  -10.12 KCAL/MOL
REMARK 923 INTER-LIGAND FREE ENERGY PREDICTED BY IDOCK:   -9.23 KCAL/MOL
REMARK 924 INTRA-LIGAND FREE ENERGY PREDICTED BY IDOCK:   -0.89 KCAL/MOL
REMARK 927      BINDING AFFINITY PREDICTED BY RF-SCORE:    0.00 PKD
ROOT
HETATM    1  F   UNL     1      -9.998  19.359  67.913  1.00  0.00    -0.362 F  
HETATM    2  C   UNL     1     -10.057  18.385  66.961  1.00  0.00    -0.364 C  
HETATM    3  F   UNL     1     -10.799  18.903  65.945  1.00  0.00    -0.465 F  
HETATM    4  F   UNL     1      -8.790  18.261  66.479  1.00  0.00    -0.255 F  
HETATM    5  C   UNL     1     -10.609  17.077  67.474  1.00  0.00    -0.310 A  
HETATM    6  C   UNL     1     -11.005  16.916  68.809  1.00  0.00    -0.234 A  
HETATM    7  C   UNL     1     -11.527  15.694  69.266  1.00  0.00    -0.368 A  
HETATM    8  C   UNL     1     -11.965  15.531  70.703  1.00  0.00    -0.378 C  
HETATM    9  C   UNL     1     -11.644  14.617  68.365  1.00  0.00    -0.351 A  
HETATM   10  C   UNL     1     -11.245  14.751  67.029  1.00  0.00    -0.347 A  
HETATM   11  F   UNL     1     -11.292  14.534  71.345  1.00  0.00    -0.299 F  
HETATM   12  F   UNL     1     -11.778  16.649  71.457  1.00  0.00    -0.453 F  
HETATM   13  F   UNL     1     -13.287  15.226  70.815  1.00  0.00    -0.436 F  
HETATM   14  C   UNL     1     -10.736  15.987  66.599  1.00  0.00    -0.247 A  
ENDROOT
BRANCH  10  15
HETATM   15  C   UNL     1     -11.358  13.653  66.069  1.00  0.00    -0.312 A  
HETATM   16  N   UNL     1     -10.716  13.579  64.894  1.00  0.00    -0.357 NA 
HETATM   17  N   UNL     1     -11.022  12.323  64.441  1.00  0.00    -0.308 NA 
HETATM   18  N   UNL     1     -12.183  12.592  66.318  1.00  0.00    -0.566 NA 
HETATM   19  C   UNL     1     -11.979  11.806  65.293  1.00  0.00     0.138 A  
BRANCH  17  20
HETATM   20  C   UNL     1     -10.503  11.765  63.263  1.00  0.00    -0.388 C  
HETATM   21  C   UNL     1      -9.616  10.772  63.056  1.00  0.00    -0.381 C  
BRANCH  21  22
HETATM   22  C   UNL     1      -8.786  10.108  64.090  1.00  0.00    -0.222 C  
HETATM   23  N   UNL     1      -9.462   9.291  64.965  1.00  0.00    -0.453 N  
HETATM   24  O   UNL     1      -7.566  10.232  64.148  1.00  0.00    -0.146 OA 
HETATM   25  H   UNL     1     -10.461   9.104  64.875  1.00  0.00     0.000 HD 
BRANCH  23  26
HETATM   26  N   UNL     1      -8.678   8.727  65.998  1.00  0.00    -0.156 NA 
HETATM   27  H   UNL     1      -7.794   9.131  66.306  1.00  0.00     0.000 HD 
BRANCH  26  28
HETATM   28  C   UNL     1      -9.226   7.551  66.568  1.00  0.00    -0.174 A  
HETATM   29  N   UNL     1     -10.440   7.564  67.172  1.00  0.00    -0.309 NA 
HETATM   30  C   UNL     1     -10.822   6.395  67.751  1.00  0.00    -0.334 A  
HETATM   31  C   UNL     1     -10.033   5.256  67.750  1.00  0.00    -0.162 A  
HETATM   32  N   UNL     1      -8.818   5.225  67.166  1.00  0.00    -0.110 NA 
HETATM   33  C   UNL     1      -8.437   6.393  66.590  1.00  0.00    -0.115 A  
ENDBRANCH  26  28
ENDBRANCH  23  26
ENDBRANCH  21  22
ENDBRANCH  17  20
ENDBRANCH  10  15
TORSDOF 5
ENDMDL
MODEL       92
REMARK 921   NORMALIZED FREE ENERGY PREDICTED BY IDOCK:   -6.84 KCAL/MOL
REMARK 922        TOTAL FREE ENERGY PREDICTED BY IDOCK:  -10.10 KCAL/MOL
REMARK 923 INTER-LIGAND FREE ENERGY PREDICTED BY IDOCK:   -8.44 KCAL/MOL
REMARK 924 INTRA-LIGAND FREE ENERGY PREDICTED BY IDOCK:   -1.67 KCAL/MOL
REMARK 927      BINDING AFFINITY PREDICTED BY RF-SCORE:    0.00 PKD
ROOT
HETATM    1  F   UNL     1     -12.361  14.412  64.131  1.00  0.00    -0.481 F  
HETATM    2  C   UNL     1     -12.017  13.124  64.411  1.00  0.00    -0.397 C  
HETATM    3  F   UNL     1     -13.011  12.352  63.893  1.00  0.00    -0.463 F  
HETATM    4  F   UNL     1     -10.909  12.865  63.664  1.00  0.00    -0.401 F  
HETATM    5  C   UNL     1     -11.793  12.869  65.882  1.00  0.00    -0.476 A  
HETATM    6  C   UNL     1     -11.928  13.888  66.837  1.00  0.00    -0.467 A  
HETATM    7  C   UNL     1     -11.726  13.630  68.204  1.00  0.00    -0.392 A  
HETATM    8  C   UNL     1     -11.885  14.729  69.228  1.00  0.00    -0.318 C  
HETATM    9  C   UNL     1     -11.375  12.328  68.612  1.00  0.00    -0.339 A  
HETATM   10  C   UNL     1     -11.225  11.296  67.676  1.00  0.00    -0.357 A  
HETATM   11  F   UNL     1     -10.748  14.941  69.949  1.00  0.00    -0.251 F  
HETATM   12  F   UNL     1     -12.210  15.934  68.684  1.00  0.00    -0.346 F  
HETATM   13  F   UNL     1     -12.862  14.457  70.136  1.00  0.00    -0.384 F  
HETATM   14  C   UNL     1     -11.442  11.582  66.318  1.00  0.00    -0.124 A  
ENDROOT
BRANCH  10  15
HETATM   15  C   UNL     1     -10.866   9.933  68.069  1.00  0.00    -0.243 A  
HETATM   16  N   UNL     1     -10.883   9.457  69.322  1.00  0.00    -0.208 NA 
HETATM   17  N   UNL     1     -10.623   8.122  69.160  1.00  0.00    -0.202 NA 
HETATM   18  N   UNL     1     -10.454   9.025  67.136  1.00  0.00    -0.272 NA 
HETATM   19  C   UNL     1     -10.285   7.932  67.835  1.00  0.00    -0.209 A  
BRANCH  17  20
HETATM   20  C   UNL     1     -10.615   7.190  70.209  1.00  0.00    -0.227 C  
HETATM   21  C   UNL     1      -9.962   7.171  71.388  1.00  0.00    -0.193 C  
BRANCH  21  22
HETATM   22  C   UNL     1      -8.886   8.101  71.809  1.00  0.00    -0.155 C  
HETATM   23  N   UNL     1      -7.948   8.403  70.850  1.00  0.00    -0.098 N  
HETATM   24  O   UNL     1      -8.845   8.613  72.924  1.00  0.00    -0.367 OA 
HETATM   25  H   UNL     1      -8.018   8.059  69.892  1.00  0.00     0.000 HD 
BRANCH  23  26
HETATM   26  N   UNL     1      -6.880   9.223  71.283  1.00  0.00    -0.244 NA 
HETATM   27  H   UNL     1      -6.253   8.961  72.042  1.00  0.00     0.000 HD 
BRANCH  26  28
HETATM   28  C   UNL     1      -6.759  10.442  70.571  1.00  0.00    -0.031 A  
HETATM   29  N   UNL     1      -5.963  11.443  71.023  1.00  0.00    -0.355 NA 
HETATM   30  C   UNL     1      -5.992  12.592  70.297  1.00  0.00    -0.126 A  
HETATM   31  C   UNL     1      -6.786  12.758  69.173  1.00  0.00    -0.054 A  
HETATM   32  N   UNL     1      -7.593  11.781  68.714  1.00  0.00    -0.123 NA 
HETATM   33  C   UNL     1      -7.565  10.635  69.440  1.00  0.00    -0.134 A  
ENDBRANCH  26  28
ENDBRANCH  23  26
ENDBRANCH  21  22
ENDBRANCH  17  20
ENDBRANCH  10  15
TORSDOF 5
ENDMDL
MODEL       93
REMARK 921   NORMALIZED FREE ENERGY PREDICTED BY IDOCK:   -6.84 KCAL/MOL
REMARK 922        TOTAL FREE ENERGY PREDICTED BY IDOCK:  -10.10 KCAL/MOL
REMARK 923 INTER-LIGAND FREE ENERGY PREDICTED BY IDOCK:   -8.71 KCAL/MOL
REMARK 924 INTRA-LIGAND FREE ENERGY PREDICTED BY IDOCK:   -1.39 KCAL/MOL
REMARK 927      BINDING AFFINITY PREDICTED BY RF-SCORE:    0.00 PKD
ROOT
HETATM    1  F   UNL     1     -10.511   7.148  74.112  1.00  0.00    -0.390 F  
HETATM    2  C   UNL     1      -9.913   6.798  72.938  1.00  0.00    -0.174 C  
HETATM    3  F   UNL     1      -8.575   6.795  73.188  1.00  0.00    -0.118 F  
HETATM    4  F   UNL     1     -10.259   5.500  72.718  1.00  0.00    -0.188 F  
HETATM    5  C   UNL     1     -10.285   7.698  71.784  1.00  0.00    -0.225 A  
HETATM    6  C   UNL     1     -11.169   8.775  71.943  1.00  0.00    -0.438 A  
HETATM    7  C   UNL     1     -11.496   9.608  70.859  1.00  0.00    -0.427 A  
HETATM    8  C   UNL     1     -12.439  10.774  71.040  1.00  0.00    -0.420 C  
HETATM    9  C   UNL     1     -10.928   9.347  69.596  1.00  0.00    -0.216 A  
HETATM   10  C   UNL     1     -10.049   8.272  69.412  1.00  0.00    -0.198 A  
HETATM   11  F   UNL     1     -13.535  10.690  70.234  1.00  0.00    -0.242 F  
HETATM   12  F   UNL     1     -12.919  10.892  72.308  1.00  0.00    -0.541 F  
HETATM   13  F   UNL     1     -11.852  11.969  70.754  1.00  0.00    -0.406 F  
HETATM   14  C   UNL     1      -9.734   7.462  70.515  1.00  0.00    -0.175 A  
ENDROOT
BRANCH  10  15
HETATM   15  C   UNL     1      -9.440   7.978  68.114  1.00  0.00    -0.143 A  
HETATM   16  N   UNL     1      -8.760   8.853  67.359  1.00  0.00    -0.125 NA 
HETATM   17  N   UNL     1      -8.269   8.082  66.340  1.00  0.00    -0.109 NA 
HETATM   18  N   UNL     1      -9.550   6.734  67.559  1.00  0.00    -0.126 NA 
HETATM   19  C   UNL     1      -8.847   6.833  66.460  1.00  0.00    -0.143 A  
BRANCH  17  20
HETATM   20  C   UNL     1      -7.419   8.561  65.331  1.00  0.00    -0.086 C  
HETATM   21  C   UNL     1      -7.642   9.382  64.285  1.00  0.00    -0.115 C  
BRANCH  21  22
HETATM   22  C   UNL     1      -8.964   9.862  63.814  1.00  0.00    -0.250 C  
HETATM   23  N   UNL     1      -9.728  10.521  64.747  1.00  0.00    -0.277 N  
HETATM   24  O   UNL     1      -9.348   9.728  62.656  1.00  0.00    -0.277 OA 
HETATM   25  H   UNL     1      -9.388  10.721  65.688  1.00  0.00     0.000 HD 
BRANCH  23  26
HETATM   26  N   UNL     1     -11.020  10.903  64.314  1.00  0.00    -0.296 NA 
HETATM   27  H   UNL     1     -11.696  10.239  63.938  1.00  0.00     0.000 HD 
BRANCH  26  28
HETATM   28  C   UNL     1     -11.292  12.287  64.447  1.00  0.00    -0.336 A  
HETATM   29  N   UNL     1     -10.773  13.009  65.471  1.00  0.00    -0.277 NA 
HETATM   30  C   UNL     1     -11.171  14.306  65.538  1.00  0.00    -0.320 A  
HETATM   31  C   UNL     1     -12.059  14.873  64.637  1.00  0.00    -0.378 A  
HETATM   32  N   UNL     1     -12.595  14.171  63.620  1.00  0.00    -0.778 NA 
HETATM   33  C   UNL     1     -12.199  12.875  63.556  1.00  0.00    -0.512 A  
ENDBRANCH  26  28
ENDBRANCH  23  26
ENDBRANCH  21  22
ENDBRANCH  17  20
ENDBRANCH  10  15
TORSDOF 5
ENDMDL
MODEL       94
REMARK 921   NORMALIZED FREE ENERGY PREDICTED BY IDOCK:   -6.82 KCAL/MOL
REMARK 922        TOTAL FREE ENERGY PREDICTED BY IDOCK:  -10.07 KCAL/MOL
REMARK 923 INTER-LIGAND FREE ENERGY PREDICTED BY IDOCK:   -8.70 KCAL/MOL
REMARK 924 INTRA-LIGAND FREE ENERGY PREDICTED BY IDOCK:   -1.38 KCAL/MOL
REMARK 927      BINDING AFFINITY PREDICTED BY RF-SCORE:    0.00 PKD
ROOT
HETATM    1  F   UNL     1      -9.931   6.067  71.984  1.00  0.00    -0.179 F  
HETATM    2  C   UNL     1      -9.168   6.800  71.124  1.00  0.00    -0.159 C  
HETATM    3  F   UNL     1      -7.961   6.950  71.734  1.00  0.00    -0.097 F  
HETATM    4  F   UNL     1      -8.950   5.998  70.046  1.00  0.00    -0.137 F  
HETATM    5  C   UNL     1      -9.794   8.120  70.745  1.00  0.00    -0.201 A  
HETATM    6  C   UNL     1     -11.044   8.515  71.242  1.00  0.00    -0.320 A  
HETATM    7  C   UNL     1     -11.606   9.753  70.886  1.00  0.00    -0.441 A  
HETATM    8  C   UNL     1     -12.948  10.178  71.436  1.00  0.00    -0.429 C  
HETATM    9  C   UNL     1     -10.901  10.601  70.009  1.00  0.00    -0.280 A  
HETATM   10  C   UNL     1      -9.655  10.223  69.491  1.00  0.00    -0.225 A  
HETATM   11  F   UNL     1     -13.864  10.417  70.455  1.00  0.00    -0.135 F  
HETATM   12  F   UNL     1     -13.516   9.251  72.256  1.00  0.00    -0.396 F  
HETATM   13  F   UNL     1     -12.872  11.323  72.168  1.00  0.00    -0.500 F  
HETATM   14  C   UNL     1      -9.114   8.985  69.873  1.00  0.00    -0.176 A  
ENDROOT
BRANCH  10  15
HETATM   15  C   UNL     1      -8.896  11.084  68.583  1.00  0.00    -0.164 A  
HETATM   16  N   UNL     1      -8.606  12.375  68.797  1.00  0.00     0.060 NA 
HETATM   17  N   UNL     1      -7.769  12.691  67.760  1.00  0.00    -0.131 NA 
HETATM   18  N   UNL     1      -8.431  10.601  67.393  1.00  0.00    -0.122 NA 
HETATM   19  C   UNL     1      -7.768  11.613  66.896  1.00  0.00    -0.147 A  
BRANCH  17  20
HETATM   20  C   UNL     1      -7.142  13.937  67.609  1.00  0.00    -0.177 C  
HETATM   21  C   UNL     1      -7.603  15.128  67.179  1.00  0.00    -0.204 C  
BRANCH  21  22
HETATM   22  C   UNL     1      -8.923  15.382  66.552  1.00  0.00    -0.309 C  
HETATM   23  N   UNL     1      -9.957  14.591  66.994  1.00  0.00    -0.251 N  
HETATM   24  O   UNL     1      -9.108  16.268  65.723  1.00  0.00    -0.434 OA 
HETATM   25  H   UNL     1      -9.841  13.913  67.748  1.00  0.00     0.000 HD 
BRANCH  23  26
HETATM   26  N   UNL     1     -11.193  14.783  66.333  1.00  0.00    -0.341 NA 
HETATM   27  H   UNL     1     -11.809  15.571  66.530  1.00  0.00     0.000 HD 
BRANCH  26  28
HETATM   28  C   UNL     1     -11.501  13.786  65.375  1.00  0.00    -0.311 A  
HETATM   29  N   UNL     1     -10.576  13.367  64.476  1.00  0.00    -0.413 NA 
HETATM   30  C   UNL     1     -11.013  12.466  63.558  1.00  0.00    -0.450 A  
HETATM   31  C   UNL     1     -12.319  12.002  63.514  1.00  0.00    -0.551 A  
HETATM   32  N   UNL     1     -13.256  12.414  64.390  1.00  0.00    -0.778 NA 
HETATM   33  C   UNL     1     -12.819  13.315  65.305  1.00  0.00    -0.302 A  
ENDBRANCH  26  28
ENDBRANCH  23  26
ENDBRANCH  21  22
ENDBRANCH  17  20
ENDBRANCH  10  15
TORSDOF 5
ENDMDL
MODEL       95
REMARK 921   NORMALIZED FREE ENERGY PREDICTED BY IDOCK:   -6.81 KCAL/MOL
REMARK 922        TOTAL FREE ENERGY PREDICTED BY IDOCK:  -10.07 KCAL/MOL
REMARK 923 INTER-LIGAND FREE ENERGY PREDICTED BY IDOCK:   -8.78 KCAL/MOL
REMARK 924 INTRA-LIGAND FREE ENERGY PREDICTED BY IDOCK:   -1.29 KCAL/MOL
REMARK 927      BINDING AFFINITY PREDICTED BY RF-SCORE:    0.00 PKD
ROOT
HETATM    1  F   UNL     1      -6.348   8.307  70.917  1.00  0.00    -0.035 F  
HETATM    2  C   UNL     1      -6.755   9.184  69.957  1.00  0.00    -0.047 C  
HETATM    3  F   UNL     1      -6.781  10.405  70.555  1.00  0.00    -0.133 F  
HETATM    4  F   UNL     1      -5.746   9.230  69.045  1.00  0.00    -0.036 F  
HETATM    5  C   UNL     1      -8.080   8.816  69.332  1.00  0.00    -0.106 A  
HETATM    6  C   UNL     1      -8.789   7.671  69.724  1.00  0.00    -0.140 A  
HETATM    7  C   UNL     1     -10.026   7.351  69.139  1.00  0.00    -0.173 A  
HETATM    8  C   UNL     1     -10.791   6.123  69.576  1.00  0.00    -0.361 C  
HETATM    9  C   UNL     1     -10.552   8.194  68.140  1.00  0.00    -0.168 A  
HETATM   10  C   UNL     1      -9.857   9.337  67.725  1.00  0.00    -0.210 A  
HETATM   11  F   UNL     1     -11.019   5.257  68.548  1.00  0.00    -0.179 F  
HETATM   12  F   UNL     1     -10.153   5.400  70.536  1.00  0.00    -0.232 F  
HETATM   13  F   UNL     1     -12.014   6.426  70.091  1.00  0.00    -0.468 F  
HETATM   14  C   UNL     1      -8.628   9.637  68.334  1.00  0.00    -0.119 A  
ENDROOT
BRANCH  10  15
HETATM   15  C   UNL     1     -10.379  10.234  66.693  1.00  0.00    -0.219 A  
HETATM   16  N   UNL     1     -11.372  11.118  66.863  1.00  0.00    -0.385 NA 
HETATM   17  N   UNL     1     -11.390  11.810  65.680  1.00  0.00    -0.279 NA 
HETATM   18  N   UNL     1      -9.871  10.207  65.425  1.00  0.00    -0.289 NA 
HETATM   19  C   UNL     1     -10.526  11.163  64.819  1.00  0.00    -0.323 A  
BRANCH  17  20
HETATM   20  C   UNL     1     -12.231  12.903  65.422  1.00  0.00    -0.478 C  
HETATM   21  C   UNL     1     -12.346  14.106  66.018  1.00  0.00    -0.470 C  
BRANCH  21  22
HETATM   22  C   UNL     1     -11.696  14.524  67.283  1.00  0.00    -0.406 C  
HETATM   23  N   UNL     1     -11.654  13.574  68.276  1.00  0.00    -0.323 N  
HETATM   24  O   UNL     1     -11.182  15.628  67.437  1.00  0.00    -0.306 OA 
HETATM   25  H   UNL     1     -11.994  12.622  68.135  1.00  0.00     0.000 HD 
BRANCH  23  26
HETATM   26  N   UNL     1     -11.107  14.006  69.507  1.00  0.00    -0.397 NA 
HETATM   27  H   UNL     1     -10.104  14.101  69.664  1.00  0.00     0.000 HD 
BRANCH  26  28
HETATM   28  C   UNL     1     -12.073  14.294  70.503  1.00  0.00    -0.343 A  
HETATM   29  N   UNL     1     -12.312  15.568  70.901  1.00  0.00    -0.389 NA 
HETATM   30  C   UNL     1     -13.201  15.710  71.919  1.00  0.00    -0.453 A  
HETATM   31  C   UNL     1     -13.825  14.637  72.535  1.00  0.00    -0.458 A  
HETATM   32  N   UNL     1     -13.592  13.362  72.163  1.00  0.00    -0.530 NA 
HETATM   33  C   UNL     1     -12.703  13.221  71.149  1.00  0.00    -0.320 A  
ENDBRANCH  26  28
ENDBRANCH  23  26
ENDBRANCH  21  22
ENDBRANCH  17  20
ENDBRANCH  10  15
TORSDOF 5
ENDMDL
MODEL       96
REMARK 921   NORMALIZED FREE ENERGY PREDICTED BY IDOCK:   -6.80 KCAL/MOL
REMARK 922        TOTAL FREE ENERGY PREDICTED BY IDOCK:  -10.06 KCAL/MOL
REMARK 923 INTER-LIGAND FREE ENERGY PREDICTED BY IDOCK:   -8.53 KCAL/MOL
REMARK 924 INTRA-LIGAND FREE ENERGY PREDICTED BY IDOCK:   -1.52 KCAL/MOL
REMARK 927      BINDING AFFINITY PREDICTED BY RF-SCORE:    0.00 PKD
ROOT
HETATM    1  F   UNL     1     -11.123  13.988  66.523  1.00  0.00    -0.299 F  
HETATM    2  C   UNL     1     -11.176  12.739  67.065  1.00  0.00    -0.292 C  
HETATM    3  F   UNL     1     -11.978  12.010  66.241  1.00  0.00    -0.424 F  
HETATM    4  F   UNL     1      -9.924  12.222  66.929  1.00  0.00    -0.205 F  
HETATM    5  C   UNL     1     -11.653  12.726  68.497  1.00  0.00    -0.358 A  
HETATM    6  C   UNL     1     -11.992  13.908  69.173  1.00  0.00    -0.404 A  
HETATM    7  C   UNL     1     -12.444  13.875  70.503  1.00  0.00    -0.422 A  
HETATM    8  C   UNL     1     -12.820  15.150  71.222  1.00  0.00    -0.391 C  
HETATM    9  C   UNL     1     -12.549  12.635  71.163  1.00  0.00    -0.354 A  
HETATM   10  C   UNL     1     -12.208  11.443  70.512  1.00  0.00    -0.478 A  
HETATM   11  F   UNL     1     -12.082  15.352  72.350  1.00  0.00    -0.370 F  
HETATM   12  F   UNL     1     -12.652  16.269  70.464  1.00  0.00    -0.243 F  
HETATM   13  F   UNL     1     -14.122  15.162  71.616  1.00  0.00    -0.439 F  
HETATM   14  C   UNL     1     -11.768  11.505  69.179  1.00  0.00    -0.395 A  
ENDROOT
BRANCH  10  15
HETATM   15  C   UNL     1     -12.311  10.139  71.168  1.00  0.00    -0.385 A  
HETATM   16  N   UNL     1     -11.309   9.501  71.790  1.00  0.00    -0.330 NA 
HETATM   17  N   UNL     1     -11.924   8.419  72.362  1.00  0.00    -0.389 NA 
HETATM   18  N   UNL     1     -13.491   9.451  71.169  1.00  0.00    -0.268 NA 
HETATM   19  C   UNL     1     -13.220   8.390  71.883  1.00  0.00    -0.357 A  
BRANCH  17  20
HETATM   20  C   UNL     1     -11.273   7.492  73.190  1.00  0.00    -0.267 C  
HETATM   21  C   UNL     1     -10.099   6.844  73.061  1.00  0.00    -0.226 C  
BRANCH  21  22
HETATM   22  C   UNL     1      -9.242   6.816  71.851  1.00  0.00    -0.142 C  
HETATM   23  N   UNL     1      -9.829   7.263  70.691  1.00  0.00    -0.180 N  
HETATM   24  O   UNL     1      -8.066   6.461  71.875  1.00  0.00    -0.108 OA 
HETATM   25  H   UNL     1     -10.774   7.647  70.672  1.00  0.00     0.000 HD 
BRANCH  23  26
HETATM   26  N   UNL     1      -9.032   7.156  69.527  1.00  0.00    -0.141 NA 
HETATM   27  H   UNL     1      -8.968   6.299  68.978  1.00  0.00     0.000 HD 
BRANCH  26  28
HETATM   28  C   UNL     1      -8.332   8.341  69.191  1.00  0.00    -0.123 A  
HETATM   29  N   UNL     1      -8.662   9.532  69.747  1.00  0.00    -0.176 NA 
HETATM   30  C   UNL     1      -7.973  10.609  69.284  1.00  0.00    -0.135 A  
HETATM   31  C   UNL     1      -7.003  10.520  68.299  1.00  0.00    -0.073 A  
HETATM   32  N   UNL     1      -6.668   9.348  67.724  1.00  0.00    -0.067 NA 
HETATM   33  C   UNL     1      -7.359   8.274  68.185  1.00  0.00    -0.096 A  
ENDBRANCH  26  28
ENDBRANCH  23  26
ENDBRANCH  21  22
ENDBRANCH  17  20
ENDBRANCH  10  15
TORSDOF 5
ENDMDL
MODEL       97
REMARK 921   NORMALIZED FREE ENERGY PREDICTED BY IDOCK:   -6.79 KCAL/MOL
REMARK 922        TOTAL FREE ENERGY PREDICTED BY IDOCK:  -10.04 KCAL/MOL
REMARK 923 INTER-LIGAND FREE ENERGY PREDICTED BY IDOCK:   -8.52 KCAL/MOL
REMARK 924 INTRA-LIGAND FREE ENERGY PREDICTED BY IDOCK:   -1.52 KCAL/MOL
REMARK 927      BINDING AFFINITY PREDICTED BY RF-SCORE:    0.00 PKD
ROOT
HETATM    1  F   UNL     1      -7.098  13.327  66.886  1.00  0.00    -0.047 F  
HETATM    2  C   UNL     1      -7.576  12.534  67.885  1.00  0.00    -0.133 C  
HETATM    3  F   UNL     1      -6.918  11.349  67.767  1.00  0.00    -0.068 F  
HETATM    4  F   UNL     1      -7.140  13.096  69.045  1.00  0.00    -0.098 F  
HETATM    5  C   UNL     1      -9.077  12.368  67.853  1.00  0.00    -0.191 A  
HETATM    6  C   UNL     1      -9.869  12.993  66.878  1.00  0.00    -0.240 A  
HETATM    7  C   UNL     1     -11.263  12.818  66.858  1.00  0.00    -0.339 A  
HETATM    8  C   UNL     1     -12.108  13.484  65.797  1.00  0.00    -0.433 C  
HETATM    9  C   UNL     1     -11.868  12.009  67.840  1.00  0.00    -0.320 A  
HETATM   10  C   UNL     1     -11.099  11.383  68.829  1.00  0.00    -0.290 A  
HETATM   11  F   UNL     1     -13.052  14.314  66.325  1.00  0.00    -0.356 F  
HETATM   12  F   UNL     1     -11.388  14.245  64.929  1.00  0.00    -0.318 F  
HETATM   13  F   UNL     1     -12.784  12.586  65.029  1.00  0.00    -0.532 F  
HETATM   14  C   UNL     1      -9.707  11.567  68.819  1.00  0.00    -0.137 A  
ENDROOT
BRANCH  10  15
HETATM   15  C   UNL     1     -11.698  10.532  69.859  1.00  0.00    -0.294 A  
HETATM   16  N   UNL     1     -11.216   9.350  70.266  1.00  0.00    -0.250 NA 
HETATM   17  N   UNL     1     -12.020   9.025  71.327  1.00  0.00    -0.298 NA 
HETATM   18  N   UNL     1     -12.854  10.906  70.484  1.00  0.00    -0.267 NA 
HETATM   19  C   UNL     1     -13.043   9.951  71.359  1.00  0.00    -0.407 A  
BRANCH  17  20
HETATM   20  C   UNL     1     -11.840   7.887  72.128  1.00  0.00    -0.334 C  
HETATM   21  C   UNL     1     -11.372   6.656  71.846  1.00  0.00    -0.318 C  
BRANCH  21  22
HETATM   22  C   UNL     1     -11.084   6.115  70.496  1.00  0.00    -0.337 C  
HETATM   23  N   UNL     1     -11.689   6.770  69.449  1.00  0.00    -0.631 N  
HETATM   24  O   UNL     1     -10.322   5.173  70.303  1.00  0.00    -0.268 OA 
HETATM   25  H   UNL     1     -12.252   7.610  69.583  1.00  0.00     0.000 HD 
BRANCH  23  26
HETATM   26  N   UNL     1     -11.476   6.199  68.172  1.00  0.00    -0.345 NA 
HETATM   27  H   UNL     1     -11.957   5.358  67.855  1.00  0.00     0.000 HD 
BRANCH  26  28
HETATM   28  C   UNL     1     -10.537   6.896  67.373  1.00  0.00    -0.303 A  
HETATM   29  N   UNL     1     -10.714   8.204  67.062  1.00  0.00    -0.273 NA 
HETATM   30  C   UNL     1      -9.789   8.741  66.223  1.00  0.00    -0.272 A  
HETATM   31  C   UNL     1      -8.733   8.014  65.695  1.00  0.00    -0.125 A  
HETATM   32  N   UNL     1      -8.546   6.711  65.982  1.00  0.00    -0.145 NA 
HETATM   33  C   UNL     1      -9.471   6.175  66.818  1.00  0.00    -0.146 A  
ENDBRANCH  26  28
ENDBRANCH  23  26
ENDBRANCH  21  22
ENDBRANCH  17  20
ENDBRANCH  10  15
TORSDOF 5
ENDMDL
MODEL       98
REMARK 921   NORMALIZED FREE ENERGY PREDICTED BY IDOCK:   -6.72 KCAL/MOL
REMARK 922        TOTAL FREE ENERGY PREDICTED BY IDOCK:   -9.95 KCAL/MOL
REMARK 923 INTER-LIGAND FREE ENERGY PREDICTED BY IDOCK:   -8.21 KCAL/MOL
REMARK 924 INTRA-LIGAND FREE ENERGY PREDICTED BY IDOCK:   -1.74 KCAL/MOL
REMARK 927      BINDING AFFINITY PREDICTED BY RF-SCORE:    0.00 PKD
ROOT
HETATM    1  F   UNL     1      -9.015  16.531  67.623  1.00  0.00    -0.192 F  
HETATM    2  C   UNL     1      -9.498  15.814  68.677  1.00  0.00    -0.208 C  
HETATM    3  F   UNL     1      -8.405  15.368  69.355  1.00  0.00    -0.200 F  
HETATM    4  F   UNL     1     -10.106  16.718  69.493  1.00  0.00    -0.248 F  
HETATM    5  C   UNL     1     -10.423  14.693  68.267  1.00  0.00    -0.236 A  
HETATM    6  C   UNL     1     -10.737  14.450  66.922  1.00  0.00    -0.292 A  
HETATM    7  C   UNL     1     -11.591  13.395  66.558  1.00  0.00    -0.394 A  
HETATM    8  C   UNL     1     -11.915  13.130  65.106  1.00  0.00    -0.394 C  
HETATM    9  C   UNL     1     -12.143  12.580  67.566  1.00  0.00    -0.124 A  
HETATM   10  C   UNL     1     -11.852  12.810  68.917  1.00  0.00    -0.351 A  
HETATM   11  F   UNL     1     -13.251  13.202  64.847  1.00  0.00    -0.367 F  
HETATM   12  F   UNL     1     -11.323  14.008  64.250  1.00  0.00    -0.375 F  
HETATM   13  F   UNL     1     -11.519  11.893  64.701  1.00  0.00    -0.366 F  
HETATM   14  C   UNL     1     -10.987  13.865  69.249  1.00  0.00    -0.222 A  
ENDROOT
BRANCH  10  15
HETATM   15  C   UNL     1     -12.405  11.977  69.986  1.00  0.00    -0.108 A  
HETATM   16  N   UNL     1     -12.761  10.691  69.863  1.00  0.00    -0.147 NA 
HETATM   17  N   UNL     1     -13.069  10.320  71.145  1.00  0.00    -0.391 NA 
HETATM   18  N   UNL     1     -12.620  12.496  71.231  1.00  0.00    -0.306 NA 
HETATM   19  C   UNL     1     -13.052  11.467  71.914  1.00  0.00    -0.387 A  
BRANCH  17  20
HETATM   20  C   UNL     1     -13.428   9.017  71.521  1.00  0.00    -0.342 C  
HETATM   21  C   UNL     1     -12.763   7.847  71.448  1.00  0.00    -0.312 C  
BRANCH  21  22
HETATM   22  C   UNL     1     -11.481   7.610  70.742  1.00  0.00    -0.277 C  
HETATM   23  N   UNL     1     -11.386   8.146  69.479  1.00  0.00    -0.420 N  
HETATM   24  O   UNL     1     -10.537   7.015  71.254  1.00  0.00    -0.217 OA 
HETATM   25  H   UNL     1     -12.125   8.721  69.074  1.00  0.00     0.000 HD 
BRANCH  23  26
HETATM   26  N   UNL     1     -10.193   7.846  68.781  1.00  0.00    -0.202 NA 
HETATM   27  H   UNL     1      -9.691   6.966  68.896  1.00  0.00     0.000 HD 
BRANCH  26  28
HETATM   28  C   UNL     1      -9.756   8.873  67.908  1.00  0.00    -0.160 A  
HETATM   29  N   UNL     1      -9.360  10.078  68.385  1.00  0.00    -0.136 NA 
HETATM   30  C   UNL     1      -9.041  11.008  67.446  1.00  0.00    -0.141 A  
HETATM   31  C   UNL     1      -9.122  10.767  66.084  1.00  0.00    -0.174 A  
HETATM   32  N   UNL     1      -9.525   9.580  65.588  1.00  0.00    -0.244 NA 
HETATM   33  C   UNL     1      -9.845   8.653  66.527  1.00  0.00    -0.278 A  
ENDBRANCH  26  28
ENDBRANCH  23  26
ENDBRANCH  21  22
ENDBRANCH  17  20
ENDBRANCH  10  15
TORSDOF 5
ENDMDL
MODEL       99
REMARK 921   NORMALIZED FREE ENERGY PREDICTED BY IDOCK:   -6.68 KCAL/MOL
REMARK 922        TOTAL FREE ENERGY PREDICTED BY IDOCK:   -9.90 KCAL/MOL
REMARK 923 INTER-LIGAND FREE ENERGY PREDICTED BY IDOCK:   -8.42 KCAL/MOL
REMARK 924 INTRA-LIGAND FREE ENERGY PREDICTED BY IDOCK:   -1.48 KCAL/MOL
REMARK 927      BINDING AFFINITY PREDICTED BY RF-SCORE:    0.00 PKD
ROOT
HETATM    1  F   UNL     1     -13.903   9.440  73.127  1.00  0.00    -0.282 F  
HETATM    2  C   UNL     1     -13.169   9.277  71.991  1.00  0.00    -0.447 C  
HETATM    3  F   UNL     1     -12.094   8.523  72.348  1.00  0.00    -0.382 F  
HETATM    4  F   UNL     1     -13.924   8.495  71.171  1.00  0.00    -0.341 F  
HETATM    5  C   UNL     1     -12.772  10.581  71.341  1.00  0.00    -0.547 A  
HETATM    6  C   UNL     1     -13.149  11.819  71.880  1.00  0.00    -0.482 A  
HETATM    7  C   UNL     1     -12.762  13.023  71.268  1.00  0.00    -0.385 A  
HETATM    8  C   UNL     1     -13.160  14.354  71.861  1.00  0.00    -0.355 C  
HETATM    9  C   UNL     1     -11.990  12.977  70.090  1.00  0.00    -0.374 A  
HETATM   10  C   UNL     1     -11.610  11.751  69.527  1.00  0.00    -0.398 A  
HETATM   11  F   UNL     1     -13.892  15.114  70.998  1.00  0.00    -0.458 F  
HETATM   12  F   UNL     1     -13.916  14.241  72.988  1.00  0.00    -0.433 F  
HETATM   13  F   UNL     1     -12.085  15.112  72.211  1.00  0.00    -0.363 F  
HETATM   14  C   UNL     1     -12.004  10.565  70.167  1.00  0.00    -0.398 A  
ENDROOT
BRANCH  10  15
HETATM   15  C   UNL     1     -10.805  11.671  68.308  1.00  0.00    -0.219 A  
HETATM   16  N   UNL     1      -9.474  11.819  68.245  1.00  0.00    -0.190 NA 
HETATM   17  N   UNL     1      -9.179  11.510  66.943  1.00  0.00    -0.172 NA 
HETATM   18  N   UNL     1     -11.396  11.447  67.097  1.00  0.00    -0.432 NA 
HETATM   19  C   UNL     1     -10.381  11.380  66.274  1.00  0.00    -0.243 A  
BRANCH  17  20
HETATM   20  C   UNL     1      -7.876  11.455  66.425  1.00  0.00    -0.067 C  
HETATM   21  C   UNL     1      -6.949  10.477  66.431  1.00  0.00    -0.124 C  
BRANCH  21  22
HETATM   22  C   UNL     1      -7.020   9.207  67.192  1.00  0.00    -0.081 C  
HETATM   23  N   UNL     1      -8.120   9.056  68.002  1.00  0.00    -0.105 N  
HETATM   24  O   UNL     1      -6.181   8.317  67.084  1.00  0.00    -0.053 OA 
HETATM   25  H   UNL     1      -8.872   9.745  68.034  1.00  0.00     0.000 HD 
BRANCH  23  26
HETATM   26  N   UNL     1      -8.139   7.879  68.787  1.00  0.00    -0.124 NA 
HETATM   27  H   UNL     1      -7.623   7.789  69.662  1.00  0.00     0.000 HD 
BRANCH  26  28
HETATM   28  C   UNL     1      -8.936   6.837  68.253  1.00  0.00    -0.123 A  
HETATM   29  N   UNL     1      -8.421   5.602  68.030  1.00  0.00    -0.103 NA 
HETATM   30  C   UNL     1      -9.260   4.711  67.440  1.00  0.00    -0.131 A  
HETATM   31  C   UNL     1     -10.558   5.025  67.068  1.00  0.00    -0.078 A  
HETATM   32  N   UNL     1     -11.086   6.248  67.269  1.00  0.00    -0.349 NA 
HETATM   33  C   UNL     1     -10.246   7.138  67.856  1.00  0.00    -0.187 A  
ENDBRANCH  26  28
ENDBRANCH  23  26
ENDBRANCH  21  22
ENDBRANCH  17  20
ENDBRANCH  10  15
TORSDOF 5
ENDMDL
MODEL      100
REMARK 921   NORMALIZED FREE ENERGY PREDICTED BY IDOCK:   -6.68 KCAL/MOL
REMARK 922        TOTAL FREE ENERGY PREDICTED BY IDOCK:   -9.89 KCAL/MOL
REMARK 923 INTER-LIGAND FREE ENERGY PREDICTED BY IDOCK:   -8.47 KCAL/MOL
REMARK 924 INTRA-LIGAND FREE ENERGY PREDICTED BY IDOCK:   -1.42 KCAL/MOL
REMARK 927      BINDING AFFINITY PREDICTED BY RF-SCORE:    0.00 PKD
ROOT
HETATM    1  F   UNL     1     -11.086  15.182  66.871  1.00  0.00    -0.310 F  
HETATM    2  C   UNL     1     -11.023  13.841  67.106  1.00  0.00    -0.290 C  
HETATM    3  F   UNL     1     -11.744  13.256  66.112  1.00  0.00    -0.330 F  
HETATM    4  F   UNL     1      -9.726  13.487  66.892  1.00  0.00    -0.230 F  
HETATM    5  C   UNL     1     -11.508  13.451  68.482  1.00  0.00    -0.345 A  
HETATM    6  C   UNL     1     -11.964  14.405  69.403  1.00  0.00    -0.370 A  
HETATM    7  C   UNL     1     -12.422  14.022  70.675  1.00  0.00    -0.435 A  
HETATM    8  C   UNL     1     -12.923  15.054  71.658  1.00  0.00    -0.353 C  
HETATM    9  C   UNL     1     -12.412  12.657  71.026  1.00  0.00    -0.354 A  
HETATM   10  C   UNL     1     -11.953  11.687  70.126  1.00  0.00    -0.441 A  
HETATM   11  F   UNL     1     -12.217  15.053  72.824  1.00  0.00    -0.384 F  
HETATM   12  F   UNL     1     -12.857  16.329  71.186  1.00  0.00    -0.371 F  
HETATM   13  F   UNL     1     -14.224  14.854  72.005  1.00  0.00    -0.436 F  
HETATM   14  C   UNL     1     -11.511  12.099  68.859  1.00  0.00    -0.350 A  
ENDROOT
BRANCH  10  15
HETATM   15  C   UNL     1     -11.936  10.262  70.459  1.00  0.00    -0.323 A  
HETATM   16  N   UNL     1     -11.279   9.313  69.778  1.00  0.00    -0.148 NA 
HETATM   17  N   UNL     1     -11.441   8.194  70.551  1.00  0.00    -0.227 NA 
HETATM   18  N   UNL     1     -12.641   9.789  71.529  1.00  0.00    -0.368 NA 
HETATM   19  C   UNL     1     -12.342   8.515  71.547  1.00  0.00    -0.314 A  
BRANCH  17  20
HETATM   20  C   UNL     1     -10.852   6.952  70.268  1.00  0.00    -0.257 C  
HETATM   21  C   UNL     1      -9.654   6.625  69.744  1.00  0.00    -0.155 C  
BRANCH  21  22
HETATM   22  C   UNL     1      -8.679   7.562  69.135  1.00  0.00    -0.136 C  
HETATM   23  N   UNL     1      -9.138   8.288  68.062  1.00  0.00    -0.137 N  
HETATM   24  O   UNL     1      -7.545   7.725  69.576  1.00  0.00    -0.095 OA 
HETATM   25  H   UNL     1     -10.105   8.233  67.739  1.00  0.00     0.000 HD 
BRANCH  23  26
HETATM   26  N   UNL     1      -8.179   9.117  67.435  1.00  0.00    -0.107 NA 
HETATM   27  H   UNL     1      -7.246   9.272  67.817  1.00  0.00     0.000 HD 
BRANCH  26  28
HETATM   28  C   UNL     1      -8.625   9.715  66.231  1.00  0.00    -0.127 A  
HETATM   29  N   UNL     1      -9.861  10.266  66.137  1.00  0.00    -0.213 NA 
HETATM   30  C   UNL     1     -10.205  10.735  64.908  1.00  0.00    -0.320 A  
HETATM   31  C   UNL     1      -9.369  10.653  63.805  1.00  0.00    -0.271 A  
HETATM   32  N   UNL     1      -8.143  10.099  63.874  1.00  0.00    -0.156 NA 
HETATM   33  C   UNL     1      -7.801   9.629  65.100  1.00  0.00    -0.117 A  
ENDBRANCH  26  28
ENDBRANCH  23  26
ENDBRANCH  21  22
ENDBRANCH  17  20
ENDBRANCH  10  15
TORSDOF 5
ENDMDL
MODEL      101
REMARK 921   NORMALIZED FREE ENERGY PREDICTED BY IDOCK:   -6.67 KCAL/MOL
REMARK 922        TOTAL FREE ENERGY PREDICTED BY IDOCK:   -9.89 KCAL/MOL
REMARK 923 INTER-LIGAND FREE ENERGY PREDICTED BY IDOCK:   -9.03 KCAL/MOL
REMARK 924 INTRA-LIGAND FREE ENERGY PREDICTED BY IDOCK:   -0.86 KCAL/MOL
REMARK 927      BINDING AFFINITY PREDICTED BY RF-SCORE:    0.00 PKD
ROOT
HETATM    1  F   UNL     1     -13.357  15.829  71.470  1.00  0.00    -0.499 F  
HETATM    2  C   UNL     1     -13.054  14.507  71.341  1.00  0.00    -0.353 C  
HETATM    3  F   UNL     1     -12.421  14.156  72.493  1.00  0.00    -0.348 F  
HETATM    4  F   UNL     1     -14.247  13.851  71.349  1.00  0.00    -0.340 F  
HETATM    5  C   UNL     1     -12.234  14.197  70.112  1.00  0.00    -0.415 A  
HETATM    6  C   UNL     1     -11.847  15.200  69.210  1.00  0.00    -0.347 A  
HETATM    7  C   UNL     1     -11.075  14.894  68.077  1.00  0.00    -0.301 A  
HETATM    8  C   UNL     1     -10.651  15.980  67.116  1.00  0.00    -0.305 C  
HETATM    9  C   UNL     1     -10.693  13.557  67.846  1.00  0.00    -0.258 A  
HETATM   10  C   UNL     1     -11.076  12.538  68.727  1.00  0.00    -0.314 A  
HETATM   11  F   UNL     1     -11.097  15.760  65.847  1.00  0.00    -0.312 F  
HETATM   12  F   UNL     1     -11.106  17.216  67.461  1.00  0.00    -0.290 F  
HETATM   13  F   UNL     1      -9.297  16.096  67.024  1.00  0.00    -0.205 F  
HETATM   14  C   UNL     1     -11.839  12.875  69.856  1.00  0.00    -0.373 A  
ENDROOT
BRANCH  10  15
HETATM   15  C   UNL     1     -10.691  11.142  68.517  1.00  0.00    -0.201 A  
HETATM   16  N   UNL     1     -11.240  10.311  67.619  1.00  0.00    -0.308 NA 
HETATM   17  N   UNL     1     -10.456   9.191  67.698  1.00  0.00    -0.255 NA 
HETATM   18  N   UNL     1      -9.711  10.568  69.277  1.00  0.00    -0.215 NA 
HETATM   19  C   UNL     1      -9.606   9.365  68.772  1.00  0.00    -0.154 A  
BRANCH  17  20
HETATM   20  C   UNL     1     -10.610   8.066  66.874  1.00  0.00    -0.254 C  
HETATM   21  C   UNL     1     -10.857   6.772  67.160  1.00  0.00    -0.462 C  
BRANCH  21  22
HETATM   22  C   UNL     1     -10.846   6.154  68.508  1.00  0.00    -0.314 C  
HETATM   23  N   UNL     1     -11.668   6.740  69.441  1.00  0.00    -0.631 N  
HETATM   24  O   UNL     1     -10.187   5.155  68.778  1.00  0.00    -0.177 OA 
HETATM   25  H   UNL     1     -12.291   7.514  69.209  1.00  0.00     0.000 HD 
BRANCH  23  26
HETATM   26  N   UNL     1     -11.590   6.197  70.745  1.00  0.00    -0.268 NA 
HETATM   27  H   UNL     1     -12.226   5.476  71.082  1.00  0.00     0.000 HD 
BRANCH  26  28
HETATM   28  C   UNL     1     -10.553   6.743  71.540  1.00  0.00    -0.219 A  
HETATM   29  N   UNL     1      -9.631   5.946  72.135  1.00  0.00    -0.149 NA 
HETATM   30  C   UNL     1      -8.735   6.578  72.938  1.00  0.00    -0.123 A  
HETATM   31  C   UNL     1      -8.752   7.946  73.161  1.00  0.00    -0.220 A  
HETATM   32  N   UNL     1      -9.667   8.755  72.590  1.00  0.00    -0.167 NA 
HETATM   33  C   UNL     1     -10.562   8.122  71.791  1.00  0.00    -0.250 A  
ENDBRANCH  26  28
ENDBRANCH  23  26
ENDBRANCH  21  22
ENDBRANCH  17  20
ENDBRANCH  10  15
TORSDOF 5
ENDMDL
MODEL      102
REMARK 921   NORMALIZED FREE ENERGY PREDICTED BY IDOCK:   -6.67 KCAL/MOL
REMARK 922        TOTAL FREE ENERGY PREDICTED BY IDOCK:   -9.89 KCAL/MOL
REMARK 923 INTER-LIGAND FREE ENERGY PREDICTED BY IDOCK:   -8.17 KCAL/MOL
REMARK 924 INTRA-LIGAND FREE ENERGY PREDICTED BY IDOCK:   -1.71 KCAL/MOL
REMARK 927      BINDING AFFINITY PREDICTED BY RF-SCORE:    0.00 PKD
ROOT
HETATM    1  F   UNL     1     -11.958  13.275  62.779  1.00  0.00    -0.459 F  
HETATM    2  C   UNL     1     -12.002  12.337  63.766  1.00  0.00    -0.519 C  
HETATM    3  F   UNL     1     -13.282  11.878  63.786  1.00  0.00    -0.570 F  
HETATM    4  F   UNL     1     -11.235  11.301  63.327  1.00  0.00    -0.444 F  
HETATM    5  C   UNL     1     -11.552  12.858  65.110  1.00  0.00    -0.367 A  
HETATM    6  C   UNL     1     -11.129  14.184  65.284  1.00  0.00    -0.331 A  
HETATM    7  C   UNL     1     -10.724  14.655  66.544  1.00  0.00    -0.312 A  
HETATM    8  C   UNL     1     -10.282  16.088  66.727  1.00  0.00    -0.274 C  
HETATM    9  C   UNL     1     -10.738  13.774  67.643  1.00  0.00    -0.256 A  
HETATM   10  C   UNL     1     -11.147  12.442  67.492  1.00  0.00    -0.313 A  
HETATM   11  F   UNL     1      -9.008  16.187  67.201  1.00  0.00    -0.190 F  
HETATM   12  F   UNL     1     -10.307  16.814  65.575  1.00  0.00    -0.338 F  
HETATM   13  F   UNL     1     -11.066  16.767  67.609  1.00  0.00    -0.315 F  
HETATM   14  C   UNL     1     -11.555  12.003  66.223  1.00  0.00    -0.378 A  
ENDROOT
BRANCH  10  15
HETATM   15  C   UNL     1     -11.177  11.505  68.615  1.00  0.00    -0.248 A  
HETATM   16  N   UNL     1     -10.107  10.900  69.151  1.00  0.00    -0.204 NA 
HETATM   17  N   UNL     1     -10.619  10.256  70.247  1.00  0.00    -0.261 NA 
HETATM   18  N   UNL     1     -12.361  11.158  69.201  1.00  0.00    -0.424 NA 
HETATM   19  C   UNL     1     -11.993  10.371  70.180  1.00  0.00    -0.276 A  
BRANCH  17  20
HETATM   20  C   UNL     1      -9.842   9.542  71.171  1.00  0.00    -0.107 C  
HETATM   21  C   UNL     1      -8.997   8.504  71.020  1.00  0.00    -0.219 C  
BRANCH  21  22
HETATM   22  C   UNL     1      -8.808   7.699  69.789  1.00  0.00    -0.140 C  
HETATM   23  N   UNL     1      -8.505   8.408  68.651  1.00  0.00    -0.127 N  
HETATM   24  O   UNL     1      -8.869   6.473  69.778  1.00  0.00    -0.141 OA 
HETATM   25  H   UNL     1      -8.360   9.418  68.661  1.00  0.00     0.000 HD 
BRANCH  23  26
HETATM   26  N   UNL     1      -8.409   7.642  67.466  1.00  0.00    -0.120 NA 
HETATM   27  H   UNL     1      -8.404   6.623  67.465  1.00  0.00     0.000 HD 
BRANCH  26  28
HETATM   28  C   UNL     1      -8.319   8.413  66.281  1.00  0.00    -0.122 A  
HETATM   29  N   UNL     1      -8.086   7.830  65.080  1.00  0.00    -0.137 NA 
HETATM   30  C   UNL     1      -7.940   8.681  64.030  1.00  0.00    -0.158 A  
HETATM   31  C   UNL     1      -8.007  10.060  64.158  1.00  0.00    -0.152 A  
HETATM   32  N   UNL     1      -8.226  10.660  65.344  1.00  0.00    -0.152 NA 
HETATM   33  C   UNL     1      -8.368   9.810  66.392  1.00  0.00    -0.120 A  
ENDBRANCH  26  28
ENDBRANCH  23  26
ENDBRANCH  21  22
ENDBRANCH  17  20
ENDBRANCH  10  15
TORSDOF 5
ENDMDL
MODEL      103
REMARK 921   NORMALIZED FREE ENERGY PREDICTED BY IDOCK:   -6.64 KCAL/MOL
REMARK 922        TOTAL FREE ENERGY PREDICTED BY IDOCK:   -9.84 KCAL/MOL
REMARK 923 INTER-LIGAND FREE ENERGY PREDICTED BY IDOCK:   -8.75 KCAL/MOL
REMARK 924 INTRA-LIGAND FREE ENERGY PREDICTED BY IDOCK:   -1.09 KCAL/MOL
REMARK 927      BINDING AFFINITY PREDICTED BY RF-SCORE:    0.00 PKD
ROOT
HETATM    1  F   UNL     1      -8.788  15.736  67.283  1.00  0.00    -0.179 F  
HETATM    2  C   UNL     1      -8.413  14.459  67.575  1.00  0.00    -0.192 C  
HETATM    3  F   UNL     1      -7.080  14.394  67.313  1.00  0.00    -0.196 F  
HETATM    4  F   UNL     1      -8.540  14.336  68.925  1.00  0.00    -0.165 F  
HETATM    5  C   UNL     1      -9.204  13.415  66.824  1.00  0.00    -0.242 A  
HETATM    6  C   UNL     1     -10.223  13.764  65.926  1.00  0.00    -0.322 A  
HETATM    7  C   UNL     1     -10.942  12.779  65.228  1.00  0.00    -0.314 A  
HETATM    8  C   UNL     1     -12.030  13.163  64.253  1.00  0.00    -0.411 C  
HETATM    9  C   UNL     1     -10.633  11.421  65.444  1.00  0.00    -0.333 A  
HETATM   10  C   UNL     1      -9.625  11.047  66.343  1.00  0.00    -0.227 A  
HETATM   11  F   UNL     1     -13.241  12.633  64.584  1.00  0.00    -0.430 F  
HETATM   12  F   UNL     1     -12.225  14.507  64.161  1.00  0.00    -0.476 F  
HETATM   13  F   UNL     1     -11.767  12.739  62.986  1.00  0.00    -0.543 F  
HETATM   14  C   UNL     1      -8.918  12.055  67.019  1.00  0.00    -0.198 A  
ENDROOT
BRANCH  10  15
HETATM   15  C   UNL     1      -9.278   9.647  66.585  1.00  0.00    -0.151 A  
HETATM   16  N   UNL     1     -10.151   8.633  66.666  1.00  0.00    -0.287 NA 
HETATM   17  N   UNL     1      -9.349   7.525  66.747  1.00  0.00    -0.157 NA 
HETATM   18  N   UNL     1      -7.977   9.275  66.772  1.00  0.00    -0.107 NA 
HETATM   19  C   UNL     1      -8.051   7.974  66.896  1.00  0.00    -0.108 A  
BRANCH  17  20
HETATM   20  C   UNL     1      -9.830   6.207  66.772  1.00  0.00    -0.164 C  
HETATM   21  C   UNL     1     -10.386   5.474  67.757  1.00  0.00    -0.246 C  
BRANCH  21  22
HETATM   22  C   UNL     1     -10.463   5.847  69.190  1.00  0.00    -0.270 C  
HETATM   23  N   UNL     1     -11.668   6.358  69.611  1.00  0.00    -0.587 N  
HETATM   24  O   UNL     1      -9.536   5.674  69.976  1.00  0.00    -0.150 OA 
HETATM   25  H   UNL     1     -12.478   6.423  68.994  1.00  0.00     0.000 HD 
BRANCH  23  26
HETATM   26  N   UNL     1     -11.708   6.787  70.958  1.00  0.00    -0.337 NA 
HETATM   27  H   UNL     1     -11.509   6.167  71.743  1.00  0.00     0.000 HD 
BRANCH  26  28
HETATM   28  C   UNL     1     -12.051   8.152  71.123  1.00  0.00    -0.260 A  
HETATM   29  N   UNL     1     -11.179   9.138  70.798  1.00  0.00    -0.261 NA 
HETATM   30  C   UNL     1     -11.591  10.403  71.077  1.00  0.00    -0.295 A  
HETATM   31  C   UNL     1     -12.811  10.690  71.668  1.00  0.00    -0.465 A  
HETATM   32  N   UNL     1     -13.687   9.724  72.010  1.00  0.00    -0.325 NA 
HETATM   33  C   UNL     1     -13.274   8.461  71.733  1.00  0.00    -0.355 A  
ENDBRANCH  26  28
ENDBRANCH  23  26
ENDBRANCH  21  22
ENDBRANCH  17  20
ENDBRANCH  10  15
TORSDOF 5
ENDMDL
MODEL      104
REMARK 921   NORMALIZED FREE ENERGY PREDICTED BY IDOCK:   -6.63 KCAL/MOL
REMARK 922        TOTAL FREE ENERGY PREDICTED BY IDOCK:   -9.84 KCAL/MOL
REMARK 923 INTER-LIGAND FREE ENERGY PREDICTED BY IDOCK:   -8.49 KCAL/MOL
REMARK 924 INTRA-LIGAND FREE ENERGY PREDICTED BY IDOCK:   -1.35 KCAL/MOL
REMARK 927      BINDING AFFINITY PREDICTED BY RF-SCORE:    0.00 PKD
ROOT
HETATM    1  F   UNL     1     -12.871  15.751  70.605  1.00  0.00    -0.469 F  
HETATM    2  C   UNL     1     -12.676  14.497  71.104  1.00  0.00    -0.338 C  
HETATM    3  F   UNL     1     -11.746  14.629  72.088  1.00  0.00    -0.390 F  
HETATM    4  F   UNL     1     -13.839  14.160  71.725  1.00  0.00    -0.401 F  
HETATM    5  C   UNL     1     -12.270  13.491  70.054  1.00  0.00    -0.381 A  
HETATM    6  C   UNL     1     -12.125  13.848  68.705  1.00  0.00    -0.344 A  
HETATM    7  C   UNL     1     -11.736  12.900  67.744  1.00  0.00    -0.412 A  
HETATM    8  C   UNL     1     -11.569  13.294  66.295  1.00  0.00    -0.346 C  
HETATM    9  C   UNL     1     -11.497  11.571  68.147  1.00  0.00    -0.385 A  
HETATM   10  C   UNL     1     -11.644  11.189  69.486  1.00  0.00    -0.392 A  
HETATM   11  F   UNL     1     -12.380  12.582  65.462  1.00  0.00    -0.479 F  
HETATM   12  F   UNL     1     -11.849  14.605  66.054  1.00  0.00    -0.362 F  
HETATM   13  F   UNL     1     -10.300  13.098  65.843  1.00  0.00    -0.267 F  
HETATM   14  C   UNL     1     -12.025  12.160  70.426  1.00  0.00    -0.360 A  
ENDROOT
BRANCH  10  15
HETATM   15  C   UNL     1     -11.398   9.818  69.937  1.00  0.00    -0.192 A  
HETATM   16  N   UNL     1     -11.919   9.257  71.037  1.00  0.00    -0.299 NA 
HETATM   17  N   UNL     1     -11.525   7.948  70.945  1.00  0.00    -0.282 NA 
HETATM   18  N   UNL     1     -10.565   8.994  69.235  1.00  0.00    -0.227 NA 
HETATM   19  C   UNL     1     -10.639   7.864  69.889  1.00  0.00    -0.242 A  
BRANCH  17  20
HETATM   20  C   UNL     1     -11.907   6.948  71.853  1.00  0.00    -0.315 C  
HETATM   21  C   UNL     1     -11.372   6.547  73.023  1.00  0.00    -0.097 C  
BRANCH  21  22
HETATM   22  C   UNL     1     -10.065   6.972  73.581  1.00  0.00    -0.338 C  
HETATM   23  N   UNL     1      -9.592   8.185  73.139  1.00  0.00    -0.264 N  
HETATM   24  O   UNL     1      -9.453   6.316  74.419  1.00  0.00    -0.171 OA 
HETATM   25  H   UNL     1     -10.130   8.785  72.513  1.00  0.00     0.000 HD 
BRANCH  23  26
HETATM   26  N   UNL     1      -8.308   8.544  73.612  1.00  0.00    -0.380 NA 
HETATM   27  H   UNL     1      -8.158   9.011  74.505  1.00  0.00     0.000 HD 
BRANCH  26  28
HETATM   28  C   UNL     1      -7.249   8.199  72.736  1.00  0.00    -0.107 A  
HETATM   29  N   UNL     1      -6.176   7.496  73.176  1.00  0.00    -0.059 NA 
HETATM   30  C   UNL     1      -5.189   7.297  72.263  1.00  0.00    -0.036 A  
HETATM   31  C   UNL     1      -5.247   7.782  70.966  1.00  0.00    -0.026 A  
HETATM   32  N   UNL     1      -6.298   8.492  70.513  1.00  0.00    -0.035 NA 
HETATM   33  C   UNL     1      -7.282   8.693  71.425  1.00  0.00    -0.091 A  
ENDBRANCH  26  28
ENDBRANCH  23  26
ENDBRANCH  21  22
ENDBRANCH  17  20
ENDBRANCH  10  15
TORSDOF 5
ENDMDL
MODEL      105
REMARK 921   NORMALIZED FREE ENERGY PREDICTED BY IDOCK:   -6.62 KCAL/MOL
REMARK 922        TOTAL FREE ENERGY PREDICTED BY IDOCK:   -9.82 KCAL/MOL
REMARK 923 INTER-LIGAND FREE ENERGY PREDICTED BY IDOCK:   -8.09 KCAL/MOL
REMARK 924 INTRA-LIGAND FREE ENERGY PREDICTED BY IDOCK:   -1.73 KCAL/MOL
REMARK 927      BINDING AFFINITY PREDICTED BY RF-SCORE:    0.00 PKD
ROOT
HETATM    1  F   UNL     1      -9.243  11.458  62.330  1.00  0.00    -0.363 F  
HETATM    2  C   UNL     1      -8.975  10.798  63.492  1.00  0.00    -0.185 C  
HETATM    3  F   UNL     1      -9.447   9.534  63.318  1.00  0.00    -0.261 F  
HETATM    4  F   UNL     1      -7.619  10.691  63.553  1.00  0.00    -0.120 F  
HETATM    5  C   UNL     1      -9.556  11.472  64.712  1.00  0.00    -0.198 A  
HETATM    6  C   UNL     1     -10.288  12.664  64.619  1.00  0.00    -0.354 A  
HETATM    7  C   UNL     1     -10.831  13.271  65.765  1.00  0.00    -0.286 A  
HETATM    8  C   UNL     1     -11.629  14.549  65.656  1.00  0.00    -0.344 C  
HETATM    9  C   UNL     1     -10.625  12.671  67.023  1.00  0.00    -0.255 A  
HETATM   10  C   UNL     1      -9.889  11.485  67.141  1.00  0.00    -0.210 A  
HETATM   11  F   UNL     1     -11.090  15.567  66.385  1.00  0.00    -0.317 F  
HETATM   12  F   UNL     1     -11.730  15.018  64.382  1.00  0.00    -0.389 F  
HETATM   13  F   UNL     1     -12.908  14.404  66.100  1.00  0.00    -0.449 F  
HETATM   14  C   UNL     1      -9.367  10.896  65.978  1.00  0.00    -0.215 A  
ENDROOT
BRANCH  10  15
HETATM   15  C   UNL     1      -9.662  10.835  68.433  1.00  0.00    -0.174 A  
HETATM   16  N   UNL     1     -10.621  10.449  69.287  1.00  0.00    -0.216 NA 
HETATM   17  N   UNL     1      -9.931   9.770  70.256  1.00  0.00    -0.261 NA 
HETATM   18  N   UNL     1      -8.393  10.587  68.874  1.00  0.00    -0.138 NA 
HETATM   19  C   UNL     1      -8.586   9.958  70.005  1.00  0.00    -0.167 A  
BRANCH  17  20
HETATM   20  C   UNL     1     -10.538   9.111  71.336  1.00  0.00    -0.341 C  
HETATM   21  C   UNL     1     -11.030   7.863  71.464  1.00  0.00    -0.269 C  
BRANCH  21  22
HETATM   22  C   UNL     1     -11.224   6.881  70.370  1.00  0.00    -0.312 C  
HETATM   23  N   UNL     1     -11.369   7.411  69.109  1.00  0.00    -0.407 N  
HETATM   24  O   UNL     1     -11.214   5.667  70.553  1.00  0.00    -0.216 OA 
HETATM   25  H   UNL     1     -11.288   8.411  68.926  1.00  0.00     0.000 HD 
BRANCH  23  26
HETATM   26  N   UNL     1     -11.636   6.474  68.084  1.00  0.00    -0.511 NA 
HETATM   27  H   UNL     1     -12.523   5.978  68.004  1.00  0.00     0.000 HD 
BRANCH  26  28
HETATM   28  C   UNL     1     -10.564   6.283  67.178  1.00  0.00    -0.311 A  
HETATM   29  N   UNL     1      -9.771   7.316  66.801  1.00  0.00    -0.191 NA 
HETATM   30  C   UNL     1      -8.829   7.025  65.866  1.00  0.00    -0.103 A  
HETATM   31  C   UNL     1      -8.679   5.765  65.308  1.00  0.00    -0.096 A  
HETATM   32  N   UNL     1      -9.464   4.727  65.660  1.00  0.00    -0.161 NA 
HETATM   33  C   UNL     1     -10.406   5.020  66.591  1.00  0.00    -0.270 A  
ENDBRANCH  26  28
ENDBRANCH  23  26
ENDBRANCH  21  22
ENDBRANCH  17  20
ENDBRANCH  10  15
TORSDOF 5
ENDMDL
MODEL      106
REMARK 921   NORMALIZED FREE ENERGY PREDICTED BY IDOCK:   -6.62 KCAL/MOL
REMARK 922        TOTAL FREE ENERGY PREDICTED BY IDOCK:   -9.82 KCAL/MOL
REMARK 923 INTER-LIGAND FREE ENERGY PREDICTED BY IDOCK:   -8.50 KCAL/MOL
REMARK 924 INTRA-LIGAND FREE ENERGY PREDICTED BY IDOCK:   -1.32 KCAL/MOL
REMARK 927      BINDING AFFINITY PREDICTED BY RF-SCORE:    0.00 PKD
ROOT
HETATM    1  F   UNL     1      -9.815  12.182  64.309  1.00  0.00    -0.270 F  
HETATM    2  C   UNL     1     -10.293  11.658  65.472  1.00  0.00    -0.264 C  
HETATM    3  F   UNL     1      -9.908  12.517  66.454  1.00  0.00    -0.228 F  
HETATM    4  F   UNL     1     -11.649  11.757  65.393  1.00  0.00    -0.368 F  
HETATM    5  C   UNL     1      -9.832  10.243  65.726  1.00  0.00    -0.320 A  
HETATM    6  C   UNL     1      -8.998   9.564  64.825  1.00  0.00    -0.263 A  
HETATM    7  C   UNL     1      -8.570   8.251  65.084  1.00  0.00    -0.132 A  
HETATM    8  C   UNL     1      -7.661   7.531  64.115  1.00  0.00    -0.132 C  
HETATM    9  C   UNL     1      -8.995   7.610  66.264  1.00  0.00    -0.203 A  
HETATM   10  C   UNL     1      -9.836   8.264  67.174  1.00  0.00    -0.281 A  
HETATM   11  F   UNL     1      -8.210   6.376  63.643  1.00  0.00    -0.119 F  
HETATM   12  F   UNL     1      -7.348   8.270  63.015  1.00  0.00    -0.089 F  
HETATM   13  F   UNL     1      -6.472   7.181  64.677  1.00  0.00    -0.035 F  
HETATM   14  C   UNL     1     -10.240   9.579  66.894  1.00  0.00    -0.317 A  
ENDROOT
BRANCH  10  15
HETATM   15  C   UNL     1     -10.291   7.626  68.410  1.00  0.00    -0.194 A  
HETATM   16  N   UNL     1      -9.984   8.031  69.651  1.00  0.00    -0.185 NA 
HETATM   17  N   UNL     1     -10.754   7.227  70.449  1.00  0.00    -0.230 NA 
HETATM   18  N   UNL     1     -11.080   6.511  68.370  1.00  0.00    -0.285 NA 
HETATM   19  C   UNL     1     -11.326   6.272  69.632  1.00  0.00    -0.422 A  
BRANCH  17  20
HETATM   20  C   UNL     1     -10.822   7.340  71.846  1.00  0.00    -0.226 C  
HETATM   21  C   UNL     1     -11.682   7.993  72.652  1.00  0.00    -0.418 C  
BRANCH  21  22
HETATM   22  C   UNL     1     -12.724   8.958  72.225  1.00  0.00    -0.397 C  
HETATM   23  N   UNL     1     -12.304   9.954  71.376  1.00  0.00    -0.374 N  
HETATM   24  O   UNL     1     -13.901   8.862  72.560  1.00  0.00    -0.456 OA 
HETATM   25  H   UNL     1     -11.351   9.996  71.013  1.00  0.00     0.000 HD 
BRANCH  23  26
HETATM   26  N   UNL     1     -13.283  10.917  71.038  1.00  0.00    -0.184 NA 
HETATM   27  H   UNL     1     -14.166  10.676  70.590  1.00  0.00     0.000 HD 
BRANCH  26  28
HETATM   28  C   UNL     1     -12.931  12.247  71.377  1.00  0.00    -0.256 A  
HETATM   29  N   UNL     1     -13.466  12.860  72.462  1.00  0.00    -0.483 NA 
HETATM   30  C   UNL     1     -13.114  14.161  72.637  1.00  0.00    -0.472 A  
HETATM   31  C   UNL     1     -12.276  14.842  71.769  1.00  0.00    -0.348 A  
HETATM   32  N   UNL     1     -11.742  14.256  70.679  1.00  0.00    -0.263 NA 
HETATM   33  C   UNL     1     -12.096  12.957  70.504  1.00  0.00    -0.282 A  
ENDBRANCH  26  28
ENDBRANCH  23  26
ENDBRANCH  21  22
ENDBRANCH  17  20
ENDBRANCH  10  15
TORSDOF 5
ENDMDL
MODEL      107
REMARK 921   NORMALIZED FREE ENERGY PREDICTED BY IDOCK:   -6.62 KCAL/MOL
REMARK 922        TOTAL FREE ENERGY PREDICTED BY IDOCK:   -9.81 KCAL/MOL
REMARK 923 INTER-LIGAND FREE ENERGY PREDICTED BY IDOCK:   -8.12 KCAL/MOL
REMARK 924 INTRA-LIGAND FREE ENERGY PREDICTED BY IDOCK:   -1.70 KCAL/MOL
REMARK 927      BINDING AFFINITY PREDICTED BY RF-SCORE:    0.00 PKD
ROOT
HETATM    1  F   UNL     1      -7.090   8.444  71.810  1.00  0.00    -0.064 F  
HETATM    2  C   UNL     1      -7.353   9.201  70.708  1.00  0.00    -0.114 C  
HETATM    3  F   UNL     1      -6.660  10.360  70.878  1.00  0.00    -0.091 F  
HETATM    4  F   UNL     1      -6.762   8.556  69.665  1.00  0.00    -0.038 F  
HETATM    5  C   UNL     1      -8.827   9.436  70.480  1.00  0.00    -0.287 A  
HETATM    6  C   UNL     1      -9.801   8.903  71.338  1.00  0.00    -0.376 A  
HETATM    7  C   UNL     1     -11.168   9.141  71.116  1.00  0.00    -0.395 A  
HETATM    8  C   UNL     1     -12.211   8.575  72.051  1.00  0.00    -0.366 C  
HETATM    9  C   UNL     1     -11.559   9.921  70.009  1.00  0.00    -0.235 A  
HETATM   10  C   UNL     1     -10.605  10.456  69.134  1.00  0.00    -0.255 A  
HETATM   11  F   UNL     1     -13.099   7.760  71.413  1.00  0.00    -0.325 F  
HETATM   12  F   UNL     1     -11.686   7.832  73.063  1.00  0.00    -0.378 F  
HETATM   13  F   UNL     1     -12.955   9.545  72.651  1.00  0.00    -0.439 F  
HETATM   14  C   UNL     1      -9.246  10.209  69.386  1.00  0.00    -0.229 A  
ENDROOT
BRANCH  10  15
HETATM   15  C   UNL     1     -10.979  11.273  67.979  1.00  0.00    -0.247 A  
HETATM   16  N   UNL     1     -10.494  11.132  66.737  1.00  0.00    -0.241 NA 
HETATM   17  N   UNL     1     -11.246  12.006  65.999  1.00  0.00    -0.325 NA 
HETATM   18  N   UNL     1     -11.877  12.294  68.111  1.00  0.00    -0.394 NA 
HETATM   19  C   UNL     1     -12.002  12.744  66.889  1.00  0.00    -0.310 A  
BRANCH  17  20
HETATM   20  C   UNL     1     -11.143  12.149  64.607  1.00  0.00    -0.317 C  
HETATM   21  C   UNL     1     -10.465  11.444  63.680  1.00  0.00    -0.472 C  
BRANCH  21  22
HETATM   22  C   UNL     1      -9.456  10.390  63.946  1.00  0.00    -0.304 C  
HETATM   23  N   UNL     1      -9.877   9.344  64.732  1.00  0.00    -0.300 N  
HETATM   24  O   UNL     1      -8.326  10.411  63.466  1.00  0.00    -0.166 OA 
HETATM   25  H   UNL     1     -10.839   9.264  65.064  1.00  0.00     0.000 HD 
BRANCH  23  26
HETATM   26  N   UNL     1      -8.886   8.385  65.049  1.00  0.00    -0.405 NA 
HETATM   27  H   UNL     1      -8.091   8.190  64.442  1.00  0.00     0.000 HD 
BRANCH  26  28
HETATM   28  C   UNL     1      -9.095   7.720  66.282  1.00  0.00    -0.178 A  
HETATM   29  N   UNL     1      -8.077   7.092  66.922  1.00  0.00    -0.115 NA 
HETATM   30  C   UNL     1      -8.418   6.422  68.054  1.00  0.00    -0.118 A  
HETATM   31  C   UNL     1      -9.716   6.358  68.535  1.00  0.00    -0.132 A  
HETATM   32  N   UNL     1     -10.743   6.964  67.908  1.00  0.00    -0.229 NA 
HETATM   33  C   UNL     1     -10.403   7.631  66.777  1.00  0.00    -0.273 A  
ENDBRANCH  26  28
ENDBRANCH  23  26
ENDBRANCH  21  22
ENDBRANCH  17  20
ENDBRANCH  10  15
TORSDOF 5
ENDMDL
MODEL      108
REMARK 921   NORMALIZED FREE ENERGY PREDICTED BY IDOCK:   -6.61 KCAL/MOL
REMARK 922        TOTAL FREE ENERGY PREDICTED BY IDOCK:   -9.81 KCAL/MOL
REMARK 923 INTER-LIGAND FREE ENERGY PREDICTED BY IDOCK:   -8.12 KCAL/MOL
REMARK 924 INTRA-LIGAND FREE ENERGY PREDICTED BY IDOCK:   -1.69 KCAL/MOL
REMARK 927      BINDING AFFINITY PREDICTED BY RF-SCORE:    0.00 PKD
ROOT
HETATM    1  F   UNL     1     -10.737   6.000  71.064  1.00  0.00    -0.266 F  
HETATM    2  C   UNL     1     -11.297   6.975  70.295  1.00  0.00    -0.295 C  
HETATM    3  F   UNL     1     -11.783   6.346  69.191  1.00  0.00    -0.420 F  
HETATM    4  F   UNL     1     -12.383   7.416  70.988  1.00  0.00    -0.334 F  
HETATM    5  C   UNL     1     -10.341   8.092  69.952  1.00  0.00    -0.221 A  
HETATM    6  C   UNL     1      -9.013   8.093  70.406  1.00  0.00    -0.146 A  
HETATM    7  C   UNL     1      -8.134   9.136  70.068  1.00  0.00    -0.130 A  
HETATM    8  C   UNL     1      -6.702   9.124  70.549  1.00  0.00    -0.069 C  
HETATM    9  C   UNL     1      -8.602  10.196  69.267  1.00  0.00    -0.180 A  
HETATM   10  C   UNL     1      -9.926  10.222  68.809  1.00  0.00    -0.187 A  
HETATM   11  F   UNL     1      -6.393  10.220  71.299  1.00  0.00    -0.022 F  
HETATM   12  F   UNL     1      -6.400   8.047  71.325  1.00  0.00    -0.034 F  
HETATM   13  F   UNL     1      -5.807   9.105  69.524  1.00  0.00    -0.033 F  
HETATM   14  C   UNL     1     -10.779   9.161  69.156  1.00  0.00    -0.190 A  
ENDROOT
BRANCH  10  15
HETATM   15  C   UNL     1     -10.440  11.306  67.972  1.00  0.00    -0.188 A  
HETATM   16  N   UNL     1      -9.771  12.422  67.650  1.00  0.00    -0.191 NA 
HETATM   17  N   UNL     1     -10.595  13.039  66.746  1.00  0.00    -0.261 NA 
HETATM   18  N   UNL     1     -11.705  11.249  67.459  1.00  0.00    -0.599 NA 
HETATM   19  C   UNL     1     -11.784  12.336  66.734  1.00  0.00    -0.342 A  
BRANCH  17  20
HETATM   20  C   UNL     1     -10.270  14.224  66.068  1.00  0.00    -0.315 C  
HETATM   21  C   UNL     1     -10.240  15.509  66.472  1.00  0.00    -0.291 C  
BRANCH  21  22
HETATM   22  C   UNL     1     -10.749  16.035  67.761  1.00  0.00    -0.323 C  
HETATM   23  N   UNL     1     -10.925  15.105  68.759  1.00  0.00    -0.244 N  
HETATM   24  O   UNL     1     -10.962  17.228  67.958  1.00  0.00    -0.350 OA 
HETATM   25  H   UNL     1     -10.667  14.125  68.642  1.00  0.00     0.000 HD 
BRANCH  23  26
HETATM   26  N   UNL     1     -11.488  15.600  69.958  1.00  0.00    -0.313 NA 
HETATM   27  H   UNL     1     -11.402  16.573  70.250  1.00  0.00     0.000 HD 
BRANCH  26  28
HETATM   28  C   UNL     1     -12.183  14.628  70.719  1.00  0.00    -0.324 A  
HETATM   29  N   UNL     1     -12.135  13.313  70.389  1.00  0.00    -0.352 NA 
HETATM   30  C   UNL     1     -12.907  12.488  71.145  1.00  0.00    -0.211 A  
HETATM   31  C   UNL     1     -13.710  12.940  72.180  1.00  0.00    -0.414 A  
HETATM   32  N   UNL     1     -13.781  14.243  72.517  1.00  0.00    -0.528 NA 
HETATM   33  C   UNL     1     -13.012  15.066  71.761  1.00  0.00    -0.347 A  
ENDBRANCH  26  28
ENDBRANCH  23  26
ENDBRANCH  21  22
ENDBRANCH  17  20
ENDBRANCH  10  15
TORSDOF 5
ENDMDL
MODEL      109
REMARK 921   NORMALIZED FREE ENERGY PREDICTED BY IDOCK:   -6.60 KCAL/MOL
REMARK 922        TOTAL FREE ENERGY PREDICTED BY IDOCK:   -9.79 KCAL/MOL
REMARK 923 INTER-LIGAND FREE ENERGY PREDICTED BY IDOCK:   -8.38 KCAL/MOL
REMARK 924 INTRA-LIGAND FREE ENERGY PREDICTED BY IDOCK:   -1.41 KCAL/MOL
REMARK 927      BINDING AFFINITY PREDICTED BY RF-SCORE:    0.00 PKD
ROOT
HETATM    1  F   UNL     1      -9.215  11.932  62.592  1.00  0.00    -0.301 F  
HETATM    2  C   UNL     1      -9.145  10.699  63.166  1.00  0.00    -0.269 C  
HETATM    3  F   UNL     1      -9.836   9.865  62.342  1.00  0.00    -0.248 F  
HETATM    4  F   UNL     1      -7.840  10.322  63.077  1.00  0.00    -0.138 F  
HETATM    5  C   UNL     1      -9.659  10.668  64.585  1.00  0.00    -0.334 A  
HETATM    6  C   UNL     1     -10.146  11.820  65.220  1.00  0.00    -0.300 A  
HETATM    7  C   UNL     1     -10.630  11.770  66.538  1.00  0.00    -0.289 A  
HETATM    8  C   UNL     1     -11.165  13.012  67.211  1.00  0.00    -0.289 C  
HETATM    9  C   UNL     1     -10.616  10.542  67.229  1.00  0.00    -0.317 A  
HETATM   10  C   UNL     1     -10.125   9.380  66.619  1.00  0.00    -0.332 A  
HETATM   11  F   UNL     1     -10.487  13.323  68.352  1.00  0.00    -0.226 F  
HETATM   12  F   UNL     1     -11.101  14.123  66.427  1.00  0.00    -0.303 F  
HETATM   13  F   UNL     1     -12.472  12.888  67.571  1.00  0.00    -0.260 F  
HETATM   14  C   UNL     1      -9.657   9.459  65.298  1.00  0.00    -0.251 A  
ENDROOT
BRANCH  10  15
HETATM   15  C   UNL     1     -10.102   8.089  67.309  1.00  0.00    -0.240 A  
HETATM   16  N   UNL     1      -9.282   7.763  68.318  1.00  0.00    -0.140 NA 
HETATM   17  N   UNL     1      -9.739   6.534  68.716  1.00  0.00    -0.129 NA 
HETATM   18  N   UNL     1     -10.945   7.083  66.931  1.00  0.00    -0.324 NA 
HETATM   19  C   UNL     1     -10.683   6.133  67.791  1.00  0.00    -0.303 A  
BRANCH  17  20
HETATM   20  C   UNL     1      -9.226   5.822  69.811  1.00  0.00    -0.140 C  
HETATM   21  C   UNL     1      -9.711   5.609  71.050  1.00  0.00    -0.221 C  
BRANCH  21  22
HETATM   22  C   UNL     1     -10.895   6.268  71.653  1.00  0.00    -0.251 C  
HETATM   23  N   UNL     1     -11.420   7.322  70.942  1.00  0.00    -0.283 N  
HETATM   24  O   UNL     1     -11.414   5.882  72.696  1.00  0.00    -0.291 OA 
HETATM   25  H   UNL     1     -11.057   7.597  70.029  1.00  0.00     0.000 HD 
BRANCH  23  26
HETATM   26  N   UNL     1     -12.496   7.996  71.563  1.00  0.00    -0.305 NA 
HETATM   27  H   UNL     1     -13.207   7.516  72.113  1.00  0.00     0.000 HD 
BRANCH  26  28
HETATM   28  C   UNL     1     -12.502   9.398  71.353  1.00  0.00    -0.352 A  
HETATM   29  N   UNL     1     -11.638   9.982  70.487  1.00  0.00    -0.301 NA 
HETATM   30  C   UNL     1     -11.685  11.339  70.433  1.00  0.00    -0.304 A  
HETATM   31  C   UNL     1     -12.542  12.099  71.213  1.00  0.00    -0.238 A  
HETATM   32  N   UNL     1     -13.400  11.539  72.089  1.00  0.00    -0.374 NA 
HETATM   33  C   UNL     1     -13.351  10.184  72.144  1.00  0.00    -0.328 A  
ENDBRANCH  26  28
ENDBRANCH  23  26
ENDBRANCH  21  22
ENDBRANCH  17  20
ENDBRANCH  10  15
TORSDOF 5
ENDMDL
MODEL      110
REMARK 921   NORMALIZED FREE ENERGY PREDICTED BY IDOCK:   -6.59 KCAL/MOL
REMARK 922        TOTAL FREE ENERGY PREDICTED BY IDOCK:   -9.77 KCAL/MOL
REMARK 923 INTER-LIGAND FREE ENERGY PREDICTED BY IDOCK:   -8.19 KCAL/MOL
REMARK 924 INTRA-LIGAND FREE ENERGY PREDICTED BY IDOCK:   -1.59 KCAL/MOL
REMARK 927      BINDING AFFINITY PREDICTED BY RF-SCORE:    0.00 PKD
ROOT
HETATM    1  F   UNL     1      -9.317  11.553  63.298  1.00  0.00    -0.267 F  
HETATM    2  C   UNL     1      -9.901  11.165  64.466  1.00  0.00    -0.280 C  
HETATM    3  F   UNL     1      -9.626  12.148  65.365  1.00  0.00    -0.239 F  
HETATM    4  F   UNL     1     -11.243  11.219  64.245  1.00  0.00    -0.412 F  
HETATM    5  C   UNL     1      -9.449   9.804  64.939  1.00  0.00    -0.331 A  
HETATM    6  C   UNL     1      -8.522   9.041  64.215  1.00  0.00    -0.185 A  
HETATM    7  C   UNL     1      -8.105   7.781  64.676  1.00  0.00    -0.123 A  
HETATM    8  C   UNL     1      -7.095   6.969  63.898  1.00  0.00    -0.061 C  
HETATM    9  C   UNL     1      -8.636   7.280  65.881  1.00  0.00    -0.159 A  
HETATM   10  C   UNL     1      -9.571   8.020  66.617  1.00  0.00    -0.297 A  
HETATM   11  F   UNL     1      -7.580   5.751  63.524  1.00  0.00    -0.057 F  
HETATM   12  F   UNL     1      -6.684   7.574  62.750  1.00  0.00    -0.065 F  
HETATM   13  F   UNL     1      -5.963   6.721  64.612  1.00  0.00    -0.032 F  
HETATM   14  C   UNL     1      -9.962   9.280  66.136  1.00  0.00    -0.348 A  
ENDROOT
BRANCH  10  15
HETATM   15  C   UNL     1     -10.138   7.529  67.874  1.00  0.00    -0.182 A  
HETATM   16  N   UNL     1      -9.944   8.080  69.080  1.00  0.00    -0.183 NA 
HETATM   17  N   UNL     1     -10.785   7.369  69.895  1.00  0.00    -0.240 NA 
HETATM   18  N   UNL     1     -10.922   6.410  67.894  1.00  0.00    -0.325 NA 
HETATM   19  C   UNL     1     -11.283   6.319  69.148  1.00  0.00    -0.371 A  
BRANCH  17  20
HETATM   20  C   UNL     1     -10.980   7.646  71.257  1.00  0.00    -0.238 C  
HETATM   21  C   UNL     1     -11.670   8.618  71.885  1.00  0.00    -0.422 C  
BRANCH  21  22
HETATM   22  C   UNL     1     -12.282   9.810  71.249  1.00  0.00    -0.374 C  
HETATM   23  N   UNL     1     -12.126   9.907  69.886  1.00  0.00    -0.470 N  
HETATM   24  O   UNL     1     -12.929  10.643  71.876  1.00  0.00    -0.458 OA 
HETATM   25  H   UNL     1     -11.671   9.177  69.336  1.00  0.00     0.000 HD 
BRANCH  23  26
HETATM   26  N   UNL     1     -12.640  11.086  69.299  1.00  0.00    -0.537 NA 
HETATM   27  H   UNL     1     -13.638  11.274  69.217  1.00  0.00     0.000 HD 
BRANCH  26  28
HETATM   28  C   UNL     1     -11.647  11.984  68.833  1.00  0.00    -0.321 A  
HETATM   29  N   UNL     1     -10.354  11.596  68.706  1.00  0.00    -0.214 NA 
HETATM   30  C   UNL     1      -9.482  12.567  68.329  1.00  0.00    -0.201 A  
HETATM   31  C   UNL     1      -9.864  13.879  68.097  1.00  0.00    -0.240 A  
HETATM   32  N   UNL     1     -11.141  14.289  68.230  1.00  0.00    -0.249 NA 
HETATM   33  C   UNL     1     -12.010  13.319  68.609  1.00  0.00    -0.310 A  
ENDBRANCH  26  28
ENDBRANCH  23  26
ENDBRANCH  21  22
ENDBRANCH  17  20
ENDBRANCH  10  15
TORSDOF 5
ENDMDL
MODEL      111
REMARK 921   NORMALIZED FREE ENERGY PREDICTED BY IDOCK:   -6.56 KCAL/MOL
REMARK 922        TOTAL FREE ENERGY PREDICTED BY IDOCK:   -9.75 KCAL/MOL
REMARK 923 INTER-LIGAND FREE ENERGY PREDICTED BY IDOCK:   -8.22 KCAL/MOL
REMARK 924 INTRA-LIGAND FREE ENERGY PREDICTED BY IDOCK:   -1.53 KCAL/MOL
REMARK 927      BINDING AFFINITY PREDICTED BY RF-SCORE:    0.00 PKD
ROOT
HETATM    1  F   UNL     1      -9.737  19.805  68.824  1.00  0.00    -0.412 F  
HETATM    2  C   UNL     1      -9.312  18.766  68.051  1.00  0.00    -0.306 C  
HETATM    3  F   UNL     1      -9.788  19.014  66.801  1.00  0.00    -0.308 F  
HETATM    4  F   UNL     1      -7.959  18.892  67.973  1.00  0.00    -0.274 F  
HETATM    5  C   UNL     1      -9.737  17.416  68.576  1.00  0.00    -0.304 A  
HETATM    6  C   UNL     1     -10.489  17.284  69.753  1.00  0.00     0.156 A  
HETATM    7  C   UNL     1     -10.884  16.019  70.221  1.00  0.00    -0.327 A  
HETATM    8  C   UNL     1     -11.705  15.885  71.482  1.00  0.00    -0.475 C  
HETATM    9  C   UNL     1     -10.509  14.871  69.496  1.00  0.00    -0.213 A  
HETATM   10  C   UNL     1      -9.750  14.977  68.323  1.00  0.00    -0.215 A  
HETATM   11  F   UNL     1     -11.088  15.125  72.430  1.00  0.00    -0.504 F  
HETATM   12  F   UNL     1     -11.977  17.077  72.081  1.00  0.00    -0.274 F  
HETATM   13  F   UNL     1     -12.913  15.299  71.258  1.00  0.00    -0.345 F  
HETATM   14  C   UNL     1      -9.378  16.254  67.875  1.00  0.00    -0.209 A  
ENDROOT
BRANCH  10  15
HETATM   15  C   UNL     1      -9.349  13.804  67.546  1.00  0.00    -0.222 A  
HETATM   16  N   UNL     1     -10.187  12.954  66.935  1.00  0.00    -0.240 NA 
HETATM   17  N   UNL     1      -9.349  12.131  66.229  1.00  0.00    -0.231 NA 
HETATM   18  N   UNL     1      -8.030  13.478  67.407  1.00  0.00    -0.168 NA 
HETATM   19  C   UNL     1      -8.059  12.435  66.618  1.00  0.00     0.104 A  
BRANCH  17  20
HETATM   20  C   UNL     1      -9.789  11.117  65.365  1.00  0.00    -0.242 C  
HETATM   21  C   UNL     1     -10.411   9.945  65.600  1.00  0.00     0.026 C  
BRANCH  21  22
HETATM   22  C   UNL     1     -10.634   9.322  66.926  1.00  0.00    -0.169 C  
HETATM   23  N   UNL     1     -11.049  10.171  67.924  1.00  0.00    -0.432 N  
HETATM   24  O   UNL     1     -10.505   8.117  67.128  1.00  0.00    -0.295 OA 
HETATM   25  H   UNL     1     -11.249  11.157  67.753  1.00  0.00     0.000 HD 
BRANCH  23  26
HETATM   26  N   UNL     1     -11.180   9.585  69.205  1.00  0.00    -0.440 NA 
HETATM   27  H   UNL     1     -10.762   8.687  69.448  1.00  0.00     0.000 HD 
BRANCH  26  28
HETATM   28  C   UNL     1     -11.941  10.353  70.120  1.00  0.00    -0.276 A  
HETATM   29  N   UNL     1     -11.920  11.708  70.088  1.00  0.00    -0.349 NA 
HETATM   30  C   UNL     1     -12.626  12.332  71.067  1.00  0.00    -0.257 A  
HETATM   31  C   UNL     1     -13.319  11.649  72.054  1.00  0.00    -0.300 A  
HETATM   32  N   UNL     1     -13.344  10.302  72.112  1.00  0.00    -0.397 NA 
HETATM   33  C   UNL     1     -12.636   9.680  71.135  1.00  0.00    -0.322 A  
ENDBRANCH  26  28
ENDBRANCH  23  26
ENDBRANCH  21  22
ENDBRANCH  17  20
ENDBRANCH  10  15
TORSDOF 5
ENDMDL
MODEL      112
REMARK 921   NORMALIZED FREE ENERGY PREDICTED BY IDOCK:   -6.55 KCAL/MOL
REMARK 922        TOTAL FREE ENERGY PREDICTED BY IDOCK:   -9.73 KCAL/MOL
REMARK 923 INTER-LIGAND FREE ENERGY PREDICTED BY IDOCK:   -8.97 KCAL/MOL
REMARK 924 INTRA-LIGAND FREE ENERGY PREDICTED BY IDOCK:   -0.76 KCAL/MOL
REMARK 927      BINDING AFFINITY PREDICTED BY RF-SCORE:    0.00 PKD
ROOT
HETATM    1  F   UNL     1      -8.141   9.626  66.207  1.00  0.00    -0.108 F  
HETATM    2  C   UNL     1      -8.045  10.807  66.879  1.00  0.00    -0.132 C  
HETATM    3  F   UNL     1      -8.163  10.495  68.198  1.00  0.00    -0.106 F  
HETATM    4  F   UNL     1      -6.763  11.230  66.703  1.00  0.00    -0.111 F  
HETATM    5  C   UNL     1      -9.057  11.835  66.433  1.00  0.00    -0.215 A  
HETATM    6  C   UNL     1      -9.986  11.565  65.417  1.00  0.00    -0.288 A  
HETATM    7  C   UNL     1     -10.927  12.531  65.022  1.00  0.00    -0.329 A  
HETATM    8  C   UNL     1     -11.933  12.228  63.936  1.00  0.00    -0.491 C  
HETATM    9  C   UNL     1     -10.928  13.789  65.656  1.00  0.00    -0.288 A  
HETATM   10  C   UNL     1     -10.004  14.085  66.667  1.00  0.00    -0.280 A  
HETATM   11  F   UNL     1     -11.842  13.090  62.884  1.00  0.00    -0.540 F  
HETATM   12  F   UNL     1     -11.801  10.981  63.407  1.00  0.00    -0.165 F  
HETATM   13  F   UNL     1     -13.218  12.309  64.378  1.00  0.00    -0.501 F  
HETATM   14  C   UNL     1      -9.081  13.097  67.047  1.00  0.00    -0.231 A  
ENDROOT
BRANCH  10  15
HETATM   15  C   UNL     1      -9.982  15.380  67.347  1.00  0.00    -0.229 A  
HETATM   16  N   UNL     1     -10.511  16.517  66.871  1.00  0.00    -0.301 NA 
HETATM   17  N   UNL     1     -10.375  17.394  67.914  1.00  0.00    -0.352 NA 
HETATM   18  N   UNL     1      -9.374  15.518  68.563  1.00  0.00    -0.191 NA 
HETATM   19  C   UNL     1      -9.606  16.767  68.875  1.00  0.00    -0.249 A  
BRANCH  17  20
HETATM   20  C   UNL     1     -10.863  18.710  67.902  1.00  0.00    -0.201 C  
HETATM   21  C   UNL     1     -10.244  19.895  67.736  1.00  0.00    -0.567 C  
BRANCH  21  22
HETATM   22  C   UNL     1      -8.779  20.121  67.704  1.00  0.00    -0.303 C  
HETATM   23  N   UNL     1      -8.324  20.954  66.709  1.00  0.00    -0.525 N  
HETATM   24  O   UNL     1      -8.011  19.641  68.532  1.00  0.00    -0.338 OA 
HETATM   25  H   UNL     1      -8.958  21.435  66.069  1.00  0.00     0.000 HD 
BRANCH  23  26
HETATM   26  N   UNL     1      -6.920  21.100  66.634  1.00  0.00    -0.627 NA 
HETATM   27  H   UNL     1      -6.377  21.605  67.334  1.00  0.00     0.000 HD 
BRANCH  26  28
HETATM   28  C   UNL     1      -6.331  20.485  65.501  1.00  0.00    -0.249 A  
HETATM   29  N   UNL     1      -6.289  21.117  64.302  1.00  0.00    -0.253 NA 
HETATM   30  C   UNL     1      -5.774  20.394  63.273  1.00  0.00    -0.256 A  
HETATM   31  C   UNL     1      -5.327  19.089  63.413  1.00  0.00    -0.247 A  
HETATM   32  N   UNL     1      -5.371  18.439  64.593  1.00  0.00    -0.117 NA 
HETATM   33  C   UNL     1      -5.888  19.161  65.619  1.00  0.00    -0.176 A  
ENDBRANCH  26  28
ENDBRANCH  23  26
ENDBRANCH  21  22
ENDBRANCH  17  20
ENDBRANCH  10  15
TORSDOF 5
ENDMDL
MODEL      113
REMARK 921   NORMALIZED FREE ENERGY PREDICTED BY IDOCK:   -6.52 KCAL/MOL
REMARK 922        TOTAL FREE ENERGY PREDICTED BY IDOCK:   -9.69 KCAL/MOL
REMARK 923 INTER-LIGAND FREE ENERGY PREDICTED BY IDOCK:   -8.37 KCAL/MOL
REMARK 924 INTRA-LIGAND FREE ENERGY PREDICTED BY IDOCK:   -1.32 KCAL/MOL
REMARK 927      BINDING AFFINITY PREDICTED BY RF-SCORE:    0.00 PKD
ROOT
HETATM    1  F   UNL     1     -10.965  12.100  62.719  1.00  0.00    -0.246 F  
HETATM    2  C   UNL     1     -11.425  12.612  63.895  1.00  0.00    -0.442 C  
HETATM    3  F   UNL     1     -10.921  13.873  63.973  1.00  0.00    -0.327 F  
HETATM    4  F   UNL     1     -12.770  12.751  63.738  1.00  0.00    -0.429 F  
HETATM    5  C   UNL     1     -11.068  11.769  65.096  1.00  0.00    -0.341 A  
HETATM    6  C   UNL     1     -10.340  10.577  64.972  1.00  0.00    -0.310 A  
HETATM    7  C   UNL     1     -10.007   9.811  66.102  1.00  0.00    -0.338 A  
HETATM    8  C   UNL     1      -9.211   8.535  65.963  1.00  0.00    -0.202 C  
HETATM    9  C   UNL     1     -10.422  10.250  67.375  1.00  0.00    -0.303 A  
HETATM   10  C   UNL     1     -11.159  11.432  67.523  1.00  0.00    -0.339 A  
HETATM   11  F   UNL     1      -9.875   7.448  66.448  1.00  0.00    -0.251 F  
HETATM   12  F   UNL     1      -8.895   8.231  64.673  1.00  0.00    -0.121 F  
HETATM   13  F   UNL     1      -8.027   8.583  66.632  1.00  0.00    -0.094 F  
HETATM   14  C   UNL     1     -11.468  12.182  66.376  1.00  0.00    -0.430 A  
ENDROOT
BRANCH  10  15
HETATM   15  C   UNL     1     -11.600  11.917  68.832  1.00  0.00    -0.311 A  
HETATM   16  N   UNL     1     -11.646  13.202  69.209  1.00  0.00    -0.298 NA 
HETATM   17  N   UNL     1     -12.257  13.154  70.434  1.00  0.00    -0.345 NA 
HETATM   18  N   UNL     1     -11.993  11.039  69.802  1.00  0.00    -0.328 NA 
HETATM   19  C   UNL     1     -12.365  11.822  70.782  1.00  0.00    -0.337 A  
BRANCH  17  20
HETATM   20  C   UNL     1     -12.591  14.288  71.190  1.00  0.00    -0.362 C  
HETATM   21  C   UNL     1     -12.147  15.560  71.144  1.00  0.00    -0.433 C  
BRANCH  21  22
HETATM   22  C   UNL     1     -10.994  16.058  70.355  1.00  0.00    -0.336 C  
HETATM   23  N   UNL     1      -9.946  15.180  70.209  1.00  0.00    -0.479 N  
HETATM   24  O   UNL     1     -10.978  17.163  69.822  1.00  0.00    -0.045 OA 
HETATM   25  H   UNL     1      -9.980  14.225  70.567  1.00  0.00     0.000 HD 
BRANCH  23  26
HETATM   26  N   UNL     1      -8.818  15.691  69.526  1.00  0.00    -0.258 NA 
HETATM   27  H   UNL     1      -8.752  16.658  69.211  1.00  0.00     0.000 HD 
BRANCH  26  28
HETATM   28  C   UNL     1      -7.786  14.742  69.318  1.00  0.00    -0.129 A  
HETATM   29  N   UNL     1      -6.547  14.927  69.838  1.00  0.00    -0.168 NA 
HETATM   30  C   UNL     1      -5.622  13.990  69.502  1.00  0.00    -0.088 A  
HETATM   31  C   UNL     1      -5.899  12.915  68.672  1.00  0.00    -0.069 A  
HETATM   32  N   UNL     1      -7.120  12.719  68.136  1.00  0.00    -0.093 NA 
HETATM   33  C   UNL     1      -8.042  13.656  68.470  1.00  0.00    -0.118 A  
ENDBRANCH  26  28
ENDBRANCH  23  26
ENDBRANCH  21  22
ENDBRANCH  17  20
ENDBRANCH  10  15
TORSDOF 5
ENDMDL
MODEL      114
REMARK 921   NORMALIZED FREE ENERGY PREDICTED BY IDOCK:   -6.52 KCAL/MOL
REMARK 922        TOTAL FREE ENERGY PREDICTED BY IDOCK:   -9.69 KCAL/MOL
REMARK 923 INTER-LIGAND FREE ENERGY PREDICTED BY IDOCK:   -8.41 KCAL/MOL
REMARK 924 INTRA-LIGAND FREE ENERGY PREDICTED BY IDOCK:   -1.28 KCAL/MOL
REMARK 927      BINDING AFFINITY PREDICTED BY RF-SCORE:    0.00 PKD
ROOT
HETATM    1  F   UNL     1     -12.310   7.889  72.252  1.00  0.00    -0.311 F  
HETATM    2  C   UNL     1     -11.972   8.852  71.350  1.00  0.00    -0.311 C  
HETATM    3  F   UNL     1     -13.140   9.452  70.991  1.00  0.00    -0.345 F  
HETATM    4  F   UNL     1     -11.267   9.784  72.049  1.00  0.00    -0.337 F  
HETATM    5  C   UNL     1     -11.205   8.320  70.163  1.00  0.00    -0.132 A  
HETATM    6  C   UNL     1     -10.884   6.960  70.041  1.00  0.00    -0.299 A  
HETATM    7  C   UNL     1     -10.179   6.481  68.924  1.00  0.00    -0.206 A  
HETATM    8  C   UNL     1      -9.848   5.013  68.792  1.00  0.00    -0.168 C  
HETATM    9  C   UNL     1      -9.785   7.387  67.919  1.00  0.00    -0.166 A  
HETATM   10  C   UNL     1     -10.086   8.752  68.024  1.00  0.00    -0.241 A  
HETATM   11  F   UNL     1      -8.507   4.785  68.697  1.00  0.00    -0.086 F  
HETATM   12  F   UNL     1     -10.278   4.264  69.844  1.00  0.00    -0.298 F  
HETATM   13  F   UNL     1     -10.405   4.449  67.685  1.00  0.00    -0.143 F  
HETATM   14  C   UNL     1     -10.800   9.200  69.147  1.00  0.00    -0.131 A  
ENDROOT
BRANCH  10  15
HETATM   15  C   UNL     1      -9.695   9.716  66.996  1.00  0.00    -0.181 A  
HETATM   16  N   UNL     1     -10.310   9.887  65.817  1.00  0.00    -0.169 NA 
HETATM   17  N   UNL     1      -9.684  10.983  65.285  1.00  0.00    -0.225 NA 
HETATM   18  N   UNL     1      -8.612  10.528  67.179  1.00  0.00    -0.126 NA 
HETATM   19  C   UNL     1      -8.611  11.276  66.105  1.00  0.00    -0.156 A  
BRANCH  17  20
HETATM   20  C   UNL     1     -10.050  11.586  64.073  1.00  0.00    -0.321 C  
HETATM   21  C   UNL     1     -10.895  12.598  63.793  1.00  0.00    -0.466 C  
BRANCH  21  22
HETATM   22  C   UNL     1     -11.838  13.240  64.741  1.00  0.00    -0.371 C  
HETATM   23  N   UNL     1     -11.450  13.243  66.060  1.00  0.00    -0.319 N  
HETATM   24  O   UNL     1     -12.880  13.781  64.383  1.00  0.00    -0.635 OA 
HETATM   25  H   UNL     1     -10.545  12.881  66.363  1.00  0.00     0.000 HD 
BRANCH  23  26
HETATM   26  N   UNL     1     -12.390  13.783  66.968  1.00  0.00    -0.441 NA 
HETATM   27  H   UNL     1     -13.386  13.566  66.929  1.00  0.00     0.000 HD 
BRANCH  26  28
HETATM   28  C   UNL     1     -11.830  14.652  67.937  1.00  0.00    -0.320 A  
HETATM   29  N   UNL     1     -10.999  15.662  67.578  1.00  0.00    -0.320 NA 
HETATM   30  C   UNL     1     -10.461  16.375  68.602  1.00  0.00    -0.293 A  
HETATM   31  C   UNL     1     -10.720  16.098  69.935  1.00  0.00    -0.328 A  
HETATM   32  N   UNL     1     -11.533  15.093  70.314  1.00  0.00    -0.262 NA 
HETATM   33  C   UNL     1     -12.067  14.379  69.291  1.00  0.00    -0.299 A  
ENDBRANCH  26  28
ENDBRANCH  23  26
ENDBRANCH  21  22
ENDBRANCH  17  20
ENDBRANCH  10  15
TORSDOF 5
ENDMDL
MODEL      115
REMARK 921   NORMALIZED FREE ENERGY PREDICTED BY IDOCK:   -6.49 KCAL/MOL
REMARK 922        TOTAL FREE ENERGY PREDICTED BY IDOCK:   -9.66 KCAL/MOL
REMARK 923 INTER-LIGAND FREE ENERGY PREDICTED BY IDOCK:   -8.14 KCAL/MOL
REMARK 924 INTRA-LIGAND FREE ENERGY PREDICTED BY IDOCK:   -1.52 KCAL/MOL
REMARK 927      BINDING AFFINITY PREDICTED BY RF-SCORE:    0.00 PKD
ROOT
HETATM    1  F   UNL     1     -10.382   6.134  74.116  1.00  0.00    -0.228 F  
HETATM    2  C   UNL     1      -9.539   6.528  73.121  1.00  0.00    -0.151 C  
HETATM    3  F   UNL     1      -8.380   6.887  73.736  1.00  0.00    -0.123 F  
HETATM    4  F   UNL     1      -9.256   5.403  72.407  1.00  0.00    -0.138 F  
HETATM    5  C   UNL     1     -10.104   7.631  72.258  1.00  0.00    -0.260 A  
HETATM    6  C   UNL     1     -11.380   8.167  72.487  1.00  0.00    -0.469 A  
HETATM    7  C   UNL     1     -11.884   9.201  71.680  1.00  0.00    -0.443 A  
HETATM    8  C   UNL     1     -13.254   9.783  71.940  1.00  0.00    -0.449 C  
HETATM    9  C   UNL     1     -11.094   9.696  70.624  1.00  0.00    -0.384 A  
HETATM   10  C   UNL     1      -9.821   9.170  70.370  1.00  0.00    -0.263 A  
HETATM   11  F   UNL     1     -14.086   9.663  70.866  1.00  0.00    -0.330 F  
HETATM   12  F   UNL     1     -13.904   9.195  72.981  1.00  0.00    -0.444 F  
HETATM   13  F   UNL     1     -13.210  11.112  72.234  1.00  0.00    -0.595 F  
HETATM   14  C   UNL     1      -9.339   8.144  71.199  1.00  0.00    -0.187 A  
ENDROOT
BRANCH  10  15
HETATM   15  C   UNL     1      -8.975   9.666  69.285  1.00  0.00    -0.172 A  
HETATM   16  N   UNL     1      -7.833  10.350  69.440  1.00  0.00    -0.153 NA 
HETATM   17  N   UNL     1      -7.345  10.453  68.164  1.00  0.00    -0.087 NA 
HETATM   18  N   UNL     1      -9.329   9.467  67.980  1.00  0.00    -0.133 NA 
HETATM   19  C   UNL     1      -8.327   9.983  67.315  1.00  0.00    -0.121 A  
BRANCH  17  20
HETATM   20  C   UNL     1      -6.110  11.035  67.840  1.00  0.00    -0.049 C  
HETATM   21  C   UNL     1      -5.703  12.319  67.811  1.00  0.00    -0.097 C  
BRANCH  21  22
HETATM   22  C   UNL     1      -6.568  13.516  67.948  1.00  0.00    -0.152 C  
HETATM   23  N   UNL     1      -7.565  13.429  68.891  1.00  0.00    -0.290 N  
HETATM   24  O   UNL     1      -6.392  14.544  67.302  1.00  0.00    -0.301 OA 
HETATM   25  H   UNL     1      -7.668  12.617  69.501  1.00  0.00     0.000 HD 
BRANCH  23  26
HETATM   26  N   UNL     1      -8.436  14.541  68.959  1.00  0.00    -0.319 NA 
HETATM   27  H   UNL     1      -8.221  15.381  69.495  1.00  0.00     0.000 HD 
BRANCH  26  28
HETATM   28  C   UNL     1      -9.633  14.387  68.216  1.00  0.00    -0.211 A  
HETATM   29  N   UNL     1      -9.825  15.049  67.049  1.00  0.00    -0.235 NA 
HETATM   30  C   UNL     1     -11.044  14.883  66.471  1.00  0.00    -0.341 A  
HETATM   31  C   UNL     1     -12.046  14.105  67.028  1.00  0.00    -0.414 A  
HETATM   32  N   UNL     1     -11.881  13.448  68.193  1.00  0.00    -0.358 NA 
HETATM   33  C   UNL     1     -10.664  13.616  68.770  1.00  0.00    -0.244 A  
ENDBRANCH  26  28
ENDBRANCH  23  26
ENDBRANCH  21  22
ENDBRANCH  17  20
ENDBRANCH  10  15
TORSDOF 5
ENDMDL
MODEL      116
REMARK 921   NORMALIZED FREE ENERGY PREDICTED BY IDOCK:   -6.48 KCAL/MOL
REMARK 922        TOTAL FREE ENERGY PREDICTED BY IDOCK:   -9.64 KCAL/MOL
REMARK 923 INTER-LIGAND FREE ENERGY PREDICTED BY IDOCK:   -8.08 KCAL/MOL
REMARK 924 INTRA-LIGAND FREE ENERGY PREDICTED BY IDOCK:   -1.56 KCAL/MOL
REMARK 927      BINDING AFFINITY PREDICTED BY RF-SCORE:    0.00 PKD
ROOT
HETATM    1  F   UNL     1     -12.356  13.552  62.995  1.00  0.00    -0.594 F  
HETATM    2  C   UNL     1     -12.103  12.457  63.767  1.00  0.00    -0.529 C  
HETATM    3  F   UNL     1     -13.277  11.773  63.837  1.00  0.00    -0.531 F  
HETATM    4  F   UNL     1     -11.255  11.679  63.040  1.00  0.00    -0.346 F  
HETATM    5  C   UNL     1     -11.549  12.799  65.129  1.00  0.00    -0.373 A  
HETATM    6  C   UNL     1     -11.322  14.126  65.523  1.00  0.00    -0.319 A  
HETATM    7  C   UNL     1     -10.816  14.425  66.799  1.00  0.00    -0.301 A  
HETATM    8  C   UNL     1     -10.587  15.858  67.222  1.00  0.00    -0.314 C  
HETATM    9  C   UNL     1     -10.526  13.371  67.688  1.00  0.00    -0.242 A  
HETATM   10  C   UNL     1     -10.735  12.037  67.313  1.00  0.00    -0.269 A  
HETATM   11  F   UNL     1      -9.289  16.102  67.558  1.00  0.00    -0.210 F  
HETATM   12  F   UNL     1     -10.896  16.764  66.254  1.00  0.00    -0.269 F  
HETATM   13  F   UNL     1     -11.330  16.206  68.307  1.00  0.00    -0.336 F  
HETATM   14  C   UNL     1     -11.251  11.769  66.035  1.00  0.00    -0.352 A  
ENDROOT
BRANCH  10  15
HETATM   15  C   UNL     1     -10.449  10.921  68.216  1.00  0.00    -0.179 A  
HETATM   16  N   UNL     1     -11.146   9.778  68.283  1.00  0.00    -0.161 NA 
HETATM   17  N   UNL     1     -10.414   9.007  69.147  1.00  0.00    -0.226 NA 
HETATM   18  N   UNL     1      -9.411  10.991  69.102  1.00  0.00    -0.109 NA 
HETATM   19  C   UNL     1      -9.429   9.817  69.678  1.00  0.00    -0.219 A  
BRANCH  17  20
HETATM   20  C   UNL     1     -10.725   7.677  69.468  1.00  0.00    -0.209 C  
HETATM   21  C   UNL     1     -10.617   6.535  68.761  1.00  0.00    -0.282 C  
BRANCH  21  22
HETATM   22  C   UNL     1     -10.293   6.425  67.318  1.00  0.00    -0.218 C  
HETATM   23  N   UNL     1      -9.373   7.327  66.841  1.00  0.00    -0.149 N  
HETATM   24  O   UNL     1     -10.773   5.559  66.591  1.00  0.00    -0.295 OA 
HETATM   25  H   UNL     1      -8.896   7.993  67.449  1.00  0.00     0.000 HD 
BRANCH  23  26
HETATM   26  N   UNL     1      -9.131   7.269  65.448  1.00  0.00    -0.361 NA 
HETATM   27  H   UNL     1      -9.594   6.600  64.833  1.00  0.00     0.000 HD 
BRANCH  26  28
HETATM   28  C   UNL     1      -8.190   8.220  64.982  1.00  0.00    -0.158 A  
HETATM   29  N   UNL     1      -7.018   8.425  65.631  1.00  0.00    -0.066 NA 
HETATM   30  C   UNL     1      -6.235   9.419  65.135  1.00  0.00    -0.070 A  
HETATM   31  C   UNL     1      -6.598  10.196  64.046  1.00  0.00    -0.113 A  
HETATM   32  N   UNL     1      -7.763  10.017  63.393  1.00  0.00    -0.145 NA 
HETATM   33  C   UNL     1      -8.545   9.026  63.891  1.00  0.00    -0.132 A  
ENDBRANCH  26  28
ENDBRANCH  23  26
ENDBRANCH  21  22
ENDBRANCH  17  20
ENDBRANCH  10  15
TORSDOF 5
ENDMDL
MODEL      117
REMARK 921   NORMALIZED FREE ENERGY PREDICTED BY IDOCK:   -6.48 KCAL/MOL
REMARK 922        TOTAL FREE ENERGY PREDICTED BY IDOCK:   -9.64 KCAL/MOL
REMARK 923 INTER-LIGAND FREE ENERGY PREDICTED BY IDOCK:   -8.31 KCAL/MOL
REMARK 924 INTRA-LIGAND FREE ENERGY PREDICTED BY IDOCK:   -1.33 KCAL/MOL
REMARK 927      BINDING AFFINITY PREDICTED BY RF-SCORE:    0.00 PKD
ROOT
HETATM    1  F   UNL     1     -13.177  10.310  72.301  1.00  0.00    -0.513 F  
HETATM    2  C   UNL     1     -12.565  10.517  71.101  1.00  0.00    -0.417 C  
HETATM    3  F   UNL     1     -13.449  10.099  70.156  1.00  0.00    -0.222 F  
HETATM    4  F   UNL     1     -12.473  11.868  70.961  1.00  0.00    -0.427 F  
HETATM    5  C   UNL     1     -11.225   9.832  70.985  1.00  0.00    -0.451 A  
HETATM    6  C   UNL     1     -10.691   9.071  72.035  1.00  0.00    -0.333 A  
HETATM    7  C   UNL     1      -9.446   8.432  71.905  1.00  0.00    -0.323 A  
HETATM    8  C   UNL     1      -8.883   7.603  73.035  1.00  0.00    -0.169 C  
HETATM    9  C   UNL     1      -8.726   8.569  70.701  1.00  0.00    -0.171 A  
HETATM   10  C   UNL     1      -9.235   9.332  69.642  1.00  0.00    -0.182 A  
HETATM   11  F   UNL     1      -7.671   8.058  73.465  1.00  0.00    -0.147 F  
HETATM   12  F   UNL     1      -9.681   7.576  74.138  1.00  0.00    -0.305 F  
HETATM   13  F   UNL     1      -8.693   6.302  72.684  1.00  0.00    -0.124 F  
HETATM   14  C   UNL     1     -10.485   9.951  69.798  1.00  0.00    -0.292 A  
ENDROOT
BRANCH  10  15
HETATM   15  C   UNL     1      -8.513   9.489  68.379  1.00  0.00    -0.119 A  
HETATM   16  N   UNL     1      -8.536   8.620  67.358  1.00  0.00    -0.133 NA 
HETATM   17  N   UNL     1      -7.846   9.269  66.370  1.00  0.00    -0.103 NA 
HETATM   18  N   UNL     1      -7.717  10.578  68.162  1.00  0.00    -0.095 NA 
HETATM   19  C   UNL     1      -7.300  10.405  66.935  1.00  0.00    -0.106 A  
BRANCH  17  20
HETATM   20  C   UNL     1      -7.676   8.767  65.070  1.00  0.00    -0.105 C  
HETATM   21  C   UNL     1      -8.146   9.184  63.879  1.00  0.00    -0.155 C  
BRANCH  21  22
HETATM   22  C   UNL     1      -9.169  10.235  63.659  1.00  0.00    -0.280 C  
HETATM   23  N   UNL     1     -10.055  10.432  64.691  1.00  0.00    -0.345 N  
HETATM   24  O   UNL     1      -9.208  10.926  62.645  1.00  0.00    -0.284 OA 
HETATM   25  H   UNL     1      -9.980   9.931  65.577  1.00  0.00     0.000 HD 
BRANCH  23  26
HETATM   26  N   UNL     1     -11.077  11.377  64.442  1.00  0.00    -0.303 NA 
HETATM   27  H   UNL     1     -11.707  11.313  63.643  1.00  0.00     0.000 HD 
BRANCH  26  28
HETATM   28  C   UNL     1     -11.149  12.421  65.397  1.00  0.00    -0.306 A  
HETATM   29  N   UNL     1     -12.054  12.388  66.406  1.00  0.00    -0.614 NA 
HETATM   30  C   UNL     1     -12.080  13.484  67.210  1.00  0.00    -0.323 A  
HETATM   31  C   UNL     1     -11.256  14.581  67.022  1.00  0.00    -0.337 A  
HETATM   32  N   UNL     1     -10.357  14.640  66.019  1.00  0.00    -0.291 NA 
HETATM   33  C   UNL     1     -10.334  13.547  65.215  1.00  0.00    -0.331 A  
ENDBRANCH  26  28
ENDBRANCH  23  26
ENDBRANCH  21  22
ENDBRANCH  17  20
ENDBRANCH  10  15
TORSDOF 5
ENDMDL
MODEL      118
REMARK 921   NORMALIZED FREE ENERGY PREDICTED BY IDOCK:   -6.47 KCAL/MOL
REMARK 922        TOTAL FREE ENERGY PREDICTED BY IDOCK:   -9.62 KCAL/MOL
REMARK 923 INTER-LIGAND FREE ENERGY PREDICTED BY IDOCK:   -7.94 KCAL/MOL
REMARK 924 INTRA-LIGAND FREE ENERGY PREDICTED BY IDOCK:   -1.68 KCAL/MOL
REMARK 927      BINDING AFFINITY PREDICTED BY RF-SCORE:    0.00 PKD
ROOT
HETATM    1  F   UNL     1      -6.096  17.869  68.307  1.00  0.00    -0.164 F  
HETATM    2  C   UNL     1      -6.631  16.748  67.747  1.00  0.00    -0.144 C  
HETATM    3  F   UNL     1      -5.709  16.304  66.850  1.00  0.00    -0.168 F  
HETATM    4  F   UNL     1      -6.671  15.819  68.741  1.00  0.00    -0.108 F  
HETATM    5  C   UNL     1      -7.985  16.979  67.119  1.00  0.00    -0.214 A  
HETATM    6  C   UNL     1      -8.603  18.238  67.138  1.00  0.00    -0.249 A  
HETATM    7  C   UNL     1      -9.859  18.436  66.540  1.00  0.00    -0.368 A  
HETATM    8  C   UNL     1     -10.513  19.798  66.553  1.00  0.00    -0.500 C  
HETATM    9  C   UNL     1     -10.504  17.348  65.919  1.00  0.00    -0.256 A  
HETATM   10  C   UNL     1      -9.910  16.079  65.896  1.00  0.00    -0.380 A  
HETATM   11  F   UNL     1     -11.731  19.788  67.165  1.00  0.00    -0.171 F  
HETATM   12  F   UNL     1      -9.780  20.745  67.200  1.00  0.00    -0.579 F  
HETATM   13  F   UNL     1     -10.725  20.287  65.300  1.00  0.00    -0.498 F  
HETATM   14  C   UNL     1      -8.651  15.913  66.494  1.00  0.00    -0.345 A  
ENDROOT
BRANCH  10  15
HETATM   15  C   UNL     1     -10.553  14.931  65.255  1.00  0.00    -0.401 A  
HETATM   16  N   UNL     1      -9.918  13.849  64.784  1.00  0.00    -0.206 NA 
HETATM   17  N   UNL     1     -10.939  13.008  64.428  1.00  0.00    -0.353 NA 
HETATM   18  N   UNL     1     -11.907  14.903  65.074  1.00  0.00    -0.334 NA 
HETATM   19  C   UNL     1     -12.114  13.726  64.541  1.00  0.00    -0.428 A  
BRANCH  17  20
HETATM   20  C   UNL     1     -10.751  11.704  63.946  1.00  0.00    -0.398 C  
HETATM   21  C   UNL     1     -10.512  10.539  64.580  1.00  0.00    -0.181 C  
BRANCH  21  22
HETATM   22  C   UNL     1     -10.191  10.374  66.018  1.00  0.00    -0.228 C  
HETATM   23  N   UNL     1      -9.871  11.526  66.696  1.00  0.00    -0.199 N  
HETATM   24  O   UNL     1     -10.247   9.291  66.594  1.00  0.00    -0.256 OA 
HETATM   25  H   UNL     1      -9.909  12.446  66.256  1.00  0.00     0.000 HD 
BRANCH  23  26
HETATM   26  N   UNL     1      -9.486  11.350  68.046  1.00  0.00    -0.174 NA 
HETATM   27  H   UNL     1     -10.138  11.059  68.774  1.00  0.00     0.000 HD 
BRANCH  26  28
HETATM   28  C   UNL     1      -8.117  11.613  68.298  1.00  0.00    -0.150 A  
HETATM   29  N   UNL     1      -7.391  12.407  67.473  1.00  0.00    -0.134 NA 
HETATM   30  C   UNL     1      -6.071  12.518  67.775  1.00  0.00    -0.119 A  
HETATM   31  C   UNL     1      -5.480  11.861  68.843  1.00  0.00    -0.050 A  
HETATM   32  N   UNL     1      -6.180  11.058  69.668  1.00  0.00    -0.080 NA 
HETATM   33  C   UNL     1      -7.498  10.946  69.364  1.00  0.00    -0.104 A  
ENDBRANCH  26  28
ENDBRANCH  23  26
ENDBRANCH  21  22
ENDBRANCH  17  20
ENDBRANCH  10  15
TORSDOF 5
ENDMDL
MODEL      119
REMARK 921   NORMALIZED FREE ENERGY PREDICTED BY IDOCK:   -6.46 KCAL/MOL
REMARK 922        TOTAL FREE ENERGY PREDICTED BY IDOCK:   -9.62 KCAL/MOL
REMARK 923 INTER-LIGAND FREE ENERGY PREDICTED BY IDOCK:   -8.83 KCAL/MOL
REMARK 924 INTRA-LIGAND FREE ENERGY PREDICTED BY IDOCK:   -0.79 KCAL/MOL
REMARK 927      BINDING AFFINITY PREDICTED BY RF-SCORE:    0.00 PKD
ROOT
HETATM    1  F   UNL     1     -12.165  16.031  71.699  1.00  0.00    -0.418 F  
HETATM    2  C   UNL     1     -12.360  15.087  70.735  1.00  0.00    -0.343 C  
HETATM    3  F   UNL     1     -11.867  13.926  71.246  1.00  0.00    -0.376 F  
HETATM    4  F   UNL     1     -13.709  14.920  70.649  1.00  0.00    -0.350 F  
HETATM    5  C   UNL     1     -11.737  15.448  69.408  1.00  0.00    -0.369 A  
HETATM    6  C   UNL     1     -11.039  16.650  69.222  1.00  0.00    -0.199 A  
HETATM    7  C   UNL     1     -10.457  16.964  67.982  1.00  0.00    -0.347 A  
HETATM    8  C   UNL     1      -9.695  18.254  67.792  1.00  0.00    -0.297 C  
HETATM    9  C   UNL     1     -10.587  16.055  66.913  1.00  0.00    -0.300 A  
HETATM   10  C   UNL     1     -11.288  14.853  67.072  1.00  0.00    -0.345 A  
HETATM   11  F   UNL     1     -10.223  19.033  66.805  1.00  0.00    -0.341 F  
HETATM   12  F   UNL     1      -9.667  19.036  68.906  1.00  0.00    -0.380 F  
HETATM   13  F   UNL     1      -8.394  18.047  67.453  1.00  0.00    -0.223 F  
HETATM   14  C   UNL     1     -11.851  14.562  68.325  1.00  0.00    -0.347 A  
ENDROOT
BRANCH  10  15
HETATM   15  C   UNL     1     -11.436  13.888  65.982  1.00  0.00    -0.340 A  
HETATM   16  N   UNL     1     -10.485  13.568  65.093  1.00  0.00    -0.344 NA 
HETATM   17  N   UNL     1     -11.041  12.534  64.388  1.00  0.00    -0.318 NA 
HETATM   18  N   UNL     1     -12.621  13.236  65.786  1.00  0.00    -0.431 NA 
HETATM   19  C   UNL     1     -12.360  12.432  64.787  1.00  0.00    -0.423 A  
BRANCH  17  20
HETATM   20  C   UNL     1     -10.371  11.817  63.385  1.00  0.00    -0.439 C  
HETATM   21  C   UNL     1      -9.562  10.741  63.439  1.00  0.00    -0.375 C  
BRANCH  21  22
HETATM   22  C   UNL     1      -9.004  10.125  64.667  1.00  0.00    -0.209 C  
HETATM   23  N   UNL     1      -9.751   9.112  65.220  1.00  0.00    -0.443 N  
HETATM   24  O   UNL     1      -7.923  10.454  65.147  1.00  0.00    -0.150 OA 
HETATM   25  H   UNL     1     -10.605   8.763  64.783  1.00  0.00     0.000 HD 
BRANCH  23  26
HETATM   26  N   UNL     1      -9.255   8.585  66.435  1.00  0.00    -0.185 NA 
HETATM   27  H   UNL     1      -9.404   9.038  67.337  1.00  0.00     0.000 HD 
BRANCH  26  28
HETATM   28  C   UNL     1      -8.533   7.375  66.293  1.00  0.00    -0.137 A  
HETATM   29  N   UNL     1      -9.126   6.258  65.802  1.00  0.00    -0.079 NA 
HETATM   30  C   UNL     1      -8.355   5.139  65.789  1.00  0.00    -0.120 A  
HETATM   31  C   UNL     1      -7.049   5.113  66.255  1.00  0.00    -0.072 A  
HETATM   32  N   UNL     1      -6.445   6.209  66.756  1.00  0.00    -0.045 NA 
HETATM   33  C   UNL     1      -7.217   7.325  66.771  1.00  0.00    -0.083 A  
ENDBRANCH  26  28
ENDBRANCH  23  26
ENDBRANCH  21  22
ENDBRANCH  17  20
ENDBRANCH  10  15
TORSDOF 5
ENDMDL
MODEL      120
REMARK 921   NORMALIZED FREE ENERGY PREDICTED BY IDOCK:   -6.46 KCAL/MOL
REMARK 922        TOTAL FREE ENERGY PREDICTED BY IDOCK:   -9.61 KCAL/MOL
REMARK 923 INTER-LIGAND FREE ENERGY PREDICTED BY IDOCK:   -8.21 KCAL/MOL
REMARK 924 INTRA-LIGAND FREE ENERGY PREDICTED BY IDOCK:   -1.40 KCAL/MOL
REMARK 927      BINDING AFFINITY PREDICTED BY RF-SCORE:    0.00 PKD
ROOT
HETATM    1  F   UNL     1     -13.522  11.406  72.368  1.00  0.00    -0.552 F  
HETATM    2  C   UNL     1     -12.862  10.804  71.339  1.00  0.00    -0.452 C  
HETATM    3  F   UNL     1     -11.968   9.956  71.917  1.00  0.00    -0.445 F  
HETATM    4  F   UNL     1     -13.782  10.018  70.717  1.00  0.00    -0.414 F  
HETATM    5  C   UNL     1     -12.205  11.782  70.394  1.00  0.00    -0.416 A  
HETATM    6  C   UNL     1     -12.296  13.169  70.585  1.00  0.00    -0.405 A  
HETATM    7  C   UNL     1     -11.670  14.063  69.701  1.00  0.00    -0.368 A  
HETATM    8  C   UNL     1     -11.761  15.555  69.920  1.00  0.00    -0.352 C  
HETATM    9  C   UNL     1     -10.948  13.552  68.604  1.00  0.00    -0.289 A  
HETATM   10  C   UNL     1     -10.852  12.172  68.387  1.00  0.00    -0.255 A  
HETATM   11  F   UNL     1     -12.327  16.206  68.864  1.00  0.00    -0.267 F  
HETATM   12  F   UNL     1     -12.502  15.899  71.009  1.00  0.00    -0.419 F  
HETATM   13  F   UNL     1     -10.541  16.130  70.106  1.00  0.00    -0.284 F  
HETATM   14  C   UNL     1     -11.480  11.302  69.292  1.00  0.00    -0.369 A  
ENDROOT
BRANCH  10  15
HETATM   15  C   UNL     1     -10.106  11.611  67.260  1.00  0.00    -0.199 A  
HETATM   16  N   UNL     1      -8.772  11.489  67.194  1.00  0.00    -0.155 NA 
HETATM   17  N   UNL     1      -8.572  10.784  66.037  1.00  0.00    -0.173 NA 
HETATM   18  N   UNL     1     -10.759  11.172  66.142  1.00  0.00    -0.252 NA 
HETATM   19  C   UNL     1      -9.793  10.696  65.398  1.00  0.00    -0.267 A  
BRANCH  17  20
HETATM   20  C   UNL     1      -7.315  10.351  65.589  1.00  0.00    -0.148 C  
HETATM   21  C   UNL     1      -6.823   9.119  65.352  1.00  0.00    -0.073 C  
BRANCH  21  22
HETATM   22  C   UNL     1      -7.473   7.833  65.701  1.00  0.00    -0.075 C  
HETATM   23  N   UNL     1      -7.920   7.721  66.997  1.00  0.00    -0.114 N  
HETATM   24  O   UNL     1      -7.652   6.932  64.887  1.00  0.00    -0.091 OA 
HETATM   25  H   UNL     1      -7.863   8.493  67.662  1.00  0.00     0.000 HD 
BRANCH  23  26
HETATM   26  N   UNL     1      -8.465   6.463  67.345  1.00  0.00    -0.109 NA 
HETATM   27  H   UNL     1      -8.192   5.595  66.885  1.00  0.00     0.000 HD 
BRANCH  26  28
HETATM   28  C   UNL     1      -9.423   6.513  68.387  1.00  0.00    -0.120 A  
HETATM   29  N   UNL     1     -10.056   7.669  68.704  1.00  0.00    -0.185 NA 
HETATM   30  C   UNL     1     -10.892   7.609  69.774  1.00  0.00    -0.217 A  
HETATM   31  C   UNL     1     -11.089   6.455  70.517  1.00  0.00    -0.328 A  
HETATM   32  N   UNL     1     -10.462   5.299  70.226  1.00  0.00    -0.281 NA 
HETATM   33  C   UNL     1      -9.625   5.361  69.160  1.00  0.00    -0.141 A  
ENDBRANCH  26  28
ENDBRANCH  23  26
ENDBRANCH  21  22
ENDBRANCH  17  20
ENDBRANCH  10  15
TORSDOF 5
ENDMDL
MODEL      121
REMARK 921   NORMALIZED FREE ENERGY PREDICTED BY IDOCK:   -6.44 KCAL/MOL
REMARK 922        TOTAL FREE ENERGY PREDICTED BY IDOCK:   -9.58 KCAL/MOL
REMARK 923 INTER-LIGAND FREE ENERGY PREDICTED BY IDOCK:   -7.75 KCAL/MOL
REMARK 924 INTRA-LIGAND FREE ENERGY PREDICTED BY IDOCK:   -1.83 KCAL/MOL
REMARK 927      BINDING AFFINITY PREDICTED BY RF-SCORE:    0.00 PKD
ROOT
HETATM    1  F   UNL     1     -11.114  16.704  66.507  1.00  0.00    -0.151 F  
HETATM    2  C   UNL     1     -10.813  15.757  67.440  1.00  0.00    -0.306 C  
HETATM    3  F   UNL     1      -9.538  16.018  67.837  1.00  0.00    -0.212 F  
HETATM    4  F   UNL     1     -11.607  16.029  68.512  1.00  0.00    -0.350 F  
HETATM    5  C   UNL     1     -10.987  14.344  66.938  1.00  0.00    -0.308 A  
HETATM    6  C   UNL     1     -11.424  14.072  65.633  1.00  0.00    -0.319 A  
HETATM    7  C   UNL     1     -11.570  12.750  65.180  1.00  0.00    -0.373 A  
HETATM    8  C   UNL     1     -12.029  12.464  63.770  1.00  0.00    -0.514 C  
HETATM    9  C   UNL     1     -11.277  11.687  66.058  1.00  0.00    -0.299 A  
HETATM   10  C   UNL     1     -10.848  11.934  67.369  1.00  0.00    -0.289 A  
HETATM   11  F   UNL     1     -13.174  11.725  63.732  1.00  0.00    -0.561 F  
HETATM   12  F   UNL     1     -12.288  13.587  63.046  1.00  0.00    -0.594 F  
HETATM   13  F   UNL     1     -11.106  11.765  63.052  1.00  0.00    -0.348 F  
HETATM   14  C   UNL     1     -10.703  13.265  67.790  1.00  0.00    -0.256 A  
ENDROOT
BRANCH  10  15
HETATM   15  C   UNL     1     -10.533  10.852  68.301  1.00  0.00    -0.179 A  
HETATM   16  N   UNL     1     -11.244   9.726  68.455  1.00  0.00    -0.086 NA 
HETATM   17  N   UNL     1     -10.479   8.979  69.312  1.00  0.00    -0.226 NA 
HETATM   18  N   UNL     1      -9.447  10.939  69.127  1.00  0.00    -0.142 NA 
HETATM   19  C   UNL     1      -9.454   9.791  69.754  1.00  0.00    -0.228 A  
BRANCH  17  20
HETATM   20  C   UNL     1     -10.794   7.669  69.706  1.00  0.00    -0.217 C  
HETATM   21  C   UNL     1     -10.422   6.471  69.215  1.00  0.00    -0.259 C  
BRANCH  21  22
HETATM   22  C   UNL     1      -9.690   6.232  67.948  1.00  0.00    -0.122 C  
HETATM   23  N   UNL     1      -9.796   7.221  66.999  1.00  0.00    -0.187 N  
HETATM   24  O   UNL     1      -8.991   5.241  67.758  1.00  0.00    -0.109 OA 
HETATM   25  H   UNL     1     -10.298   8.092  67.175  1.00  0.00     0.000 HD 
BRANCH  23  26
HETATM   26  N   UNL     1      -9.163   6.949  65.764  1.00  0.00    -0.379 NA 
HETATM   27  H   UNL     1      -9.211   6.039  65.307  1.00  0.00     0.000 HD 
BRANCH  26  28
HETATM   28  C   UNL     1      -8.457   8.049  65.218  1.00  0.00    -0.117 A  
HETATM   29  N   UNL     1      -8.477   9.264  65.820  1.00  0.00    -0.129 NA 
HETATM   30  C   UNL     1      -7.829  10.259  65.158  1.00  0.00    -0.138 A  
HETATM   31  C   UNL     1      -7.196  10.071  63.940  1.00  0.00    -0.125 A  
HETATM   32  N   UNL     1      -7.174   8.875  63.319  1.00  0.00    -0.093 NA 
HETATM   33  C   UNL     1      -7.823   7.883  63.979  1.00  0.00    -0.138 A  
ENDBRANCH  26  28
ENDBRANCH  23  26
ENDBRANCH  21  22
ENDBRANCH  17  20
ENDBRANCH  10  15
TORSDOF 5
ENDMDL
MODEL      122
REMARK 921   NORMALIZED FREE ENERGY PREDICTED BY IDOCK:   -6.42 KCAL/MOL
REMARK 922        TOTAL FREE ENERGY PREDICTED BY IDOCK:   -9.56 KCAL/MOL
REMARK 923 INTER-LIGAND FREE ENERGY PREDICTED BY IDOCK:   -8.03 KCAL/MOL
REMARK 924 INTRA-LIGAND FREE ENERGY PREDICTED BY IDOCK:   -1.53 KCAL/MOL
REMARK 927      BINDING AFFINITY PREDICTED BY RF-SCORE:    0.00 PKD
ROOT
HETATM    1  F   UNL     1     -11.444  11.032  63.987  1.00  0.00    -0.314 F  
HETATM    2  C   UNL     1     -11.351  12.333  64.385  1.00  0.00    -0.336 C  
HETATM    3  F   UNL     1     -10.354  12.879  63.639  1.00  0.00    -0.400 F  
HETATM    4  F   UNL     1     -12.503  12.929  63.972  1.00  0.00    -0.439 F  
HETATM    5  C   UNL     1     -11.119  12.491  65.868  1.00  0.00    -0.334 A  
HETATM    6  C   UNL     1     -11.022  11.383  66.723  1.00  0.00    -0.347 A  
HETATM    7  C   UNL     1     -10.795  11.550  68.100  1.00  0.00    -0.259 A  
HETATM    8  C   UNL     1     -10.678  10.352  69.013  1.00  0.00    -0.228 C  
HETATM    9  C   UNL     1     -10.672  12.852  68.623  1.00  0.00    -0.273 A  
HETATM   10  C   UNL     1     -10.776  13.974  67.791  1.00  0.00    -0.248 A  
HETATM   11  F   UNL     1     -11.609  10.360  70.009  1.00  0.00    -0.268 F  
HETATM   12  F   UNL     1     -10.833   9.163  68.369  1.00  0.00    -0.244 F  
HETATM   13  F   UNL     1      -9.467  10.283  69.631  1.00  0.00    -0.212 F  
HETATM   14  C   UNL     1     -10.993  13.777  66.417  1.00  0.00    -0.298 A  
ENDROOT
BRANCH  10  15
HETATM   15  C   UNL     1     -10.648  15.339  68.303  1.00  0.00    -0.244 A  
HETATM   16  N   UNL     1     -10.052  16.356  67.665  1.00  0.00    -0.257 NA 
HETATM   17  N   UNL     1     -10.320  17.436  68.464  1.00  0.00    -0.360 NA 
HETATM   18  N   UNL     1     -11.138  15.668  69.535  1.00  0.00    -0.272 NA 
HETATM   19  C   UNL     1     -10.900  16.952  69.620  1.00  0.00    -0.098 A  
BRANCH  17  20
HETATM   20  C   UNL     1      -9.952  18.754  68.152  1.00  0.00    -0.366 C  
HETATM   21  C   UNL     1      -8.749  19.358  68.088  1.00  0.00    -0.370 C  
BRANCH  21  22
HETATM   22  C   UNL     1      -7.456  18.787  68.535  1.00  0.00    -0.300 C  
HETATM   23  N   UNL     1      -7.078  17.614  67.926  1.00  0.00    -0.185 N  
HETATM   24  O   UNL     1      -6.734  19.336  69.362  1.00  0.00    -0.311 OA 
HETATM   25  H   UNL     1      -7.620  17.191  67.172  1.00  0.00     0.000 HD 
BRANCH  23  26
HETATM   26  N   UNL     1      -5.885  17.032  68.416  1.00  0.00    -0.134 NA 
HETATM   27  H   UNL     1      -5.059  17.581  68.654  1.00  0.00     0.000 HD 
BRANCH  26  28
HETATM   28  C   UNL     1      -5.937  15.623  68.549  1.00  0.00    -0.100 A  
HETATM   29  N   UNL     1      -5.796  14.811  67.472  1.00  0.00    -0.347 NA 
HETATM   30  C   UNL     1      -5.946  13.482  67.713  1.00  0.00    -0.131 A  
HETATM   31  C   UNL     1      -6.239  12.968  68.967  1.00  0.00    -0.094 A  
HETATM   32  N   UNL     1      -6.395  13.757  70.047  1.00  0.00    -0.117 NA 
HETATM   33  C   UNL     1      -6.248  15.084  69.805  1.00  0.00    -0.143 A  
ENDBRANCH  26  28
ENDBRANCH  23  26
ENDBRANCH  21  22
ENDBRANCH  17  20
ENDBRANCH  10  15
TORSDOF 5
ENDMDL
MODEL      123
REMARK 921   NORMALIZED FREE ENERGY PREDICTED BY IDOCK:   -6.40 KCAL/MOL
REMARK 922        TOTAL FREE ENERGY PREDICTED BY IDOCK:   -9.53 KCAL/MOL
REMARK 923 INTER-LIGAND FREE ENERGY PREDICTED BY IDOCK:   -8.92 KCAL/MOL
REMARK 924 INTRA-LIGAND FREE ENERGY PREDICTED BY IDOCK:   -0.61 KCAL/MOL
REMARK 927      BINDING AFFINITY PREDICTED BY RF-SCORE:    0.00 PKD
ROOT
HETATM    1  F   UNL     1     -11.467   4.695  72.482  1.00  0.00    -0.158 F  
HETATM    2  C   UNL     1     -11.541   6.002  72.102  1.00  0.00    -0.293 C  
HETATM    3  F   UNL     1     -12.863   6.323  72.131  1.00  0.00    -0.365 F  
HETATM    4  F   UNL     1     -10.957   6.714  73.105  1.00  0.00    -0.250 F  
HETATM    5  C   UNL     1     -10.908   6.273  70.758  1.00  0.00    -0.339 A  
HETATM    6  C   UNL     1     -10.304   5.253  70.008  1.00  0.00    -0.365 A  
HETATM    7  C   UNL     1      -9.729   5.522  68.754  1.00  0.00    -0.190 A  
HETATM    8  C   UNL     1      -9.092   4.416  67.945  1.00  0.00    -0.127 C  
HETATM    9  C   UNL     1      -9.756   6.839  68.254  1.00  0.00    -0.126 A  
HETATM   10  C   UNL     1     -10.344   7.875  68.990  1.00  0.00    -0.223 A  
HETATM   11  F   UNL     1      -7.778   4.657  67.673  1.00  0.00    -0.082 F  
HETATM   12  F   UNL     1      -9.128   3.203  68.562  1.00  0.00    -0.134 F  
HETATM   13  F   UNL     1      -9.699   4.237  66.739  1.00  0.00    -0.174 F  
HETATM   14  C   UNL     1     -10.920   7.575  70.235  1.00  0.00    -0.264 A  
ENDROOT
BRANCH  10  15
HETATM   15  C   UNL     1     -10.392   9.252  68.496  1.00  0.00    -0.209 A  
HETATM   16  N   UNL     1     -10.760   9.621  67.261  1.00  0.00    -0.250 NA 
HETATM   17  N   UNL     1     -10.788  10.989  67.331  1.00  0.00    -0.256 NA 
HETATM   18  N   UNL     1     -10.027  10.294  69.301  1.00  0.00    -0.217 NA 
HETATM   19  C   UNL     1     -10.254  11.344  68.554  1.00  0.00    -0.208 A  
BRANCH  17  20
HETATM   20  C   UNL     1     -11.199  11.821  66.278  1.00  0.00    -0.312 C  
HETATM   21  C   UNL     1     -11.291  13.162  66.178  1.00  0.00    -0.343 C  
BRANCH  21  22
HETATM   22  C   UNL     1     -11.143  14.136  67.286  1.00  0.00    -0.305 C  
HETATM   23  N   UNL     1     -12.261  14.333  68.062  1.00  0.00    -0.584 N  
HETATM   24  O   UNL     1     -10.085  14.705  67.538  1.00  0.00    -0.224 OA 
HETATM   25  H   UNL     1     -13.121  13.801  67.925  1.00  0.00     0.000 HD 
BRANCH  23  26
HETATM   26  N   UNL     1     -12.137  15.323  69.065  1.00  0.00    -0.567 NA 
HETATM   27  H   UNL     1     -11.734  16.242  68.888  1.00  0.00     0.000 HD 
BRANCH  26  28
HETATM   28  C   UNL     1     -12.621  14.927  70.336  1.00  0.00    -0.343 A  
HETATM   29  N   UNL     1     -12.858  15.837  71.312  1.00  0.00    -0.480 NA 
HETATM   30  C   UNL     1     -13.242  15.328  72.512  1.00  0.00    -0.430 A  
HETATM   31  C   UNL     1     -13.377  13.969  72.750  1.00  0.00    -0.500 A  
HETATM   32  N   UNL     1     -13.137  13.047  71.798  1.00  0.00    -0.400 NA 
HETATM   33  C   UNL     1     -12.750  13.556  70.601  1.00  0.00    -0.205 A  
ENDBRANCH  26  28
ENDBRANCH  23  26
ENDBRANCH  21  22
ENDBRANCH  17  20
ENDBRANCH  10  15
TORSDOF 5
ENDMDL
MODEL      124
REMARK 921   NORMALIZED FREE ENERGY PREDICTED BY IDOCK:   -6.39 KCAL/MOL
REMARK 922        TOTAL FREE ENERGY PREDICTED BY IDOCK:   -9.53 KCAL/MOL
REMARK 923 INTER-LIGAND FREE ENERGY PREDICTED BY IDOCK:   -7.53 KCAL/MOL
REMARK 924 INTRA-LIGAND FREE ENERGY PREDICTED BY IDOCK:   -1.99 KCAL/MOL
REMARK 927      BINDING AFFINITY PREDICTED BY RF-SCORE:    0.00 PKD
ROOT
HETATM    1  F   UNL     1      -9.285   7.205  73.910  1.00  0.00    -0.185 F  
HETATM    2  C   UNL     1      -8.721   7.689  72.769  1.00  0.00    -0.140 C  
HETATM    3  F   UNL     1      -7.625   8.392  73.165  1.00  0.00    -0.165 F  
HETATM    4  F   UNL     1      -8.250   6.603  72.097  1.00  0.00    -0.105 F  
HETATM    5  C   UNL     1      -9.670   8.516  71.935  1.00  0.00    -0.358 A  
HETATM    6  C   UNL     1     -10.998   8.736  72.327  1.00  0.00    -0.336 A  
HETATM    7  C   UNL     1     -11.864   9.517  71.543  1.00  0.00    -0.478 A  
HETATM    8  C   UNL     1     -13.291   9.760  71.978  1.00  0.00    -0.451 C  
HETATM    9  C   UNL     1     -11.385  10.079  70.343  1.00  0.00    -0.392 A  
HETATM   10  C   UNL     1     -10.065   9.866  69.926  1.00  0.00    -0.297 A  
HETATM   11  F   UNL     1     -14.199   9.320  71.062  1.00  0.00    -0.361 F  
HETATM   12  F   UNL     1     -13.613   9.142  73.147  1.00  0.00    -0.391 F  
HETATM   13  F   UNL     1     -13.559  11.080  72.170  1.00  0.00    -0.496 F  
HETATM   14  C   UNL     1      -9.220   9.089  70.735  1.00  0.00    -0.299 A  
ENDROOT
BRANCH  10  15
HETATM   15  C   UNL     1      -9.537  10.440  68.688  1.00  0.00    -0.166 A  
HETATM   16  N   UNL     1      -8.446  10.012  68.037  1.00  0.00    -0.117 NA 
HETATM   17  N   UNL     1      -8.452  10.751  66.883  1.00  0.00    -0.128 NA 
HETATM   18  N   UNL     1     -10.147  11.514  68.103  1.00  0.00    -0.187 NA 
HETATM   19  C   UNL     1      -9.446  11.700  67.014  1.00  0.00    -0.182 A  
BRANCH  17  20
HETATM   20  C   UNL     1      -7.524  10.590  65.843  1.00  0.00    -0.147 C  
HETATM   21  C   UNL     1      -7.384   9.630  64.907  1.00  0.00    -0.118 C  
BRANCH  21  22
HETATM   22  C   UNL     1      -8.110   8.339  64.860  1.00  0.00    -0.150 C  
HETATM   23  N   UNL     1      -8.726   7.956  66.028  1.00  0.00    -0.152 N  
HETATM   24  O   UNL     1      -8.205   7.664  63.839  1.00  0.00    -0.088 OA 
HETATM   25  H   UNL     1      -8.734   8.548  66.859  1.00  0.00     0.000 HD 
BRANCH  23  26
HETATM   26  N   UNL     1      -9.346   6.685  65.999  1.00  0.00    -0.368 NA 
HETATM   27  H   UNL     1      -9.436   6.132  65.147  1.00  0.00     0.000 HD 
BRANCH  26  28
HETATM   28  C   UNL     1      -9.833   6.247  67.255  1.00  0.00    -0.137 A  
HETATM   29  N   UNL     1     -10.859   6.884  67.871  1.00  0.00    -0.230 NA 
HETATM   30  C   UNL     1     -11.182   6.421  69.108  1.00  0.00    -0.354 A  
HETATM   31  C   UNL     1     -10.511   5.377  69.725  1.00  0.00    -0.307 A  
HETATM   32  N   UNL     1      -9.481   4.738  69.135  1.00  0.00    -0.136 NA 
HETATM   33  C   UNL     1      -9.158   5.202  67.902  1.00  0.00    -0.112 A  
ENDBRANCH  26  28
ENDBRANCH  23  26
ENDBRANCH  21  22
ENDBRANCH  17  20
ENDBRANCH  10  15
TORSDOF 5
ENDMDL
MODEL      125
REMARK 921   NORMALIZED FREE ENERGY PREDICTED BY IDOCK:   -6.35 KCAL/MOL
REMARK 922        TOTAL FREE ENERGY PREDICTED BY IDOCK:   -9.47 KCAL/MOL
REMARK 923 INTER-LIGAND FREE ENERGY PREDICTED BY IDOCK:   -7.92 KCAL/MOL
REMARK 924 INTRA-LIGAND FREE ENERGY PREDICTED BY IDOCK:   -1.55 KCAL/MOL
REMARK 927      BINDING AFFINITY PREDICTED BY RF-SCORE:    0.00 PKD
ROOT
HETATM    1  F   UNL     1     -10.570   6.507  72.905  1.00  0.00    -0.201 F  
HETATM    2  C   UNL     1     -10.818   7.789  72.517  1.00  0.00    -0.328 C  
HETATM    3  F   UNL     1     -12.026   8.113  73.054  1.00  0.00    -0.433 F  
HETATM    4  F   UNL     1      -9.899   8.557  73.163  1.00  0.00    -0.314 F  
HETATM    5  C   UNL     1     -10.779   7.981  71.020  1.00  0.00    -0.245 A  
HETATM    6  C   UNL     1     -10.503   6.919  70.146  1.00  0.00    -0.233 A  
HETATM    7  C   UNL     1     -10.482   7.114  68.755  1.00  0.00    -0.217 A  
HETATM    8  C   UNL     1     -10.196   5.963  67.819  1.00  0.00    -0.182 C  
HETATM    9  C   UNL     1     -10.735   8.400  68.237  1.00  0.00    -0.084 A  
HETATM   10  C   UNL     1     -11.003   9.478  69.090  1.00  0.00    -0.148 A  
HETATM   11  F   UNL     1      -9.105   6.185  67.033  1.00  0.00    -0.116 F  
HETATM   12  F   UNL     1      -9.956   4.787  68.463  1.00  0.00    -0.205 F  
HETATM   13  F   UNL     1     -11.229   5.714  66.967  1.00  0.00    -0.278 F  
HETATM   14  C   UNL     1     -11.028   9.251  70.476  1.00  0.00    -0.318 A  
ENDROOT
BRANCH  10  15
HETATM   15  C   UNL     1     -11.275  10.823  68.583  1.00  0.00    -0.274 A  
HETATM   16  N   UNL     1     -11.439  11.149  67.293  1.00  0.00    -0.501 NA 
HETATM   17  N   UNL     1     -11.814  12.465  67.341  1.00  0.00    -0.505 NA 
HETATM   18  N   UNL     1     -11.362  11.885  69.439  1.00  0.00    -0.268 NA 
HETATM   19  C   UNL     1     -11.666  12.883  68.649  1.00  0.00    -0.324 A  
BRANCH  17  20
HETATM   20  C   UNL     1     -12.172  13.221  66.214  1.00  0.00    -0.377 C  
HETATM   21  C   UNL     1     -11.836  13.107  64.914  1.00  0.00    -0.399 C  
BRANCH  21  22
HETATM   22  C   UNL     1     -10.799  12.209  64.352  1.00  0.00    -0.328 C  
HETATM   23  N   UNL     1      -9.657  12.070  65.104  1.00  0.00    -0.420 N  
HETATM   24  O   UNL     1     -10.952  11.586  63.306  1.00  0.00    -0.351 OA 
HETATM   25  H   UNL     1      -9.550  12.508  66.020  1.00  0.00     0.000 HD 
BRANCH  23  26
HETATM   26  N   UNL     1      -8.639  11.278  64.523  1.00  0.00    -0.344 NA 
HETATM   27  H   UNL     1      -8.533  11.165  63.515  1.00  0.00     0.000 HD 
BRANCH  26  28
HETATM   28  C   UNL     1      -7.780  10.655  65.462  1.00  0.00    -0.083 A  
HETATM   29  N   UNL     1      -8.087  10.625  66.782  1.00  0.00    -0.127 NA 
HETATM   30  C   UNL     1      -7.147  10.072  67.593  1.00  0.00    -0.087 A  
HETATM   31  C   UNL     1      -5.940   9.576  67.125  1.00  0.00    -0.052 A  
HETATM   32  N   UNL     1      -5.611   9.606  65.818  1.00  0.00    -0.048 NA 
HETATM   33  C   UNL     1      -6.549  10.161  65.010  1.00  0.00    -0.128 A  
ENDBRANCH  26  28
ENDBRANCH  23  26
ENDBRANCH  21  22
ENDBRANCH  17  20
ENDBRANCH  10  15
TORSDOF 5
ENDMDL
MODEL      126
REMARK 921   NORMALIZED FREE ENERGY PREDICTED BY IDOCK:   -6.35 KCAL/MOL
REMARK 922        TOTAL FREE ENERGY PREDICTED BY IDOCK:   -9.47 KCAL/MOL
REMARK 923 INTER-LIGAND FREE ENERGY PREDICTED BY IDOCK:   -7.93 KCAL/MOL
REMARK 924 INTRA-LIGAND FREE ENERGY PREDICTED BY IDOCK:   -1.54 KCAL/MOL
REMARK 927      BINDING AFFINITY PREDICTED BY RF-SCORE:    0.00 PKD
ROOT
HETATM    1  F   UNL     1     -10.739   6.298  74.203  1.00  0.00    -0.276 F  
HETATM    2  C   UNL     1      -9.720   6.611  73.354  1.00  0.00    -0.183 C  
HETATM    3  F   UNL     1      -8.652   6.898  74.146  1.00  0.00    -0.136 F  
HETATM    4  F   UNL     1      -9.411   5.455  72.705  1.00  0.00    -0.143 F  
HETATM    5  C   UNL     1     -10.056   7.735  72.403  1.00  0.00    -0.284 A  
HETATM    6  C   UNL     1     -11.308   8.366  72.417  1.00  0.00    -0.448 A  
HETATM    7  C   UNL     1     -11.599   9.417  71.532  1.00  0.00    -0.467 A  
HETATM    8  C   UNL     1     -12.945  10.101  71.561  1.00  0.00    -0.444 C  
HETATM    9  C   UNL     1     -10.614   9.833  70.613  1.00  0.00    -0.382 A  
HETATM   10  C   UNL     1      -9.359   9.211  70.573  1.00  0.00    -0.287 A  
HETATM   11  F   UNL     1     -13.600  10.019  70.368  1.00  0.00    -0.310 F  
HETATM   12  F   UNL     1     -13.796   9.582  72.488  1.00  0.00    -0.462 F  
HETATM   13  F   UNL     1     -12.850  11.428  71.848  1.00  0.00    -0.500 F  
HETATM   14  C   UNL     1      -9.095   8.170  71.477  1.00  0.00    -0.203 A  
ENDROOT
BRANCH  10  15
HETATM   15  C   UNL     1      -8.315   9.624  69.635  1.00  0.00    -0.168 A  
HETATM   16  N   UNL     1      -8.002   8.992  68.495  1.00  0.00    -0.102 NA 
HETATM   17  N   UNL     1      -7.091   9.828  67.906  1.00  0.00    -0.082 NA 
HETATM   18  N   UNL     1      -7.546  10.724  69.889  1.00  0.00     0.012 NA 
HETATM   19  C   UNL     1      -6.786  10.810  68.827  1.00  0.00    -0.067 A  
BRANCH  17  20
HETATM   20  C   UNL     1      -6.531   9.611  66.637  1.00  0.00    -0.067 C  
HETATM   21  C   UNL     1      -7.033   9.769  65.397  1.00  0.00    -0.105 C  
BRANCH  21  22
HETATM   22  C   UNL     1      -8.446  10.057  65.052  1.00  0.00    -0.160 C  
HETATM   23  N   UNL     1      -9.171  10.724  66.011  1.00  0.00    -0.180 N  
HETATM   24  O   UNL     1      -8.941   9.767  63.967  1.00  0.00    -0.218 OA 
HETATM   25  H   UNL     1      -8.751  11.054  66.881  1.00  0.00     0.000 HD 
BRANCH  23  26
HETATM   26  N   UNL     1     -10.539  10.922  65.710  1.00  0.00    -0.203 NA 
HETATM   27  H   UNL     1     -11.082  10.267  65.149  1.00  0.00     0.000 HD 
BRANCH  26  28
HETATM   28  C   UNL     1     -11.088  12.109  66.254  1.00  0.00    -0.310 A  
HETATM   29  N   UNL     1     -12.082  12.778  65.620  1.00  0.00    -0.454 NA 
HETATM   30  C   UNL     1     -12.469  13.945  66.198  1.00  0.00    -0.436 A  
HETATM   31  C   UNL     1     -11.891  14.446  67.354  1.00  0.00    -0.400 A  
HETATM   32  N   UNL     1     -10.894  13.803  67.994  1.00  0.00    -0.245 NA 
HETATM   33  C   UNL     1     -10.506  12.639  67.414  1.00  0.00    -0.224 A  
ENDBRANCH  26  28
ENDBRANCH  23  26
ENDBRANCH  21  22
ENDBRANCH  17  20
ENDBRANCH  10  15
TORSDOF 5
ENDMDL
MODEL      127
REMARK 921   NORMALIZED FREE ENERGY PREDICTED BY IDOCK:   -6.33 KCAL/MOL
REMARK 922        TOTAL FREE ENERGY PREDICTED BY IDOCK:   -9.45 KCAL/MOL
REMARK 923 INTER-LIGAND FREE ENERGY PREDICTED BY IDOCK:   -8.48 KCAL/MOL
REMARK 924 INTRA-LIGAND FREE ENERGY PREDICTED BY IDOCK:   -0.97 KCAL/MOL
REMARK 927      BINDING AFFINITY PREDICTED BY RF-SCORE:    0.00 PKD
ROOT
HETATM    1  F   UNL     1      -9.418   6.555  66.694  1.00  0.00    -0.150 F  
HETATM    2  C   UNL     1     -10.340   7.461  67.123  1.00  0.00    -0.307 C  
HETATM    3  F   UNL     1     -10.415   8.405  66.146  1.00  0.00    -0.277 F  
HETATM    4  F   UNL     1     -11.535   6.809  67.111  1.00  0.00    -0.434 F  
HETATM    5  C   UNL     1     -10.018   8.051  68.475  1.00  0.00    -0.206 A  
HETATM    6  C   UNL     1      -8.875   7.671  69.194  1.00  0.00    -0.139 A  
HETATM    7  C   UNL     1      -8.586   8.239  70.446  1.00  0.00    -0.134 A  
HETATM    8  C   UNL     1      -7.346   7.834  71.209  1.00  0.00    -0.066 C  
HETATM    9  C   UNL     1      -9.467   9.197  70.985  1.00  0.00    -0.344 A  
HETATM   10  C   UNL     1     -10.620   9.585  70.291  1.00  0.00    -0.317 A  
HETATM   11  F   UNL     1      -7.632   7.315  72.436  1.00  0.00    -0.083 F  
HETATM   12  F   UNL     1      -6.602   6.889  70.571  1.00  0.00    -0.046 F  
HETATM   13  F   UNL     1      -6.505   8.882  71.429  1.00  0.00    -0.052 F  
HETATM   14  C   UNL     1     -10.877   9.008  69.037  1.00  0.00    -0.092 A  
ENDROOT
BRANCH  10  15
HETATM   15  C   UNL     1     -11.550  10.582  70.822  1.00  0.00    -0.338 A  
HETATM   16  N   UNL     1     -11.547  11.887  70.519  1.00  0.00    -0.007 NA 
HETATM   17  N   UNL     1     -12.677  12.361  71.133  1.00  0.00    -0.313 NA 
HETATM   18  N   UNL     1     -12.515  10.223  71.721  1.00  0.00    -0.382 NA 
HETATM   19  C   UNL     1     -13.174  11.337  71.915  1.00  0.00    -0.386 A  
BRANCH  17  20
HETATM   20  C   UNL     1     -13.132  13.684  71.027  1.00  0.00    -0.180 C  
HETATM   21  C   UNL     1     -12.824  14.672  70.164  1.00  0.00    -0.180 C  
BRANCH  21  22
HETATM   22  C   UNL     1     -11.727  14.655  69.166  1.00  0.00    -0.309 C  
HETATM   23  N   UNL     1     -12.013  14.031  67.974  1.00  0.00    -0.450 N  
HETATM   24  O   UNL     1     -10.643  15.197  69.356  1.00  0.00    -0.235 OA 
HETATM   25  H   UNL     1     -12.938  13.656  67.763  1.00  0.00     0.000 HD 
BRANCH  23  26
HETATM   26  N   UNL     1     -10.937  13.946  67.060  1.00  0.00    -0.292 NA 
HETATM   27  H   UNL     1     -10.010  14.319  67.261  1.00  0.00     0.000 HD 
BRANCH  26  28
HETATM   28  C   UNL     1     -11.260  13.300  65.841  1.00  0.00    -0.290 A  
HETATM   29  N   UNL     1     -10.297  12.740  65.068  1.00  0.00    -0.300 NA 
HETATM   30  C   UNL     1     -10.720  12.222  63.885  1.00  0.00    -0.420 A  
HETATM   31  C   UNL     1     -12.041  12.264  63.468  1.00  0.00    -0.553 A  
HETATM   32  N   UNL     1     -13.011  12.825  64.216  1.00  0.00    -0.720 NA 
HETATM   33  C   UNL     1     -12.588  13.345  65.396  1.00  0.00    -0.475 A  
ENDBRANCH  26  28
ENDBRANCH  23  26
ENDBRANCH  21  22
ENDBRANCH  17  20
ENDBRANCH  10  15
TORSDOF 5
ENDMDL
MODEL      128
REMARK 921   NORMALIZED FREE ENERGY PREDICTED BY IDOCK:   -6.33 KCAL/MOL
REMARK 922        TOTAL FREE ENERGY PREDICTED BY IDOCK:   -9.45 KCAL/MOL
REMARK 923 INTER-LIGAND FREE ENERGY PREDICTED BY IDOCK:   -8.50 KCAL/MOL
REMARK 924 INTRA-LIGAND FREE ENERGY PREDICTED BY IDOCK:   -0.95 KCAL/MOL
REMARK 927      BINDING AFFINITY PREDICTED BY RF-SCORE:    0.00 PKD
ROOT
HETATM    1  F   UNL     1      -9.807   3.459  69.613  1.00  0.00    -0.240 F  
HETATM    2  C   UNL     1      -9.450   4.454  68.753  1.00  0.00    -0.162 C  
HETATM    3  F   UNL     1      -8.091   4.509  68.791  1.00  0.00    -0.078 F  
HETATM    4  F   UNL     1      -9.776   4.004  67.510  1.00  0.00    -0.201 F  
HETATM    5  C   UNL     1     -10.093   5.782  69.072  1.00  0.00    -0.249 A  
HETATM    6  C   UNL     1     -10.974   5.936  70.153  1.00  0.00    -0.412 A  
HETATM    7  C   UNL     1     -11.554   7.182  70.442  1.00  0.00    -0.300 A  
HETATM    8  C   UNL     1     -12.491   7.343  71.616  1.00  0.00    -0.349 C  
HETATM    9  C   UNL     1     -11.249   8.288  69.624  1.00  0.00     0.085 A  
HETATM   10  C   UNL     1     -10.381   8.157  68.532  1.00  0.00    -0.230 A  
HETATM   11  F   UNL     1     -13.726   7.785  71.244  1.00  0.00    -0.364 F  
HETATM   12  F   UNL     1     -12.703   6.187  72.303  1.00  0.00    -0.340 F  
HETATM   13  F   UNL     1     -12.031   8.240  72.532  1.00  0.00    -0.385 F  
HETATM   14  C   UNL     1      -9.808   6.901  68.274  1.00  0.00    -0.141 A  
ENDROOT
BRANCH  10  15
HETATM   15  C   UNL     1     -10.041   9.287  67.668  1.00  0.00    -0.214 A  
HETATM   16  N   UNL     1      -9.516  10.450  68.079  1.00  0.00    -0.142 NA 
HETATM   17  N   UNL     1      -9.241  11.109  66.910  1.00  0.00    -0.166 NA 
HETATM   18  N   UNL     1     -10.269   9.227  66.322  1.00  0.00    -0.249 NA 
HETATM   19  C   UNL     1      -9.795  10.366  65.886  1.00  0.00    -0.235 A  
BRANCH  17  20
HETATM   20  C   UNL     1      -8.603  12.357  66.843  1.00  0.00    -0.171 C  
HETATM   21  C   UNL     1      -9.044  13.605  67.098  1.00  0.00    -0.241 C  
BRANCH  21  22
HETATM   22  C   UNL     1     -10.449  14.003  67.353  1.00  0.00    -0.263 C  
HETATM   23  N   UNL     1     -10.853  13.967  68.667  1.00  0.00    -0.255 N  
HETATM   24  O   UNL     1     -11.205  14.388  66.465  1.00  0.00    -0.324 OA 
HETATM   25  H   UNL     1     -10.212  13.738  69.427  1.00  0.00     0.000 HD 
BRANCH  23  26
HETATM   26  N   UNL     1     -12.216  14.269  68.892  1.00  0.00    -0.548 NA 
HETATM   27  H   UNL     1     -12.899  14.338  68.139  1.00  0.00     0.000 HD 
BRANCH  26  28
HETATM   28  C   UNL     1     -12.550  14.466  70.254  1.00  0.00    -0.323 A  
HETATM   29  N   UNL     1     -12.567  15.707  70.800  1.00  0.00    -0.447 NA 
HETATM   30  C   UNL     1     -12.823  15.761  72.134  1.00  0.00    -0.437 A  
HETATM   31  C   UNL     1     -13.040  14.633  72.909  1.00  0.00    -0.513 A  
HETATM   32  N   UNL     1     -13.016  13.390  72.390  1.00  0.00    -0.312 NA 
HETATM   33  C   UNL     1     -12.758  13.337  71.058  1.00  0.00    -0.293 A  
ENDBRANCH  26  28
ENDBRANCH  23  26
ENDBRANCH  21  22
ENDBRANCH  17  20
ENDBRANCH  10  15
TORSDOF 5
ENDMDL
MODEL      129
REMARK 921   NORMALIZED FREE ENERGY PREDICTED BY IDOCK:   -6.33 KCAL/MOL
REMARK 922        TOTAL FREE ENERGY PREDICTED BY IDOCK:   -9.44 KCAL/MOL
REMARK 923 INTER-LIGAND FREE ENERGY PREDICTED BY IDOCK:   -8.71 KCAL/MOL
REMARK 924 INTRA-LIGAND FREE ENERGY PREDICTED BY IDOCK:   -0.73 KCAL/MOL
REMARK 927      BINDING AFFINITY PREDICTED BY RF-SCORE:    0.00 PKD
ROOT
HETATM    1  F   UNL     1      -9.532   6.499  70.809  1.00  0.00    -0.166 F  
HETATM    2  C   UNL     1      -9.385   7.119  69.605  1.00  0.00    -0.149 C  
HETATM    3  F   UNL     1      -8.059   7.406  69.494  1.00  0.00    -0.117 F  
HETATM    4  F   UNL     1      -9.647   6.171  68.665  1.00  0.00    -0.126 F  
HETATM    5  C   UNL     1     -10.257   8.342  69.449  1.00  0.00    -0.204 A  
HETATM    6  C   UNL     1     -11.128   8.762  70.465  1.00  0.00    -0.278 A  
HETATM    7  C   UNL     1     -11.925   9.908  70.307  1.00  0.00    -0.209 A  
HETATM    8  C   UNL     1     -12.852  10.363  71.410  1.00  0.00    -0.452 C  
HETATM    9  C   UNL     1     -11.848  10.637  69.103  1.00  0.00    -0.287 A  
HETATM   10  C   UNL     1     -10.993  10.232  68.071  1.00  0.00    -0.345 A  
HETATM   11  F   UNL     1     -14.154  10.415  71.012  1.00  0.00     0.080 F  
HETATM   12  F   UNL     1     -12.830   9.552  72.504  1.00  0.00    -0.435 F  
HETATM   13  F   UNL     1     -12.547  11.609  71.867  1.00  0.00    -0.376 F  
HETATM   14  C   UNL     1     -10.202   9.087  68.262  1.00  0.00    -0.241 A  
ENDROOT
BRANCH  10  15
HETATM   15  C   UNL     1     -10.887  10.970  66.812  1.00  0.00    -0.251 A  
HETATM   16  N   UNL     1     -11.500  12.130  66.538  1.00  0.00    -0.380 NA 
HETATM   17  N   UNL     1     -10.978  12.489  65.323  1.00  0.00    -0.286 NA 
HETATM   18  N   UNL     1     -10.133  10.484  65.781  1.00  0.00    -0.260 NA 
HETATM   19  C   UNL     1     -10.228  11.421  64.872  1.00  0.00    -0.278 A  
BRANCH  17  20
HETATM   20  C   UNL     1     -11.275  13.692  64.665  1.00  0.00    -0.373 C  
HETATM   21  C   UNL     1     -10.889  14.962  64.900  1.00  0.00    -0.431 C  
BRANCH  21  22
HETATM   22  C   UNL     1     -10.157  15.449  66.094  1.00  0.00    -0.305 C  
HETATM   23  N   UNL     1     -10.904  16.152  67.008  1.00  0.00    -0.252 N  
HETATM   24  O   UNL     1      -8.969  15.209  66.292  1.00  0.00    -0.289 OA 
HETATM   25  H   UNL     1     -11.911  16.282  66.905  1.00  0.00     0.000 HD 
BRANCH  23  26
HETATM   26  N   UNL     1     -10.182  16.684  68.102  1.00  0.00    -0.267 NA 
HETATM   27  H   UNL     1     -10.111  16.209  69.001  1.00  0.00     0.000 HD 
BRANCH  26  28
HETATM   28  C   UNL     1      -9.568  17.934  67.840  1.00  0.00    -0.286 A  
HETATM   29  N   UNL     1      -8.309  18.200  68.267  1.00  0.00    -0.283 NA 
HETATM   30  C   UNL     1      -7.859  19.459  68.027  1.00  0.00    -0.302 A  
HETATM   31  C   UNL     1      -8.625  20.430  67.401  1.00  0.00    -0.319 A  
HETATM   32  N   UNL     1      -9.882  20.191  66.979  1.00  0.00    -0.428 NA 
HETATM   33  C   UNL     1     -10.331  18.933  67.222  1.00  0.00    -0.418 A  
ENDBRANCH  26  28
ENDBRANCH  23  26
ENDBRANCH  21  22
ENDBRANCH  17  20
ENDBRANCH  10  15
TORSDOF 5
ENDMDL
MODEL      130
REMARK 921   NORMALIZED FREE ENERGY PREDICTED BY IDOCK:   -6.32 KCAL/MOL
REMARK 922        TOTAL FREE ENERGY PREDICTED BY IDOCK:   -9.43 KCAL/MOL
REMARK 923 INTER-LIGAND FREE ENERGY PREDICTED BY IDOCK:   -8.33 KCAL/MOL
REMARK 924 INTRA-LIGAND FREE ENERGY PREDICTED BY IDOCK:   -1.10 KCAL/MOL
REMARK 927      BINDING AFFINITY PREDICTED BY RF-SCORE:    0.00 PKD
ROOT
HETATM    1  F   UNL     1      -9.533  20.814  67.133  1.00  0.00    -0.535 F  
HETATM    2  C   UNL     1     -10.364  19.835  66.676  1.00  0.00    -0.496 C  
HETATM    3  F   UNL     1     -11.518  19.967  67.384  1.00  0.00    -0.268 F  
HETATM    4  F   UNL     1     -10.666  20.176  65.393  1.00  0.00    -0.546 F  
HETATM    5  C   UNL     1      -9.774  18.449  66.781  1.00  0.00    -0.331 A  
HETATM    6  C   UNL     1      -8.488  18.231  67.298  1.00  0.00    -0.250 A  
HETATM    7  C   UNL     1      -7.960  16.933  67.398  1.00  0.00    -0.190 A  
HETATM    8  C   UNL     1      -6.580  16.703  67.968  1.00  0.00    -0.136 C  
HETATM    9  C   UNL     1      -8.736  15.840  66.963  1.00  0.00    -0.251 A  
HETATM   10  C   UNL     1     -10.019  16.034  66.434  1.00  0.00    -0.312 A  
HETATM   11  F   UNL     1      -5.747  16.081  67.087  1.00  0.00    -0.163 F  
HETATM   12  F   UNL     1      -5.945  17.852  68.330  1.00  0.00    -0.161 F  
HETATM   13  F   UNL     1      -6.599  15.924  69.083  1.00  0.00    -0.123 F  
HETATM   14  C   UNL     1     -10.524  17.342  66.356  1.00  0.00    -0.267 A  
ENDROOT
BRANCH  10  15
HETATM   15  C   UNL     1     -10.851  14.920  65.979  1.00  0.00    -0.328 A  
HETATM   16  N   UNL     1     -10.964  14.503  64.711  1.00  0.00    -0.399 NA 
HETATM   17  N   UNL     1     -11.717  13.363  64.814  1.00  0.00    -0.346 NA 
HETATM   18  N   UNL     1     -11.615  14.214  66.866  1.00  0.00    -0.371 NA 
HETATM   19  C   UNL     1     -12.156  13.284  66.122  1.00  0.00    -0.421 A  
BRANCH  17  20
HETATM   20  C   UNL     1     -12.034  12.529  63.731  1.00  0.00    -0.517 C  
HETATM   21  C   UNL     1     -11.343  11.541  63.128  1.00  0.00    -0.068 C  
BRANCH  21  22
HETATM   22  C   UNL     1      -9.921  11.196  63.363  1.00  0.00    -0.387 C  
HETATM   23  N   UNL     1      -9.684  10.286  64.365  1.00  0.00    -0.316 N  
HETATM   24  O   UNL     1      -9.003  11.650  62.685  1.00  0.00    -0.307 OA 
HETATM   25  H   UNL     1     -10.440   9.829  64.877  1.00  0.00     0.000 HD 
BRANCH  23  26
HETATM   26  N   UNL     1      -8.321  10.024  64.638  1.00  0.00    -0.156 NA 
HETATM   27  H   UNL     1      -7.659   9.731  63.920  1.00  0.00     0.000 HD 
BRANCH  26  28
HETATM   28  C   UNL     1      -7.955  10.204  65.994  1.00  0.00    -0.124 A  
HETATM   29  N   UNL     1      -7.363   9.209  66.700  1.00  0.00    -0.085 NA 
HETATM   30  C   UNL     1      -7.134   9.474  68.014  1.00  0.00    -0.080 A  
HETATM   31  C   UNL     1      -7.486  10.671  68.617  1.00  0.00    -0.098 A  
HETATM   32  N   UNL     1      -8.085  11.669  67.937  1.00  0.00    -0.130 NA 
HETATM   33  C   UNL     1      -8.316  11.402  66.627  1.00  0.00    -0.172 A  
ENDBRANCH  26  28
ENDBRANCH  23  26
ENDBRANCH  21  22
ENDBRANCH  17  20
ENDBRANCH  10  15
TORSDOF 5
ENDMDL
MODEL      131
REMARK 921   NORMALIZED FREE ENERGY PREDICTED BY IDOCK:   -6.32 KCAL/MOL
REMARK 922        TOTAL FREE ENERGY PREDICTED BY IDOCK:   -9.43 KCAL/MOL
REMARK 923 INTER-LIGAND FREE ENERGY PREDICTED BY IDOCK:   -8.87 KCAL/MOL
REMARK 924 INTRA-LIGAND FREE ENERGY PREDICTED BY IDOCK:   -0.57 KCAL/MOL
REMARK 927      BINDING AFFINITY PREDICTED BY RF-SCORE:    0.00 PKD
ROOT
HETATM    1  F   UNL     1     -12.269  14.076  64.375  1.00  0.00    -0.412 F  
HETATM    2  C   UNL     1     -12.117  12.885  65.021  1.00  0.00    -0.435 C  
HETATM    3  F   UNL     1     -13.244  12.172  64.755  1.00  0.00    -0.386 F  
HETATM    4  F   UNL     1     -11.102  12.243  64.380  1.00  0.00    -0.312 F  
HETATM    5  C   UNL     1     -11.862  13.034  66.502  1.00  0.00    -0.464 A  
HETATM    6  C   UNL     1     -11.787  14.293  67.115  1.00  0.00    -0.454 A  
HETATM    7  C   UNL     1     -11.559  14.412  68.497  1.00  0.00    -0.347 A  
HETATM    8  C   UNL     1     -11.493  15.771  69.154  1.00  0.00    -0.380 C  
HETATM    9  C   UNL     1     -11.396  13.245  69.269  1.00  0.00    -0.311 A  
HETATM   10  C   UNL     1     -11.457  11.977  68.677  1.00  0.00    -0.350 A  
HETATM   11  F   UNL     1     -10.302  15.993  69.778  1.00  0.00    -0.233 F  
HETATM   12  F   UNL     1     -11.652  16.803  68.280  1.00  0.00    -0.276 F  
HETATM   13  F   UNL     1     -12.453  15.939  70.104  1.00  0.00    -0.386 F  
HETATM   14  C   UNL     1     -11.696  11.889  67.296  1.00  0.00    -0.319 A  
ENDROOT
BRANCH  10  15
HETATM   15  C   UNL     1     -11.297  10.747  69.452  1.00  0.00    -0.285 A  
HETATM   16  N   UNL     1     -11.731  10.557  70.706  1.00  0.00    -0.348 NA 
HETATM   17  N   UNL     1     -11.485   9.228  70.932  1.00  0.00    -0.284 NA 
HETATM   18  N   UNL     1     -10.644   9.670  68.922  1.00  0.00    -0.214 NA 
HETATM   19  C   UNL     1     -10.751   8.763  69.860  1.00  0.00    -0.223 A  
BRANCH  17  20
HETATM   20  C   UNL     1     -11.850   8.551  72.106  1.00  0.00    -0.379 C  
HETATM   21  C   UNL     1     -11.303   7.494  72.738  1.00  0.00    -0.388 C  
BRANCH  21  22
HETATM   22  C   UNL     1     -10.222   6.624  72.217  1.00  0.00    -0.187 C  
HETATM   23  N   UNL     1     -10.628   5.574  71.426  1.00  0.00    -0.250 N  
HETATM   24  O   UNL     1      -9.032   6.838  72.429  1.00  0.00    -0.135 OA 
HETATM   25  H   UNL     1     -11.604   5.435  71.164  1.00  0.00     0.000 HD 
BRANCH  23  26
HETATM   26  N   UNL     1      -9.599   4.702  71.001  1.00  0.00    -0.164 NA 
HETATM   27  H   UNL     1      -9.008   4.185  71.651  1.00  0.00     0.000 HD 
BRANCH  26  28
HETATM   28  C   UNL     1      -9.462   4.607  69.594  1.00  0.00    -0.162 A  
HETATM   29  N   UNL     1      -9.538   5.708  68.806  1.00  0.00    -0.125 NA 
HETATM   30  C   UNL     1      -9.473   5.480  67.468  1.00  0.00    -0.117 A  
HETATM   31  C   UNL     1      -9.352   4.213  66.920  1.00  0.00    -0.174 A  
HETATM   32  N   UNL     1      -9.287   3.105  67.685  1.00  0.00    -0.203 NA 
HETATM   33  C   UNL     1      -9.355   3.333  69.020  1.00  0.00    -0.163 A  
ENDBRANCH  26  28
ENDBRANCH  23  26
ENDBRANCH  21  22
ENDBRANCH  17  20
ENDBRANCH  10  15
TORSDOF 5
ENDMDL
MODEL      132
REMARK 921   NORMALIZED FREE ENERGY PREDICTED BY IDOCK:   -6.32 KCAL/MOL
REMARK 922        TOTAL FREE ENERGY PREDICTED BY IDOCK:   -9.43 KCAL/MOL
REMARK 923 INTER-LIGAND FREE ENERGY PREDICTED BY IDOCK:   -8.86 KCAL/MOL
REMARK 924 INTRA-LIGAND FREE ENERGY PREDICTED BY IDOCK:   -0.57 KCAL/MOL
REMARK 927      BINDING AFFINITY PREDICTED BY RF-SCORE:    0.00 PKD
ROOT
HETATM    1  F   UNL     1      -9.098  19.724  67.423  1.00  0.00    -0.336 F  
HETATM    2  C   UNL     1     -10.160  19.183  68.084  1.00  0.00    -0.402 C  
HETATM    3  F   UNL     1     -10.404  20.012  69.135  1.00  0.00    -0.519 F  
HETATM    4  F   UNL     1     -11.224  19.313  67.245  1.00  0.00    -0.553 F  
HETATM    5  C   UNL     1      -9.935  17.754  68.514  1.00  0.00    -0.370 A  
HETATM    6  C   UNL     1      -8.738  17.078  68.233  1.00  0.00    -0.241 A  
HETATM    7  C   UNL     1      -8.542  15.750  68.650  1.00  0.00    -0.194 A  
HETATM    8  C   UNL     1      -7.245  15.033  68.357  1.00  0.00    -0.111 C  
HETATM    9  C   UNL     1      -9.571  15.092  69.353  1.00  0.00    -0.195 A  
HETATM   10  C   UNL     1     -10.779  15.743  69.636  1.00  0.00    -0.292 A  
HETATM   11  F   UNL     1      -7.429  13.900  67.620  1.00  0.00    -0.117 F  
HETATM   12  F   UNL     1      -6.354  15.789  67.659  1.00  0.00    -0.123 F  
HETATM   13  F   UNL     1      -6.596  14.645  69.488  1.00  0.00    -0.108 F  
HETATM   14  C   UNL     1     -10.942  17.073  69.215  1.00  0.00    -0.008 A  
ENDROOT
BRANCH  10  15
HETATM   15  C   UNL     1     -11.863  15.088  70.368  1.00  0.00    -0.297 A  
HETATM   16  N   UNL     1     -11.937  13.778  70.640  1.00  0.00    -0.301 NA 
HETATM   17  N   UNL     1     -13.032  13.681  71.457  1.00  0.00    -0.354 NA 
HETATM   18  N   UNL     1     -12.930  15.810  70.824  1.00  0.00    -0.485 NA 
HETATM   19  C   UNL     1     -13.643  14.920  71.464  1.00  0.00    -0.429 A  
BRANCH  17  20
HETATM   20  C   UNL     1     -13.458  12.489  72.062  1.00  0.00    -0.387 C  
HETATM   21  C   UNL     1     -13.140  11.201  71.826  1.00  0.00    -0.536 C  
BRANCH  21  22
HETATM   22  C   UNL     1     -12.353  10.687  70.679  1.00  0.00    -0.369 C  
HETATM   23  N   UNL     1     -11.226   9.969  71.002  1.00  0.00    -0.346 N  
HETATM   24  O   UNL     1     -12.696  10.844  69.511  1.00  0.00    -0.267 OA 
HETATM   25  H   UNL     1     -10.977   9.750  71.967  1.00  0.00     0.000 HD 
BRANCH  23  26
HETATM   26  N   UNL     1     -10.437   9.553  69.904  1.00  0.00    -0.223 NA 
HETATM   27  H   UNL     1      -9.947  10.208  69.295  1.00  0.00     0.000 HD 
BRANCH  26  28
HETATM   28  C   UNL     1     -10.386   8.149  69.724  1.00  0.00    -0.216 A  
HETATM   29  N   UNL     1     -10.770   7.576  68.556  1.00  0.00    -0.129 NA 
HETATM   30  C   UNL     1     -10.754   6.218  68.532  1.00  0.00    -0.292 A  
HETATM   31  C   UNL     1     -10.385   5.446  69.623  1.00  0.00    -0.291 A  
HETATM   32  N   UNL     1     -10.011   5.994  70.796  1.00  0.00    -0.186 NA 
HETATM   33  C   UNL     1     -10.030   7.350  70.819  1.00  0.00    -0.182 A  
ENDBRANCH  26  28
ENDBRANCH  23  26
ENDBRANCH  21  22
ENDBRANCH  17  20
ENDBRANCH  10  15
TORSDOF 5
ENDMDL
MODEL      133
REMARK 921   NORMALIZED FREE ENERGY PREDICTED BY IDOCK:   -6.32 KCAL/MOL
REMARK 922        TOTAL FREE ENERGY PREDICTED BY IDOCK:   -9.43 KCAL/MOL
REMARK 923 INTER-LIGAND FREE ENERGY PREDICTED BY IDOCK:   -7.91 KCAL/MOL
REMARK 924 INTRA-LIGAND FREE ENERGY PREDICTED BY IDOCK:   -1.52 KCAL/MOL
REMARK 927      BINDING AFFINITY PREDICTED BY RF-SCORE:    0.00 PKD
ROOT
HETATM    1  F   UNL     1      -8.556   7.968  71.052  1.00  0.00    -0.119 F  
HETATM    2  C   UNL     1      -9.060   8.984  70.296  1.00  0.00    -0.202 C  
HETATM    3  F   UNL     1     -10.242   9.328  70.876  1.00  0.00    -0.263 F  
HETATM    4  F   UNL     1      -8.222  10.040  70.490  1.00  0.00    -0.196 F  
HETATM    5  C   UNL     1      -9.211   8.628  68.837  1.00  0.00    -0.145 A  
HETATM    6  C   UNL     1      -8.850   7.365  68.344  1.00  0.00    -0.121 A  
HETATM    7  C   UNL     1      -9.009   7.048  66.984  1.00  0.00    -0.130 A  
HETATM    8  C   UNL     1      -8.630   5.681  66.462  1.00  0.00    -0.119 C  
HETATM    9  C   UNL     1      -9.530   8.020  66.108  1.00  0.00    -0.193 A  
HETATM   10  C   UNL     1      -9.889   9.291  66.576  1.00  0.00    -0.331 A  
HETATM   11  F   UNL     1      -7.682   5.739  65.484  1.00  0.00    -0.080 F  
HETATM   12  F   UNL     1      -8.127   4.855  67.419  1.00  0.00    -0.102 F  
HETATM   13  F   UNL     1      -9.689   5.019  65.920  1.00  0.00    -0.154 F  
HETATM   14  C   UNL     1      -9.728   9.576  67.941  1.00  0.00    -0.171 A  
ENDROOT
BRANCH  10  15
HETATM   15  C   UNL     1     -10.437  10.320  65.692  1.00  0.00    -0.082 A  
HETATM   16  N   UNL     1     -11.476  11.117  65.979  1.00  0.00    -0.055 NA 
HETATM   17  N   UNL     1     -11.509  11.992  64.926  1.00  0.00    -0.316 NA 
HETATM   18  N   UNL     1      -9.907  10.526  64.449  1.00  0.00    -0.322 NA 
HETATM   19  C   UNL     1     -10.599  11.537  63.991  1.00  0.00    -0.379 A  
BRANCH  17  20
HETATM   20  C   UNL     1     -12.399  13.073  64.830  1.00  0.00    -0.436 C  
HETATM   21  C   UNL     1     -12.528  14.197  65.562  1.00  0.00    -0.495 C  
BRANCH  21  22
HETATM   22  C   UNL     1     -11.834  14.497  66.837  1.00  0.00    -0.377 C  
HETATM   23  N   UNL     1     -11.942  13.539  67.816  1.00  0.00    -0.354 N  
HETATM   24  O   UNL     1     -11.162  15.510  67.009  1.00  0.00    -0.285 OA 
HETATM   25  H   UNL     1     -12.418  12.650  67.659  1.00  0.00     0.000 HD 
BRANCH  23  26
HETATM   26  N   UNL     1     -11.347  13.868  69.057  1.00  0.00    -0.267 NA 
HETATM   27  H   UNL     1     -10.509  14.444  69.133  1.00  0.00     0.000 HD 
BRANCH  26  28
HETATM   28  C   UNL     1     -12.016  13.330  70.183  1.00  0.00    -0.318 A  
HETATM   29  N   UNL     1     -12.158  11.991  70.341  1.00  0.00    -0.355 NA 
HETATM   30  C   UNL     1     -12.889  11.599  71.419  1.00  0.00    -0.356 A  
HETATM   31  C   UNL     1     -13.471  12.492  72.304  1.00  0.00    -0.386 A  
HETATM   32  N   UNL     1     -13.352  13.826  72.159  1.00  0.00    -0.433 NA 
HETATM   33  C   UNL     1     -12.625  14.217  71.082  1.00  0.00    -0.367 A  
ENDBRANCH  26  28
ENDBRANCH  23  26
ENDBRANCH  21  22
ENDBRANCH  17  20
ENDBRANCH  10  15
TORSDOF 5
ENDMDL
MODEL      134
REMARK 921   NORMALIZED FREE ENERGY PREDICTED BY IDOCK:   -6.30 KCAL/MOL
REMARK 922        TOTAL FREE ENERGY PREDICTED BY IDOCK:   -9.41 KCAL/MOL
REMARK 923 INTER-LIGAND FREE ENERGY PREDICTED BY IDOCK:   -7.70 KCAL/MOL
REMARK 924 INTRA-LIGAND FREE ENERGY PREDICTED BY IDOCK:   -1.71 KCAL/MOL
REMARK 927      BINDING AFFINITY PREDICTED BY RF-SCORE:    0.00 PKD
ROOT
HETATM    1  F   UNL     1      -7.944   9.929  63.258  1.00  0.00    -0.128 F  
HETATM    2  C   UNL     1      -8.570   9.915  64.468  1.00  0.00    -0.186 C  
HETATM    3  F   UNL     1      -7.893  10.800  65.248  1.00  0.00    -0.150 F  
HETATM    4  F   UNL     1      -9.799  10.460  64.256  1.00  0.00    -0.318 F  
HETATM    5  C   UNL     1      -8.648   8.539  65.087  1.00  0.00    -0.179 A  
HETATM    6  C   UNL     1      -8.123   7.409  64.444  1.00  0.00    -0.070 A  
HETATM    7  C   UNL     1      -8.195   6.139  65.040  1.00  0.00    -0.132 A  
HETATM    8  C   UNL     1      -7.615   4.928  64.347  1.00  0.00    -0.073 C  
HETATM    9  C   UNL     1      -8.813   6.005  66.299  1.00  0.00    -0.144 A  
HETATM   10  C   UNL     1      -9.354   7.118  66.956  1.00  0.00    -0.181 A  
HETATM   11  F   UNL     1      -8.547   3.960  64.118  1.00  0.00    -0.092 F  
HETATM   12  F   UNL     1      -7.066   5.208  63.134  1.00  0.00    -0.039 F  
HETATM   13  F   UNL     1      -6.628   4.335  65.073  1.00  0.00    -0.038 F  
HETATM   14  C   UNL     1      -9.258   8.376  66.340  1.00  0.00    -0.253 A  
ENDROOT
BRANCH  10  15
HETATM   15  C   UNL     1      -9.998   7.012  68.266  1.00  0.00    -0.153 A  
HETATM   16  N   UNL     1      -9.724   7.779  69.330  1.00  0.00    -0.167 NA 
HETATM   17  N   UNL     1     -10.672   7.406  70.246  1.00  0.00    -0.232 NA 
HETATM   18  N   UNL     1     -10.952   6.062  68.497  1.00  0.00    -0.300 NA 
HETATM   19  C   UNL     1     -11.329   6.308  69.726  1.00  0.00    -0.436 A  
BRANCH  17  20
HETATM   20  C   UNL     1     -10.825   8.005  71.506  1.00  0.00    -0.232 C  
HETATM   21  C   UNL     1     -11.534   9.078  71.909  1.00  0.00    -0.440 C  
BRANCH  21  22
HETATM   22  C   UNL     1     -12.222  10.054  71.030  1.00  0.00    -0.365 C  
HETATM   23  N   UNL     1     -11.928   9.964  69.690  1.00  0.00    -0.461 N  
HETATM   24  O   UNL     1     -13.039  10.869  71.449  1.00  0.00    -0.389 OA 
HETATM   25  H   UNL     1     -11.322   9.234  69.313  1.00  0.00     0.000 HD 
BRANCH  23  26
HETATM   26  N   UNL     1     -12.524  10.950  68.870  1.00  0.00    -0.705 NA 
HETATM   27  H   UNL     1     -13.532  11.088  68.814  1.00  0.00     0.000 HD 
BRANCH  26  28
HETATM   28  C   UNL     1     -11.598  11.729  68.133  1.00  0.00    -0.323 A  
HETATM   29  N   UNL     1     -11.942  12.294  66.949  1.00  0.00    -0.593 NA 
HETATM   30  C   UNL     1     -10.945  12.949  66.297  1.00  0.00    -0.281 A  
HETATM   31  C   UNL     1      -9.651  13.036  66.785  1.00  0.00    -0.248 A  
HETATM   32  N   UNL     1      -9.285  12.472  67.953  1.00  0.00    -0.193 NA 
HETATM   33  C   UNL     1     -10.280  11.816  68.602  1.00  0.00    -0.201 A  
ENDBRANCH  26  28
ENDBRANCH  23  26
ENDBRANCH  21  22
ENDBRANCH  17  20
ENDBRANCH  10  15
TORSDOF 5
ENDMDL
MODEL      135
REMARK 921   NORMALIZED FREE ENERGY PREDICTED BY IDOCK:   -6.27 KCAL/MOL
REMARK 922        TOTAL FREE ENERGY PREDICTED BY IDOCK:   -9.37 KCAL/MOL
REMARK 923 INTER-LIGAND FREE ENERGY PREDICTED BY IDOCK:   -7.94 KCAL/MOL
REMARK 924 INTRA-LIGAND FREE ENERGY PREDICTED BY IDOCK:   -1.43 KCAL/MOL
REMARK 927      BINDING AFFINITY PREDICTED BY RF-SCORE:    0.00 PKD
ROOT
HETATM    1  F   UNL     1     -12.301  13.646  63.516  1.00  0.00    -0.524 F  
HETATM    2  C   UNL     1     -11.820  12.394  63.763  1.00  0.00    -0.502 C  
HETATM    3  F   UNL     1     -12.764  11.534  63.294  1.00  0.00    -0.636 F  
HETATM    4  F   UNL     1     -10.737  12.247  62.952  1.00  0.00    -0.377 F  
HETATM    5  C   UNL     1     -11.490  12.155  65.217  1.00  0.00    -0.388 A  
HETATM    6  C   UNL     1     -11.666  13.152  66.188  1.00  0.00    -0.428 A  
HETATM    7  C   UNL     1     -11.363  12.907  67.538  1.00  0.00    -0.354 A  
HETATM    8  C   UNL     1     -11.568  13.981  68.581  1.00  0.00    -0.325 C  
HETATM    9  C   UNL     1     -10.867  11.642  67.913  1.00  0.00    -0.255 A  
HETATM   10  C   UNL     1     -10.673  10.635  66.959  1.00  0.00    -0.317 A  
HETATM   11  F   UNL     1     -10.417  14.297  69.240  1.00  0.00    -0.231 F  
HETATM   12  F   UNL     1     -12.036  15.152  68.069  1.00  0.00    -0.331 F  
HETATM   13  F   UNL     1     -12.461  13.612  69.540  1.00  0.00    -0.347 F  
HETATM   14  C   UNL     1     -10.994  10.905  65.619  1.00  0.00    -0.032 A  
ENDROOT
BRANCH  10  15
HETATM   15  C   UNL     1     -10.165   9.311  67.318  1.00  0.00    -0.252 A  
HETATM   16  N   UNL     1     -10.879   8.176  67.311  1.00  0.00    -0.173 NA 
HETATM   17  N   UNL     1      -9.945   7.208  67.566  1.00  0.00    -0.155 NA 
HETATM   18  N   UNL     1      -8.869   9.148  67.720  1.00  0.00    -0.124 NA 
HETATM   19  C   UNL     1      -8.769   7.855  67.892  1.00  0.00    -0.124 A  
BRANCH  17  20
HETATM   20  C   UNL     1     -10.223   5.833  67.580  1.00  0.00    -0.196 C  
HETATM   21  C   UNL     1      -9.990   4.861  66.675  1.00  0.00    -0.254 C  
BRANCH  21  22
HETATM   22  C   UNL     1      -9.518   5.055  65.283  1.00  0.00    -0.048 C  
HETATM   23  N   UNL     1      -8.699   6.139  65.075  1.00  0.00    -0.353 N  
HETATM   24  O   UNL     1      -9.793   4.280  64.371  1.00  0.00    -0.160 OA 
HETATM   25  H   UNL     1      -8.386   6.741  65.837  1.00  0.00     0.000 HD 
BRANCH  23  26
HETATM   26  N   UNL     1      -8.320   6.365  63.731  1.00  0.00    -0.331 NA 
HETATM   27  H   UNL     1      -8.392   5.649  63.008  1.00  0.00     0.000 HD 
BRANCH  26  28
HETATM   28  C   UNL     1      -7.832   7.670  63.475  1.00  0.00    -0.124 A  
HETATM   29  N   UNL     1      -6.800   7.879  62.621  1.00  0.00    -0.084 NA 
HETATM   30  C   UNL     1      -6.369   9.164  62.521  1.00  0.00    -0.094 A  
HETATM   31  C   UNL     1      -6.923  10.207  63.246  1.00  0.00    -0.125 A  
HETATM   32  N   UNL     1      -7.941  10.020  64.109  1.00  0.00    -0.148 NA 
HETATM   33  C   UNL     1      -8.369   8.736  64.210  1.00  0.00    -0.151 A  
ENDBRANCH  26  28
ENDBRANCH  23  26
ENDBRANCH  21  22
ENDBRANCH  17  20
ENDBRANCH  10  15
TORSDOF 5
ENDMDL
MODEL      136
REMARK 921   NORMALIZED FREE ENERGY PREDICTED BY IDOCK:   -6.27 KCAL/MOL
REMARK 922        TOTAL FREE ENERGY PREDICTED BY IDOCK:   -9.36 KCAL/MOL
REMARK 923 INTER-LIGAND FREE ENERGY PREDICTED BY IDOCK:   -7.73 KCAL/MOL
REMARK 924 INTRA-LIGAND FREE ENERGY PREDICTED BY IDOCK:   -1.64 KCAL/MOL
REMARK 927      BINDING AFFINITY PREDICTED BY RF-SCORE:    0.00 PKD
ROOT
HETATM    1  F   UNL     1     -11.697  10.848  71.277  1.00  0.00    -0.367 F  
HETATM    2  C   UNL     1     -11.051  10.132  70.315  1.00  0.00    -0.317 C  
HETATM    3  F   UNL     1      -9.829   9.832  70.833  1.00  0.00    -0.318 F  
HETATM    4  F   UNL     1     -11.721   8.952  70.218  1.00  0.00    -0.234 F  
HETATM    5  C   UNL     1     -10.958  10.854  68.991  1.00  0.00    -0.285 A  
HETATM    6  C   UNL     1     -11.504  12.132  68.807  1.00  0.00    -0.359 A  
HETATM    7  C   UNL     1     -11.398  12.793  67.571  1.00  0.00    -0.361 A  
HETATM    8  C   UNL     1     -11.977  14.176  67.384  1.00  0.00    -0.404 C  
HETATM    9  C   UNL     1     -10.740  12.151  66.504  1.00  0.00    -0.290 A  
HETATM   10  C   UNL     1     -10.195  10.870  66.661  1.00  0.00    -0.282 A  
HETATM   11  F   UNL     1     -12.910  14.222  66.390  1.00  0.00    -0.451 F  
HETATM   12  F   UNL     1     -12.595  14.660  68.496  1.00  0.00    -0.132 F  
HETATM   13  F   UNL     1     -11.031  15.097  67.055  1.00  0.00    -0.298 F  
HETATM   14  C   UNL     1     -10.308  10.239  67.910  1.00  0.00    -0.234 A  
ENDROOT
BRANCH  10  15
HETATM   15  C   UNL     1      -9.502  10.179  65.573  1.00  0.00    -0.230 A  
HETATM   16  N   UNL     1      -8.497   9.306  65.723  1.00  0.00    -0.129 NA 
HETATM   17  N   UNL     1      -8.293   8.830  64.455  1.00  0.00    -0.168 NA 
HETATM   18  N   UNL     1      -9.844  10.413  64.271  1.00  0.00    -0.329 NA 
HETATM   19  C   UNL     1      -9.070   9.593  63.606  1.00  0.00    -0.174 A  
BRANCH  17  20
HETATM   20  C   UNL     1      -7.374   7.821  64.133  1.00  0.00    -0.090 C  
HETATM   21  C   UNL     1      -7.465   6.477  64.174  1.00  0.00    -0.092 C  
BRANCH  21  22
HETATM   22  C   UNL     1      -8.567   5.692  64.780  1.00  0.00    -0.061 C  
HETATM   23  N   UNL     1      -9.419   6.392  65.601  1.00  0.00    -0.363 N  
HETATM   24  O   UNL     1      -8.750   4.502  64.539  1.00  0.00    -0.136 OA 
HETATM   25  H   UNL     1      -9.337   7.399  65.740  1.00  0.00     0.000 HD 
BRANCH  23  26
HETATM   26  N   UNL     1     -10.418   5.620  66.240  1.00  0.00    -0.454 NA 
HETATM   27  H   UNL     1     -11.241   5.268  65.753  1.00  0.00     0.000 HD 
BRANCH  26  28
HETATM   28  C   UNL     1     -10.174   5.378  67.614  1.00  0.00    -0.186 A  
HETATM   29  N   UNL     1      -9.747   4.167  68.049  1.00  0.00    -0.133 NA 
HETATM   30  C   UNL     1      -9.628   4.034  69.397  1.00  0.00    -0.187 A  
HETATM   31  C   UNL     1      -9.930   5.051  70.288  1.00  0.00    -0.255 A  
HETATM   32  N   UNL     1     -10.367   6.258  69.878  1.00  0.00    -0.183 NA 
HETATM   33  C   UNL     1     -10.489   6.389  68.533  1.00  0.00    -0.224 A  
ENDBRANCH  26  28
ENDBRANCH  23  26
ENDBRANCH  21  22
ENDBRANCH  17  20
ENDBRANCH  10  15
TORSDOF 5
ENDMDL
MODEL      137
REMARK 921   NORMALIZED FREE ENERGY PREDICTED BY IDOCK:   -6.26 KCAL/MOL
REMARK 922        TOTAL FREE ENERGY PREDICTED BY IDOCK:   -9.35 KCAL/MOL
REMARK 923 INTER-LIGAND FREE ENERGY PREDICTED BY IDOCK:   -7.42 KCAL/MOL
REMARK 924 INTRA-LIGAND FREE ENERGY PREDICTED BY IDOCK:   -1.93 KCAL/MOL
REMARK 927      BINDING AFFINITY PREDICTED BY RF-SCORE:    0.00 PKD
ROOT
HETATM    1  F   UNL     1     -12.901  16.090  70.514  1.00  0.00    -0.419 F  
HETATM    2  C   UNL     1     -11.786  15.312  70.421  1.00  0.00    -0.324 C  
HETATM    3  F   UNL     1     -11.346  15.139  71.697  1.00  0.00    -0.385 F  
HETATM    4  F   UNL     1     -12.220  14.091  70.002  1.00  0.00    -0.330 F  
HETATM    5  C   UNL     1     -10.726  15.889  69.515  1.00  0.00    -0.288 A  
HETATM    6  C   UNL     1     -10.910  17.107  68.844  1.00  0.00    -0.172 A  
HETATM    7  C   UNL     1      -9.908  17.634  68.013  1.00  0.00    -0.310 A  
HETATM    8  C   UNL     1     -10.108  18.954  67.304  1.00  0.00    -0.357 C  
HETATM    9  C   UNL     1      -8.705  16.919  67.849  1.00  0.00    -0.213 A  
HETATM   10  C   UNL     1      -8.502  15.695  68.500  1.00  0.00    -0.175 A  
HETATM   11  F   UNL     1     -10.014  18.839  65.949  1.00  0.00    -0.354 F  
HETATM   12  F   UNL     1     -11.322  19.520  67.545  1.00  0.00    -0.507 F  
HETATM   13  F   UNL     1      -9.185  19.886  67.668  1.00  0.00    -0.366 F  
HETATM   14  C   UNL     1      -9.518  15.198  69.333  1.00  0.00    -0.185 A  
ENDROOT
BRANCH  10  15
HETATM   15  C   UNL     1      -7.262  14.932  68.354  1.00  0.00    -0.116 A  
HETATM   16  N   UNL     1      -7.114  13.630  68.638  1.00  0.00    -0.100 NA 
HETATM   17  N   UNL     1      -5.846  13.350  68.201  1.00  0.00    -0.096 NA 
HETATM   18  N   UNL     1      -6.119  15.537  67.915  1.00  0.00    -0.136 NA 
HETATM   19  C   UNL     1      -5.261  14.552  67.856  1.00  0.00    -0.061 A  
BRANCH  17  20
HETATM   20  C   UNL     1      -5.273  12.069  68.224  1.00  0.00    -0.048 C  
HETATM   21  C   UNL     1      -5.501  10.971  67.477  1.00  0.00    -0.041 C  
BRANCH  21  22
HETATM   22  C   UNL     1      -6.608  10.783  66.509  1.00  0.00    -0.119 C  
HETATM   23  N   UNL     1      -7.812  11.347  66.861  1.00  0.00    -0.153 N  
HETATM   24  O   UNL     1      -6.466  10.204  65.437  1.00  0.00    -0.102 OA 
HETATM   25  H   UNL     1      -7.924  11.910  67.705  1.00  0.00     0.000 HD 
BRANCH  23  26
HETATM   26  N   UNL     1      -8.884  11.093  65.974  1.00  0.00    -0.188 NA 
HETATM   27  H   UNL     1      -8.895  10.301  65.332  1.00  0.00     0.000 HD 
BRANCH  26  28
HETATM   28  C   UNL     1      -9.939  12.035  66.054  1.00  0.00    -0.234 A  
HETATM   29  N   UNL     1      -9.696  13.368  66.009  1.00  0.00    -0.253 NA 
HETATM   30  C   UNL     1     -10.780  14.171  66.177  1.00  0.00    -0.297 A  
HETATM   31  C   UNL     1     -12.058  13.681  66.394  1.00  0.00    -0.433 A  
HETATM   32  N   UNL     1     -12.320  12.361  66.454  1.00  0.00    -0.433 NA 
HETATM   33  C   UNL     1     -11.237  11.560  66.289  1.00  0.00    -0.222 A  
ENDBRANCH  26  28
ENDBRANCH  23  26
ENDBRANCH  21  22
ENDBRANCH  17  20
ENDBRANCH  10  15
TORSDOF 5
ENDMDL
MODEL      138
REMARK 921   NORMALIZED FREE ENERGY PREDICTED BY IDOCK:   -6.26 KCAL/MOL
REMARK 922        TOTAL FREE ENERGY PREDICTED BY IDOCK:   -9.35 KCAL/MOL
REMARK 923 INTER-LIGAND FREE ENERGY PREDICTED BY IDOCK:   -8.93 KCAL/MOL
REMARK 924 INTRA-LIGAND FREE ENERGY PREDICTED BY IDOCK:   -0.42 KCAL/MOL
REMARK 927      BINDING AFFINITY PREDICTED BY RF-SCORE:    0.00 PKD
ROOT
HETATM    1  F   UNL     1     -11.125   6.478  72.807  1.00  0.00    -0.243 F  
HETATM    2  C   UNL     1     -11.186   7.724  72.258  1.00  0.00    -0.312 C  
HETATM    3  F   UNL     1     -12.427   8.199  72.551  1.00  0.00    -0.347 F  
HETATM    4  F   UNL     1     -10.311   8.486  72.969  1.00  0.00    -0.325 F  
HETATM    5  C   UNL     1     -10.895   7.741  70.776  1.00  0.00    -0.245 A  
HETATM    6  C   UNL     1     -10.586   6.568  70.071  1.00  0.00    -0.280 A  
HETATM    7  C   UNL     1     -10.328   6.602  68.690  1.00  0.00    -0.208 A  
HETATM    8  C   UNL     1     -10.009   5.334  67.933  1.00  0.00    -0.160 C  
HETATM    9  C   UNL     1     -10.373   7.837  68.013  1.00  0.00    -0.263 A  
HETATM   10  C   UNL     1     -10.669   9.022  68.698  1.00  0.00    -0.137 A  
HETATM   11  F   UNL     1      -8.792   5.381  67.322  1.00  0.00    -0.110 F  
HETATM   12  F   UNL     1      -9.986   4.224  68.722  1.00  0.00    -0.225 F  
HETATM   13  F   UNL     1     -10.914   5.071  66.951  1.00  0.00    -0.237 F  
HETATM   14  C   UNL     1     -10.932   8.956  70.076  1.00  0.00    -0.217 A  
ENDROOT
BRANCH  10  15
HETATM   15  C   UNL     1     -10.728  10.319  68.022  1.00  0.00    -0.255 A  
HETATM   16  N   UNL     1     -11.826  10.859  67.473  1.00  0.00    -0.417 NA 
HETATM   17  N   UNL     1     -11.416  12.115  67.110  1.00  0.00    -0.353 NA 
HETATM   18  N   UNL     1      -9.605  11.085  67.887  1.00  0.00    -0.169 NA 
HETATM   19  C   UNL     1     -10.050  12.168  67.301  1.00  0.00    -0.202 A  
BRANCH  17  20
HETATM   20  C   UNL     1     -12.263  13.087  66.555  1.00  0.00    -0.246 C  
HETATM   21  C   UNL     1     -12.017  14.322  66.077  1.00  0.00    -0.412 C  
BRANCH  21  22
HETATM   22  C   UNL     1     -10.743  15.071  66.195  1.00  0.00    -0.327 C  
HETATM   23  N   UNL     1     -10.537  15.718  67.390  1.00  0.00    -0.308 N  
HETATM   24  O   UNL     1      -9.893  15.085  65.309  1.00  0.00    -0.323 OA 
HETATM   25  H   UNL     1     -11.190  15.641  68.171  1.00  0.00     0.000 HD 
BRANCH  23  26
HETATM   26  N   UNL     1      -9.359  16.496  67.465  1.00  0.00    -0.218 NA 
HETATM   27  H   UNL     1      -8.437  16.092  67.627  1.00  0.00     0.000 HD 
BRANCH  26  28
HETATM   28  C   UNL     1      -9.570  17.887  67.296  1.00  0.00    -0.273 A  
HETATM   29  N   UNL     1      -9.279  18.504  66.124  1.00  0.00    -0.493 NA 
HETATM   30  C   UNL     1      -9.447  19.852  66.110  1.00  0.00    -0.377 A  
HETATM   31  C   UNL     1      -9.874  20.574  67.214  1.00  0.00    -0.441 A  
HETATM   32  N   UNL     1     -10.157  19.982  68.391  1.00  0.00    -0.425 NA 
HETATM   33  C   UNL     1      -9.986  18.636  68.405  1.00  0.00    -0.387 A  
ENDBRANCH  26  28
ENDBRANCH  23  26
ENDBRANCH  21  22
ENDBRANCH  17  20
ENDBRANCH  10  15
TORSDOF 5
ENDMDL
MODEL      139
REMARK 921   NORMALIZED FREE ENERGY PREDICTED BY IDOCK:   -6.25 KCAL/MOL
REMARK 922        TOTAL FREE ENERGY PREDICTED BY IDOCK:   -9.34 KCAL/MOL
REMARK 923 INTER-LIGAND FREE ENERGY PREDICTED BY IDOCK:   -8.15 KCAL/MOL
REMARK 924 INTRA-LIGAND FREE ENERGY PREDICTED BY IDOCK:   -1.19 KCAL/MOL
REMARK 927      BINDING AFFINITY PREDICTED BY RF-SCORE:    0.00 PKD
ROOT
HETATM    1  F   UNL     1      -9.124  20.318  67.444  1.00  0.00    -0.393 F  
HETATM    2  C   UNL     1     -10.159  19.614  67.983  1.00  0.00    -0.437 C  
HETATM    3  F   UNL     1     -10.620  20.366  69.019  1.00  0.00    -0.493 F  
HETATM    4  F   UNL     1     -11.142  19.621  67.042  1.00  0.00    -0.581 F  
HETATM    5  C   UNL     1      -9.776  18.216  68.407  1.00  0.00    -0.363 A  
HETATM    6  C   UNL     1      -8.474  17.723  68.238  1.00  0.00    -0.277 A  
HETATM    7  C   UNL     1      -8.134  16.423  68.648  1.00  0.00    -0.218 A  
HETATM    8  C   UNL     1      -6.726  15.903  68.476  1.00  0.00    -0.123 C  
HETATM    9  C   UNL     1      -9.123  15.605  69.230  1.00  0.00    -0.270 A  
HETATM   10  C   UNL     1     -10.433  16.072  69.399  1.00  0.00    -0.271 A  
HETATM   11  F   UNL     1      -6.673  14.781  67.704  1.00  0.00    -0.141 F  
HETATM   12  F   UNL     1      -5.886  16.798  67.887  1.00  0.00    -0.109 F  
HETATM   13  F   UNL     1      -6.143  15.573  69.661  1.00  0.00    -0.120 F  
HETATM   14  C   UNL     1     -10.741  17.379  68.989  1.00  0.00    -0.085 A  
ENDROOT
BRANCH  10  15
HETATM   15  C   UNL     1     -11.481  15.249  70.004  1.00  0.00    -0.292 A  
HETATM   16  N   UNL     1     -11.342  13.972  70.387  1.00  0.00    -0.034 NA 
HETATM   17  N   UNL     1     -12.525  13.696  71.020  1.00  0.00    -0.369 NA 
HETATM   18  N   UNL     1     -12.734  15.755  70.206  1.00  0.00    -0.320 NA 
HETATM   19  C   UNL     1     -13.361  14.775  70.805  1.00  0.00    -0.255 A  
BRANCH  17  20
HETATM   20  C   UNL     1     -12.809  12.481  71.661  1.00  0.00    -0.263 C  
HETATM   21  C   UNL     1     -12.622  11.202  71.281  1.00  0.00    -0.503 C  
BRANCH  21  22
HETATM   22  C   UNL     1     -12.211  10.738  69.933  1.00  0.00    -0.313 C  
HETATM   23  N   UNL     1     -12.243  11.687  68.939  1.00  0.00    -0.185 N  
HETATM   24  O   UNL     1     -11.821   9.596  69.710  1.00  0.00    -0.004 OA 
HETATM   25  H   UNL     1     -12.476  12.663  69.125  1.00  0.00     0.000 HD 
BRANCH  23  26
HETATM   26  N   UNL     1     -11.929  11.219  67.642  1.00  0.00    -0.607 NA 
HETATM   27  H   UNL     1     -12.615  10.771  67.035  1.00  0.00     0.000 HD 
BRANCH  26  28
HETATM   28  C   UNL     1     -10.581  11.424  67.259  1.00  0.00    -0.227 A  
HETATM   29  N   UNL     1     -10.065  10.829  66.156  1.00  0.00    -0.234 NA 
HETATM   30  C   UNL     1      -8.740  11.038  65.938  1.00  0.00    -0.178 A  
HETATM   31  C   UNL     1      -7.944  11.795  66.783  1.00  0.00    -0.116 A  
HETATM   32  N   UNL     1      -8.433  12.386  67.891  1.00  0.00    -0.156 NA 
HETATM   33  C   UNL     1      -9.756  12.174  68.109  1.00  0.00    -0.208 A  
ENDBRANCH  26  28
ENDBRANCH  23  26
ENDBRANCH  21  22
ENDBRANCH  17  20
ENDBRANCH  10  15
TORSDOF 5
ENDMDL
MODEL      140
REMARK 921   NORMALIZED FREE ENERGY PREDICTED BY IDOCK:   -6.24 KCAL/MOL
REMARK 922        TOTAL FREE ENERGY PREDICTED BY IDOCK:   -9.33 KCAL/MOL
REMARK 923 INTER-LIGAND FREE ENERGY PREDICTED BY IDOCK:   -8.71 KCAL/MOL
REMARK 924 INTRA-LIGAND FREE ENERGY PREDICTED BY IDOCK:   -0.62 KCAL/MOL
REMARK 927      BINDING AFFINITY PREDICTED BY RF-SCORE:    0.00 PKD
ROOT
HETATM    1  F   UNL     1      -8.538   7.177  65.419  1.00  0.00    -0.143 F  
HETATM    2  C   UNL     1      -8.987   7.695  66.597  1.00  0.00    -0.156 C  
HETATM    3  F   UNL     1      -9.839   6.767  67.111  1.00  0.00    -0.151 F  
HETATM    4  F   UNL     1      -7.908   7.718  67.426  1.00  0.00    -0.107 F  
HETATM    5  C   UNL     1      -9.629   9.053  66.448  1.00  0.00    -0.309 A  
HETATM    6  C   UNL     1      -9.729   9.691  65.203  1.00  0.00    -0.287 A  
HETATM    7  C   UNL     1     -10.341  10.950  65.082  1.00  0.00    -0.344 A  
HETATM    8  C   UNL     1     -10.457  11.626  63.736  1.00  0.00    -0.402 C  
HETATM    9  C   UNL     1     -10.851  11.579  66.235  1.00  0.00    -0.333 A  
HETATM   10  C   UNL     1     -10.754  10.966  67.491  1.00  0.00    -0.299 A  
HETATM   11  F   UNL     1      -9.842  12.842  63.705  1.00  0.00    -0.327 F  
HETATM   12  F   UNL     1      -9.906  10.906  62.719  1.00  0.00    -0.291 F  
HETATM   13  F   UNL     1     -11.750  11.848  63.373  1.00  0.00    -0.492 F  
HETATM   14  C   UNL     1     -10.147   9.703  67.579  1.00  0.00    -0.247 A  
ENDROOT
BRANCH  10  15
HETATM   15  C   UNL     1     -11.279  11.592  68.705  1.00  0.00    -0.249 A  
HETATM   16  N   UNL     1     -11.058  12.859  69.084  1.00  0.00    -0.224 NA 
HETATM   17  N   UNL     1     -11.867  13.011  70.179  1.00  0.00    -0.293 NA 
HETATM   18  N   UNL     1     -12.049  10.878  69.579  1.00  0.00    -0.330 NA 
HETATM   19  C   UNL     1     -12.374  11.763  70.486  1.00  0.00    -0.299 A  
BRANCH  17  20
HETATM   20  C   UNL     1     -12.026  14.218  70.876  1.00  0.00    -0.320 C  
HETATM   21  C   UNL     1     -12.062  15.498  70.457  1.00  0.00    -0.423 C  
BRANCH  21  22
HETATM   22  C   UNL     1     -11.742  15.983  69.093  1.00  0.00    -0.307 C  
HETATM   23  N   UNL     1     -10.749  16.931  69.014  1.00  0.00    -0.328 N  
HETATM   24  O   UNL     1     -12.286  15.545  68.084  1.00  0.00     0.014 OA 
HETATM   25  H   UNL     1     -10.223  17.239  69.832  1.00  0.00     0.000 HD 
BRANCH  23  26
HETATM   26  N   UNL     1     -10.506  17.448  67.720  1.00  0.00    -0.364 NA 
HETATM   27  H   UNL     1     -11.251  17.639  67.051  1.00  0.00     0.000 HD 
BRANCH  26  28
HETATM   28  C   UNL     1      -9.138  17.678  67.434  1.00  0.00    -0.239 A  
HETATM   29  N   UNL     1      -8.645  17.512  66.181  1.00  0.00    -0.488 NA 
HETATM   30  C   UNL     1      -7.303  17.684  66.049  1.00  0.00    -0.266 A  
HETATM   31  C   UNL     1      -6.471  17.994  67.112  1.00  0.00    -0.172 A  
HETATM   32  N   UNL     1      -6.938  18.152  68.366  1.00  0.00    -0.232 NA 
HETATM   33  C   UNL     1      -8.277  17.978  68.498  1.00  0.00    -0.303 A  
ENDBRANCH  26  28
ENDBRANCH  23  26
ENDBRANCH  21  22
ENDBRANCH  17  20
ENDBRANCH  10  15
TORSDOF 5
ENDMDL
MODEL      141
REMARK 921   NORMALIZED FREE ENERGY PREDICTED BY IDOCK:   -6.22 KCAL/MOL
REMARK 922        TOTAL FREE ENERGY PREDICTED BY IDOCK:   -9.31 KCAL/MOL
REMARK 923 INTER-LIGAND FREE ENERGY PREDICTED BY IDOCK:   -7.58 KCAL/MOL
REMARK 924 INTRA-LIGAND FREE ENERGY PREDICTED BY IDOCK:   -1.73 KCAL/MOL
REMARK 927      BINDING AFFINITY PREDICTED BY RF-SCORE:    0.00 PKD
ROOT
HETATM    1  F   UNL     1     -11.383  19.017  67.336  1.00  0.00    -0.441 F  
HETATM    2  C   UNL     1     -10.388  18.167  66.955  1.00  0.00    -0.380 C  
HETATM    3  F   UNL     1     -10.723  17.738  65.708  1.00  0.00    -0.382 F  
HETATM    4  F   UNL     1      -9.278  18.940  66.804  1.00  0.00    -0.280 F  
HETATM    5  C   UNL     1     -10.170  17.027  67.922  1.00  0.00    -0.317 A  
HETATM    6  C   UNL     1     -10.933  16.895  69.091  1.00  0.00    -0.151 A  
HETATM    7  C   UNL     1     -10.723  15.822  69.974  1.00  0.00    -0.347 A  
HETATM    8  C   UNL     1     -11.557  15.678  71.225  1.00  0.00    -0.428 C  
HETATM    9  C   UNL     1      -9.725  14.873  69.676  1.00  0.00     0.016 A  
HETATM   10  C   UNL     1      -8.944  14.990  68.519  1.00  0.00    -0.186 A  
HETATM   11  F   UNL     1     -10.802  15.677  72.360  1.00  0.00    -0.195 F  
HETATM   12  F   UNL     1     -12.469  16.676  71.387  1.00  0.00    -0.081 F  
HETATM   13  F   UNL     1     -12.270  14.518  71.247  1.00  0.00    -0.344 F  
HETATM   14  C   UNL     1      -9.183  16.068  67.651  1.00  0.00    -0.205 A  
ENDROOT
BRANCH  10  15
HETATM   15  C   UNL     1      -7.903  14.018  68.180  1.00  0.00    -0.144 A  
HETATM   16  N   UNL     1      -8.038  12.686  68.234  1.00  0.00    -0.158 NA 
HETATM   17  N   UNL     1      -6.869  12.224  67.688  1.00  0.00    -0.109 NA 
HETATM   18  N   UNL     1      -6.663  14.436  67.788  1.00  0.00    -0.165 NA 
HETATM   19  C   UNL     1      -6.041  13.317  67.518  1.00  0.00    -0.089 A  
BRANCH  17  20
HETATM   20  C   UNL     1      -6.589  10.868  67.465  1.00  0.00    -0.063 C  
HETATM   21  C   UNL     1      -7.371   9.842  67.076  1.00  0.00    -0.091 C  
BRANCH  21  22
HETATM   22  C   UNL     1      -8.849   9.863  66.958  1.00  0.00    -0.134 C  
HETATM   23  N   UNL     1      -9.369  10.832  66.133  1.00  0.00    -0.177 N  
HETATM   24  O   UNL     1      -9.575   9.045  67.517  1.00  0.00    -0.137 OA 
HETATM   25  H   UNL     1      -8.777  11.460  65.590  1.00  0.00     0.000 HD 
BRANCH  23  26
HETATM   26  N   UNL     1     -10.781  10.898  66.090  1.00  0.00    -0.204 NA 
HETATM   27  H   UNL     1     -11.380  10.097  66.287  1.00  0.00     0.000 HD 
BRANCH  26  28
HETATM   28  C   UNL     1     -11.293  12.174  65.748  1.00  0.00    -0.354 A  
HETATM   29  N   UNL     1     -11.518  13.118  66.696  1.00  0.00    -0.331 NA 
HETATM   30  C   UNL     1     -12.086  14.271  66.256  1.00  0.00    -0.413 A  
HETATM   31  C   UNL     1     -12.434  14.487  64.931  1.00  0.00    -0.311 A  
HETATM   32  N   UNL     1     -12.229  13.559  63.976  1.00  0.00    -0.612 NA 
HETATM   33  C   UNL     1     -11.665  12.407  64.417  1.00  0.00    -0.366 A  
ENDBRANCH  26  28
ENDBRANCH  23  26
ENDBRANCH  21  22
ENDBRANCH  17  20
ENDBRANCH  10  15
TORSDOF 5
ENDMDL
MODEL      142
REMARK 921   NORMALIZED FREE ENERGY PREDICTED BY IDOCK:   -6.21 KCAL/MOL
REMARK 922        TOTAL FREE ENERGY PREDICTED BY IDOCK:   -9.29 KCAL/MOL
REMARK 923 INTER-LIGAND FREE ENERGY PREDICTED BY IDOCK:   -9.04 KCAL/MOL
REMARK 924 INTRA-LIGAND FREE ENERGY PREDICTED BY IDOCK:   -0.25 KCAL/MOL
REMARK 927      BINDING AFFINITY PREDICTED BY RF-SCORE:    0.00 PKD
ROOT
HETATM    1  F   UNL     1      -7.952   6.958  65.370  1.00  0.00    -0.096 F  
HETATM    2  C   UNL     1      -8.468   7.321  66.578  1.00  0.00    -0.125 C  
HETATM    3  F   UNL     1      -9.195   6.255  67.007  1.00  0.00    -0.118 F  
HETATM    4  F   UNL     1      -7.404   7.418  67.422  1.00  0.00    -0.089 F  
HETATM    5  C   UNL     1      -9.280   8.593  66.525  1.00  0.00    -0.236 A  
HETATM    6  C   UNL     1      -9.457   9.308  65.331  1.00  0.00    -0.281 A  
HETATM    7  C   UNL     1     -10.226  10.484  65.299  1.00  0.00    -0.352 A  
HETATM    8  C   UNL     1     -10.423  11.241  64.007  1.00  0.00    -0.378 C  
HETATM    9  C   UNL     1     -10.818  10.950  66.490  1.00  0.00    -0.234 A  
HETATM   10  C   UNL     1     -10.647  10.259  67.696  1.00  0.00    -0.312 A  
HETATM   11  F   UNL     1      -9.971  12.526  64.079  1.00  0.00    -0.339 F  
HETATM   12  F   UNL     1      -9.779  10.681  62.946  1.00  0.00    -0.279 F  
HETATM   13  F   UNL     1     -11.732  11.323  63.645  1.00  0.00    -0.440 F  
HETATM   14  C   UNL     1      -9.882   9.081  67.696  1.00  0.00    -0.220 A  
ENDROOT
BRANCH  10  15
HETATM   15  C   UNL     1     -11.253  10.715  68.947  1.00  0.00    -0.275 A  
HETATM   16  N   UNL     1     -11.453  11.995  69.293  1.00  0.00    -0.282 NA 
HETATM   17  N   UNL     1     -12.171  11.904  70.456  1.00  0.00    -0.363 NA 
HETATM   18  N   UNL     1     -11.654   9.816  69.895  1.00  0.00    -0.142 NA 
HETATM   19  C   UNL     1     -12.188  10.572  70.820  1.00  0.00    -0.369 A  
BRANCH  17  20
HETATM   20  C   UNL     1     -12.679  13.011  71.153  1.00  0.00    -0.283 C  
HETATM   21  C   UNL     1     -12.693  14.326  70.860  1.00  0.00    -0.427 C  
BRANCH  21  22
HETATM   22  C   UNL     1     -11.970  14.984  69.746  1.00  0.00    -0.328 C  
HETATM   23  N   UNL     1     -11.254  14.149  68.922  1.00  0.00    -0.253 N  
HETATM   24  O   UNL     1     -12.034  16.191  69.529  1.00  0.00    -0.242 OA 
HETATM   25  H   UNL     1     -11.264  13.134  69.032  1.00  0.00     0.000 HD 
BRANCH  23  26
HETATM   26  N   UNL     1     -10.501  14.792  67.911  1.00  0.00    -0.244 NA 
HETATM   27  H   UNL     1      -9.595  15.224  68.087  1.00  0.00     0.000 HD 
BRANCH  26  28
HETATM   28  C   UNL     1     -11.116  14.783  66.635  1.00  0.00    -0.333 A  
HETATM   29  N   UNL     1     -10.619  15.521  65.612  1.00  0.00    -0.350 NA 
HETATM   30  C   UNL     1     -11.342  15.494  64.461  1.00  0.00    -0.314 A  
HETATM   31  C   UNL     1     -12.519  14.776  64.323  1.00  0.00    -0.197 A  
HETATM   32  N   UNL     1     -13.036  14.045  65.330  1.00  0.00    -0.739 NA 
HETATM   33  C   UNL     1     -12.316  14.075  66.479  1.00  0.00    -0.404 A  
ENDBRANCH  26  28
ENDBRANCH  23  26
ENDBRANCH  21  22
ENDBRANCH  17  20
ENDBRANCH  10  15
TORSDOF 5
ENDMDL
MODEL      143
REMARK 921   NORMALIZED FREE ENERGY PREDICTED BY IDOCK:   -6.15 KCAL/MOL
REMARK 922        TOTAL FREE ENERGY PREDICTED BY IDOCK:   -9.21 KCAL/MOL
REMARK 923 INTER-LIGAND FREE ENERGY PREDICTED BY IDOCK:   -8.48 KCAL/MOL
REMARK 924 INTRA-LIGAND FREE ENERGY PREDICTED BY IDOCK:   -0.73 KCAL/MOL
REMARK 927      BINDING AFFINITY PREDICTED BY RF-SCORE:    0.00 PKD
ROOT
HETATM    1  F   UNL     1      -9.754  20.969  67.224  1.00  0.00    -0.609 F  
HETATM    2  C   UNL     1     -10.382  19.878  66.700  1.00  0.00    -0.485 C  
HETATM    3  F   UNL     1     -11.643  19.895  67.210  1.00  0.00    -0.252 F  
HETATM    4  F   UNL     1     -10.508  20.127  65.368  1.00  0.00    -0.529 F  
HETATM    5  C   UNL     1      -9.661  18.581  66.978  1.00  0.00    -0.321 A  
HETATM    6  C   UNL     1      -8.461  18.543  67.702  1.00  0.00    -0.276 A  
HETATM    7  C   UNL     1      -7.810  17.324  67.961  1.00  0.00    -0.205 A  
HETATM    8  C   UNL     1      -6.523  17.290  68.752  1.00  0.00    -0.194 C  
HETATM    9  C   UNL     1      -8.374  16.128  67.475  1.00  0.00    -0.175 A  
HETATM   10  C   UNL     1      -9.567  16.142  66.741  1.00  0.00    -0.256 A  
HETATM   11  F   UNL     1      -5.492  16.739  68.051  1.00  0.00    -0.105 F  
HETATM   12  F   UNL     1      -6.093  18.521  69.141  1.00  0.00    -0.205 F  
HETATM   13  F   UNL     1      -6.634  16.559  69.895  1.00  0.00    -0.218 F  
HETATM   14  C   UNL     1     -10.200  17.373  66.507  1.00  0.00    -0.329 A  
ENDROOT
BRANCH  10  15
HETATM   15  C   UNL     1     -10.180  14.916  66.228  1.00  0.00    -0.294 A  
HETATM   16  N   UNL     1     -10.720  14.768  65.010  1.00  0.00    -0.407 NA 
HETATM   17  N   UNL     1     -11.014  13.432  64.951  1.00  0.00    -0.325 NA 
HETATM   18  N   UNL     1     -10.259  13.798  67.009  1.00  0.00    -0.252 NA 
HETATM   19  C   UNL     1     -10.798  12.912  66.212  1.00  0.00    -0.275 A  
BRANCH  17  20
HETATM   20  C   UNL     1     -11.535  12.792  63.815  1.00  0.00    -0.470 C  
HETATM   21  C   UNL     1     -11.081  11.756  63.082  1.00  0.00    -0.251 C  
BRANCH  21  22
HETATM   22  C   UNL     1      -9.748  11.118  63.198  1.00  0.00    -0.376 C  
HETATM   23  N   UNL     1      -9.667  10.056  64.067  1.00  0.00    -0.426 N  
HETATM   24  O   UNL     1      -8.779  11.472  62.533  1.00  0.00    -0.292 OA 
HETATM   25  H   UNL     1     -10.483   9.690  64.558  1.00  0.00     0.000 HD 
BRANCH  23  26
HETATM   26  N   UNL     1      -8.375   9.505  64.233  1.00  0.00    -0.157 NA 
HETATM   27  H   UNL     1      -7.523  10.012  64.000  1.00  0.00     0.000 HD 
BRANCH  26  28
HETATM   28  C   UNL     1      -8.368   8.186  64.753  1.00  0.00    -0.104 A  
HETATM   29  N   UNL     1      -7.858   7.153  64.038  1.00  0.00    -0.125 NA 
HETATM   30  C   UNL     1      -7.982   5.925  64.608  1.00  0.00    -0.123 A  
HETATM   31  C   UNL     1      -8.598   5.717  65.832  1.00  0.00    -0.144 A  
HETATM   32  N   UNL     1      -9.122   6.728  66.552  1.00  0.00    -0.147 NA 
HETATM   33  C   UNL     1      -9.000   7.953  65.982  1.00  0.00    -0.154 A  
ENDBRANCH  26  28
ENDBRANCH  23  26
ENDBRANCH  21  22
ENDBRANCH  17  20
ENDBRANCH  10  15
TORSDOF 5
ENDMDL
MODEL      144
REMARK 921   NORMALIZED FREE ENERGY PREDICTED BY IDOCK:   -6.14 KCAL/MOL
REMARK 922        TOTAL FREE ENERGY PREDICTED BY IDOCK:   -9.20 KCAL/MOL
REMARK 923 INTER-LIGAND FREE ENERGY PREDICTED BY IDOCK:   -8.58 KCAL/MOL
REMARK 924 INTRA-LIGAND FREE ENERGY PREDICTED BY IDOCK:   -0.62 KCAL/MOL
REMARK 927      BINDING AFFINITY PREDICTED BY RF-SCORE:    0.00 PKD
ROOT
HETATM    1  F   UNL     1     -12.957   8.849  72.992  1.00  0.00    -0.433 F  
HETATM    2  C   UNL     1     -13.082   9.605  71.865  1.00  0.00    -0.436 C  
HETATM    3  F   UNL     1     -14.118   9.063  71.168  1.00  0.00    -0.409 F  
HETATM    4  F   UNL     1     -13.508  10.828  72.285  1.00  0.00    -0.534 F  
HETATM    5  C   UNL     1     -11.813   9.684  71.051  1.00  0.00    -0.428 A  
HETATM    6  C   UNL     1     -10.637   9.035  71.453  1.00  0.00    -0.393 A  
HETATM    7  C   UNL     1      -9.468   9.110  70.677  1.00  0.00    -0.316 A  
HETATM    8  C   UNL     1      -8.207   8.398  71.109  1.00  0.00    -0.131 C  
HETATM    9  C   UNL     1      -9.483   9.858  69.482  1.00  0.00    -0.239 A  
HETATM   10  C   UNL     1     -10.644  10.523  69.066  1.00  0.00    -0.250 A  
HETATM   11  F   UNL     1      -7.157   9.250  71.279  1.00  0.00    -0.095 F  
HETATM   12  F   UNL     1      -8.339   7.731  72.288  1.00  0.00    -0.109 F  
HETATM   13  F   UNL     1      -7.796   7.469  70.202  1.00  0.00    -0.090 F  
HETATM   14  C   UNL     1     -11.800  10.421  69.857  1.00  0.00    -0.314 A  
ENDROOT
BRANCH  10  15
HETATM   15  C   UNL     1     -10.693  11.303  67.829  1.00  0.00    -0.220 A  
HETATM   16  N   UNL     1     -11.484  12.363  67.609  1.00  0.00    -0.315 NA 
HETATM   17  N   UNL     1     -11.063  12.829  66.392  1.00  0.00    -0.277 NA 
HETATM   18  N   UNL     1      -9.908  10.966  66.762  1.00  0.00    -0.190 NA 
HETATM   19  C   UNL     1     -10.174  11.901  65.887  1.00  0.00    -0.236 A  
BRANCH  17  20
HETATM   20  C   UNL     1     -11.561  13.990  65.781  1.00  0.00    -0.339 C  
HETATM   21  C   UNL     1     -11.130  15.267  65.795  1.00  0.00    -0.301 C  
BRANCH  21  22
HETATM   22  C   UNL     1     -10.061  15.822  66.660  1.00  0.00    -0.279 C  
HETATM   23  N   UNL     1      -9.744  17.142  66.446  1.00  0.00    -0.281 N  
HETATM   24  O   UNL     1      -9.515  15.172  67.547  1.00  0.00    -0.203 OA 
HETATM   25  H   UNL     1     -10.250  17.723  65.777  1.00  0.00     0.000 HD 
BRANCH  23  26
HETATM   26  N   UNL     1      -8.668  17.641  67.217  1.00  0.00    -0.232 NA 
HETATM   27  H   UNL     1      -8.573  17.461  68.216  1.00  0.00     0.000 HD 
BRANCH  26  28
HETATM   28  C   UNL     1      -7.734  18.412  66.482  1.00  0.00    -0.252 A  
HETATM   29  N   UNL     1      -7.981  19.710  66.177  1.00  0.00    -0.336 NA 
HETATM   30  C   UNL     1      -7.048  20.320  65.399  1.00  0.00    -0.234 A  
HETATM   31  C   UNL     1      -5.918  19.674  64.924  1.00  0.00    -0.247 A  
HETATM   32  N   UNL     1      -5.660  18.382  65.205  1.00  0.00    -0.195 NA 
HETATM   33  C   UNL     1      -6.592  17.773  65.980  1.00  0.00    -0.270 A  
ENDBRANCH  26  28
ENDBRANCH  23  26
ENDBRANCH  21  22
ENDBRANCH  17  20
ENDBRANCH  10  15
TORSDOF 5
ENDMDL
MODEL      145
REMARK 921   NORMALIZED FREE ENERGY PREDICTED BY IDOCK:   -6.14 KCAL/MOL
REMARK 922        TOTAL FREE ENERGY PREDICTED BY IDOCK:   -9.20 KCAL/MOL
REMARK 923 INTER-LIGAND FREE ENERGY PREDICTED BY IDOCK:   -8.09 KCAL/MOL
REMARK 924 INTRA-LIGAND FREE ENERGY PREDICTED BY IDOCK:   -1.12 KCAL/MOL
REMARK 927      BINDING AFFINITY PREDICTED BY RF-SCORE:    0.00 PKD
ROOT
HETATM    1  F   UNL     1     -11.962   4.974  73.404  1.00  0.00    -0.336 F  
HETATM    2  C   UNL     1     -10.767   5.376  72.887  1.00  0.00    -0.253 C  
HETATM    3  F   UNL     1      -9.863   5.246  73.895  1.00  0.00    -0.143 F  
HETATM    4  F   UNL     1     -10.432   4.440  71.956  1.00  0.00    -0.248 F  
HETATM    5  C   UNL     1     -10.800   6.772  72.314  1.00  0.00    -0.263 A  
HETATM    6  C   UNL     1     -11.969   7.547  72.325  1.00  0.00    -0.303 A  
HETATM    7  C   UNL     1     -11.979   8.849  71.796  1.00  0.00    -0.429 A  
HETATM    8  C   UNL     1     -13.238   9.684  71.823  1.00  0.00    -0.430 C  
HETATM    9  C   UNL     1     -10.794   9.375  71.243  1.00  0.00    -0.431 A  
HETATM   10  C   UNL     1      -9.617   8.616  71.212  1.00  0.00    -0.292 A  
HETATM   11  F   UNL     1     -13.638  10.067  70.578  1.00  0.00    -0.370 F  
HETATM   12  F   UNL     1     -14.303   9.039  72.373  1.00  0.00    -0.472 F  
HETATM   13  F   UNL     1     -13.089  10.831  72.540  1.00  0.00    -0.434 F  
HETATM   14  C   UNL     1      -9.635   7.321  71.756  1.00  0.00    -0.163 A  
ENDROOT
BRANCH  10  15
HETATM   15  C   UNL     1      -8.371   9.135  70.648  1.00  0.00    -0.205 A  
HETATM   16  N   UNL     1      -8.193   9.517  69.375  1.00  0.00    -0.115 NA 
HETATM   17  N   UNL     1      -6.935  10.058  69.376  1.00  0.00    -0.061 NA 
HETATM   18  N   UNL     1      -7.251   9.249  71.423  1.00  0.00    -0.318 NA 
HETATM   19  C   UNL     1      -6.379   9.792  70.612  1.00  0.00    -0.105 A  
BRANCH  17  20
HETATM   20  C   UNL     1      -6.341  10.667  68.260  1.00  0.00    -0.054 C  
HETATM   21  C   UNL     1      -6.783  11.621  67.418  1.00  0.00    -0.108 C  
BRANCH  21  22
HETATM   22  C   UNL     1      -8.160  12.166  67.355  1.00  0.00    -0.171 C  
HETATM   23  N   UNL     1      -8.599  12.814  68.485  1.00  0.00    -0.344 N  
HETATM   24  O   UNL     1      -8.862  12.093  66.350  1.00  0.00    -0.184 OA 
HETATM   25  H   UNL     1      -7.998  12.965  69.295  1.00  0.00     0.000 HD 
BRANCH  23  26
HETATM   26  N   UNL     1      -9.942  13.258  68.447  1.00  0.00    -0.252 NA 
HETATM   27  H   UNL     1     -10.733  12.621  68.363  1.00  0.00     0.000 HD 
BRANCH  26  28
HETATM   28  C   UNL     1     -10.091  14.664  68.537  1.00  0.00    -0.238 A  
HETATM   29  N   UNL     1     -10.900  15.226  69.469  1.00  0.00    -0.256 NA 
HETATM   30  C   UNL     1     -11.024  16.578  69.403  1.00  0.00    -0.288 A  
HETATM   31  C   UNL     1     -10.388  17.351  68.445  1.00  0.00    -0.379 A  
HETATM   32  N   UNL     1      -9.590  16.812  67.503  1.00  0.00    -0.238 NA 
HETATM   33  C   UNL     1      -9.468  15.462  67.568  1.00  0.00    -0.205 A  
ENDBRANCH  26  28
ENDBRANCH  23  26
ENDBRANCH  21  22
ENDBRANCH  17  20
ENDBRANCH  10  15
TORSDOF 5
ENDMDL
MODEL      146
REMARK 921   NORMALIZED FREE ENERGY PREDICTED BY IDOCK:   -6.12 KCAL/MOL
REMARK 922        TOTAL FREE ENERGY PREDICTED BY IDOCK:   -9.18 KCAL/MOL
REMARK 923 INTER-LIGAND FREE ENERGY PREDICTED BY IDOCK:   -7.52 KCAL/MOL
REMARK 924 INTRA-LIGAND FREE ENERGY PREDICTED BY IDOCK:   -1.66 KCAL/MOL
REMARK 927      BINDING AFFINITY PREDICTED BY RF-SCORE:    0.00 PKD
ROOT
HETATM    1  F   UNL     1     -10.203  18.356  66.140  1.00  0.00    -0.347 F  
HETATM    2  C   UNL     1      -9.471  17.496  66.903  1.00  0.00    -0.274 C  
HETATM    3  F   UNL     1      -8.168  17.794  66.654  1.00  0.00    -0.230 F  
HETATM    4  F   UNL     1      -9.702  17.858  68.195  1.00  0.00    -0.273 F  
HETATM    5  C   UNL     1      -9.793  16.043  66.645  1.00  0.00    -0.273 A  
HETATM    6  C   UNL     1     -10.763  15.657  65.709  1.00  0.00    -0.350 A  
HETATM    7  C   UNL     1     -11.041  14.299  65.474  1.00  0.00    -0.323 A  
HETATM    8  C   UNL     1     -12.078  13.889  64.454  1.00  0.00    -0.443 C  
HETATM    9  C   UNL     1     -10.337  13.318  66.200  1.00  0.00    -0.290 A  
HETATM   10  C   UNL     1      -9.371  13.681  67.148  1.00  0.00    -0.240 A  
HETATM   11  F   UNL     1     -13.083  13.146  64.999  1.00  0.00    -0.468 F  
HETATM   12  F   UNL     1     -12.685  14.944  63.845  1.00  0.00    -0.371 F  
HETATM   13  F   UNL     1     -11.553  13.134  63.451  1.00  0.00    -0.481 F  
HETATM   14  C   UNL     1      -9.107  15.044  67.354  1.00  0.00    -0.194 A  
ENDROOT
BRANCH  10  15
HETATM   15  C   UNL     1      -8.620  12.685  67.914  1.00  0.00    -0.181 A  
HETATM   16  N   UNL     1      -9.149  11.625  68.540  1.00  0.00    -0.182 NA 
HETATM   17  N   UNL     1      -8.053  10.928  68.973  1.00  0.00    -0.143 NA 
HETATM   18  N   UNL     1      -7.265  12.796  68.058  1.00  0.00    -0.101 NA 
HETATM   19  C   UNL     1      -6.947  11.721  68.734  1.00  0.00    -0.103 A  
BRANCH  17  20
HETATM   20  C   UNL     1      -8.118   9.688  69.625  1.00  0.00    -0.141 C  
HETATM   21  C   UNL     1      -8.530   8.475  69.207  1.00  0.00    -0.128 C  
BRANCH  21  22
HETATM   22  C   UNL     1      -9.228   8.177  67.933  1.00  0.00    -0.131 C  
HETATM   23  N   UNL     1      -9.042   9.090  66.922  1.00  0.00    -0.129 N  
HETATM   24  O   UNL     1      -9.896   7.162  67.760  1.00  0.00    -0.137 OA 
HETATM   25  H   UNL     1      -8.417   9.891  67.019  1.00  0.00     0.000 HD 
BRANCH  23  26
HETATM   26  N   UNL     1      -9.776   8.843  65.739  1.00  0.00    -0.459 NA 
HETATM   27  H   UNL     1     -10.681   8.373  65.736  1.00  0.00     0.000 HD 
BRANCH  26  28
HETATM   28  C   UNL     1      -9.146   9.305  64.557  1.00  0.00    -0.089 A  
HETATM   29  N   UNL     1      -8.002   8.736  64.103  1.00  0.00    -0.146 NA 
HETATM   30  C   UNL     1      -7.450   9.318  63.006  1.00  0.00    -0.105 A  
HETATM   31  C   UNL     1      -7.994  10.431  62.384  1.00  0.00    -0.162 A  
HETATM   32  N   UNL     1      -9.123  11.019  62.826  1.00  0.00    -0.316 NA 
HETATM   33  C   UNL     1      -9.673  10.438  63.922  1.00  0.00    -0.305 A  
ENDBRANCH  26  28
ENDBRANCH  23  26
ENDBRANCH  21  22
ENDBRANCH  17  20
ENDBRANCH  10  15
TORSDOF 5
ENDMDL
MODEL      147
REMARK 921   NORMALIZED FREE ENERGY PREDICTED BY IDOCK:   -6.12 KCAL/MOL
REMARK 922        TOTAL FREE ENERGY PREDICTED BY IDOCK:   -9.17 KCAL/MOL
REMARK 923 INTER-LIGAND FREE ENERGY PREDICTED BY IDOCK:   -7.37 KCAL/MOL
REMARK 924 INTRA-LIGAND FREE ENERGY PREDICTED BY IDOCK:   -1.81 KCAL/MOL
REMARK 927      BINDING AFFINITY PREDICTED BY RF-SCORE:    0.00 PKD
ROOT
HETATM    1  F   UNL     1     -11.024  16.180  66.340  1.00  0.00    -0.293 F  
HETATM    2  C   UNL     1     -11.133  14.828  66.208  1.00  0.00    -0.341 C  
HETATM    3  F   UNL     1     -12.295  14.486  66.828  1.00  0.00    -0.434 F  
HETATM    4  F   UNL     1     -11.331  14.600  64.881  1.00  0.00    -0.335 F  
HETATM    5  C   UNL     1      -9.943  14.074  66.751  1.00  0.00    -0.268 A  
HETATM    6  C   UNL     1      -8.846  14.737  67.322  1.00  0.00    -0.218 A  
HETATM    7  C   UNL     1      -7.752  14.019  67.832  1.00  0.00    -0.161 A  
HETATM    8  C   UNL     1      -6.580  14.739  68.457  1.00  0.00    -0.094 C  
HETATM    9  C   UNL     1      -7.760  12.612  67.759  1.00  0.00    -0.145 A  
HETATM   10  C   UNL     1      -8.839  11.928  67.184  1.00  0.00    -0.180 A  
HETATM   11  F   UNL     1      -5.403  14.469  67.826  1.00  0.00    -0.112 F  
HETATM   12  F   UNL     1      -6.707  16.094  68.443  1.00  0.00    -0.118 F  
HETATM   13  F   UNL     1      -6.394  14.398  69.762  1.00  0.00    -0.108 F  
HETATM   14  C   UNL     1      -9.923  12.672  66.691  1.00  0.00    -0.247 A  
ENDROOT
BRANCH  10  15
HETATM   15  C   UNL     1      -8.878  10.468  67.098  1.00  0.00    -0.136 A  
HETATM   16  N   UNL     1      -8.451   9.622  68.046  1.00  0.00    -0.118 NA 
HETATM   17  N   UNL     1      -8.832   8.393  67.574  1.00  0.00    -0.135 NA 
HETATM   18  N   UNL     1      -9.361   9.849  65.979  1.00  0.00    -0.174 NA 
HETATM   19  C   UNL     1      -9.296   8.579  66.286  1.00  0.00    -0.224 A  
BRANCH  17  20
HETATM   20  C   UNL     1      -8.659   7.193  68.279  1.00  0.00    -0.122 C  
HETATM   21  C   UNL     1      -9.449   6.547  69.158  1.00  0.00    -0.136 C  
BRANCH  21  22
HETATM   22  C   UNL     1     -10.694   7.074  69.770  1.00  0.00    -0.241 C  
HETATM   23  N   UNL     1     -10.657   8.392  70.159  1.00  0.00    -0.229 N  
HETATM   24  O   UNL     1     -11.715   6.403  69.886  1.00  0.00    -0.426 OA 
HETATM   25  H   UNL     1      -9.848   8.989  69.986  1.00  0.00     0.000 HD 
BRANCH  23  26
HETATM   26  N   UNL     1     -11.818   8.863  70.815  1.00  0.00    -0.419 NA 
HETATM   27  H   UNL     1     -12.446   8.252  71.336  1.00  0.00     0.000 HD 
BRANCH  26  28
HETATM   28  C   UNL     1     -12.033  10.257  70.686  1.00  0.00    -0.342 A  
HETATM   29  N   UNL     1     -11.326  10.997  69.795  1.00  0.00    -0.275 NA 
HETATM   30  C   UNL     1     -11.564  12.335  69.821  1.00  0.00    -0.243 A  
HETATM   31  C   UNL     1     -12.455  12.929  70.700  1.00  0.00    -0.252 A  
HETATM   32  N   UNL     1     -13.159  12.214  71.601  1.00  0.00    -0.388 NA 
HETATM   33  C   UNL     1     -12.919  10.879  71.576  1.00  0.00    -0.451 A  
ENDBRANCH  26  28
ENDBRANCH  23  26
ENDBRANCH  21  22
ENDBRANCH  17  20
ENDBRANCH  10  15
TORSDOF 5
ENDMDL
MODEL      148
REMARK 921   NORMALIZED FREE ENERGY PREDICTED BY IDOCK:   -6.12 KCAL/MOL
REMARK 922        TOTAL FREE ENERGY PREDICTED BY IDOCK:   -9.17 KCAL/MOL
REMARK 923 INTER-LIGAND FREE ENERGY PREDICTED BY IDOCK:   -7.42 KCAL/MOL
REMARK 924 INTRA-LIGAND FREE ENERGY PREDICTED BY IDOCK:   -1.75 KCAL/MOL
REMARK 927      BINDING AFFINITY PREDICTED BY RF-SCORE:    0.00 PKD
ROOT
HETATM    1  F   UNL     1     -11.045  14.294  66.578  1.00  0.00    -0.302 F  
HETATM    2  C   UNL     1     -11.424  12.992  66.717  1.00  0.00    -0.345 C  
HETATM    3  F   UNL     1     -12.295  12.968  67.762  1.00  0.00    -0.329 F  
HETATM    4  F   UNL     1     -12.155  12.698  65.608  1.00  0.00    -0.428 F  
HETATM    5  C   UNL     1     -10.262  12.047  66.909  1.00  0.00    -0.230 A  
HETATM    6  C   UNL     1      -8.935  12.502  66.929  1.00  0.00    -0.212 A  
HETATM    7  C   UNL     1      -7.867  11.609  67.119  1.00  0.00    -0.163 A  
HETATM    8  C   UNL     1      -6.441  12.108  67.152  1.00  0.00    -0.135 C  
HETATM    9  C   UNL     1      -8.140  10.237  67.284  1.00  0.00    -0.120 A  
HETATM   10  C   UNL     1      -9.456   9.758  67.259  1.00  0.00    -0.183 A  
HETATM   11  F   UNL     1      -5.663  11.534  66.191  1.00  0.00    -0.145 F  
HETATM   12  F   UNL     1      -6.332  13.452  66.963  1.00  0.00    -0.066 F  
HETATM   13  F   UNL     1      -5.826  11.850  68.339  1.00  0.00    -0.049 F  
HETATM   14  C   UNL     1     -10.504  10.675  67.076  1.00  0.00    -0.295 A  
ENDROOT
BRANCH  10  15
HETATM   15  C   UNL     1      -9.772   8.340  67.432  1.00  0.00    -0.174 A  
HETATM   16  N   UNL     1      -9.024   7.454  68.105  1.00  0.00    -0.130 NA 
HETATM   17  N   UNL     1      -9.798   6.323  68.114  1.00  0.00    -0.125 NA 
HETATM   18  N   UNL     1     -10.898   7.804  66.873  1.00  0.00    -0.203 NA 
HETATM   19  C   UNL     1     -10.875   6.562  67.283  1.00  0.00    -0.390 A  
BRANCH  17  20
HETATM   20  C   UNL     1      -9.450   5.139  68.781  1.00  0.00    -0.133 C  
HETATM   21  C   UNL     1      -9.579   4.764  70.069  1.00  0.00    -0.260 C  
BRANCH  21  22
HETATM   22  C   UNL     1      -9.979   5.635  71.200  1.00  0.00    -0.190 C  
HETATM   23  N   UNL     1      -9.745   6.980  71.032  1.00  0.00    -0.174 N  
HETATM   24  O   UNL     1     -10.528   5.207  72.211  1.00  0.00    -0.207 OA 
HETATM   25  H   UNL     1      -9.375   7.363  70.162  1.00  0.00     0.000 HD 
BRANCH  23  26
HETATM   26  N   UNL     1     -10.054   7.794  72.146  1.00  0.00    -0.198 NA 
HETATM   27  H   UNL     1      -9.543   7.744  73.027  1.00  0.00     0.000 HD 
BRANCH  26  28
HETATM   28  C   UNL     1     -11.134   8.685  71.933  1.00  0.00    -0.346 A  
HETATM   29  N   UNL     1     -12.348   8.464  72.495  1.00  0.00    -0.354 NA 
HETATM   30  C   UNL     1     -13.326   9.344  72.151  1.00  0.00    -0.468 A  
HETATM   31  C   UNL     1     -13.122  10.398  71.275  1.00  0.00    -0.399 A  
HETATM   32  N   UNL     1     -11.927  10.629  70.697  1.00  0.00    -0.337 NA 
HETATM   33  C   UNL     1     -10.952   9.749  71.038  1.00  0.00    -0.332 A  
ENDBRANCH  26  28
ENDBRANCH  23  26
ENDBRANCH  21  22
ENDBRANCH  17  20
ENDBRANCH  10  15
TORSDOF 5
ENDMDL
MODEL      149
REMARK 921   NORMALIZED FREE ENERGY PREDICTED BY IDOCK:   -6.08 KCAL/MOL
REMARK 922        TOTAL FREE ENERGY PREDICTED BY IDOCK:   -9.13 KCAL/MOL
REMARK 923 INTER-LIGAND FREE ENERGY PREDICTED BY IDOCK:   -7.29 KCAL/MOL
REMARK 924 INTRA-LIGAND FREE ENERGY PREDICTED BY IDOCK:   -1.84 KCAL/MOL
REMARK 927      BINDING AFFINITY PREDICTED BY RF-SCORE:    0.00 PKD
ROOT
HETATM    1  F   UNL     1     -10.446   5.240  67.956  1.00  0.00    -0.227 F  
HETATM    2  C   UNL     1     -10.299   6.438  67.323  1.00  0.00    -0.218 C  
HETATM    3  F   UNL     1      -9.521   6.190  66.234  1.00  0.00    -0.165 F  
HETATM    4  F   UNL     1     -11.532   6.756  66.842  1.00  0.00    -0.476 F  
HETATM    5  C   UNL     1      -9.728   7.519  68.209  1.00  0.00    -0.163 A  
HETATM    6  C   UNL     1      -9.400   7.277  69.551  1.00  0.00    -0.152 A  
HETATM    7  C   UNL     1      -8.860   8.293  70.358  1.00  0.00    -0.141 A  
HETATM    8  C   UNL     1      -8.497   8.022  71.800  1.00  0.00    -0.129 C  
HETATM    9  C   UNL     1      -8.655   9.572  69.806  1.00  0.00    -0.201 A  
HETATM   10  C   UNL     1      -8.983   9.840  68.471  1.00  0.00    -0.124 A  
HETATM   11  F   UNL     1      -9.167   8.830  72.669  1.00  0.00    -0.318 F  
HETATM   12  F   UNL     1      -8.766   6.747  72.196  1.00  0.00    -0.130 F  
HETATM   13  F   UNL     1      -7.173   8.216  72.049  1.00  0.00    -0.064 F  
HETATM   14  C   UNL     1      -9.513   8.803  67.686  1.00  0.00    -0.168 A  
ENDROOT
BRANCH  10  15
HETATM   15  C   UNL     1      -8.777  11.157  67.867  1.00  0.00    -0.136 A  
HETATM   16  N   UNL     1      -9.667  11.811  67.107  1.00  0.00    -0.182 NA 
HETATM   17  N   UNL     1      -9.084  13.036  66.915  1.00  0.00    -0.228 NA 
HETATM   18  N   UNL     1      -7.596  11.823  68.036  1.00  0.00    -0.108 NA 
HETATM   19  C   UNL     1      -7.801  12.959  67.420  1.00  0.00    -0.170 A  
BRANCH  17  20
HETATM   20  C   UNL     1      -9.695  14.097  66.229  1.00  0.00    -0.297 C  
HETATM   21  C   UNL     1     -10.521  15.077  66.646  1.00  0.00    -0.284 C  
BRANCH  21  22
HETATM   22  C   UNL     1     -11.169  15.170  67.977  1.00  0.00    -0.323 C  
HETATM   23  N   UNL     1     -11.078  14.048  68.766  1.00  0.00    -0.253 N  
HETATM   24  O   UNL     1     -11.717  16.191  68.382  1.00  0.00    -0.320 OA 
HETATM   25  H   UNL     1     -10.548  13.224  68.482  1.00  0.00     0.000 HD 
BRANCH  23  26
HETATM   26  N   UNL     1     -11.769  14.116  69.999  1.00  0.00    -0.314 NA 
HETATM   27  H   UNL     1     -11.971  14.996  70.472  1.00  0.00     0.000 HD 
BRANCH  26  28
HETATM   28  C   UNL     1     -12.154  12.856  70.519  1.00  0.00    -0.282 A  
HETATM   29  N   UNL     1     -11.813  11.703  69.891  1.00  0.00    -0.337 NA 
HETATM   30  C   UNL     1     -12.309  10.564  70.440  1.00  0.00    -0.324 A  
HETATM   31  C   UNL     1     -13.124  10.556  71.561  1.00  0.00    -0.430 A  
HETATM   32  N   UNL     1     -13.485  11.690  72.194  1.00  0.00    -0.320 NA 
HETATM   33  C   UNL     1     -12.991  12.828  71.642  1.00  0.00    -0.303 A  
ENDBRANCH  26  28
ENDBRANCH  23  26
ENDBRANCH  21  22
ENDBRANCH  17  20
ENDBRANCH  10  15
TORSDOF 5
ENDMDL
MODEL      150
REMARK 921   NORMALIZED FREE ENERGY PREDICTED BY IDOCK:   -6.06 KCAL/MOL
REMARK 922        TOTAL FREE ENERGY PREDICTED BY IDOCK:   -9.09 KCAL/MOL
REMARK 923 INTER-LIGAND FREE ENERGY PREDICTED BY IDOCK:   -7.81 KCAL/MOL
REMARK 924 INTRA-LIGAND FREE ENERGY PREDICTED BY IDOCK:   -1.29 KCAL/MOL
REMARK 927      BINDING AFFINITY PREDICTED BY RF-SCORE:    0.00 PKD
ROOT
HETATM    1  F   UNL     1      -9.696   2.472  69.996  1.00  0.00    -0.202 F  
HETATM    2  C   UNL     1      -9.099   3.477  69.296  1.00  0.00    -0.135 C  
HETATM    3  F   UNL     1      -7.760   3.304  69.466  1.00  0.00    -0.049 F  
HETATM    4  F   UNL     1      -9.350   3.216  67.984  1.00  0.00    -0.183 F  
HETATM    5  C   UNL     1      -9.562   4.854  69.708  1.00  0.00    -0.243 A  
HETATM    6  C   UNL     1     -10.522   5.039  70.714  1.00  0.00    -0.222 A  
HETATM    7  C   UNL     1     -10.933   6.329  71.092  1.00  0.00    -0.336 A  
HETATM    8  C   UNL     1     -11.958   6.522  72.186  1.00  0.00    -0.290 C  
HETATM    9  C   UNL     1     -10.374   7.447  70.442  1.00  0.00    -0.215 A  
HETATM   10  C   UNL     1      -9.420   7.286  69.428  1.00  0.00    -0.154 A  
HETATM   11  F   UNL     1     -13.061   7.197  71.755  1.00  0.00    -0.360 F  
HETATM   12  F   UNL     1     -12.419   5.353  72.709  1.00  0.00    -0.282 F  
HETATM   13  F   UNL     1     -11.469   7.232  73.239  1.00  0.00    -0.277 F  
HETATM   14  C   UNL     1      -9.022   5.986  69.078  1.00  0.00    -0.124 A  
ENDROOT
BRANCH  10  15
HETATM   15  C   UNL     1      -8.818   8.427  68.738  1.00  0.00    -0.140 A  
HETATM   16  N   UNL     1      -8.760   9.679  69.212  1.00  0.00    -0.147 NA 
HETATM   17  N   UNL     1      -7.984  10.334  68.292  1.00  0.00    -0.104 NA 
HETATM   18  N   UNL     1      -8.267   8.277  67.496  1.00  0.00    -0.121 NA 
HETATM   19  C   UNL     1      -7.788   9.466  67.236  1.00  0.00    -0.099 A  
BRANCH  17  20
HETATM   20  C   UNL     1      -7.583  11.673  68.414  1.00  0.00    -0.126 C  
HETATM   21  C   UNL     1      -8.288  12.821  68.437  1.00  0.00    -0.119 C  
BRANCH  21  22
HETATM   22  C   UNL     1      -9.733  12.970  68.140  1.00  0.00    -0.228 C  
HETATM   23  N   UNL     1     -10.351  11.862  67.608  1.00  0.00    -0.198 N  
HETATM   24  O   UNL     1     -10.364  13.993  68.388  1.00  0.00    -0.238 OA 
HETATM   25  H   UNL     1      -9.863  10.975  67.480  1.00  0.00     0.000 HD 
BRANCH  23  26
HETATM   26  N   UNL     1     -11.708  12.037  67.250  1.00  0.00    -0.548 NA 
HETATM   27  H   UNL     1     -12.475  11.914  67.911  1.00  0.00     0.000 HD 
BRANCH  26  28
HETATM   28  C   UNL     1     -11.910  12.399  65.895  1.00  0.00    -0.405 A  
HETATM   29  N   UNL     1     -11.381  11.664  64.886  1.00  0.00    -0.234 NA 
HETATM   30  C   UNL     1     -11.575  12.156  63.634  1.00  0.00    -0.486 A  
HETATM   31  C   UNL     1     -12.254  13.338  63.382  1.00  0.00    -0.403 A  
HETATM   32  N   UNL     1     -12.777  14.090  64.371  1.00  0.00    -0.654 NA 
HETATM   33  C   UNL     1     -12.581  13.599  65.620  1.00  0.00    -0.484 A  
ENDBRANCH  26  28
ENDBRANCH  23  26
ENDBRANCH  21  22
ENDBRANCH  17  20
ENDBRANCH  10  15
TORSDOF 5
ENDMDL
MODEL      151
REMARK 921   NORMALIZED FREE ENERGY PREDICTED BY IDOCK:   -6.00 KCAL/MOL
REMARK 922        TOTAL FREE ENERGY PREDICTED BY IDOCK:   -9.02 KCAL/MOL
REMARK 923 INTER-LIGAND FREE ENERGY PREDICTED BY IDOCK:   -7.06 KCAL/MOL
REMARK 924 INTRA-LIGAND FREE ENERGY PREDICTED BY IDOCK:   -1.96 KCAL/MOL
REMARK 927      BINDING AFFINITY PREDICTED BY RF-SCORE:    0.00 PKD
ROOT
HETATM    1  F   UNL     1     -10.950   5.496  67.724  1.00  0.00    -0.268 F  
HETATM    2  C   UNL     1      -9.881   6.332  67.601  1.00  0.00    -0.121 C  
HETATM    3  F   UNL     1      -8.785   5.528  67.541  1.00  0.00    -0.110 F  
HETATM    4  F   UNL     1      -9.998   6.906  66.372  1.00  0.00    -0.229 F  
HETATM    5  C   UNL     1      -9.789   7.354  68.709  1.00  0.00    -0.164 A  
HETATM    6  C   UNL     1     -10.736   7.411  69.742  1.00  0.00    -0.252 A  
HETATM    7  C   UNL     1     -10.629   8.363  70.770  1.00  0.00    -0.240 A  
HETATM    8  C   UNL     1     -11.645   8.411  71.887  1.00  0.00    -0.329 C  
HETATM    9  C   UNL     1      -9.555   9.275  70.752  1.00  0.00    -0.341 A  
HETATM   10  C   UNL     1      -8.602   9.244  69.725  1.00  0.00    -0.164 A  
HETATM   11  F   UNL     1     -12.279   9.615  71.967  1.00  0.00    -0.429 F  
HETATM   12  F   UNL     1     -12.631   7.480  71.762  1.00  0.00    -0.311 F  
HETATM   13  F   UNL     1     -11.087   8.197  73.110  1.00  0.00    -0.422 F  
HETATM   14  C   UNL     1      -8.731   8.276  68.716  1.00  0.00    -0.137 A  
ENDROOT
BRANCH  10  15
HETATM   15  C   UNL     1      -7.474  10.174  69.681  1.00  0.00    -0.147 A  
HETATM   16  N   UNL     1      -7.135  10.936  68.631  1.00  0.00    -0.075 NA 
HETATM   17  N   UNL     1      -6.130  11.727  69.121  1.00  0.00    -0.069 NA 
HETATM   18  N   UNL     1      -6.645  10.314  70.758  1.00  0.00    -0.334 NA 
HETATM   19  C   UNL     1      -5.815  11.252  70.379  1.00  0.00    -0.151 A  
BRANCH  17  20
HETATM   20  C   UNL     1      -5.508  12.750  68.388  1.00  0.00    -0.060 C  
HETATM   21  C   UNL     1      -5.998  13.861  67.805  1.00  0.00    -0.117 C  
BRANCH  21  22
HETATM   22  C   UNL     1      -7.431  14.201  67.631  1.00  0.00    -0.178 C  
HETATM   23  N   UNL     1      -8.173  13.306  66.896  1.00  0.00    -0.405 N  
HETATM   24  O   UNL     1      -7.949  15.189  68.141  1.00  0.00    -0.119 OA 
HETATM   25  H   UNL     1      -7.780  12.433  66.543  1.00  0.00     0.000 HD 
BRANCH  23  26
HETATM   26  N   UNL     1      -9.518  13.678  66.665  1.00  0.00    -0.275 NA 
HETATM   27  H   UNL     1      -9.784  14.416  66.015  1.00  0.00     0.000 HD 
BRANCH  26  28
HETATM   28  C   UNL     1     -10.463  12.936  67.416  1.00  0.00    -0.233 A  
HETATM   29  N   UNL     1     -11.192  13.519  68.399  1.00  0.00    -0.261 NA 
HETATM   30  C   UNL     1     -12.005  12.687  69.102  1.00  0.00    -0.243 A  
HETATM   31  C   UNL     1     -12.090  11.326  68.856  1.00  0.00    -0.224 A  
HETATM   32  N   UNL     1     -11.366  10.724  67.892  1.00  0.00    -0.414 NA 
HETATM   33  C   UNL     1     -10.552  11.555  67.193  1.00  0.00    -0.237 A  
ENDBRANCH  26  28
ENDBRANCH  23  26
ENDBRANCH  21  22
ENDBRANCH  17  20
ENDBRANCH  10  15
TORSDOF 5
ENDMDL
MODEL      152
REMARK 921   NORMALIZED FREE ENERGY PREDICTED BY IDOCK:   -5.99 KCAL/MOL
REMARK 922        TOTAL FREE ENERGY PREDICTED BY IDOCK:   -9.00 KCAL/MOL
REMARK 923 INTER-LIGAND FREE ENERGY PREDICTED BY IDOCK:   -7.39 KCAL/MOL
REMARK 924 INTRA-LIGAND FREE ENERGY PREDICTED BY IDOCK:   -1.61 KCAL/MOL
REMARK 927      BINDING AFFINITY PREDICTED BY RF-SCORE:    0.00 PKD
ROOT
HETATM    1  F   UNL     1     -11.567   7.177  71.663  1.00  0.00    -0.265 F  
HETATM    2  C   UNL     1     -11.914   8.472  71.418  1.00  0.00    -0.300 C  
HETATM    3  F   UNL     1     -13.274   8.502  71.436  1.00  0.00    -0.318 F  
HETATM    4  F   UNL     1     -11.505   9.177  72.509  1.00  0.00    -0.332 F  
HETATM    5  C   UNL     1     -11.339   9.014  70.132  1.00  0.00    -0.139 A  
HETATM    6  C   UNL     1     -10.524   8.232  69.299  1.00  0.00    -0.218 A  
HETATM    7  C   UNL     1     -10.007   8.751  68.100  1.00  0.00    -0.206 A  
HETATM    8  C   UNL     1      -9.141   7.899  67.202  1.00  0.00    -0.137 C  
HETATM    9  C   UNL     1     -10.308  10.079  67.739  1.00  0.00    -0.261 A  
HETATM   10  C   UNL     1     -11.111  10.882  68.559  1.00  0.00    -0.311 A  
HETATM   11  F   UNL     1      -7.905   8.439  67.001  1.00  0.00    -0.091 F  
HETATM   12  F   UNL     1      -8.923   6.646  67.688  1.00  0.00    -0.115 F  
HETATM   13  F   UNL     1      -9.683   7.728  65.965  1.00  0.00    -0.218 F  
HETATM   14  C   UNL     1     -11.622  10.334  69.747  1.00  0.00    -0.294 A  
ENDROOT
BRANCH  10  15
HETATM   15  C   UNL     1     -11.446  12.263  68.210  1.00  0.00    -0.315 A  
HETATM   16  N   UNL     1     -11.361  13.316  69.035  1.00  0.00    -0.270 NA 
HETATM   17  N   UNL     1     -11.628  14.384  68.220  1.00  0.00    -0.310 NA 
HETATM   18  N   UNL     1     -11.907  12.572  66.961  1.00  0.00    -0.503 NA 
HETATM   19  C   UNL     1     -12.036  13.874  67.003  1.00  0.00    -0.415 A  
BRANCH  17  20
HETATM   20  C   UNL     1     -11.577  15.722  68.637  1.00  0.00    -0.386 C  
HETATM   21  C   UNL     1     -10.545  16.513  68.992  1.00  0.00    -0.324 C  
BRANCH  21  22
HETATM   22  C   UNL     1      -9.145  16.079  69.215  1.00  0.00    -0.235 C  
HETATM   23  N   UNL     1      -8.961  14.731  69.411  1.00  0.00    -0.416 N  
HETATM   24  O   UNL     1      -8.193  16.854  69.184  1.00  0.00    -0.193 OA 
HETATM   25  H   UNL     1      -9.728  14.061  69.349  1.00  0.00     0.000 HD 
BRANCH  23  26
HETATM   26  N   UNL     1      -7.635  14.335  69.704  1.00  0.00    -0.359 NA 
HETATM   27  H   UNL     1      -7.057  14.808  70.399  1.00  0.00     0.000 HD 
BRANCH  26  28
HETATM   28  C   UNL     1      -7.178  13.227  68.949  1.00  0.00    -0.054 A  
HETATM   29  N   UNL     1      -7.117  11.986  69.492  1.00  0.00     0.076 NA 
HETATM   30  C   UNL     1      -6.586  11.021  68.695  1.00  0.00    -0.058 A  
HETATM   31  C   UNL     1      -6.118  11.268  67.414  1.00  0.00    -0.066 A  
HETATM   32  N   UNL     1      -6.159  12.496  66.861  1.00  0.00    -0.193 NA 
HETATM   33  C   UNL     1      -6.686  13.460  67.658  1.00  0.00    -0.167 A  
ENDBRANCH  26  28
ENDBRANCH  23  26
ENDBRANCH  21  22
ENDBRANCH  17  20
ENDBRANCH  10  15
TORSDOF 5
ENDMDL
MODEL      153
REMARK 921   NORMALIZED FREE ENERGY PREDICTED BY IDOCK:   -5.99 KCAL/MOL
REMARK 922        TOTAL FREE ENERGY PREDICTED BY IDOCK:   -9.00 KCAL/MOL
REMARK 923 INTER-LIGAND FREE ENERGY PREDICTED BY IDOCK:   -8.27 KCAL/MOL
REMARK 924 INTRA-LIGAND FREE ENERGY PREDICTED BY IDOCK:   -0.73 KCAL/MOL
REMARK 927      BINDING AFFINITY PREDICTED BY RF-SCORE:    0.00 PKD
ROOT
HETATM    1  F   UNL     1      -5.370  18.422  68.500  1.00  0.00    -0.162 F  
HETATM    2  C   UNL     1      -6.077  17.272  68.691  1.00  0.00    -0.165 C  
HETATM    3  F   UNL     1      -5.513  16.348  67.868  1.00  0.00    -0.091 F  
HETATM    4  F   UNL     1      -5.796  16.871  69.961  1.00  0.00    -0.194 F  
HETATM    5  C   UNL     1      -7.559  17.433  68.453  1.00  0.00    -0.255 A  
HETATM    6  C   UNL     1      -8.118  18.665  68.079  1.00  0.00    -0.296 A  
HETATM    7  C   UNL     1      -9.499  18.793  67.851  1.00  0.00    -0.339 A  
HETATM    8  C   UNL     1     -10.092  20.119  67.436  1.00  0.00    -0.416 C  
HETATM    9  C   UNL     1     -10.329  17.666  68.009  1.00  0.00    -0.375 A  
HETATM   10  C   UNL     1      -9.795  16.428  68.391  1.00  0.00    -0.233 A  
HETATM   11  F   UNL     1     -11.036  20.567  68.312  1.00  0.00    -0.145 F  
HETATM   12  F   UNL     1      -9.172  21.118  67.339  1.00  0.00    -0.491 F  
HETATM   13  F   UNL     1     -10.703  20.060  66.221  1.00  0.00    -0.531 F  
HETATM   14  C   UNL     1      -8.411  16.328  68.603  1.00  0.00    -0.220 A  
ENDROOT
BRANCH  10  15
HETATM   15  C   UNL     1     -10.630  15.238  68.558  1.00  0.00    -0.237 A  
HETATM   16  N   UNL     1     -10.709  14.217  67.694  1.00  0.00    -0.256 NA 
HETATM   17  N   UNL     1     -11.485  13.299  68.352  1.00  0.00    -0.291 NA 
HETATM   18  N   UNL     1     -11.435  15.101  69.654  1.00  0.00    -0.272 NA 
HETATM   19  C   UNL     1     -11.967  13.917  69.489  1.00  0.00    -0.343 A  
BRANCH  17  20
HETATM   20  C   UNL     1     -11.780  12.020  67.857  1.00  0.00    -0.323 C  
HETATM   21  C   UNL     1     -11.328  10.798  68.202  1.00  0.00    -0.377 C  
BRANCH  21  22
HETATM   22  C   UNL     1     -10.205  10.507  69.126  1.00  0.00    -0.224 C  
HETATM   23  N   UNL     1     -10.504   9.693  70.192  1.00  0.00    -0.252 N  
HETATM   24  O   UNL     1      -9.065  10.921  68.941  1.00  0.00    -0.171 OA 
HETATM   25  H   UNL     1     -11.423   9.265  70.311  1.00  0.00     0.000 HD 
BRANCH  23  26
HETATM   26  N   UNL     1      -9.449   9.487  71.113  1.00  0.00    -0.318 NA 
HETATM   27  H   UNL     1      -8.699  10.162  71.254  1.00  0.00     0.000 HD 
BRANCH  26  28
HETATM   28  C   UNL     1      -9.527   8.262  71.820  1.00  0.00    -0.209 A  
HETATM   29  N   UNL     1      -8.648   7.257  71.582  1.00  0.00    -0.117 NA 
HETATM   30  C   UNL     1      -8.873   6.103  72.264  1.00  0.00    -0.137 A  
HETATM   31  C   UNL     1      -9.934   5.936  73.139  1.00  0.00    -0.177 A  
HETATM   32  N   UNL     1     -10.826   6.917  73.381  1.00  0.00    -0.302 NA 
HETATM   33  C   UNL     1     -10.601   8.068  72.698  1.00  0.00    -0.350 A  
ENDBRANCH  26  28
ENDBRANCH  23  26
ENDBRANCH  21  22
ENDBRANCH  17  20
ENDBRANCH  10  15
TORSDOF 5
ENDMDL
MODEL      154
REMARK 921   NORMALIZED FREE ENERGY PREDICTED BY IDOCK:   -5.97 KCAL/MOL
REMARK 922        TOTAL FREE ENERGY PREDICTED BY IDOCK:   -8.98 KCAL/MOL
REMARK 923 INTER-LIGAND FREE ENERGY PREDICTED BY IDOCK:   -7.41 KCAL/MOL
REMARK 924 INTRA-LIGAND FREE ENERGY PREDICTED BY IDOCK:   -1.57 KCAL/MOL
REMARK 927      BINDING AFFINITY PREDICTED BY RF-SCORE:    0.00 PKD
ROOT
HETATM    1  F   UNL     1      -6.884   9.010  63.798  1.00  0.00    -0.088 F  
HETATM    2  C   UNL     1      -7.327   9.580  64.954  1.00  0.00    -0.111 C  
HETATM    3  F   UNL     1      -6.222  10.088  65.565  1.00  0.00    -0.067 F  
HETATM    4  F   UNL     1      -8.076  10.652  64.576  1.00  0.00    -0.159 F  
HETATM    5  C   UNL     1      -8.091   8.625  65.839  1.00  0.00    -0.111 A  
HETATM    6  C   UNL     1      -8.310   7.290  65.469  1.00  0.00    -0.137 A  
HETATM    7  C   UNL     1      -9.015   6.413  66.311  1.00  0.00    -0.166 A  
HETATM    8  C   UNL     1      -9.237   4.972  65.912  1.00  0.00    -0.157 C  
HETATM    9  C   UNL     1      -9.513   6.891  67.539  1.00  0.00    -0.143 A  
HETATM   10  C   UNL     1      -9.315   8.223  67.926  1.00  0.00    -0.150 A  
HETATM   11  F   UNL     1     -10.558   4.646  65.843  1.00  0.00    -0.277 F  
HETATM   12  F   UNL     1      -8.714   4.661  64.694  1.00  0.00    -0.126 F  
HETATM   13  F   UNL     1      -8.677   4.096  66.791  1.00  0.00    -0.109 F  
HETATM   14  C   UNL     1      -8.598   9.074  67.069  1.00  0.00    -0.120 A  
ENDROOT
BRANCH  10  15
HETATM   15  C   UNL     1      -9.814   8.747  69.197  1.00  0.00    -0.181 A  
HETATM   16  N   UNL     1     -11.010   9.324  69.383  1.00  0.00    -0.174 NA 
HETATM   17  N   UNL     1     -11.072   9.502  70.740  1.00  0.00    -0.294 NA 
HETATM   18  N   UNL     1      -9.043   8.694  70.324  1.00  0.00    -0.155 NA 
HETATM   19  C   UNL     1      -9.827   9.187  71.248  1.00  0.00    -0.293 A  
BRANCH  17  20
HETATM   20  C   UNL     1     -12.191  10.013  71.415  1.00  0.00    -0.416 C  
HETATM   21  C   UNL     1     -12.801  11.214  71.360  1.00  0.00    -0.544 C  
BRANCH  21  22
HETATM   22  C   UNL     1     -12.297  12.422  70.663  1.00  0.00    -0.279 C  
HETATM   23  N   UNL     1     -11.424  12.194  69.626  1.00  0.00    -0.452 N  
HETATM   24  O   UNL     1     -12.660  13.559  70.951  1.00  0.00    -0.348 OA 
HETATM   25  H   UNL     1     -11.182  11.253  69.314  1.00  0.00     0.000 HD 
BRANCH  23  26
HETATM   26  N   UNL     1     -10.884  13.353  69.020  1.00  0.00    -0.380 NA 
HETATM   27  H   UNL     1     -10.400  14.078  69.548  1.00  0.00     0.000 HD 
BRANCH  26  28
HETATM   28  C   UNL     1     -11.074  13.418  67.618  1.00  0.00    -0.265 A  
HETATM   29  N   UNL     1     -12.182  13.991  67.085  1.00  0.00    -0.388 NA 
HETATM   30  C   UNL     1     -12.289  13.920  65.732  1.00  0.00    -0.486 A  
HETATM   31  C   UNL     1     -11.348  13.295  64.930  1.00  0.00    -0.316 A  
HETATM   32  N   UNL     1     -10.247  12.709  65.439  1.00  0.00    -0.284 NA 
HETATM   33  C   UNL     1     -10.141  12.778  66.790  1.00  0.00    -0.236 A  
ENDBRANCH  26  28
ENDBRANCH  23  26
ENDBRANCH  21  22
ENDBRANCH  17  20
ENDBRANCH  10  15
TORSDOF 5
ENDMDL
MODEL      155
REMARK 921   NORMALIZED FREE ENERGY PREDICTED BY IDOCK:   -5.96 KCAL/MOL
REMARK 922        TOTAL FREE ENERGY PREDICTED BY IDOCK:   -8.97 KCAL/MOL
REMARK 923 INTER-LIGAND FREE ENERGY PREDICTED BY IDOCK:   -8.36 KCAL/MOL
REMARK 924 INTRA-LIGAND FREE ENERGY PREDICTED BY IDOCK:   -0.60 KCAL/MOL
REMARK 927      BINDING AFFINITY PREDICTED BY RF-SCORE:    0.00 PKD
ROOT
HETATM    1  F   UNL     1     -12.005  15.080  71.936  1.00  0.00    -0.347 F  
HETATM    2  C   UNL     1     -11.762  15.059  70.596  1.00  0.00    -0.308 C  
HETATM    3  F   UNL     1     -12.640  15.941  70.045  1.00  0.00    -0.385 F  
HETATM    4  F   UNL     1     -10.526  15.606  70.435  1.00  0.00    -0.303 F  
HETATM    5  C   UNL     1     -11.867  13.681  69.988  1.00  0.00    -0.378 A  
HETATM    6  C   UNL     1     -12.179  12.554  70.763  1.00  0.00    -0.332 A  
HETATM    7  C   UNL     1     -12.283  11.281  70.178  1.00  0.00    -0.410 A  
HETATM    8  C   UNL     1     -12.632  10.073  71.016  1.00  0.00    -0.367 C  
HETATM    9  C   UNL     1     -12.062  11.141  68.793  1.00  0.00    -0.232 A  
HETATM   10  C   UNL     1     -11.740  12.250  68.001  1.00  0.00    -0.417 A  
HETATM   11  F   UNL     1     -11.673   9.106  70.966  1.00  0.00    -0.294 F  
HETATM   12  F   UNL     1     -12.802  10.360  72.335  1.00  0.00    -0.451 F  
HETATM   13  F   UNL     1     -13.789   9.477  70.615  1.00  0.00    -0.272 F  
HETATM   14  C   UNL     1     -11.652  13.512  68.611  1.00  0.00    -0.365 A  
ENDROOT
BRANCH  10  15
HETATM   15  C   UNL     1     -11.509  12.138  66.560  1.00  0.00    -0.369 A  
HETATM   16  N   UNL     1     -10.341  11.820  65.983  1.00  0.00    -0.231 NA 
HETATM   17  N   UNL     1     -10.664  11.694  64.658  1.00  0.00    -0.299 NA 
HETATM   18  N   UNL     1     -12.519  12.381  65.673  1.00  0.00    -0.562 NA 
HETATM   19  C   UNL     1     -11.967  12.129  64.514  1.00  0.00    -0.337 A  
BRANCH  17  20
HETATM   20  C   UNL     1      -9.758  11.292  63.664  1.00  0.00    -0.321 C  
HETATM   21  C   UNL     1      -8.745  10.403  63.680  1.00  0.00    -0.202 C  
BRANCH  21  22
HETATM   22  C   UNL     1      -8.193   9.726  64.878  1.00  0.00    -0.142 C  
HETATM   23  N   UNL     1      -8.402   8.369  64.948  1.00  0.00    -0.206 N  
HETATM   24  O   UNL     1      -7.547  10.315  65.740  1.00  0.00    -0.131 OA 
HETATM   25  H   UNL     1      -8.857   7.848  64.197  1.00  0.00     0.000 HD 
BRANCH  23  26
HETATM   26  N   UNL     1      -7.945   7.744  66.131  1.00  0.00    -0.101 NA 
HETATM   27  H   UNL     1      -7.426   8.241  66.855  1.00  0.00     0.000 HD 
BRANCH  26  28
HETATM   28  C   UNL     1      -8.268   6.368  66.224  1.00  0.00    -0.118 A  
HETATM   29  N   UNL     1      -7.957   5.646  67.329  1.00  0.00    -0.102 NA 
HETATM   30  C   UNL     1      -8.245   4.319  67.267  1.00  0.00    -0.100 A  
HETATM   31  C   UNL     1      -8.807   3.718  66.152  1.00  0.00    -0.127 A  
HETATM   32  N   UNL     1      -9.114   4.414  65.039  1.00  0.00    -0.144 NA 
HETATM   33  C   UNL     1      -8.824   5.738  65.101  1.00  0.00    -0.011 A  
ENDBRANCH  26  28
ENDBRANCH  23  26
ENDBRANCH  21  22
ENDBRANCH  17  20
ENDBRANCH  10  15
TORSDOF 5
ENDMDL
MODEL      156
REMARK 921   NORMALIZED FREE ENERGY PREDICTED BY IDOCK:   -5.95 KCAL/MOL
REMARK 922        TOTAL FREE ENERGY PREDICTED BY IDOCK:   -8.96 KCAL/MOL
REMARK 923 INTER-LIGAND FREE ENERGY PREDICTED BY IDOCK:   -7.32 KCAL/MOL
REMARK 924 INTRA-LIGAND FREE ENERGY PREDICTED BY IDOCK:   -1.63 KCAL/MOL
REMARK 927      BINDING AFFINITY PREDICTED BY RF-SCORE:    0.00 PKD
ROOT
HETATM    1  F   UNL     1      -9.215   7.150  71.698  1.00  0.00    -0.143 F  
HETATM    2  C   UNL     1      -9.555   8.332  71.112  1.00  0.00    -0.163 C  
HETATM    3  F   UNL     1     -10.622   8.802  71.815  1.00  0.00    -0.308 F  
HETATM    4  F   UNL     1      -8.526   9.184  71.372  1.00  0.00    -0.218 F  
HETATM    5  C   UNL     1      -9.843   8.210  69.635  1.00  0.00    -0.184 A  
HETATM    6  C   UNL     1      -9.751   6.981  68.964  1.00  0.00    -0.145 A  
HETATM    7  C   UNL     1     -10.033   6.884  67.591  1.00  0.00    -0.180 A  
HETATM    8  C   UNL     1      -9.944   5.556  66.877  1.00  0.00    -0.179 C  
HETATM    9  C   UNL     1     -10.406   8.044  66.883  1.00  0.00    -0.408 A  
HETATM   10  C   UNL     1     -10.495   9.284  67.529  1.00  0.00    -0.338 A  
HETATM   11  F   UNL     1      -9.051   5.573  65.847  1.00  0.00    -0.145 F  
HETATM   12  F   UNL     1      -9.558   4.531  67.686  1.00  0.00    -0.151 F  
HETATM   13  F   UNL     1     -11.134   5.173  66.337  1.00  0.00    -0.300 F  
HETATM   14  C   UNL     1     -10.217   9.348  68.904  1.00  0.00    -0.215 A  
ENDROOT
BRANCH  10  15
HETATM   15  C   UNL     1     -10.884  10.504  66.822  1.00  0.00    -0.142 A  
HETATM   16  N   UNL     1     -11.629  11.494  67.334  1.00  0.00    -0.556 NA 
HETATM   17  N   UNL     1     -11.589  12.459  66.363  1.00  0.00    -0.373 NA 
HETATM   18  N   UNL     1     -10.506  10.708  65.525  1.00  0.00    -0.219 NA 
HETATM   19  C   UNL     1     -10.974  11.901  65.260  1.00  0.00    -0.302 A  
BRANCH  17  20
HETATM   20  C   UNL     1     -12.176  13.728  66.491  1.00  0.00    -0.430 C  
HETATM   21  C   UNL     1     -11.699  14.892  66.973  1.00  0.00    -0.274 C  
BRANCH  21  22
HETATM   22  C   UNL     1     -10.418  15.083  67.695  1.00  0.00    -0.247 C  
HETATM   23  N   UNL     1      -9.890  13.959  68.284  1.00  0.00    -0.226 N  
HETATM   24  O   UNL     1      -9.829  16.159  67.736  1.00  0.00    -0.228 OA 
HETATM   25  H   UNL     1     -10.319  13.038  68.183  1.00  0.00     0.000 HD 
BRANCH  23  26
HETATM   26  N   UNL     1      -8.713  14.165  69.040  1.00  0.00    -0.370 NA 
HETATM   27  H   UNL     1      -8.675  14.786  69.848  1.00  0.00     0.000 HD 
BRANCH  26  28
HETATM   28  C   UNL     1      -7.590  13.435  68.578  1.00  0.00    -0.127 A  
HETATM   29  N   UNL     1      -7.389  12.147  68.950  1.00  0.00    -0.089 NA 
HETATM   30  C   UNL     1      -6.236  11.579  68.508  1.00  0.00    -0.050 A  
HETATM   31  C   UNL     1      -5.305  12.257  67.738  1.00  0.00    -0.082 A  
HETATM   32  N   UNL     1      -5.479  13.541  67.367  1.00  0.00    -0.350 NA 
HETATM   33  C   UNL     1      -6.629  14.108  67.811  1.00  0.00    -0.175 A  
ENDBRANCH  26  28
ENDBRANCH  23  26
ENDBRANCH  21  22
ENDBRANCH  17  20
ENDBRANCH  10  15
TORSDOF 5
ENDMDL
MODEL      157
REMARK 921   NORMALIZED FREE ENERGY PREDICTED BY IDOCK:   -5.94 KCAL/MOL
REMARK 922        TOTAL FREE ENERGY PREDICTED BY IDOCK:   -8.95 KCAL/MOL
REMARK 923 INTER-LIGAND FREE ENERGY PREDICTED BY IDOCK:   -8.02 KCAL/MOL
REMARK 924 INTRA-LIGAND FREE ENERGY PREDICTED BY IDOCK:   -0.93 KCAL/MOL
REMARK 927      BINDING AFFINITY PREDICTED BY RF-SCORE:    0.00 PKD
ROOT
HETATM    1  F   UNL     1      -8.988  17.817  66.124  1.00  0.00    -0.268 F  
HETATM    2  C   UNL     1      -8.404  16.702  66.645  1.00  0.00    -0.261 C  
HETATM    3  F   UNL     1      -7.124  16.701  66.184  1.00  0.00    -0.251 F  
HETATM    4  F   UNL     1      -8.323  16.918  67.987  1.00  0.00    -0.186 F  
HETATM    5  C   UNL     1      -9.141  15.427  66.310  1.00  0.00    -0.355 A  
HETATM    6  C   UNL     1     -10.314  15.432  65.541  1.00  0.00    -0.412 A  
HETATM    7  C   UNL     1     -10.981  14.235  65.230  1.00  0.00    -0.347 A  
HETATM    8  C   UNL     1     -12.237  14.247  64.390  1.00  0.00    -0.447 C  
HETATM    9  C   UNL     1     -10.462  13.016  65.709  1.00  0.00    -0.292 A  
HETATM   10  C   UNL     1      -9.297  12.986  66.487  1.00  0.00    -0.220 A  
HETATM   11  F   UNL     1     -13.306  13.704  65.039  1.00  0.00    -0.263 F  
HETATM   12  F   UNL     1     -12.625  15.496  64.015  1.00  0.00    -0.424 F  
HETATM   13  F   UNL     1     -12.098  13.539  63.235  1.00  0.00    -0.542 F  
HETATM   14  C   UNL     1      -8.647  14.198  66.773  1.00  0.00    -0.097 A  
ENDROOT
BRANCH  10  15
HETATM   15  C   UNL     1      -8.731  11.736  66.994  1.00  0.00    -0.181 A  
HETATM   16  N   UNL     1      -7.424  11.482  67.149  1.00  0.00    -0.135 NA 
HETATM   17  N   UNL     1      -7.407  10.267  67.782  1.00  0.00    -0.087 NA 
HETATM   18  N   UNL     1      -9.544  10.693  67.339  1.00  0.00    -0.157 NA 
HETATM   19  C   UNL     1      -8.705   9.797  67.793  1.00  0.00    -0.129 A  
BRANCH  17  20
HETATM   20  C   UNL     1      -6.238   9.627  68.222  1.00  0.00    -0.055 C  
HETATM   21  C   UNL     1      -5.893   9.114  69.419  1.00  0.00    -0.034 C  
BRANCH  21  22
HETATM   22  C   UNL     1      -6.640   9.273  70.690  1.00  0.00    -0.079 C  
HETATM   23  N   UNL     1      -7.769   8.500  70.820  1.00  0.00    -0.078 N  
HETATM   24  O   UNL     1      -6.264  10.009  71.597  1.00  0.00    -0.306 OA 
HETATM   25  H   UNL     1      -8.046   7.816  70.116  1.00  0.00     0.000 HD 
BRANCH  23  26
HETATM   26  N   UNL     1      -8.521   8.717  71.998  1.00  0.00    -0.368 NA 
HETATM   27  H   UNL     1      -8.099   8.756  72.926  1.00  0.00     0.000 HD 
BRANCH  26  28
HETATM   28  C   UNL     1      -9.912   8.877  71.779  1.00  0.00    -0.327 A  
HETATM   29  N   UNL     1     -10.383   9.803  70.907  1.00  0.00    -0.253 NA 
HETATM   30  C   UNL     1     -11.736   9.917  70.844  1.00  0.00    -0.364 A  
HETATM   31  C   UNL     1     -12.598   9.157  71.620  1.00  0.00    -0.360 A  
HETATM   32  N   UNL     1     -12.150   8.240  72.500  1.00  0.00    -0.380 NA 
HETATM   33  C   UNL     1     -10.799   8.129  72.565  1.00  0.00    -0.361 A  
ENDBRANCH  26  28
ENDBRANCH  23  26
ENDBRANCH  21  22
ENDBRANCH  17  20
ENDBRANCH  10  15
TORSDOF 5
ENDMDL
MODEL      158
REMARK 921   NORMALIZED FREE ENERGY PREDICTED BY IDOCK:   -5.93 KCAL/MOL
REMARK 922        TOTAL FREE ENERGY PREDICTED BY IDOCK:   -8.93 KCAL/MOL
REMARK 923 INTER-LIGAND FREE ENERGY PREDICTED BY IDOCK:   -7.41 KCAL/MOL
REMARK 924 INTRA-LIGAND FREE ENERGY PREDICTED BY IDOCK:   -1.52 KCAL/MOL
REMARK 927      BINDING AFFINITY PREDICTED BY RF-SCORE:    0.00 PKD
ROOT
HETATM    1  F   UNL     1      -7.360  14.844  66.916  1.00  0.00    -0.193 F  
HETATM    2  C   UNL     1      -7.736  14.056  67.963  1.00  0.00    -0.149 C  
HETATM    3  F   UNL     1      -6.774  13.100  68.072  1.00  0.00    -0.073 F  
HETATM    4  F   UNL     1      -7.622  14.835  69.073  1.00  0.00    -0.111 F  
HETATM    5  C   UNL     1      -9.119  13.472  67.807  1.00  0.00    -0.207 A  
HETATM    6  C   UNL     1      -9.914  13.744  66.683  1.00  0.00    -0.279 A  
HETATM    7  C   UNL     1     -11.195  13.183  66.550  1.00  0.00    -0.339 A  
HETATM    8  C   UNL     1     -12.040  13.470  65.331  1.00  0.00    -0.415 C  
HETATM    9  C   UNL     1     -11.686  12.342  67.569  1.00  0.00    -0.402 A  
HETATM   10  C   UNL     1     -10.915  12.064  68.705  1.00  0.00    -0.281 A  
HETATM   11  F   UNL     1     -13.233  14.050  65.646  1.00  0.00    -0.554 F  
HETATM   12  F   UNL     1     -11.442  14.309  64.442  1.00  0.00    -0.367 F  
HETATM   13  F   UNL     1     -12.343  12.343  64.630  1.00  0.00    -0.456 F  
HETATM   14  C   UNL     1      -9.634  12.631  68.805  1.00  0.00     0.085 A  
ENDROOT
BRANCH  10  15
HETATM   15  C   UNL     1     -11.394  11.191  69.777  1.00  0.00    -0.278 A  
HETATM   16  N   UNL     1     -10.752  10.111  70.245  1.00  0.00    -0.298 NA 
HETATM   17  N   UNL     1     -11.510   9.729  71.320  1.00  0.00    -0.379 NA 
HETATM   18  N   UNL     1     -12.597  11.427  70.381  1.00  0.00    -0.224 NA 
HETATM   19  C   UNL     1     -12.655  10.501  71.304  1.00  0.00    -0.426 A  
BRANCH  17  20
HETATM   20  C   UNL     1     -11.177   8.672  72.180  1.00  0.00    -0.367 C  
HETATM   21  C   UNL     1      -9.992   8.116  72.502  1.00  0.00    -0.372 C  
BRANCH  21  22
HETATM   22  C   UNL     1      -8.690   8.387  71.846  1.00  0.00    -0.195 C  
HETATM   23  N   UNL     1      -8.621   8.086  70.506  1.00  0.00    -0.131 N  
HETATM   24  O   UNL     1      -7.738   8.890  72.435  1.00  0.00    -0.360 OA 
HETATM   25  H   UNL     1      -9.430   7.753  69.980  1.00  0.00     0.000 HD 
BRANCH  23  26
HETATM   26  N   UNL     1      -7.353   8.269  69.907  1.00  0.00    -0.063 NA 
HETATM   27  H   UNL     1      -6.483   7.982  70.354  1.00  0.00     0.000 HD 
BRANCH  26  28
HETATM   28  C   UNL     1      -7.396   8.888  68.634  1.00  0.00    -0.077 A  
HETATM   29  N   UNL     1      -6.374   9.665  68.195  1.00  0.00    -0.056 NA 
HETATM   30  C   UNL     1      -6.567  10.268  66.993  1.00  0.00    -0.074 A  
HETATM   31  C   UNL     1      -7.729  10.126  66.252  1.00  0.00    -0.110 A  
HETATM   32  N   UNL     1      -8.761   9.368  66.674  1.00  0.00    -0.130 NA 
HETATM   33  C   UNL     1      -8.569   8.768  67.875  1.00  0.00    -0.130 A  
ENDBRANCH  26  28
ENDBRANCH  23  26
ENDBRANCH  21  22
ENDBRANCH  17  20
ENDBRANCH  10  15
TORSDOF 5
ENDMDL
MODEL      159
REMARK 921   NORMALIZED FREE ENERGY PREDICTED BY IDOCK:   -5.90 KCAL/MOL
REMARK 922        TOTAL FREE ENERGY PREDICTED BY IDOCK:   -8.89 KCAL/MOL
REMARK 923 INTER-LIGAND FREE ENERGY PREDICTED BY IDOCK:   -7.79 KCAL/MOL
REMARK 924 INTRA-LIGAND FREE ENERGY PREDICTED BY IDOCK:   -1.10 KCAL/MOL
REMARK 927      BINDING AFFINITY PREDICTED BY RF-SCORE:    0.00 PKD
ROOT
HETATM    1  F   UNL     1      -8.705   3.725  68.488  1.00  0.00    -0.098 F  
HETATM    2  C   UNL     1      -9.474   4.847  68.569  1.00  0.00    -0.143 C  
HETATM    3  F   UNL     1      -8.670   5.877  68.190  1.00  0.00    -0.113 F  
HETATM    4  F   UNL     1     -10.415   4.722  67.593  1.00  0.00    -0.178 F  
HETATM    5  C   UNL     1     -10.084   5.059  69.934  1.00  0.00    -0.344 A  
HETATM    6  C   UNL     1      -9.863   4.161  70.989  1.00  0.00    -0.247 A  
HETATM    7  C   UNL     1     -10.430   4.381  72.256  1.00  0.00    -0.192 A  
HETATM    8  C   UNL     1     -10.177   3.417  73.392  1.00  0.00    -0.141 C  
HETATM    9  C   UNL     1     -11.238   5.517  72.460  1.00  0.00    -0.330 A  
HETATM   10  C   UNL     1     -11.481   6.422  71.418  1.00  0.00    -0.363 A  
HETATM   11  F   UNL     1     -11.327   2.878  73.887  1.00  0.00    -0.280 F  
HETATM   12  F   UNL     1      -9.392   2.361  73.042  1.00  0.00    -0.086 F  
HETATM   13  F   UNL     1      -9.553   4.008  74.448  1.00  0.00    -0.114 F  
HETATM   14  C   UNL     1     -10.893   6.182  70.166  1.00  0.00    -0.395 A  
ENDROOT
BRANCH  10  15
HETATM   15  C   UNL     1     -12.311   7.613  71.600  1.00  0.00    -0.326 A  
HETATM   16  N   UNL     1     -11.853   8.862  71.765  1.00  0.00    -0.334 NA 
HETATM   17  N   UNL     1     -12.989   9.626  71.738  1.00  0.00    -0.387 NA 
HETATM   18  N   UNL     1     -13.674   7.513  71.632  1.00  0.00    -0.385 NA 
HETATM   19  C   UNL     1     -14.063   8.757  71.745  1.00  0.00    -0.401 A  
BRANCH  17  20
HETATM   20  C   UNL     1     -12.995  11.028  71.800  1.00  0.00    -0.438 C  
HETATM   21  C   UNL     1     -12.652  11.967  70.897  1.00  0.00    -0.361 C  
BRANCH  21  22
HETATM   22  C   UNL     1     -11.971  11.730  69.601  1.00  0.00    -0.312 C  
HETATM   23  N   UNL     1     -10.827  12.461  69.383  1.00  0.00    -0.454 N  
HETATM   24  O   UNL     1     -12.364  10.904  68.782  1.00  0.00    -0.495 OA 
HETATM   25  H   UNL     1     -10.436  13.083  70.090  1.00  0.00     0.000 HD 
BRANCH  23  26
HETATM   26  N   UNL     1     -10.231  12.290  68.112  1.00  0.00    -0.206 NA 
HETATM   27  H   UNL     1     -10.581  12.746  67.270  1.00  0.00     0.000 HD 
BRANCH  26  28
HETATM   28  C   UNL     1      -9.104  11.431  68.110  1.00  0.00    -0.174 A  
HETATM   29  N   UNL     1      -7.970  11.758  68.776  1.00  0.00    -0.107 NA 
HETATM   30  C   UNL     1      -6.931  10.893  68.633  1.00  0.00    -0.073 A  
HETATM   31  C   UNL     1      -7.000   9.751  67.850  1.00  0.00    -0.078 A  
HETATM   32  N   UNL     1      -8.113   9.413  67.170  1.00  0.00    -0.102 NA 
HETATM   33  C   UNL     1      -9.148  10.279  67.312  1.00  0.00    -0.138 A  
ENDBRANCH  26  28
ENDBRANCH  23  26
ENDBRANCH  21  22
ENDBRANCH  17  20
ENDBRANCH  10  15
TORSDOF 5
ENDMDL
MODEL      160
REMARK 921   NORMALIZED FREE ENERGY PREDICTED BY IDOCK:   -5.89 KCAL/MOL
REMARK 922        TOTAL FREE ENERGY PREDICTED BY IDOCK:   -8.88 KCAL/MOL
REMARK 923 INTER-LIGAND FREE ENERGY PREDICTED BY IDOCK:   -8.61 KCAL/MOL
REMARK 924 INTRA-LIGAND FREE ENERGY PREDICTED BY IDOCK:   -0.27 KCAL/MOL
REMARK 927      BINDING AFFINITY PREDICTED BY RF-SCORE:    0.00 PKD
ROOT
HETATM    1  F   UNL     1     -10.975  14.393  67.466  1.00  0.00    -0.271 F  
HETATM    2  C   UNL     1     -11.181  13.070  67.718  1.00  0.00    -0.279 C  
HETATM    3  F   UNL     1     -11.983  12.621  66.715  1.00  0.00    -0.417 F  
HETATM    4  F   UNL     1      -9.975  12.466  67.537  1.00  0.00    -0.190 F  
HETATM    5  C   UNL     1     -11.760  12.803  69.087  1.00  0.00    -0.375 A  
HETATM    6  C   UNL     1     -12.038  13.843  69.987  1.00  0.00    -0.411 A  
HETATM    7  C   UNL     1     -12.587  13.576  71.252  1.00  0.00    -0.427 A  
HETATM    8  C   UNL     1     -12.896  14.701  72.212  1.00  0.00    -0.340 C  
HETATM    9  C   UNL     1     -12.853  12.241  71.619  1.00  0.00    -0.378 A  
HETATM   10  C   UNL     1     -12.575  11.186  70.740  1.00  0.00    -0.445 A  
HETATM   11  F   UNL     1     -12.228  14.580  73.394  1.00  0.00    -0.379 F  
HETATM   12  F   UNL     1     -12.573  15.931  71.727  1.00  0.00    -0.418 F  
HETATM   13  F   UNL     1     -14.218  14.766  72.532  1.00  0.00    -0.504 F  
HETATM   14  C   UNL     1     -12.035  11.484  69.479  1.00  0.00    -0.402 A  
ENDROOT
BRANCH  10  15
HETATM   15  C   UNL     1     -12.843   9.791  71.090  1.00  0.00    -0.345 A  
HETATM   16  N   UNL     1     -11.913   8.847  71.289  1.00  0.00    -0.297 NA 
HETATM   17  N   UNL     1     -12.637   7.772  71.733  1.00  0.00    -0.321 NA 
HETATM   18  N   UNL     1     -14.127   9.341  71.221  1.00  0.00    -0.146 NA 
HETATM   19  C   UNL     1     -13.972   8.095  71.589  1.00  0.00    -0.395 A  
BRANCH  17  20
HETATM   20  C   UNL     1     -12.068   6.558  72.146  1.00  0.00    -0.264 C  
HETATM   21  C   UNL     1     -11.081   5.806  71.622  1.00  0.00    -0.290 C  
BRANCH  21  22
HETATM   22  C   UNL     1     -10.439   5.999  70.299  1.00  0.00    -0.242 C  
HETATM   23  N   UNL     1      -9.317   5.242  70.062  1.00  0.00    -0.145 N  
HETATM   24  O   UNL     1     -10.894   6.749  69.440  1.00  0.00    -0.239 OA 
HETATM   25  H   UNL     1      -8.978   4.547  70.728  1.00  0.00     0.000 HD 
BRANCH  23  26
HETATM   26  N   UNL     1      -8.664   5.492  68.832  1.00  0.00    -0.102 NA 
HETATM   27  H   UNL     1      -8.411   6.429  68.521  1.00  0.00     0.000 HD 
BRANCH  26  28
HETATM   28  C   UNL     1      -8.392   4.328  68.071  1.00  0.00    -0.094 A  
HETATM   29  N   UNL     1      -7.701   4.396  66.907  1.00  0.00    -0.092 NA 
HETATM   30  C   UNL     1      -7.575   3.226  66.228  1.00  0.00    -0.077 A  
HETATM   31  C   UNL     1      -8.120   2.031  66.670  1.00  0.00    -0.079 A  
HETATM   32  N   UNL     1      -8.820   1.943  67.818  1.00  0.00    -0.108 NA 
HETATM   33  C   UNL     1      -8.948   3.113  68.494  1.00  0.00    -0.137 A  
ENDBRANCH  26  28
ENDBRANCH  23  26
ENDBRANCH  21  22
ENDBRANCH  17  20
ENDBRANCH  10  15
TORSDOF 5
ENDMDL
MODEL      161
REMARK 921   NORMALIZED FREE ENERGY PREDICTED BY IDOCK:   -5.88 KCAL/MOL
REMARK 922        TOTAL FREE ENERGY PREDICTED BY IDOCK:   -8.87 KCAL/MOL
REMARK 923 INTER-LIGAND FREE ENERGY PREDICTED BY IDOCK:   -7.06 KCAL/MOL
REMARK 924 INTRA-LIGAND FREE ENERGY PREDICTED BY IDOCK:   -1.81 KCAL/MOL
REMARK 927      BINDING AFFINITY PREDICTED BY RF-SCORE:    0.00 PKD
ROOT
HETATM    1  F   UNL     1     -13.753  10.325  72.657  1.00  0.00    -0.329 F  
HETATM    2  C   UNL     1     -13.001   9.484  71.893  1.00  0.00    -0.425 C  
HETATM    3  F   UNL     1     -12.130   8.883  72.748  1.00  0.00    -0.380 F  
HETATM    4  F   UNL     1     -13.851   8.507  71.471  1.00  0.00    -0.366 F  
HETATM    5  C   UNL     1     -12.304  10.176  70.747  1.00  0.00    -0.422 A  
HETATM    6  C   UNL     1     -12.447  11.553  70.518  1.00  0.00    -0.367 A  
HETATM    7  C   UNL     1     -11.782  12.182  69.453  1.00  0.00    -0.391 A  
HETATM    8  C   UNL     1     -11.930  13.668  69.220  1.00  0.00    -0.336 C  
HETATM    9  C   UNL     1     -10.967  11.411  68.600  1.00  0.00    -0.267 A  
HETATM   10  C   UNL     1     -10.817  10.033  68.802  1.00  0.00    -0.252 A  
HETATM   11  F   UNL     1     -12.435  13.957  67.987  1.00  0.00    -0.341 F  
HETATM   12  F   UNL     1     -12.759  14.276  70.113  1.00  0.00    -0.379 F  
HETATM   13  F   UNL     1     -10.744  14.330  69.307  1.00  0.00    -0.231 F  
HETATM   14  C   UNL     1     -11.486   9.433  69.881  1.00  0.00    -0.054 A  
ENDROOT
BRANCH  10  15
HETATM   15  C   UNL     1      -9.974   9.206  67.937  1.00  0.00    -0.186 A  
HETATM   16  N   UNL     1      -8.636   9.152  67.979  1.00  0.00    -0.125 NA 
HETATM   17  N   UNL     1      -8.329   8.146  67.102  1.00  0.00    -0.119 NA 
HETATM   18  N   UNL     1     -10.532   8.414  66.973  1.00  0.00    -0.318 NA 
HETATM   19  C   UNL     1      -9.500   7.797  66.459  1.00  0.00    -0.201 A  
BRANCH  17  20
HETATM   20  C   UNL     1      -7.027   7.675  66.871  1.00  0.00    -0.079 C  
HETATM   21  C   UNL     1      -6.243   6.828  67.566  1.00  0.00    -0.040 C  
BRANCH  21  22
HETATM   22  C   UNL     1      -6.515   6.296  68.923  1.00  0.00    -0.043 C  
HETATM   23  N   UNL     1      -7.284   7.095  69.736  1.00  0.00    -0.077 N  
HETATM   24  O   UNL     1      -6.126   5.193  69.298  1.00  0.00    -0.022 OA 
HETATM   25  H   UNL     1      -7.692   7.971  69.410  1.00  0.00     0.000 HD 
BRANCH  23  26
HETATM   26  N   UNL     1      -7.470   6.618  71.055  1.00  0.00    -0.083 NA 
HETATM   27  H   UNL     1      -6.703   6.511  71.718  1.00  0.00     0.000 HD 
BRANCH  26  28
HETATM   28  C   UNL     1      -8.814   6.303  71.375  1.00  0.00    -0.139 A  
HETATM   29  N   UNL     1      -9.771   6.258  70.416  1.00  0.00    -0.164 NA 
HETATM   30  C   UNL     1     -11.036   6.024  70.856  1.00  0.00    -0.289 A  
HETATM   31  C   UNL     1     -11.352   5.855  72.195  1.00  0.00    -0.288 A  
HETATM   32  N   UNL     1     -10.418   5.907  73.165  1.00  0.00    -0.214 NA 
HETATM   33  C   UNL     1      -9.156   6.143  72.724  1.00  0.00    -0.128 A  
ENDBRANCH  26  28
ENDBRANCH  23  26
ENDBRANCH  21  22
ENDBRANCH  17  20
ENDBRANCH  10  15
TORSDOF 5
ENDMDL
MODEL      162
REMARK 921   NORMALIZED FREE ENERGY PREDICTED BY IDOCK:   -5.87 KCAL/MOL
REMARK 922        TOTAL FREE ENERGY PREDICTED BY IDOCK:   -8.85 KCAL/MOL
REMARK 923 INTER-LIGAND FREE ENERGY PREDICTED BY IDOCK:   -8.04 KCAL/MOL
REMARK 924 INTRA-LIGAND FREE ENERGY PREDICTED BY IDOCK:   -0.81 KCAL/MOL
REMARK 927      BINDING AFFINITY PREDICTED BY RF-SCORE:    0.00 PKD
ROOT
HETATM    1  F   UNL     1     -12.695  14.346  64.570  1.00  0.00    -0.410 F  
HETATM    2  C   UNL     1     -12.258  13.092  64.266  1.00  0.00    -0.396 C  
HETATM    3  F   UNL     1     -13.315  12.265  64.493  1.00  0.00    -0.455 F  
HETATM    4  F   UNL     1     -12.055  13.086  62.920  1.00  0.00    -0.584 F  
HETATM    5  C   UNL     1     -11.026  12.682  65.037  1.00  0.00    -0.323 A  
HETATM    6  C   UNL     1     -10.414  13.541  65.962  1.00  0.00    -0.299 A  
HETATM    7  C   UNL     1      -9.274  13.138  66.679  1.00  0.00    -0.220 A  
HETATM    8  C   UNL     1      -8.628  14.063  67.683  1.00  0.00    -0.188 C  
HETATM    9  C   UNL     1      -8.739  11.854  66.452  1.00  0.00    -0.118 A  
HETATM   10  C   UNL     1      -9.327  10.983  65.526  1.00  0.00    -0.242 A  
HETATM   11  F   UNL     1      -7.326  14.334  67.384  1.00  0.00    -0.166 F  
HETATM   12  F   UNL     1      -9.246  15.272  67.782  1.00  0.00    -0.182 F  
HETATM   13  F   UNL     1      -8.625  13.545  68.942  1.00  0.00    -0.096 F  
HETATM   14  C   UNL     1     -10.471  11.410  64.832  1.00  0.00    -0.363 A  
ENDROOT
BRANCH  10  15
HETATM   15  C   UNL     1      -8.797   9.643  65.273  1.00  0.00    -0.171 A  
HETATM   16  N   UNL     1      -8.664   8.675  66.190  1.00  0.00    -0.146 NA 
HETATM   17  N   UNL     1      -8.279   7.586  65.453  1.00  0.00    -0.133 NA 
HETATM   18  N   UNL     1      -8.368   9.288  64.025  1.00  0.00    -0.168 NA 
HETATM   19  C   UNL     1      -8.031   8.032  64.169  1.00  0.00    -0.137 A  
BRANCH  17  20
HETATM   20  C   UNL     1      -8.091   6.302  65.987  1.00  0.00    -0.119 C  
HETATM   21  C   UNL     1      -8.895   5.510  66.722  1.00  0.00    -0.114 C  
BRANCH  21  22
HETATM   22  C   UNL     1     -10.187   5.900  67.336  1.00  0.00    -0.194 C  
HETATM   23  N   UNL     1     -10.203   5.958  68.709  1.00  0.00    -0.171 N  
HETATM   24  O   UNL     1     -11.177   6.200  66.674  1.00  0.00    -0.232 OA 
HETATM   25  H   UNL     1      -9.366   5.801  69.271  1.00  0.00     0.000 HD 
BRANCH  23  26
HETATM   26  N   UNL     1     -11.460   6.250  69.290  1.00  0.00    -0.558 NA 
HETATM   27  H   UNL     1     -12.340   6.143  68.787  1.00  0.00     0.000 HD 
BRANCH  26  28
HETATM   28  C   UNL     1     -11.389   6.704  70.630  1.00  0.00    -0.347 A  
HETATM   29  N   UNL     1     -11.876   7.919  70.986  1.00  0.00    -0.288 NA 
HETATM   30  C   UNL     1     -11.677   8.276  72.282  1.00  0.00    -0.388 A  
HETATM   31  C   UNL     1     -11.011   7.474  73.195  1.00  0.00    -0.367 A  
HETATM   32  N   UNL     1     -10.509   6.269  72.859  1.00  0.00    -0.207 NA 
HETATM   33  C   UNL     1     -10.706   5.915  71.564  1.00  0.00    -0.256 A  
ENDBRANCH  26  28
ENDBRANCH  23  26
ENDBRANCH  21  22
ENDBRANCH  17  20
ENDBRANCH  10  15
TORSDOF 5
ENDMDL
MODEL      163
REMARK 921   NORMALIZED FREE ENERGY PREDICTED BY IDOCK:   -5.87 KCAL/MOL
REMARK 922        TOTAL FREE ENERGY PREDICTED BY IDOCK:   -8.85 KCAL/MOL
REMARK 923 INTER-LIGAND FREE ENERGY PREDICTED BY IDOCK:   -8.21 KCAL/MOL
REMARK 924 INTRA-LIGAND FREE ENERGY PREDICTED BY IDOCK:   -0.64 KCAL/MOL
REMARK 927      BINDING AFFINITY PREDICTED BY RF-SCORE:    0.00 PKD
ROOT
HETATM    1  F   UNL     1      -9.528   6.452  72.754  1.00  0.00    -0.145 F  
HETATM    2  C   UNL     1      -9.879   7.759  72.591  1.00  0.00    -0.225 C  
HETATM    3  F   UNL     1     -10.966   7.953  73.385  1.00  0.00    -0.418 F  
HETATM    4  F   UNL     1      -8.870   8.485  73.145  1.00  0.00    -0.292 F  
HETATM    5  C   UNL     1     -10.137   8.135  71.152  1.00  0.00    -0.222 A  
HETATM    6  C   UNL     1     -10.011   7.204  70.110  1.00  0.00    -0.190 A  
HETATM    7  C   UNL     1     -10.266   7.571  68.778  1.00  0.00    -0.206 A  
HETATM    8  C   UNL     1     -10.140   6.559  67.662  1.00  0.00    -0.147 C  
HETATM    9  C   UNL     1     -10.647   8.896  68.491  1.00  0.00    -0.183 A  
HETATM   10  C   UNL     1     -10.771   9.846  69.513  1.00  0.00    -0.265 A  
HETATM   11  F   UNL     1      -9.229   6.931  66.719  1.00  0.00    -0.131 F  
HETATM   12  F   UNL     1      -9.750   5.327  68.090  1.00  0.00    -0.133 F  
HETATM   13  F   UNL     1     -11.313   6.367  66.998  1.00  0.00    -0.425 F  
HETATM   14  C   UNL     1     -10.518   9.449  70.836  1.00  0.00    -0.381 A  
ENDROOT
BRANCH  10  15
HETATM   15  C   UNL     1     -11.169  11.229  69.248  1.00  0.00    -0.272 A  
HETATM   16  N   UNL     1     -11.052  11.858  68.070  1.00  0.00    -0.223 NA 
HETATM   17  N   UNL     1     -11.688  13.053  68.281  1.00  0.00    -0.335 NA 
HETATM   18  N   UNL     1     -11.693  12.006  70.242  1.00  0.00    -0.251 NA 
HETATM   19  C   UNL     1     -11.977  13.126  69.629  1.00  0.00    -0.306 A  
BRANCH  17  20
HETATM   20  C   UNL     1     -11.884  14.024  67.288  1.00  0.00    -0.411 C  
HETATM   21  C   UNL     1     -11.361  15.255  67.120  1.00  0.00    -0.247 C  
BRANCH  21  22
HETATM   22  C   UNL     1     -10.538  15.999  68.104  1.00  0.00    -0.286 C  
HETATM   23  N   UNL     1      -9.222  16.194  67.756  1.00  0.00    -0.202 N  
HETATM   24  O   UNL     1     -10.996  16.458  69.146  1.00  0.00    -0.303 OA 
HETATM   25  H   UNL     1      -8.847  15.899  66.854  1.00  0.00     0.000 HD 
BRANCH  23  26
HETATM   26  N   UNL     1      -8.423  16.831  68.735  1.00  0.00    -0.255 NA 
HETATM   27  H   UNL     1      -8.249  16.428  69.655  1.00  0.00     0.000 HD 
BRANCH  26  28
HETATM   28  C   UNL     1      -7.887  18.077  68.326  1.00  0.00    -0.288 A  
HETATM   29  N   UNL     1      -6.905  18.685  69.036  1.00  0.00    -0.280 NA 
HETATM   30  C   UNL     1      -6.530  19.913  68.590  1.00  0.00    -0.291 A  
HETATM   31  C   UNL     1      -7.108  20.529  67.491  1.00  0.00    -0.326 A  
HETATM   32  N   UNL     1      -8.092  19.946  66.778  1.00  0.00    -0.302 NA 
HETATM   33  C   UNL     1      -8.468  18.722  67.226  1.00  0.00    -0.270 A  
ENDBRANCH  26  28
ENDBRANCH  23  26
ENDBRANCH  21  22
ENDBRANCH  17  20
ENDBRANCH  10  15
TORSDOF 5
ENDMDL
MODEL      164
REMARK 921   NORMALIZED FREE ENERGY PREDICTED BY IDOCK:   -5.86 KCAL/MOL
REMARK 922        TOTAL FREE ENERGY PREDICTED BY IDOCK:   -8.83 KCAL/MOL
REMARK 923 INTER-LIGAND FREE ENERGY PREDICTED BY IDOCK:   -8.09 KCAL/MOL
REMARK 924 INTRA-LIGAND FREE ENERGY PREDICTED BY IDOCK:   -0.74 KCAL/MOL
REMARK 927      BINDING AFFINITY PREDICTED BY RF-SCORE:    0.00 PKD
ROOT
HETATM    1  F   UNL     1      -8.651   7.378  69.912  1.00  0.00    -0.133 F  
HETATM    2  C   UNL     1      -8.757   8.560  69.242  1.00  0.00    -0.133 C  
HETATM    3  F   UNL     1      -7.631   9.261  69.544  1.00  0.00    -0.069 F  
HETATM    4  F   UNL     1      -8.664   8.246  67.920  1.00  0.00    -0.130 F  
HETATM    5  C   UNL     1     -10.019   9.322  69.566  1.00  0.00    -0.194 A  
HETATM    6  C   UNL     1     -10.971   8.826  70.469  1.00  0.00    -0.272 A  
HETATM    7  C   UNL     1     -12.135   9.554  70.767  1.00  0.00    -0.305 A  
HETATM    8  C   UNL     1     -13.149   9.019  71.750  1.00  0.00    -0.381 C  
HETATM    9  C   UNL     1     -12.346  10.798  70.139  1.00  0.00    -0.401 A  
HETATM   10  C   UNL     1     -11.415  11.310  69.226  1.00  0.00    -0.369 A  
HETATM   11  F   UNL     1     -14.385   8.865  71.196  1.00  0.00    -0.429 F  
HETATM   12  F   UNL     1     -12.817   7.803  72.263  1.00  0.00    -0.286 F  
HETATM   13  F   UNL     1     -13.318   9.840  72.823  1.00  0.00    -0.380 F  
HETATM   14  C   UNL     1     -10.256  10.564  68.956  1.00  0.00    -0.233 A  
ENDROOT
BRANCH  10  15
HETATM   15  C   UNL     1     -11.604  12.600  68.562  1.00  0.00    -0.323 A  
HETATM   16  N   UNL     1     -11.751  13.779  69.182  1.00  0.00    -0.310 NA 
HETATM   17  N   UNL     1     -11.741  14.684  68.155  1.00  0.00    -0.331 NA 
HETATM   18  N   UNL     1     -11.663  12.679  67.199  1.00  0.00    -0.366 NA 
HETATM   19  C   UNL     1     -11.774  13.963  66.977  1.00  0.00    -0.397 A  
BRANCH  17  20
HETATM   20  C   UNL     1     -11.794  16.075  68.333  1.00  0.00    -0.062 C  
HETATM   21  C   UNL     1     -10.896  17.047  68.078  1.00  0.00    -0.330 C  
BRANCH  21  22
HETATM   22  C   UNL     1      -9.478  16.851  67.690  1.00  0.00    -0.241 C  
HETATM   23  N   UNL     1      -9.089  17.456  66.519  1.00  0.00    -0.261 N  
HETATM   24  O   UNL     1      -8.677  16.229  68.382  1.00  0.00    -0.190 OA 
HETATM   25  H   UNL     1      -9.717  18.052  65.978  1.00  0.00     0.000 HD 
BRANCH  23  26
HETATM   26  N   UNL     1      -7.759  17.196  66.114  1.00  0.00    -0.395 NA 
HETATM   27  H   UNL     1      -7.470  16.312  65.696  1.00  0.00     0.000 HD 
BRANCH  26  28
HETATM   28  C   UNL     1      -6.863  18.270  66.338  1.00  0.00    -0.226 A  
HETATM   29  N   UNL     1      -6.150  18.361  67.488  1.00  0.00    -0.172 NA 
HETATM   30  C   UNL     1      -5.387  19.477  67.622  1.00  0.00    -0.177 A  
HETATM   31  C   UNL     1      -5.335  20.478  66.665  1.00  0.00    -0.167 A  
HETATM   32  N   UNL     1      -6.044  20.414  65.520  1.00  0.00    -0.208 NA 
HETATM   33  C   UNL     1      -6.808  19.300  65.389  1.00  0.00    -0.220 A  
ENDBRANCH  26  28
ENDBRANCH  23  26
ENDBRANCH  21  22
ENDBRANCH  17  20
ENDBRANCH  10  15
TORSDOF 5
ENDMDL
MODEL      165
REMARK 921   NORMALIZED FREE ENERGY PREDICTED BY IDOCK:   -5.86 KCAL/MOL
REMARK 922        TOTAL FREE ENERGY PREDICTED BY IDOCK:   -8.83 KCAL/MOL
REMARK 923 INTER-LIGAND FREE ENERGY PREDICTED BY IDOCK:   -7.35 KCAL/MOL
REMARK 924 INTRA-LIGAND FREE ENERGY PREDICTED BY IDOCK:   -1.48 KCAL/MOL
REMARK 927      BINDING AFFINITY PREDICTED BY RF-SCORE:    0.00 PKD
ROOT
HETATM    1  F   UNL     1     -10.516   5.284  70.628  1.00  0.00    -0.295 F  
HETATM    2  C   UNL     1     -10.723   5.910  69.435  1.00  0.00    -0.336 C  
HETATM    3  F   UNL     1     -10.777   4.922  68.501  1.00  0.00    -0.108 F  
HETATM    4  F   UNL     1     -11.978   6.434  69.504  1.00  0.00    -0.441 F  
HETATM    5  C   UNL     1      -9.679   6.953  69.117  1.00  0.00    -0.155 A  
HETATM    6  C   UNL     1      -8.619   7.229  69.992  1.00  0.00    -0.140 A  
HETATM    7  C   UNL     1      -7.650   8.196  69.674  1.00  0.00    -0.099 A  
HETATM    8  C   UNL     1      -6.503   8.478  70.615  1.00  0.00    -0.038 C  
HETATM    9  C   UNL     1      -7.758   8.901  68.459  1.00  0.00    -0.098 A  
HETATM   10  C   UNL     1      -8.813   8.651  67.573  1.00  0.00    -0.139 A  
HETATM   11  F   UNL     1      -6.469   9.778  71.024  1.00  0.00    -0.085 F  
HETATM   12  F   UNL     1      -6.540   7.732  71.754  1.00  0.00    -0.041 F  
HETATM   13  F   UNL     1      -5.290   8.229  70.049  1.00  0.00    -0.023 F  
HETATM   14  C   UNL     1      -9.761   7.672  67.913  1.00  0.00    -0.174 A  
ENDROOT
BRANCH  10  15
HETATM   15  C   UNL     1      -8.949   9.363  66.302  1.00  0.00    -0.156 A  
HETATM   16  N   UNL     1     -10.105   9.608  65.668  1.00  0.00    -0.256 NA 
HETATM   17  N   UNL     1      -9.734  10.417  64.627  1.00  0.00    -0.305 NA 
HETATM   18  N   UNL     1      -7.846   9.827  65.643  1.00  0.00    -0.110 NA 
HETATM   19  C   UNL     1      -8.353  10.445  64.607  1.00  0.00    -0.155 A  
BRANCH  17  20
HETATM   20  C   UNL     1     -10.636  10.995  63.722  1.00  0.00    -0.295 C  
HETATM   21  C   UNL     1     -11.582  11.942  63.879  1.00  0.00    -0.515 C  
BRANCH  21  22
HETATM   22  C   UNL     1     -12.051  12.507  65.167  1.00  0.00    -0.446 C  
HETATM   23  N   UNL     1     -11.180  12.388  66.224  1.00  0.00    -0.300 N  
HETATM   24  O   UNL     1     -13.125  13.089  65.289  1.00  0.00    -0.689 OA 
HETATM   25  H   UNL     1     -10.247  11.989  66.120  1.00  0.00     0.000 HD 
BRANCH  23  26
HETATM   26  N   UNL     1     -11.667  12.855  67.467  1.00  0.00    -0.358 NA 
HETATM   27  H   UNL     1     -12.466  12.436  67.942  1.00  0.00     0.000 HD 
BRANCH  26  28
HETATM   28  C   UNL     1     -10.949  13.957  67.996  1.00  0.00    -0.251 A  
HETATM   29  N   UNL     1      -9.655  13.832  68.380  1.00  0.00    -0.215 NA 
HETATM   30  C   UNL     1      -9.099  14.935  68.946  1.00  0.00    -0.191 A  
HETATM   31  C   UNL     1      -9.795  16.118  69.141  1.00  0.00    -0.250 A  
HETATM   32  N   UNL     1     -11.085  16.260  68.777  1.00  0.00    -0.343 NA 
HETATM   33  C   UNL     1     -11.639  15.157  68.214  1.00  0.00    -0.339 A  
ENDBRANCH  26  28
ENDBRANCH  23  26
ENDBRANCH  21  22
ENDBRANCH  17  20
ENDBRANCH  10  15
TORSDOF 5
ENDMDL
MODEL      166
REMARK 921   NORMALIZED FREE ENERGY PREDICTED BY IDOCK:   -5.85 KCAL/MOL
REMARK 922        TOTAL FREE ENERGY PREDICTED BY IDOCK:   -8.83 KCAL/MOL
REMARK 923 INTER-LIGAND FREE ENERGY PREDICTED BY IDOCK:   -7.22 KCAL/MOL
REMARK 924 INTRA-LIGAND FREE ENERGY PREDICTED BY IDOCK:   -1.60 KCAL/MOL
REMARK 927      BINDING AFFINITY PREDICTED BY RF-SCORE:    0.00 PKD
ROOT
HETATM    1  F   UNL     1     -13.754  10.319  72.635  1.00  0.00    -0.329 F  
HETATM    2  C   UNL     1     -13.015   9.495  71.840  1.00  0.00    -0.425 C  
HETATM    3  F   UNL     1     -12.148   8.856  72.672  1.00  0.00    -0.413 F  
HETATM    4  F   UNL     1     -13.877   8.543  71.390  1.00  0.00    -0.372 F  
HETATM    5  C   UNL     1     -12.313  10.217  70.715  1.00  0.00    -0.422 A  
HETATM    6  C   UNL     1     -12.441  11.602  70.533  1.00  0.00    -0.344 A  
HETATM    7  C   UNL     1     -11.771  12.258  69.487  1.00  0.00    -0.398 A  
HETATM    8  C   UNL     1     -11.903  13.752  69.304  1.00  0.00    -0.344 C  
HETATM    9  C   UNL     1     -10.968  11.506  68.606  1.00  0.00    -0.270 A  
HETATM   10  C   UNL     1     -10.833  10.121  68.762  1.00  0.00    -0.259 A  
HETATM   11  F   UNL     1     -12.407  14.088  68.083  1.00  0.00    -0.385 F  
HETATM   12  F   UNL     1     -12.722  14.340  70.219  1.00  0.00    -0.377 F  
HETATM   13  F   UNL     1     -10.708  14.398  69.408  1.00  0.00    -0.238 F  
HETATM   14  C   UNL     1     -11.507   9.493  69.823  1.00  0.00    -0.048 A  
ENDROOT
BRANCH  10  15
HETATM   15  C   UNL     1     -10.003   9.313  67.868  1.00  0.00    -0.187 A  
HETATM   16  N   UNL     1      -9.843   9.526  66.554  1.00  0.00    -0.221 NA 
HETATM   17  N   UNL     1      -8.877   8.623  66.199  1.00  0.00    -0.160 NA 
HETATM   18  N   UNL     1      -9.322   8.228  68.341  1.00  0.00    -0.135 NA 
HETATM   19  C   UNL     1      -8.662   7.807  67.293  1.00  0.00    -0.128 A  
BRANCH  17  20
HETATM   20  C   UNL     1      -8.323   8.529  64.913  1.00  0.00    -0.160 C  
HETATM   21  C   UNL     1      -7.279   9.158  64.338  1.00  0.00    -0.099 C  
BRANCH  21  22
HETATM   22  C   UNL     1      -6.528  10.305  64.902  1.00  0.00    -0.113 C  
HETATM   23  N   UNL     1      -7.108  10.927  65.982  1.00  0.00    -0.283 N  
HETATM   24  O   UNL     1      -5.434  10.661  64.474  1.00  0.00    -0.143 OA 
HETATM   25  H   UNL     1      -7.971  10.588  66.408  1.00  0.00     0.000 HD 
BRANCH  23  26
HETATM   26  N   UNL     1      -6.427  12.070  66.462  1.00  0.00    -0.441 NA 
HETATM   27  H   UNL     1      -6.172  12.855  65.864  1.00  0.00     0.000 HD 
BRANCH  26  28
HETATM   28  C   UNL     1      -6.130  12.030  67.847  1.00  0.00    -0.062 A  
HETATM   29  N   UNL     1      -5.799  10.867  68.460  1.00  0.00    -0.043 NA 
HETATM   30  C   UNL     1      -5.615  10.942  69.805  1.00  0.00    -0.046 A  
HETATM   31  C   UNL     1      -5.765  12.116  70.526  1.00  0.00    -0.160 A  
HETATM   32  N   UNL     1      -6.105  13.280  69.938  1.00  0.00    -0.132 NA 
HETATM   33  C   UNL     1      -6.291  13.204  68.596  1.00  0.00    -0.083 A  
ENDBRANCH  26  28
ENDBRANCH  23  26
ENDBRANCH  21  22
ENDBRANCH  17  20
ENDBRANCH  10  15
TORSDOF 5
ENDMDL
MODEL      167
REMARK 921   NORMALIZED FREE ENERGY PREDICTED BY IDOCK:   -5.81 KCAL/MOL
REMARK 922        TOTAL FREE ENERGY PREDICTED BY IDOCK:   -8.77 KCAL/MOL
REMARK 923 INTER-LIGAND FREE ENERGY PREDICTED BY IDOCK:   -7.67 KCAL/MOL
REMARK 924 INTRA-LIGAND FREE ENERGY PREDICTED BY IDOCK:   -1.10 KCAL/MOL
REMARK 927      BINDING AFFINITY PREDICTED BY RF-SCORE:    0.00 PKD
ROOT
HETATM    1  F   UNL     1      -5.870  11.302  71.001  1.00  0.00    -0.116 F  
HETATM    2  C   UNL     1      -6.186  11.438  69.682  1.00  0.00    -0.118 C  
HETATM    3  F   UNL     1      -6.190  12.776  69.437  1.00  0.00    -0.084 F  
HETATM    4  F   UNL     1      -5.127  10.930  68.993  1.00  0.00    -0.042 F  
HETATM    5  C   UNL     1      -7.489  10.775  69.306  1.00  0.00    -0.135 A  
HETATM    6  C   UNL     1      -8.268  10.089  70.249  1.00  0.00     0.012 A  
HETATM    7  C   UNL     1      -9.484   9.488  69.883  1.00  0.00    -0.247 A  
HETATM    8  C   UNL     1     -10.325   8.761  70.907  1.00  0.00    -0.223 C  
HETATM    9  C   UNL     1      -9.917   9.573  68.545  1.00  0.00    -0.184 A  
HETATM   10  C   UNL     1      -9.151  10.244  67.583  1.00  0.00    -0.144 A  
HETATM   11  F   UNL     1     -10.535   7.454  70.580  1.00  0.00    -0.208 F  
HETATM   12  F   UNL     1      -9.772   8.748  72.151  1.00  0.00    -0.326 F  
HETATM   13  F   UNL     1     -11.559   9.315  71.056  1.00  0.00    -0.293 F  
HETATM   14  C   UNL     1      -7.945  10.844  67.980  1.00  0.00    -0.109 A  
ENDROOT
BRANCH  10  15
HETATM   15  C   UNL     1      -9.576  10.354  66.187  1.00  0.00    -0.196 A  
HETATM   16  N   UNL     1     -10.392  11.298  65.695  1.00  0.00    -0.249 NA 
HETATM   17  N   UNL     1     -10.365  11.072  64.345  1.00  0.00    -0.339 NA 
HETATM   18  N   UNL     1      -9.160   9.442  65.259  1.00  0.00    -0.221 NA 
HETATM   19  C   UNL     1      -9.679   9.890  64.145  1.00  0.00    -0.001 A  
BRANCH  17  20
HETATM   20  C   UNL     1     -11.022  11.875  63.401  1.00  0.00    -0.395 C  
HETATM   21  C   UNL     1     -11.743  13.006  63.532  1.00  0.00    -0.532 C  
BRANCH  21  22
HETATM   22  C   UNL     1     -12.196  13.614  64.806  1.00  0.00    -0.403 C  
HETATM   23  N   UNL     1     -11.201  14.061  65.643  1.00  0.00    -0.306 N  
HETATM   24  O   UNL     1     -13.381  13.760  65.092  1.00  0.00    -0.688 OA 
HETATM   25  H   UNL     1     -10.215  14.032  65.381  1.00  0.00     0.000 HD 
BRANCH  23  26
HETATM   26  N   UNL     1     -11.637  14.564  66.890  1.00  0.00    -0.375 NA 
HETATM   27  H   UNL     1     -12.370  14.119  67.441  1.00  0.00     0.000 HD 
BRANCH  26  28
HETATM   28  C   UNL     1     -10.967  15.740  67.309  1.00  0.00    -0.259 A  
HETATM   29  N   UNL     1      -9.988  16.297  66.554  1.00  0.00    -0.263 NA 
HETATM   30  C   UNL     1      -9.365  17.375  67.099  1.00  0.00    -0.245 A  
HETATM   31  C   UNL     1      -9.682  17.881  68.350  1.00  0.00    -0.340 A  
HETATM   32  N   UNL     1     -10.644  17.336  69.121  1.00  0.00    -0.287 NA 
HETATM   33  C   UNL     1     -11.263  16.258  68.577  1.00  0.00    -0.359 A  
ENDBRANCH  26  28
ENDBRANCH  23  26
ENDBRANCH  21  22
ENDBRANCH  17  20
ENDBRANCH  10  15
TORSDOF 5
ENDMDL
MODEL      168
REMARK 921   NORMALIZED FREE ENERGY PREDICTED BY IDOCK:   -5.78 KCAL/MOL
REMARK 922        TOTAL FREE ENERGY PREDICTED BY IDOCK:   -8.73 KCAL/MOL
REMARK 923 INTER-LIGAND FREE ENERGY PREDICTED BY IDOCK:   -7.95 KCAL/MOL
REMARK 924 INTRA-LIGAND FREE ENERGY PREDICTED BY IDOCK:   -0.78 KCAL/MOL
REMARK 927      BINDING AFFINITY PREDICTED BY RF-SCORE:    0.00 PKD
ROOT
HETATM    1  F   UNL     1     -10.651  17.545  69.646  1.00  0.00    -0.300 F  
HETATM    2  C   UNL     1     -10.633  17.007  68.395  1.00  0.00    -0.375 C  
HETATM    3  F   UNL     1     -11.383  17.839  67.621  1.00  0.00    -0.198 F  
HETATM    4  F   UNL     1      -9.351  17.135  67.955  1.00  0.00    -0.234 F  
HETATM    5  C   UNL     1     -11.119  15.578  68.349  1.00  0.00    -0.315 A  
HETATM    6  C   UNL     1     -11.534  14.902  69.505  1.00  0.00    -0.325 A  
HETATM    7  C   UNL     1     -11.993  13.575  69.442  1.00  0.00    -0.383 A  
HETATM    8  C   UNL     1     -12.450  12.857  70.690  1.00  0.00    -0.252 C  
HETATM    9  C   UNL     1     -12.028  12.919  68.195  1.00  0.00    -0.306 A  
HETATM   10  C   UNL     1     -11.610  13.571  67.028  1.00  0.00    -0.394 A  
HETATM   11  F   UNL     1     -11.735  11.722  70.932  1.00  0.00    -0.340 F  
HETATM   12  F   UNL     1     -12.345  13.611  71.819  1.00  0.00    -0.356 F  
HETATM   13  F   UNL     1     -13.754  12.472  70.622  1.00  0.00     0.542 F  
HETATM   14  C   UNL     1     -11.165  14.900  67.121  1.00  0.00    -0.345 A  
ENDROOT
BRANCH  10  15
HETATM   15  C   UNL     1     -11.639  12.919  65.719  1.00  0.00    -0.368 A  
HETATM   16  N   UNL     1     -10.562  12.573  65.000  1.00  0.00    -0.291 NA 
HETATM   17  N   UNL     1     -11.091  11.872  63.948  1.00  0.00    -0.377 NA 
HETATM   18  N   UNL     1     -12.828  12.626  65.113  1.00  0.00    -0.743 NA 
HETATM   19  C   UNL     1     -12.463  12.010  64.018  1.00  0.00    -0.388 A  
BRANCH  17  20
HETATM   20  C   UNL     1     -10.322  11.240  62.959  1.00  0.00    -0.191 C  
HETATM   21  C   UNL     1      -9.301  10.365  63.039  1.00  0.00    -0.344 C  
BRANCH  21  22
HETATM   22  C   UNL     1      -8.579   9.971  64.273  1.00  0.00    -0.189 C  
HETATM   23  N   UNL     1      -8.939   8.761  64.816  1.00  0.00    -0.419 N  
HETATM   24  O   UNL     1      -7.681  10.648  64.766  1.00  0.00    -0.052 OA 
HETATM   25  H   UNL     1      -9.617   8.143  64.369  1.00  0.00     0.000 HD 
BRANCH  23  26
HETATM   26  N   UNL     1      -8.305   8.430  66.037  1.00  0.00    -0.118 NA 
HETATM   27  H   UNL     1      -7.406   7.952  66.082  1.00  0.00     0.000 HD 
BRANCH  26  28
HETATM   28  C   UNL     1      -9.028   8.820  67.191  1.00  0.00    -0.131 A  
HETATM   29  N   UNL     1     -10.087   8.098  67.634  1.00  0.00    -0.192 NA 
HETATM   30  C   UNL     1     -10.749   8.616  68.701  1.00  0.00    -0.051 A  
HETATM   31  C   UNL     1     -10.393   9.811  69.306  1.00  0.00    -0.215 A  
HETATM   32  N   UNL     1      -9.352  10.551  68.875  1.00  0.00    -0.179 NA 
HETATM   33  C   UNL     1      -8.693  10.033  67.807  1.00  0.00    -0.125 A  
ENDBRANCH  26  28
ENDBRANCH  23  26
ENDBRANCH  21  22
ENDBRANCH  17  20
ENDBRANCH  10  15
TORSDOF 5
ENDMDL
MODEL      169
REMARK 921   NORMALIZED FREE ENERGY PREDICTED BY IDOCK:   -5.77 KCAL/MOL
REMARK 922        TOTAL FREE ENERGY PREDICTED BY IDOCK:   -8.72 KCAL/MOL
REMARK 923 INTER-LIGAND FREE ENERGY PREDICTED BY IDOCK:   -7.70 KCAL/MOL
REMARK 924 INTRA-LIGAND FREE ENERGY PREDICTED BY IDOCK:   -1.02 KCAL/MOL
REMARK 927      BINDING AFFINITY PREDICTED BY RF-SCORE:    0.00 PKD
ROOT
HETATM    1  F   UNL     1     -10.971  16.751  66.460  1.00  0.00    -0.212 F  
HETATM    2  C   UNL     1     -10.619  15.828  67.398  1.00  0.00    -0.313 C  
HETATM    3  F   UNL     1      -9.300  16.045  67.656  1.00  0.00    -0.207 F  
HETATM    4  F   UNL     1     -11.288  16.177  68.531  1.00  0.00    -0.320 F  
HETATM    5  C   UNL     1     -10.901  14.406  66.977  1.00  0.00    -0.297 A  
HETATM    6  C   UNL     1     -11.478  14.105  65.734  1.00  0.00    -0.327 A  
HETATM    7  C   UNL     1     -11.724  12.774  65.355  1.00  0.00    -0.425 A  
HETATM    8  C   UNL     1     -12.334  12.456  64.010  1.00  0.00    -0.488 C  
HETATM    9  C   UNL     1     -11.389  11.734  66.243  1.00  0.00    -0.350 A  
HETATM   10  C   UNL     1     -10.821  12.010  67.493  1.00  0.00    -0.284 A  
HETATM   11  F   UNL     1     -13.507  11.770  64.116  1.00  0.00    -0.384 F  
HETATM   12  F   UNL     1     -12.617  13.562  63.268  1.00  0.00    -0.482 F  
HETATM   13  F   UNL     1     -11.518  11.690  63.235  1.00  0.00    -0.462 F  
HETATM   14  C   UNL     1     -10.578  13.349  67.842  1.00  0.00    -0.253 A  
ENDROOT
BRANCH  10  15
HETATM   15  C   UNL     1     -10.458  10.951  68.436  1.00  0.00    -0.183 A  
HETATM   16  N   UNL     1     -11.288  10.005  68.897  1.00  0.00    -0.129 NA 
HETATM   17  N   UNL     1     -10.463   9.177  69.612  1.00  0.00    -0.217 NA 
HETATM   18  N   UNL     1      -9.191  10.873  68.941  1.00  0.00    -0.181 NA 
HETATM   19  C   UNL     1      -9.229   9.794  69.680  1.00  0.00    -0.223 A  
BRANCH  17  20
HETATM   20  C   UNL     1     -10.884   7.987  70.225  1.00  0.00    -0.241 C  
HETATM   21  C   UNL     1     -10.399   6.731  70.173  1.00  0.00    -0.228 C  
BRANCH  21  22
HETATM   22  C   UNL     1      -9.345   6.236  69.255  1.00  0.00    -0.136 C  
HETATM   23  N   UNL     1      -9.524   6.530  67.924  1.00  0.00    -0.121 N  
HETATM   24  O   UNL     1      -8.346   5.639  69.646  1.00  0.00    -0.104 OA 
HETATM   25  H   UNL     1     -10.301   7.104  67.593  1.00  0.00     0.000 HD 
BRANCH  23  26
HETATM   26  N   UNL     1      -8.559   5.984  67.046  1.00  0.00    -0.108 NA 
HETATM   27  H   UNL     1      -7.558   6.132  67.164  1.00  0.00     0.000 HD 
BRANCH  26  28
HETATM   28  C   UNL     1      -9.105   5.214  65.989  1.00  0.00    -0.149 A  
HETATM   29  N   UNL     1      -8.331   4.781  64.964  1.00  0.00    -0.125 NA 
HETATM   30  C   UNL     1      -8.983   4.122  63.971  1.00  0.00    -0.141 A  
HETATM   31  C   UNL     1     -10.353   3.907  63.977  1.00  0.00    -0.218 A  
HETATM   32  N   UNL     1     -11.142   4.340  64.980  1.00  0.00    -0.151 NA 
HETATM   33  C   UNL     1     -10.490   5.000  65.970  1.00  0.00    -0.242 A  
ENDBRANCH  26  28
ENDBRANCH  23  26
ENDBRANCH  21  22
ENDBRANCH  17  20
ENDBRANCH  10  15
TORSDOF 5
ENDMDL
MODEL      170
REMARK 921   NORMALIZED FREE ENERGY PREDICTED BY IDOCK:   -5.77 KCAL/MOL
REMARK 922        TOTAL FREE ENERGY PREDICTED BY IDOCK:   -8.72 KCAL/MOL
REMARK 923 INTER-LIGAND FREE ENERGY PREDICTED BY IDOCK:   -7.24 KCAL/MOL
REMARK 924 INTRA-LIGAND FREE ENERGY PREDICTED BY IDOCK:   -1.47 KCAL/MOL
REMARK 927      BINDING AFFINITY PREDICTED BY RF-SCORE:    0.00 PKD
ROOT
HETATM    1  F   UNL     1     -10.511   6.070  71.278  1.00  0.00    -0.234 F  
HETATM    2  C   UNL     1     -11.249   7.050  70.684  1.00  0.00    -0.288 C  
HETATM    3  F   UNL     1     -11.911   6.447  69.660  1.00  0.00    -0.462 F  
HETATM    4  F   UNL     1     -12.199   7.401  71.594  1.00  0.00    -0.295 F  
HETATM    5  C   UNL     1     -10.424   8.229  70.227  1.00  0.00    -0.221 A  
HETATM    6  C   UNL     1      -9.036   8.278  70.420  1.00  0.00    -0.146 A  
HETATM    7  C   UNL     1      -8.282   9.379  69.979  1.00  0.00    -0.171 A  
HETATM    8  C   UNL     1      -6.785   9.419  70.178  1.00  0.00    -0.066 C  
HETATM    9  C   UNL     1      -8.940  10.449  69.341  1.00  0.00    -0.168 A  
HETATM   10  C   UNL     1     -10.327  10.427  69.145  1.00  0.00    -0.241 A  
HETATM   11  F   UNL     1      -6.384  10.494  70.915  1.00  0.00    -0.105 F  
HETATM   12  F   UNL     1      -6.295   8.325  70.822  1.00  0.00    -0.035 F  
HETATM   13  F   UNL     1      -6.104   9.493  69.002  1.00  0.00    -0.041 F  
HETATM   14  C   UNL     1     -11.052   9.309  69.589  1.00  0.00    -0.134 A  
ENDROOT
BRANCH  10  15
HETATM   15  C   UNL     1     -11.037  11.521  68.482  1.00  0.00    -0.236 A  
HETATM   16  N   UNL     1     -11.156  11.679  67.156  1.00  0.00    -0.282 NA 
HETATM   17  N   UNL     1     -12.018  12.736  67.035  1.00  0.00    -0.446 NA 
HETATM   18  N   UNL     1     -11.636  12.507  69.213  1.00  0.00    -0.302 NA 
HETATM   19  C   UNL     1     -12.206  13.253  68.302  1.00  0.00    -0.059 A  
BRANCH  17  20
HETATM   20  C   UNL     1     -12.501  13.220  65.810  1.00  0.00    -0.417 C  
HETATM   21  C   UNL     1     -12.043  14.179  64.981  1.00  0.00    -0.428 C  
BRANCH  21  22
HETATM   22  C   UNL     1     -10.952  15.140  65.270  1.00  0.00    -0.395 C  
HETATM   23  N   UNL     1      -9.810  14.602  65.815  1.00  0.00    -0.375 N  
HETATM   24  O   UNL     1     -11.028  16.336  65.004  1.00  0.00    -0.479 OA 
HETATM   25  H   UNL     1      -9.695  13.598  65.958  1.00  0.00     0.000 HD 
BRANCH  23  26
HETATM   26  N   UNL     1      -8.806  15.535  66.164  1.00  0.00    -0.419 NA 
HETATM   27  H   UNL     1      -8.763  16.475  65.771  1.00  0.00     0.000 HD 
BRANCH  26  28
HETATM   28  C   UNL     1      -7.865  15.051  67.106  1.00  0.00    -0.190 A  
HETATM   29  N   UNL     1      -7.733  13.723  67.347  1.00  0.00    -0.167 NA 
HETATM   30  C   UNL     1      -6.856  13.388  68.330  1.00  0.00    -0.106 A  
HETATM   31  C   UNL     1      -6.142  14.324  69.061  1.00  0.00    -0.092 A  
HETATM   32  N   UNL     1      -6.267  15.649  68.845  1.00  0.00    -0.106 NA 
HETATM   33  C   UNL     1      -7.145  15.983  67.866  1.00  0.00    -0.136 A  
ENDBRANCH  26  28
ENDBRANCH  23  26
ENDBRANCH  21  22
ENDBRANCH  17  20
ENDBRANCH  10  15
TORSDOF 5
ENDMDL
MODEL      171
REMARK 921   NORMALIZED FREE ENERGY PREDICTED BY IDOCK:   -5.74 KCAL/MOL
REMARK 922        TOTAL FREE ENERGY PREDICTED BY IDOCK:   -8.69 KCAL/MOL
REMARK 923 INTER-LIGAND FREE ENERGY PREDICTED BY IDOCK:   -8.14 KCAL/MOL
REMARK 924 INTRA-LIGAND FREE ENERGY PREDICTED BY IDOCK:   -0.54 KCAL/MOL
REMARK 927      BINDING AFFINITY PREDICTED BY RF-SCORE:    0.00 PKD
ROOT
HETATM    1  F   UNL     1     -13.116   8.613  72.480  1.00  0.00    -0.381 F  
HETATM    2  C   UNL     1     -13.104   9.742  71.716  1.00  0.00    -0.431 C  
HETATM    3  F   UNL     1     -14.174   9.637  70.881  1.00  0.00    -0.270 F  
HETATM    4  F   UNL     1     -13.385  10.767  72.565  1.00  0.00    -0.451 F  
HETATM    5  C   UNL     1     -11.807   9.948  70.971  1.00  0.00    -0.463 A  
HETATM    6  C   UNL     1     -10.737   9.048  71.087  1.00  0.00    -0.358 A  
HETATM    7  C   UNL     1      -9.541   9.251  70.378  1.00  0.00    -0.292 A  
HETATM    8  C   UNL     1      -8.398   8.270  70.497  1.00  0.00    -0.124 C  
HETATM    9  C   UNL     1      -9.419  10.382  69.547  1.00  0.00    -0.164 A  
HETATM   10  C   UNL     1     -10.469  11.300  69.423  1.00  0.00    -0.089 A  
HETATM   11  F   UNL     1      -7.254   8.852  70.956  1.00  0.00    -0.060 F  
HETATM   12  F   UNL     1      -8.656   7.237  71.346  1.00  0.00    -0.114 F  
HETATM   13  F   UNL     1      -8.076   7.697  69.305  1.00  0.00    -0.117 F  
HETATM   14  C   UNL     1     -11.656  11.066  70.136  1.00  0.00    -0.421 A  
ENDROOT
BRANCH  10  15
HETATM   15  C   UNL     1     -10.374  12.481  68.565  1.00  0.00    -0.222 A  
HETATM   16  N   UNL     1     -11.199  13.537  68.602  1.00  0.00    -0.262 NA 
HETATM   17  N   UNL     1     -10.621  14.426  67.735  1.00  0.00    -0.245 NA 
HETATM   18  N   UNL     1      -9.399  12.573  67.612  1.00  0.00    -0.183 NA 
HETATM   19  C   UNL     1      -9.589  13.762  67.101  1.00  0.00    -0.244 A  
BRANCH  17  20
HETATM   20  C   UNL     1     -11.101  15.724  67.505  1.00  0.00    -0.258 C  
HETATM   21  C   UNL     1     -10.486  16.846  67.081  1.00  0.00    -0.296 C  
BRANCH  21  22
HETATM   22  C   UNL     1      -9.025  17.037  66.919  1.00  0.00    -0.229 C  
HETATM   23  N   UNL     1      -8.333  17.356  68.064  1.00  0.00    -0.224 N  
HETATM   24  O   UNL     1      -8.446  16.879  65.848  1.00  0.00    -0.501 OA 
HETATM   25  H   UNL     1      -8.783  17.401  68.978  1.00  0.00     0.000 HD 
BRANCH  23  26
HETATM   26  N   UNL     1      -6.954  17.618  67.886  1.00  0.00    -0.184 NA 
HETATM   27  H   UNL     1      -6.412  17.230  67.115  1.00  0.00     0.000 HD 
BRANCH  26  28
HETATM   28  C   UNL     1      -6.392  18.464  68.874  1.00  0.00    -0.231 A  
HETATM   29  N   UNL     1      -6.290  19.802  68.676  1.00  0.00    -0.260 NA 
HETATM   30  C   UNL     1      -5.659  20.496  69.660  1.00  0.00    -0.347 A  
HETATM   31  C   UNL     1      -5.134  19.895  70.793  1.00  0.00    -0.221 A  
HETATM   32  N   UNL     1      -5.214  18.567  71.004  1.00  0.00    -0.281 NA 
HETATM   33  C   UNL     1      -5.841  17.874  70.020  1.00  0.00    -0.217 A  
ENDBRANCH  26  28
ENDBRANCH  23  26
ENDBRANCH  21  22
ENDBRANCH  17  20
ENDBRANCH  10  15
TORSDOF 5
ENDMDL
MODEL      172
REMARK 921   NORMALIZED FREE ENERGY PREDICTED BY IDOCK:   -5.73 KCAL/MOL
REMARK 922        TOTAL FREE ENERGY PREDICTED BY IDOCK:   -8.68 KCAL/MOL
REMARK 923 INTER-LIGAND FREE ENERGY PREDICTED BY IDOCK:   -7.87 KCAL/MOL
REMARK 924 INTRA-LIGAND FREE ENERGY PREDICTED BY IDOCK:   -0.80 KCAL/MOL
REMARK 927      BINDING AFFINITY PREDICTED BY RF-SCORE:    0.00 PKD
ROOT
HETATM    1  F   UNL     1      -9.602   2.764  70.222  1.00  0.00    -0.214 F  
HETATM    2  C   UNL     1      -9.169   3.565  69.209  1.00  0.00    -0.161 C  
HETATM    3  F   UNL     1      -7.809   3.529  69.261  1.00  0.00    -0.051 F  
HETATM    4  F   UNL     1      -9.520   2.930  68.057  1.00  0.00    -0.220 F  
HETATM    5  C   UNL     1      -9.714   4.971  69.282  1.00  0.00    -0.249 A  
HETATM    6  C   UNL     1     -10.586   5.373  70.304  1.00  0.00    -0.329 A  
HETATM    7  C   UNL     1     -11.075   6.689  70.362  1.00  0.00    -0.374 A  
HETATM    8  C   UNL     1     -12.004   7.119  71.474  1.00  0.00    -0.326 C  
HETATM    9  C   UNL     1     -10.685   7.611  69.370  1.00  0.00    -0.188 A  
HETATM   10  C   UNL     1      -9.823   7.230  68.334  1.00  0.00    -0.161 A  
HETATM   11  F   UNL     1     -13.201   7.577  71.008  1.00  0.00    -0.326 F  
HETATM   12  F   UNL     1     -12.303   6.119  72.347  1.00  0.00    -0.337 F  
HETATM   13  F   UNL     1     -11.484   8.126  72.228  1.00  0.00    -0.317 F  
HETATM   14  C   UNL     1      -9.343   5.911  68.307  1.00  0.00    -0.118 A  
ENDROOT
BRANCH  10  15
HETATM   15  C   UNL     1      -9.397   8.165  67.292  1.00  0.00    -0.141 A  
HETATM   16  N   UNL     1     -10.210   8.786  66.425  1.00  0.00    -0.259 NA 
HETATM   17  N   UNL     1      -9.376   9.652  65.769  1.00  0.00    -0.208 NA 
HETATM   18  N   UNL     1      -8.074   8.461  67.121  1.00  0.00    -0.104 NA 
HETATM   19  C   UNL     1      -8.087   9.353  66.165  1.00  0.00    -0.111 A  
BRANCH  17  20
HETATM   20  C   UNL     1      -9.806  10.579  64.807  1.00  0.00    -0.323 C  
HETATM   21  C   UNL     1     -10.377  11.794  64.923  1.00  0.00    -0.334 C  
BRANCH  21  22
HETATM   22  C   UNL     1     -10.887  12.406  66.174  1.00  0.00    -0.273 C  
HETATM   23  N   UNL     1     -10.111  13.408  66.708  1.00  0.00    -0.254 N  
HETATM   24  O   UNL     1     -11.954  12.085  66.687  1.00  0.00    -0.614 OA 
HETATM   25  H   UNL     1      -9.268  13.751  66.246  1.00  0.00     0.000 HD 
BRANCH  23  26
HETATM   26  N   UNL     1     -10.561  13.930  67.943  1.00  0.00    -0.242 NA 
HETATM   27  H   UNL     1     -11.131  13.394  68.596  1.00  0.00     0.000 HD 
BRANCH  26  28
HETATM   28  C   UNL     1     -10.150  15.263  68.195  1.00  0.00    -0.229 A  
HETATM   29  N   UNL     1     -11.047  16.279  68.227  1.00  0.00    -0.352 NA 
HETATM   30  C   UNL     1     -10.523  17.522  68.396  1.00  0.00    -0.372 A  
HETATM   31  C   UNL     1      -9.163  17.760  68.515  1.00  0.00    -0.281 A  
HETATM   32  N   UNL     1      -8.254  16.766  68.474  1.00  0.00    -0.231 NA 
HETATM   33  C   UNL     1      -8.778  15.526  68.303  1.00  0.00    -0.170 A  
ENDBRANCH  26  28
ENDBRANCH  23  26
ENDBRANCH  21  22
ENDBRANCH  17  20
ENDBRANCH  10  15
TORSDOF 5
ENDMDL
MODEL      173
REMARK 921   NORMALIZED FREE ENERGY PREDICTED BY IDOCK:   -5.73 KCAL/MOL
REMARK 922        TOTAL FREE ENERGY PREDICTED BY IDOCK:   -8.67 KCAL/MOL
REMARK 923 INTER-LIGAND FREE ENERGY PREDICTED BY IDOCK:   -7.34 KCAL/MOL
REMARK 924 INTRA-LIGAND FREE ENERGY PREDICTED BY IDOCK:   -1.33 KCAL/MOL
REMARK 927      BINDING AFFINITY PREDICTED BY RF-SCORE:    0.00 PKD
ROOT
HETATM    1  F   UNL     1     -10.320  12.273  65.807  1.00  0.00    -0.252 F  
HETATM    2  C   UNL     1     -10.388  11.157  66.586  1.00  0.00    -0.241 C  
HETATM    3  F   UNL     1     -11.127  10.257  65.882  1.00  0.00    -0.026 F  
HETATM    4  F   UNL     1      -9.122  10.657  66.628  1.00  0.00    -0.155 F  
HETATM    5  C   UNL     1     -10.950  11.419  67.962  1.00  0.00    -0.290 A  
HETATM    6  C   UNL     1     -11.346  12.703  68.366  1.00  0.00    -0.329 A  
HETATM    7  C   UNL     1     -11.878  12.926  69.647  1.00  0.00    -0.387 A  
HETATM    8  C   UNL     1     -12.315  14.309  70.071  1.00  0.00    -0.346 C  
HETATM    9  C   UNL     1     -12.004  11.841  70.537  1.00  0.00    -0.383 A  
HETATM   10  C   UNL     1     -11.606  10.551  70.160  1.00  0.00    -0.408 A  
HETATM   11  F   UNL     1     -11.650  14.752  71.175  1.00  0.00    -0.330 F  
HETATM   12  F   UNL     1     -12.118  15.256  69.114  1.00  0.00    -0.330 F  
HETATM   13  F   UNL     1     -13.639  14.365  70.382  1.00  0.00    -0.216 F  
HETATM   14  C   UNL     1     -11.087  10.357  68.870  1.00  0.00    -0.296 A  
ENDROOT
BRANCH  10  15
HETATM   15  C   UNL     1     -11.729   9.404  71.059  1.00  0.00    -0.323 A  
HETATM   16  N   UNL     1     -10.748   8.913  71.830  1.00  0.00    -0.352 NA 
HETATM   17  N   UNL     1     -11.381   7.960  72.585  1.00  0.00    -0.388 NA 
HETATM   18  N   UNL     1     -12.907   8.719  71.156  1.00  0.00    -0.183 NA 
HETATM   19  C   UNL     1     -12.658   7.823  72.077  1.00  0.00    -0.269 A  
BRANCH  17  20
HETATM   20  C   UNL     1     -10.758   7.223  73.603  1.00  0.00    -0.236 C  
HETATM   21  C   UNL     1      -9.684   6.409  73.592  1.00  0.00    -0.194 C  
BRANCH  21  22
HETATM   22  C   UNL     1      -8.965   5.921  72.390  1.00  0.00    -0.137 C  
HETATM   23  N   UNL     1      -9.692   5.909  71.223  1.00  0.00    -0.171 N  
HETATM   24  O   UNL     1      -7.784   5.590  72.408  1.00  0.00    -0.099 OA 
HETATM   25  H   UNL     1     -10.646   6.268  71.171  1.00  0.00     0.000 HD 
BRANCH  23  26
HETATM   26  N   UNL     1      -9.026   5.367  70.099  1.00  0.00    -0.132 NA 
HETATM   27  H   UNL     1      -8.544   4.468  70.122  1.00  0.00     0.000 HD 
BRANCH  26  28
HETATM   28  C   UNL     1      -9.086   6.179  68.940  1.00  0.00    -0.123 A  
HETATM   29  N   UNL     1     -10.122   7.029  68.731  1.00  0.00    -0.164 NA 
HETATM   30  C   UNL     1     -10.108   7.694  67.546  1.00  0.00    -0.202 A  
HETATM   31  C   UNL     1      -9.118   7.521  66.592  1.00  0.00    -0.158 A  
HETATM   32  N   UNL     1      -8.087   6.673  66.774  1.00  0.00    -0.111 NA 
HETATM   33  C   UNL     1      -8.102   6.007  67.956  1.00  0.00    -0.110 A  
ENDBRANCH  26  28
ENDBRANCH  23  26
ENDBRANCH  21  22
ENDBRANCH  17  20
ENDBRANCH  10  15
TORSDOF 5
ENDMDL
MODEL      174
REMARK 921   NORMALIZED FREE ENERGY PREDICTED BY IDOCK:   -5.72 KCAL/MOL
REMARK 922        TOTAL FREE ENERGY PREDICTED BY IDOCK:   -8.65 KCAL/MOL
REMARK 923 INTER-LIGAND FREE ENERGY PREDICTED BY IDOCK:   -7.41 KCAL/MOL
REMARK 924 INTRA-LIGAND FREE ENERGY PREDICTED BY IDOCK:   -1.24 KCAL/MOL
REMARK 927      BINDING AFFINITY PREDICTED BY RF-SCORE:    0.00 PKD
ROOT
HETATM    1  F   UNL     1      -8.311   7.957  70.068  1.00  0.00    -0.113 F  
HETATM    2  C   UNL     1      -8.325   9.084  69.303  1.00  0.00    -0.122 C  
HETATM    3  F   UNL     1      -7.204   9.777  69.641  1.00  0.00    -0.061 F  
HETATM    4  F   UNL     1      -8.138   8.664  68.021  1.00  0.00    -0.106 F  
HETATM    5  C   UNL     1      -9.583   9.903  69.464  1.00  0.00    -0.242 A  
HETATM    6  C   UNL     1     -10.618   9.505  70.322  1.00  0.00    -0.317 A  
HETATM    7  C   UNL     1     -11.778  10.286  70.468  1.00  0.00    -0.418 A  
HETATM    8  C   UNL     1     -12.883   9.858  71.404  1.00  0.00    -0.405 C  
HETATM    9  C   UNL     1     -11.898  11.481  69.731  1.00  0.00    -0.429 A  
HETATM   10  C   UNL     1     -10.881  11.894  68.860  1.00  0.00    -0.261 A  
HETATM   11  F   UNL     1     -14.076   9.693  70.765  1.00  0.00    -0.305 F  
HETATM   12  F   UNL     1     -12.633   8.678  72.034  1.00  0.00    -0.328 F  
HETATM   13  F   UNL     1     -13.109  10.766  72.394  1.00  0.00    -0.519 F  
HETATM   14  C   UNL     1      -9.730  11.098  68.743  1.00  0.00    -0.194 A  
ENDROOT
BRANCH  10  15
HETATM   15  C   UNL     1     -10.975  13.132  68.085  1.00  0.00    -0.251 A  
HETATM   16  N   UNL     1     -11.107  14.362  68.600  1.00  0.00    -0.241 NA 
HETATM   17  N   UNL     1     -10.997  15.180  67.507  1.00  0.00    -0.302 NA 
HETATM   18  N   UNL     1     -10.950  13.102  66.719  1.00  0.00    -0.276 NA 
HETATM   19  C   UNL     1     -10.992  14.367  66.390  1.00  0.00    -0.319 A  
BRANCH  17  20
HETATM   20  C   UNL     1     -11.000  16.582  67.571  1.00  0.00    -0.166 C  
HETATM   21  C   UNL     1     -10.018  17.489  67.399  1.00  0.00    -0.315 C  
BRANCH  21  22
HETATM   22  C   UNL     1      -8.570  17.201  67.271  1.00  0.00    -0.201 C  
HETATM   23  N   UNL     1      -7.969  16.651  68.379  1.00  0.00    -0.195 N  
HETATM   24  O   UNL     1      -7.941  17.391  66.235  1.00  0.00    -0.284 OA 
HETATM   25  H   UNL     1      -8.496  16.401  69.217  1.00  0.00     0.000 HD 
BRANCH  23  26
HETATM   26  N   UNL     1      -6.572  16.455  68.278  1.00  0.00    -0.128 NA 
HETATM   27  H   UNL     1      -5.927  17.197  68.008  1.00  0.00     0.000 HD 
BRANCH  26  28
HETATM   28  C   UNL     1      -6.146  15.139  68.584  1.00  0.00    -0.086 A  
HETATM   29  N   UNL     1      -5.856  14.249  67.602  1.00  0.00    -0.338 NA 
HETATM   30  C   UNL     1      -5.537  12.995  68.019  1.00  0.00    -0.106 A  
HETATM   31  C   UNL     1      -5.518  12.623  69.354  1.00  0.00    -0.079 A  
HETATM   32  N   UNL     1      -5.815  13.488  70.344  1.00  0.00    -0.161 NA 
HETATM   33  C   UNL     1      -6.135  14.739  69.927  1.00  0.00    -0.141 A  
ENDBRANCH  26  28
ENDBRANCH  23  26
ENDBRANCH  21  22
ENDBRANCH  17  20
ENDBRANCH  10  15
TORSDOF 5
ENDMDL
MODEL      175
REMARK 921   NORMALIZED FREE ENERGY PREDICTED BY IDOCK:   -5.70 KCAL/MOL
REMARK 922        TOTAL FREE ENERGY PREDICTED BY IDOCK:   -8.63 KCAL/MOL
REMARK 923 INTER-LIGAND FREE ENERGY PREDICTED BY IDOCK:   -7.54 KCAL/MOL
REMARK 924 INTRA-LIGAND FREE ENERGY PREDICTED BY IDOCK:   -1.08 KCAL/MOL
REMARK 927      BINDING AFFINITY PREDICTED BY RF-SCORE:    0.00 PKD
ROOT
HETATM    1  F   UNL     1     -11.389   5.812  72.015  1.00  0.00    -0.303 F  
HETATM    2  C   UNL     1     -11.766   7.107  72.207  1.00  0.00    -0.258 C  
HETATM    3  F   UNL     1     -13.108   7.075  72.429  1.00  0.00    -0.121 F  
HETATM    4  F   UNL     1     -11.198   7.487  73.384  1.00  0.00    -0.408 F  
HETATM    5  C   UNL     1     -11.389   8.018  71.064  1.00  0.00    -0.294 A  
HETATM    6  C   UNL     1     -10.710   7.541  69.933  1.00  0.00    -0.254 A  
HETATM    7  C   UNL     1     -10.377   8.402  68.873  1.00  0.00    -0.231 A  
HETATM    8  C   UNL     1      -9.657   7.879  67.652  1.00  0.00    -0.150 C  
HETATM    9  C   UNL     1     -10.727   9.764  68.959  1.00  0.00    -0.238 A  
HETATM   10  C   UNL     1     -11.396  10.265  70.083  1.00  0.00    -0.388 A  
HETATM   11  F   UNL     1      -8.464   8.505  67.440  1.00  0.00    -0.121 F  
HETATM   12  F   UNL     1      -9.372   6.550  67.719  1.00  0.00    -0.122 F  
HETATM   13  F   UNL     1     -10.378   8.046  66.510  1.00  0.00    -0.346 F  
HETATM   14  C   UNL     1     -11.725   9.379  71.122  1.00  0.00    -0.418 A  
ENDROOT
BRANCH  10  15
HETATM   15  C   UNL     1     -11.777  11.673  70.199  1.00  0.00    -0.296 A  
HETATM   16  N   UNL     1     -11.334  12.665  69.414  1.00  0.00    -0.238 NA 
HETATM   17  N   UNL     1     -12.078  13.744  69.810  1.00  0.00    -0.335 NA 
HETATM   18  N   UNL     1     -12.637  12.083  71.178  1.00  0.00    -0.336 NA 
HETATM   19  C   UNL     1     -12.783  13.360  70.934  1.00  0.00    -0.272 A  
BRANCH  17  20
HETATM   20  C   UNL     1     -12.012  15.009  69.206  1.00  0.00    -0.289 C  
HETATM   21  C   UNL     1     -11.534  15.408  68.011  1.00  0.00    -0.333 C  
BRANCH  21  22
HETATM   22  C   UNL     1     -10.750  14.583  67.060  1.00  0.00    -0.291 C  
HETATM   23  N   UNL     1      -9.718  13.859  67.607  1.00  0.00    -0.221 N  
HETATM   24  O   UNL     1     -11.020  14.505  65.865  1.00  0.00    -0.307 OA 
HETATM   25  H   UNL     1      -9.537  13.840  68.611  1.00  0.00     0.000 HD 
BRANCH  23  26
HETATM   26  N   UNL     1      -8.925  13.140  66.683  1.00  0.00    -0.403 NA 
HETATM   27  H   UNL     1      -9.133  13.102  65.686  1.00  0.00     0.000 HD 
BRANCH  26  28
HETATM   28  C   UNL     1      -7.815  12.477  67.263  1.00  0.00    -0.160 A  
HETATM   29  N   UNL     1      -7.151  11.502  66.593  1.00  0.00    -0.109 NA 
HETATM   30  C   UNL     1      -6.156  10.885  67.284  1.00  0.00    -0.062 A  
HETATM   31  C   UNL     1      -5.833  11.205  68.594  1.00  0.00    -0.042 A  
HETATM   32  N   UNL     1      -6.487  12.162  69.281  1.00  0.00    -0.104 NA 
HETATM   33  C   UNL     1      -7.481  12.775  68.591  1.00  0.00    -0.092 A  
ENDBRANCH  26  28
ENDBRANCH  23  26
ENDBRANCH  21  22
ENDBRANCH  17  20
ENDBRANCH  10  15
TORSDOF 5
ENDMDL
MODEL      176
REMARK 921   NORMALIZED FREE ENERGY PREDICTED BY IDOCK:   -5.68 KCAL/MOL
REMARK 922        TOTAL FREE ENERGY PREDICTED BY IDOCK:   -8.61 KCAL/MOL
REMARK 923 INTER-LIGAND FREE ENERGY PREDICTED BY IDOCK:   -7.64 KCAL/MOL
REMARK 924 INTRA-LIGAND FREE ENERGY PREDICTED BY IDOCK:   -0.97 KCAL/MOL
REMARK 927      BINDING AFFINITY PREDICTED BY RF-SCORE:    0.00 PKD
ROOT
HETATM    1  F   UNL     1      -5.246  18.476  68.766  1.00  0.00    -0.175 F  
HETATM    2  C   UNL     1      -5.961  17.332  68.962  1.00  0.00    -0.191 C  
HETATM    3  F   UNL     1      -5.377  16.389  68.175  1.00  0.00    -0.095 F  
HETATM    4  F   UNL     1      -5.716  16.957  70.248  1.00  0.00    -0.201 F  
HETATM    5  C   UNL     1      -7.436  17.492  68.679  1.00  0.00    -0.265 A  
HETATM    6  C   UNL     1      -7.980  18.716  68.265  1.00  0.00    -0.337 A  
HETATM    7  C   UNL     1      -9.354  18.843  67.996  1.00  0.00    -0.349 A  
HETATM    8  C   UNL     1      -9.931  20.161  67.536  1.00  0.00    -0.430 C  
HETATM    9  C   UNL     1     -10.191  17.721  68.155  1.00  0.00    -0.383 A  
HETATM   10  C   UNL     1      -9.672  16.490  68.577  1.00  0.00    -0.239 A  
HETATM   11  F   UNL     1     -10.897  20.630  68.376  1.00  0.00    -0.182 F  
HETATM   12  F   UNL     1      -9.006  21.155  67.444  1.00  0.00    -0.423 F  
HETATM   13  F   UNL     1     -10.509  20.078  66.307  1.00  0.00    -0.514 F  
HETATM   14  C   UNL     1      -8.294  16.391  68.829  1.00  0.00    -0.242 A  
ENDROOT
BRANCH  10  15
HETATM   15  C   UNL     1     -10.515  15.307  68.747  1.00  0.00    -0.237 A  
HETATM   16  N   UNL     1     -10.674  14.330  67.843  1.00  0.00    -0.238 NA 
HETATM   17  N   UNL     1     -11.417  13.393  68.511  1.00  0.00    -0.287 NA 
HETATM   18  N   UNL     1     -11.242  15.128  69.890  1.00  0.00    -0.266 NA 
HETATM   19  C   UNL     1     -11.806  13.962  69.708  1.00  0.00    -0.329 A  
BRANCH  17  20
HETATM   20  C   UNL     1     -11.770  12.144  67.977  1.00  0.00    -0.344 C  
HETATM   21  C   UNL     1     -11.509  10.888  68.388  1.00  0.00    -0.374 C  
BRANCH  21  22
HETATM   22  C   UNL     1     -10.575  10.495  69.470  1.00  0.00    -0.246 C  
HETATM   23  N   UNL     1      -9.259  10.844  69.280  1.00  0.00    -0.397 N  
HETATM   24  O   UNL     1     -10.943   9.934  70.498  1.00  0.00    -0.281 OA 
HETATM   25  H   UNL     1      -8.951  11.390  68.475  1.00  0.00     0.000 HD 
BRANCH  23  26
HETATM   26  N   UNL     1      -8.361  10.394  70.277  1.00  0.00    -0.321 NA 
HETATM   27  H   UNL     1      -8.324  10.799  71.212  1.00  0.00     0.000 HD 
BRANCH  26  28
HETATM   28  C   UNL     1      -7.519   9.333  69.863  1.00  0.00    -0.085 A  
HETATM   29  N   UNL     1      -7.245   8.292  70.688  1.00  0.00    -0.047 NA 
HETATM   30  C   UNL     1      -6.360   7.378  70.209  1.00  0.00    -0.034 A  
HETATM   31  C   UNL     1      -5.754   7.489  68.968  1.00  0.00    -0.022 A  
HETATM   32  N   UNL     1      -6.003   8.521  68.138  1.00  0.00    -0.045 NA 
HETATM   33  C   UNL     1      -6.884   9.434  68.618  1.00  0.00    -0.061 A  
ENDBRANCH  26  28
ENDBRANCH  23  26
ENDBRANCH  21  22
ENDBRANCH  17  20
ENDBRANCH  10  15
TORSDOF 5
ENDMDL
MODEL      177
REMARK 921   NORMALIZED FREE ENERGY PREDICTED BY IDOCK:   -5.66 KCAL/MOL
REMARK 922        TOTAL FREE ENERGY PREDICTED BY IDOCK:   -8.58 KCAL/MOL
REMARK 923 INTER-LIGAND FREE ENERGY PREDICTED BY IDOCK:   -6.78 KCAL/MOL
REMARK 924 INTRA-LIGAND FREE ENERGY PREDICTED BY IDOCK:   -1.81 KCAL/MOL
REMARK 927      BINDING AFFINITY PREDICTED BY RF-SCORE:    0.00 PKD
ROOT
HETATM    1  F   UNL     1     -12.944   8.487  73.069  1.00  0.00    -0.315 F  
HETATM    2  C   UNL     1     -12.131   7.879  72.160  1.00  0.00    -0.326 C  
HETATM    3  F   UNL     1     -11.102   7.350  72.876  1.00  0.00    -0.290 F  
HETATM    4  F   UNL     1     -12.839   6.822  71.676  1.00  0.00    -0.381 F  
HETATM    5  C   UNL     1     -11.657   8.806  71.065  1.00  0.00    -0.337 A  
HETATM    6  C   UNL     1     -12.046  10.153  71.018  1.00  0.00    -0.476 A  
HETATM    7  C   UNL     1     -11.587  11.002  69.997  1.00  0.00    -0.427 A  
HETATM    8  C   UNL     1     -11.999  12.456  69.960  1.00  0.00    -0.299 C  
HETATM    9  C   UNL     1     -10.731  10.485  69.006  1.00  0.00    -0.259 A  
HETATM   10  C   UNL     1     -10.337   9.140  69.026  1.00  0.00    -0.229 A  
HETATM   11  F   UNL     1     -12.647  12.787  68.807  1.00  0.00    -0.031 F  
HETATM   12  F   UNL     1     -12.839  12.807  70.972  1.00  0.00    -0.395 F  
HETATM   13  F   UNL     1     -10.936  13.301  70.051  1.00  0.00    -0.034 F  
HETATM   14  C   UNL     1     -10.804   8.317  70.064  1.00  0.00    -0.232 A  
ENDROOT
BRANCH  10  15
HETATM   15  C   UNL     1      -9.445   8.575  68.014  1.00  0.00    -0.140 A  
HETATM   16  N   UNL     1      -9.284   9.046  66.769  1.00  0.00    -0.150 NA 
HETATM   17  N   UNL     1      -8.256   8.291  66.271  1.00  0.00    -0.108 NA 
HETATM   18  N   UNL     1      -8.699   7.463  68.286  1.00  0.00    -0.123 NA 
HETATM   19  C   UNL     1      -8.000   7.295  67.193  1.00  0.00    -0.110 A  
BRANCH  17  20
HETATM   20  C   UNL     1      -7.683   8.482  65.005  1.00  0.00    -0.102 C  
HETATM   21  C   UNL     1      -6.792   9.386  64.550  1.00  0.00    -0.093 C  
BRANCH  21  22
HETATM   22  C   UNL     1      -6.310  10.584  65.279  1.00  0.00    -0.080 C  
HETATM   23  N   UNL     1      -7.148  11.068  66.256  1.00  0.00    -0.251 N  
HETATM   24  O   UNL     1      -5.215  11.097  65.068  1.00  0.00    -0.246 OA 
HETATM   25  H   UNL     1      -8.019  10.600  66.507  1.00  0.00     0.000 HD 
BRANCH  23  26
HETATM   26  N   UNL     1      -6.719  12.257  66.889  1.00  0.00    -0.364 NA 
HETATM   27  H   UNL     1      -5.753  12.415  67.175  1.00  0.00     0.000 HD 
BRANCH  26  28
HETATM   28  C   UNL     1      -7.747  13.211  67.092  1.00  0.00    -0.019 A  
HETATM   29  N   UNL     1      -7.512  14.363  67.767  1.00  0.00    -0.152 NA 
HETATM   30  C   UNL     1      -8.596  15.159  67.967  1.00  0.00    -0.156 A  
HETATM   31  C   UNL     1      -9.869  14.829  67.532  1.00  0.00    -0.218 A  
HETATM   32  N   UNL     1     -10.126  13.683  66.870  1.00  0.00    -0.255 NA 
HETATM   33  C   UNL     1      -9.045  12.888  66.673  1.00  0.00    -0.177 A  
ENDBRANCH  26  28
ENDBRANCH  23  26
ENDBRANCH  21  22
ENDBRANCH  17  20
ENDBRANCH  10  15
TORSDOF 5
ENDMDL
MODEL      178
REMARK 921   NORMALIZED FREE ENERGY PREDICTED BY IDOCK:   -5.66 KCAL/MOL
REMARK 922        TOTAL FREE ENERGY PREDICTED BY IDOCK:   -8.58 KCAL/MOL
REMARK 923 INTER-LIGAND FREE ENERGY PREDICTED BY IDOCK:   -8.08 KCAL/MOL
REMARK 924 INTRA-LIGAND FREE ENERGY PREDICTED BY IDOCK:   -0.51 KCAL/MOL
REMARK 927      BINDING AFFINITY PREDICTED BY RF-SCORE:    0.00 PKD
ROOT
HETATM    1  F   UNL     1     -12.834  16.235  71.491  1.00  0.00    -0.451 F  
HETATM    2  C   UNL     1     -12.477  15.005  71.025  1.00  0.00    -0.338 C  
HETATM    3  F   UNL     1     -11.809  14.400  72.044  1.00  0.00    -0.354 F  
HETATM    4  F   UNL     1     -13.640  14.314  70.872  1.00  0.00    -0.386 F  
HETATM    5  C   UNL     1     -11.666  15.058  69.752  1.00  0.00    -0.341 A  
HETATM    6  C   UNL     1     -11.339  16.275  69.135  1.00  0.00    -0.291 A  
HETATM    7  C   UNL     1     -10.575  16.305  67.956  1.00  0.00    -0.308 A  
HETATM    8  C   UNL     1     -10.215  17.619  67.303  1.00  0.00    -0.343 C  
HETATM    9  C   UNL     1     -10.141  15.091  67.387  1.00  0.00    -0.228 A  
HETATM   10  C   UNL     1     -10.463  13.863  67.980  1.00  0.00    -0.243 A  
HETATM   11  F   UNL     1     -10.675  17.711  66.023  1.00  0.00    -0.340 F  
HETATM   12  F   UNL     1     -10.717  18.704  67.956  1.00  0.00    -0.398 F  
HETATM   13  F   UNL     1      -8.870  17.817  67.236  1.00  0.00    -0.228 F  
HETATM   14  C   UNL     1     -11.220  13.865  69.163  1.00  0.00    -0.311 A  
ENDROOT
BRANCH  10  15
HETATM   15  C   UNL     1     -10.023  12.587  67.417  1.00  0.00    -0.207 A  
HETATM   16  N   UNL     1     -10.649  11.412  67.573  1.00  0.00    -0.204 NA 
HETATM   17  N   UNL     1      -9.953  10.567  66.749  1.00  0.00    -0.196 NA 
HETATM   18  N   UNL     1      -8.878  12.511  66.675  1.00  0.00    -0.183 NA 
HETATM   19  C   UNL     1      -8.844  11.258  66.302  1.00  0.00    -0.191 A  
BRANCH  17  20
HETATM   20  C   UNL     1     -10.300   9.226  66.526  1.00  0.00    -0.200 C  
HETATM   21  C   UNL     1     -10.626   8.231  67.375  1.00  0.00    -0.324 C  
BRANCH  21  22
HETATM   22  C   UNL     1     -10.515   8.267  68.853  1.00  0.00    -0.191 C  
HETATM   23  N   UNL     1     -11.300   7.367  69.534  1.00  0.00    -0.466 N  
HETATM   24  O   UNL     1      -9.743   9.014  69.446  1.00  0.00    -0.163 OA 
HETATM   25  H   UNL     1     -11.878   6.676  69.054  1.00  0.00     0.000 HD 
BRANCH  23  26
HETATM   26  N   UNL     1     -11.250   7.463  70.944  1.00  0.00    -0.264 NA 
HETATM   27  H   UNL     1     -11.801   8.138  71.472  1.00  0.00     0.000 HD 
BRANCH  26  28
HETATM   28  C   UNL     1     -10.368   6.540  71.559  1.00  0.00    -0.211 A  
HETATM   29  N   UNL     1     -10.633   5.211  71.562  1.00  0.00    -0.187 NA 
HETATM   30  C   UNL     1      -9.755   4.436  72.253  1.00  0.00    -0.165 A  
HETATM   31  C   UNL     1      -8.661   4.951  72.929  1.00  0.00    -0.118 A  
HETATM   32  N   UNL     1      -8.385   6.270  72.948  1.00  0.00    -0.118 NA 
HETATM   33  C   UNL     1      -9.264   7.043  72.261  1.00  0.00    -0.133 A  
ENDBRANCH  26  28
ENDBRANCH  23  26
ENDBRANCH  21  22
ENDBRANCH  17  20
ENDBRANCH  10  15
TORSDOF 5
ENDMDL
MODEL      179
REMARK 921   NORMALIZED FREE ENERGY PREDICTED BY IDOCK:   -5.65 KCAL/MOL
REMARK 922        TOTAL FREE ENERGY PREDICTED BY IDOCK:   -8.57 KCAL/MOL
REMARK 923 INTER-LIGAND FREE ENERGY PREDICTED BY IDOCK:   -7.53 KCAL/MOL
REMARK 924 INTRA-LIGAND FREE ENERGY PREDICTED BY IDOCK:   -1.05 KCAL/MOL
REMARK 927      BINDING AFFINITY PREDICTED BY RF-SCORE:    0.00 PKD
ROOT
HETATM    1  F   UNL     1      -7.061  16.351  69.557  1.00  0.00    -0.214 F  
HETATM    2  C   UNL     1      -6.777  15.049  69.273  1.00  0.00    -0.141 C  
HETATM    3  F   UNL     1      -5.764  15.079  68.365  1.00  0.00    -0.084 F  
HETATM    4  F   UNL     1      -6.248  14.527  70.413  1.00  0.00    -0.140 F  
HETATM    5  C   UNL     1      -7.972  14.268  68.782  1.00  0.00    -0.119 A  
HETATM    6  C   UNL     1      -9.238  14.859  68.652  1.00  0.00    -0.193 A  
HETATM    7  C   UNL     1     -10.337  14.119  68.183  1.00  0.00    -0.239 A  
HETATM    8  C   UNL     1     -11.694  14.765  68.033  1.00  0.00    -0.333 C  
HETATM    9  C   UNL     1     -10.159  12.762  67.848  1.00  0.00    -0.231 A  
HETATM   10  C   UNL     1      -8.907  12.148  67.979  1.00  0.00    -0.181 A  
HETATM   11  F   UNL     1     -12.653  14.148  68.780  1.00  0.00    -0.282 F  
HETATM   12  F   UNL     1     -11.716  16.073  68.410  1.00  0.00    -0.369 F  
HETATM   13  F   UNL     1     -12.144  14.742  66.749  1.00  0.00    -0.374 F  
HETATM   14  C   UNL     1      -7.825  12.915  68.440  1.00  0.00    -0.133 A  
ENDROOT
BRANCH  10  15
HETATM   15  C   UNL     1      -8.689  10.743  67.634  1.00  0.00    -0.126 A  
HETATM   16  N   UNL     1      -9.654   9.839  67.411  1.00  0.00    -0.151 NA 
HETATM   17  N   UNL     1      -8.965   8.735  66.984  1.00  0.00    -0.130 NA 
HETATM   18  N   UNL     1      -7.423  10.239  67.533  1.00  0.00    -0.089 NA 
HETATM   19  C   UNL     1      -7.622   9.001  67.160  1.00  0.00    -0.091 A  
BRANCH  17  20
HETATM   20  C   UNL     1      -9.576   7.546  66.555  1.00  0.00    -0.173 C  
HETATM   21  C   UNL     1     -10.254   6.594  67.226  1.00  0.00    -0.256 C  
BRANCH  21  22
HETATM   22  C   UNL     1     -10.371   6.474  68.699  1.00  0.00    -0.191 C  
HETATM   23  N   UNL     1     -11.641   6.597  69.210  1.00  0.00    -0.646 N  
HETATM   24  O   UNL     1      -9.412   6.234  69.427  1.00  0.00    -0.139 OA 
HETATM   25  H   UNL     1     -12.461   6.705  68.612  1.00  0.00     0.000 HD 
BRANCH  23  26
HETATM   26  N   UNL     1     -11.734   6.563  70.621  1.00  0.00    -0.390 NA 
HETATM   27  H   UNL     1     -11.436   5.762  71.177  1.00  0.00     0.000 HD 
BRANCH  26  28
HETATM   28  C   UNL     1     -12.277   7.739  71.196  1.00  0.00    -0.268 A  
HETATM   29  N   UNL     1     -13.424   7.702  71.918  1.00  0.00    -0.291 NA 
HETATM   30  C   UNL     1     -13.888   8.905  72.348  1.00  0.00    -0.454 A  
HETATM   31  C   UNL     1     -13.254  10.105  72.068  1.00  0.00    -0.430 A  
HETATM   32  N   UNL     1     -12.120  10.166  71.343  1.00  0.00    -0.383 NA 
HETATM   33  C   UNL     1     -11.659   8.964  70.911  1.00  0.00    -0.283 A  
ENDBRANCH  26  28
ENDBRANCH  23  26
ENDBRANCH  21  22
ENDBRANCH  17  20
ENDBRANCH  10  15
TORSDOF 5
ENDMDL
MODEL      180
REMARK 921   NORMALIZED FREE ENERGY PREDICTED BY IDOCK:   -5.64 KCAL/MOL
REMARK 922        TOTAL FREE ENERGY PREDICTED BY IDOCK:   -8.56 KCAL/MOL
REMARK 923 INTER-LIGAND FREE ENERGY PREDICTED BY IDOCK:   -7.35 KCAL/MOL
REMARK 924 INTRA-LIGAND FREE ENERGY PREDICTED BY IDOCK:   -1.21 KCAL/MOL
REMARK 927      BINDING AFFINITY PREDICTED BY RF-SCORE:    0.00 PKD
ROOT
HETATM    1  F   UNL     1      -6.806   7.189  67.940  1.00  0.00    -0.062 F  
HETATM    2  C   UNL     1      -7.843   8.021  68.242  1.00  0.00    -0.123 C  
HETATM    3  F   UNL     1      -7.283   9.234  68.499  1.00  0.00    -0.069 F  
HETATM    4  F   UNL     1      -8.548   8.167  67.087  1.00  0.00    -0.118 F  
HETATM    5  C   UNL     1      -8.698   7.524  69.382  1.00  0.00    -0.137 A  
HETATM    6  C   UNL     1      -8.426   6.314  70.037  1.00  0.00    -0.134 A  
HETATM    7  C   UNL     1      -9.227   5.872  71.103  1.00  0.00    -0.163 A  
HETATM    8  C   UNL     1      -8.920   4.574  71.813  1.00  0.00    -0.125 C  
HETATM    9  C   UNL     1     -10.324   6.658  71.510  1.00  0.00    -0.233 A  
HETATM   10  C   UNL     1     -10.622   7.865  70.864  1.00  0.00    -0.227 A  
HETATM   11  F   UNL     1      -9.955   3.689  71.757  1.00  0.00    -0.225 F  
HETATM   12  F   UNL     1      -7.843   3.918  71.301  1.00  0.00    -0.055 F  
HETATM   13  F   UNL     1      -8.650   4.754  73.135  1.00  0.00    -0.104 F  
HETATM   14  C   UNL     1      -9.797   8.286  69.808  1.00  0.00    -0.187 A  
ENDROOT
BRANCH  10  15
HETATM   15  C   UNL     1     -11.750   8.705  71.266  1.00  0.00    -0.289 A  
HETATM   16  N   UNL     1     -11.668   9.990  71.638  1.00  0.00    -0.287 NA 
HETATM   17  N   UNL     1     -12.978  10.371  71.767  1.00  0.00    -0.454 NA 
HETATM   18  N   UNL     1     -13.018   8.196  71.305  1.00  0.00    -0.221 NA 
HETATM   19  C   UNL     1     -13.746   9.230  71.641  1.00  0.00    -0.354 A  
BRANCH  17  20
HETATM   20  C   UNL     1     -13.390  11.676  72.073  1.00  0.00    -0.300 C  
HETATM   21  C   UNL     1     -13.107  12.864  71.501  1.00  0.00    -0.390 C  
BRANCH  21  22
HETATM   22  C   UNL     1     -12.084  13.112  70.457  1.00  0.00    -0.306 C  
HETATM   23  N   UNL     1     -11.928  12.116  69.523  1.00  0.00    -0.297 N  
HETATM   24  O   UNL     1     -11.440  14.155  70.389  1.00  0.00    -0.209 OA 
HETATM   25  H   UNL     1     -12.518  11.283  69.511  1.00  0.00     0.000 HD 
BRANCH  23  26
HETATM   26  N   UNL     1     -10.895  12.324  68.580  1.00  0.00    -0.229 NA 
HETATM   27  H   UNL     1      -9.906  12.245  68.816  1.00  0.00     0.000 HD 
BRANCH  26  28
HETATM   28  C   UNL     1     -11.352  12.650  67.280  1.00  0.00    -0.318 A  
HETATM   29  N   UNL     1     -10.838  12.042  66.182  1.00  0.00    -0.275 NA 
HETATM   30  C   UNL     1     -11.298  12.498  64.987  1.00  0.00    -0.313 A  
HETATM   31  C   UNL     1     -12.221  13.525  64.872  1.00  0.00    -0.410 A  
HETATM   32  N   UNL     1     -12.736  14.150  65.950  1.00  0.00    -0.445 NA 
HETATM   33  C   UNL     1     -12.274  13.697  67.142  1.00  0.00    -0.297 A  
ENDBRANCH  26  28
ENDBRANCH  23  26
ENDBRANCH  21  22
ENDBRANCH  17  20
ENDBRANCH  10  15
TORSDOF 5
ENDMDL
MODEL      181
REMARK 921   NORMALIZED FREE ENERGY PREDICTED BY IDOCK:   -5.63 KCAL/MOL
REMARK 922        TOTAL FREE ENERGY PREDICTED BY IDOCK:   -8.54 KCAL/MOL
REMARK 923 INTER-LIGAND FREE ENERGY PREDICTED BY IDOCK:   -7.01 KCAL/MOL
REMARK 924 INTRA-LIGAND FREE ENERGY PREDICTED BY IDOCK:   -1.53 KCAL/MOL
REMARK 927      BINDING AFFINITY PREDICTED BY RF-SCORE:    0.00 PKD
ROOT
HETATM    1  F   UNL     1     -11.135   7.656  66.958  1.00  0.00    -0.396 F  
HETATM    2  C   UNL     1     -10.218   8.375  67.664  1.00  0.00    -0.236 C  
HETATM    3  F   UNL     1     -10.697   8.441  68.936  1.00  0.00    -0.232 F  
HETATM    4  F   UNL     1      -9.101   7.598  67.720  1.00  0.00    -0.130 F  
HETATM    5  C   UNL     1      -9.944   9.738  67.077  1.00  0.00    -0.259 A  
HETATM    6  C   UNL     1     -10.585  10.183  65.911  1.00  0.00    -0.042 A  
HETATM    7  C   UNL     1     -10.325  11.460  65.385  1.00  0.00    -0.331 A  
HETATM    8  C   UNL     1     -11.028  11.938  64.136  1.00  0.00    -0.369 C  
HETATM    9  C   UNL     1      -9.399  12.297  66.039  1.00  0.00    -0.142 A  
HETATM   10  C   UNL     1      -8.739  11.871  67.199  1.00  0.00    -0.176 A  
HETATM   11  F   UNL     1     -10.160  12.257  63.135  1.00  0.00    -0.406 F  
HETATM   12  F   UNL     1     -11.880  11.016  63.608  1.00  0.00    -0.142 F  
HETATM   13  F   UNL     1     -11.778  13.053  64.354  1.00  0.00    -0.343 F  
HETATM   14  C   UNL     1      -9.026  10.594  67.707  1.00  0.00    -0.140 A  
ENDROOT
BRANCH  10  15
HETATM   15  C   UNL     1      -7.776  12.718  67.903  1.00  0.00    -0.143 A  
HETATM   16  N   UNL     1      -7.364  13.928  67.498  1.00  0.00    -0.176 NA 
HETATM   17  N   UNL     1      -6.602  14.373  68.545  1.00  0.00    -0.087 NA 
HETATM   18  N   UNL     1      -7.197  12.296  69.066  1.00  0.00    -0.068 NA 
HETATM   19  C   UNL     1      -6.462  13.317  69.424  1.00  0.00    -0.097 A  
BRANCH  17  20
HETATM   20  C   UNL     1      -6.014  15.646  68.603  1.00  0.00    -0.101 C  
HETATM   21  C   UNL     1      -6.550  16.877  68.716  1.00  0.00    -0.184 C  
BRANCH  21  22
HETATM   22  C   UNL     1      -7.990  17.219  68.619  1.00  0.00    -0.267 C  
HETATM   23  N   UNL     1      -8.862  16.279  69.116  1.00  0.00    -0.244 N  
HETATM   24  O   UNL     1      -8.394  18.288  68.170  1.00  0.00    -0.268 OA 
HETATM   25  H   UNL     1      -8.541  15.427  69.576  1.00  0.00     0.000 HD 
BRANCH  23  26
HETATM   26  N   UNL     1     -10.235  16.575  68.945  1.00  0.00    -0.250 NA 
HETATM   27  H   UNL     1     -10.590  17.120  68.161  1.00  0.00     0.000 HD 
BRANCH  26  28
HETATM   28  C   UNL     1     -11.073  16.048  69.959  1.00  0.00    -0.362 A  
HETATM   29  N   UNL     1     -11.064  16.561  71.214  1.00  0.00     0.096 NA 
HETATM   30  C   UNL     1     -11.851  15.920  72.118  1.00  0.00    -0.517 A  
HETATM   31  C   UNL     1     -12.611  14.805  71.804  1.00  0.00    -0.334 A  
HETATM   32  N   UNL     1     -12.625  14.272  70.567  1.00  0.00    -0.346 NA 
HETATM   33  C   UNL     1     -11.837  14.911  69.665  1.00  0.00    -0.318 A  
ENDBRANCH  26  28
ENDBRANCH  23  26
ENDBRANCH  21  22
ENDBRANCH  17  20
ENDBRANCH  10  15
TORSDOF 5
ENDMDL
MODEL      182
REMARK 921   NORMALIZED FREE ENERGY PREDICTED BY IDOCK:   -5.62 KCAL/MOL
REMARK 922        TOTAL FREE ENERGY PREDICTED BY IDOCK:   -8.53 KCAL/MOL
REMARK 923 INTER-LIGAND FREE ENERGY PREDICTED BY IDOCK:   -7.88 KCAL/MOL
REMARK 924 INTRA-LIGAND FREE ENERGY PREDICTED BY IDOCK:   -0.65 KCAL/MOL
REMARK 927      BINDING AFFINITY PREDICTED BY RF-SCORE:    0.00 PKD
ROOT
HETATM    1  F   UNL     1     -12.497  15.381  63.840  1.00  0.00    -0.427 F  
HETATM    2  C   UNL     1     -12.240  14.210  64.487  1.00  0.00    -0.445 C  
HETATM    3  F   UNL     1     -13.371  13.912  65.181  1.00  0.00    -0.338 F  
HETATM    4  F   UNL     1     -12.133  13.264  63.513  1.00  0.00    -0.508 F  
HETATM    5  C   UNL     1     -11.016  14.269  65.370  1.00  0.00    -0.335 A  
HETATM    6  C   UNL     1     -10.241  15.432  65.481  1.00  0.00    -0.411 A  
HETATM    7  C   UNL     1      -9.112  15.471  66.317  1.00  0.00    -0.369 A  
HETATM    8  C   UNL     1      -8.289  16.732  66.442  1.00  0.00    -0.309 C  
HETATM    9  C   UNL     1      -8.755  14.318  67.044  1.00  0.00    -0.231 A  
HETATM   10  C   UNL     1      -9.508  13.142  66.941  1.00  0.00    -0.244 A  
HETATM   11  F   UNL     1      -6.987  16.546  66.081  1.00  0.00    -0.186 F  
HETATM   12  F   UNL     1      -8.745  17.756  65.670  1.00  0.00    -0.037 F  
HETATM   13  F   UNL     1      -8.261  17.212  67.716  1.00  0.00    -0.186 F  
HETATM   14  C   UNL     1     -10.637  13.135  66.106  1.00  0.00    -0.288 A  
ENDROOT
BRANCH  10  15
HETATM   15  C   UNL     1      -9.166  11.930  67.687  1.00  0.00    -0.183 A  
HETATM   16  N   UNL     1     -10.022  11.196  68.412  1.00  0.00    -0.180 NA 
HETATM   17  N   UNL     1      -9.277  10.107  68.780  1.00  0.00    -0.156 NA 
HETATM   18  N   UNL     1      -7.882  11.463  67.704  1.00  0.00    -0.117 NA 
HETATM   19  C   UNL     1      -7.973  10.361  68.403  1.00  0.00    -0.110 A  
BRANCH  17  20
HETATM   20  C   UNL     1      -9.786   9.015  69.499  1.00  0.00    -0.170 C  
HETATM   21  C   UNL     1     -10.265   7.822  69.097  1.00  0.00    -0.210 C  
BRANCH  21  22
HETATM   22  C   UNL     1     -10.558   7.420  67.700  1.00  0.00    -0.239 C  
HETATM   23  N   UNL     1     -10.779   6.078  67.497  1.00  0.00    -0.276 N  
HETATM   24  O   UNL     1     -10.646   8.226  66.778  1.00  0.00    -0.306 OA 
HETATM   25  H   UNL     1     -10.800   5.407  68.266  1.00  0.00     0.000 HD 
BRANCH  23  26
HETATM   26  N   UNL     1     -10.975   5.692  66.151  1.00  0.00    -0.735 NA 
HETATM   27  H   UNL     1     -11.471   6.272  65.475  1.00  0.00     0.000 HD 
BRANCH  26  28
HETATM   28  C   UNL     1     -10.423   4.429  65.823  1.00  0.00    -0.178 A  
HETATM   29  N   UNL     1      -9.609   3.772  66.686  1.00  0.00    -0.199 NA 
HETATM   30  C   UNL     1      -9.078   2.609  66.226  1.00  0.00    -0.109 A  
HETATM   31  C   UNL     1      -9.326   2.114  64.955  1.00  0.00    -0.067 A  
HETATM   32  N   UNL     1     -10.122   2.755  64.078  1.00  0.00    -0.149 NA 
HETATM   33  C   UNL     1     -10.651   3.918  64.537  1.00  0.00    -0.185 A  
ENDBRANCH  26  28
ENDBRANCH  23  26
ENDBRANCH  21  22
ENDBRANCH  17  20
ENDBRANCH  10  15
TORSDOF 5
ENDMDL
MODEL      183
REMARK 921   NORMALIZED FREE ENERGY PREDICTED BY IDOCK:   -5.61 KCAL/MOL
REMARK 922        TOTAL FREE ENERGY PREDICTED BY IDOCK:   -8.51 KCAL/MOL
REMARK 923 INTER-LIGAND FREE ENERGY PREDICTED BY IDOCK:   -7.02 KCAL/MOL
REMARK 924 INTRA-LIGAND FREE ENERGY PREDICTED BY IDOCK:   -1.49 KCAL/MOL
REMARK 927      BINDING AFFINITY PREDICTED BY RF-SCORE:    0.00 PKD
ROOT
HETATM    1  F   UNL     1      -6.710  16.232  70.560  1.00  0.00     0.166 F  
HETATM    2  C   UNL     1      -7.066  16.072  69.254  1.00  0.00    -0.220 C  
HETATM    3  F   UNL     1      -6.737  17.238  68.634  1.00  0.00    -0.160 F  
HETATM    4  F   UNL     1      -6.224  15.127  68.754  1.00  0.00    -0.085 F  
HETATM    5  C   UNL     1      -8.519  15.707  69.069  1.00  0.00    -0.231 A  
HETATM    6  C   UNL     1      -9.386  15.549  70.160  1.00  0.00     0.356 A  
HETATM    7  C   UNL     1     -10.738  15.219  69.968  1.00  0.00    -0.297 A  
HETATM    8  C   UNL     1     -11.669  15.063  71.147  1.00  0.00    -0.337 C  
HETATM    9  C   UNL     1     -11.221  15.038  68.657  1.00  0.00    -0.289 A  
HETATM   10  C   UNL     1     -10.372  15.181  67.552  1.00  0.00    -0.242 A  
HETATM   11  F   UNL     1     -12.234  13.824  71.208  1.00  0.00    -0.398 F  
HETATM   12  F   UNL     1     -11.058  15.252  72.349  1.00  0.00    -0.501 F  
HETATM   13  F   UNL     1     -12.704  15.947  71.115  1.00  0.00    -0.462 F  
HETATM   14  C   UNL     1      -9.028  15.521  67.774  1.00  0.00    -0.173 A  
ENDROOT
BRANCH  10  15
HETATM   15  C   UNL     1     -10.845  15.005  66.178  1.00  0.00    -0.329 A  
HETATM   16  N   UNL     1     -11.218  13.841  65.629  1.00  0.00    -0.300 NA 
HETATM   17  N   UNL     1     -11.714  14.208  64.406  1.00  0.00    -0.403 NA 
HETATM   18  N   UNL     1     -10.920  16.070  65.326  1.00  0.00    -0.333 NA 
HETATM   19  C   UNL     1     -11.429  15.549  64.239  1.00  0.00    -0.180 A  
BRANCH  17  20
HETATM   20  C   UNL     1     -12.298  13.316  63.495  1.00  0.00    -0.366 C  
HETATM   21  C   UNL     1     -11.981  12.053  63.147  1.00  0.00    -0.323 C  
BRANCH  21  22
HETATM   22  C   UNL     1     -10.752  11.320  63.534  1.00  0.00    -0.335 C  
HETATM   23  N   UNL     1     -10.746  10.791  64.803  1.00  0.00    -0.202 N  
HETATM   24  O   UNL     1      -9.809  11.147  62.767  1.00  0.00    -0.290 OA 
HETATM   25  H   UNL     1     -11.556  10.846  65.420  1.00  0.00     0.000 HD 
BRANCH  23  26
HETATM   26  N   UNL     1      -9.539  10.165  65.193  1.00  0.00    -0.269 NA 
HETATM   27  H   UNL     1      -9.170   9.336  64.729  1.00  0.00     0.000 HD 
BRANCH  26  28
HETATM   28  C   UNL     1      -8.888  10.788  66.286  1.00  0.00    -0.173 A  
HETATM   29  N   UNL     1      -7.623  11.261  66.172  1.00  0.00    -0.036 NA 
HETATM   30  C   UNL     1      -7.077  11.765  67.311  1.00  0.00    -0.140 A  
HETATM   31  C   UNL     1      -7.747  11.791  68.524  1.00  0.00    -0.137 A  
HETATM   32  N   UNL     1      -9.000  11.315  68.662  1.00  0.00    -0.167 NA 
HETATM   33  C   UNL     1      -9.543  10.811  67.525  1.00  0.00    -0.158 A  
ENDBRANCH  26  28
ENDBRANCH  23  26
ENDBRANCH  21  22
ENDBRANCH  17  20
ENDBRANCH  10  15
TORSDOF 5
ENDMDL
MODEL      184
REMARK 921   NORMALIZED FREE ENERGY PREDICTED BY IDOCK:   -5.60 KCAL/MOL
REMARK 922        TOTAL FREE ENERGY PREDICTED BY IDOCK:   -8.51 KCAL/MOL
REMARK 923 INTER-LIGAND FREE ENERGY PREDICTED BY IDOCK:   -6.91 KCAL/MOL
REMARK 924 INTRA-LIGAND FREE ENERGY PREDICTED BY IDOCK:   -1.60 KCAL/MOL
REMARK 927      BINDING AFFINITY PREDICTED BY RF-SCORE:    0.00 PKD
ROOT
HETATM    1  F   UNL     1     -11.661  14.538  64.190  1.00  0.00    -0.378 F  
HETATM    2  C   UNL     1     -11.934  13.995  65.410  1.00  0.00    -0.380 C  
HETATM    3  F   UNL     1     -11.644  14.964  66.321  1.00  0.00    -0.352 F  
HETATM    4  F   UNL     1     -13.285  13.831  65.450  1.00  0.00    -0.499 F  
HETATM    5  C   UNL     1     -11.188  12.709  65.675  1.00  0.00    -0.344 A  
HETATM    6  C   UNL     1     -10.314  12.154  64.729  1.00  0.00    -0.320 A  
HETATM    7  C   UNL     1      -9.620  10.962  64.997  1.00  0.00    -0.299 A  
HETATM    8  C   UNL     1      -8.671  10.376  63.978  1.00  0.00    -0.194 C  
HETATM    9  C   UNL     1      -9.817  10.316  66.234  1.00  0.00    -0.276 A  
HETATM   10  C   UNL     1     -10.692  10.847  67.191  1.00  0.00    -0.320 A  
HETATM   11  F   UNL     1      -9.021   9.114  63.601  1.00  0.00    -0.221 F  
HETATM   12  F   UNL     1      -8.596  11.100  62.828  1.00  0.00    -0.210 F  
HETATM   13  F   UNL     1      -7.395  10.289  64.444  1.00  0.00    -0.140 F  
HETATM   14  C   UNL     1     -11.364  12.044  66.898  1.00  0.00    -0.400 A  
ENDROOT
BRANCH  10  15
HETATM   15  C   UNL     1     -10.913  10.202  68.486  1.00  0.00    -0.232 A  
HETATM   16  N   UNL     1     -11.160   8.898  68.672  1.00  0.00     0.134 NA 
HETATM   17  N   UNL     1     -11.141   8.761  70.035  1.00  0.00    -0.208 NA 
HETATM   18  N   UNL     1     -10.898  10.935  69.639  1.00  0.00    -0.239 NA 
HETATM   19  C   UNL     1     -11.067  10.032  70.570  1.00  0.00    -0.331 A  
BRANCH  17  20
HETATM   20  C   UNL     1     -11.279   7.534  70.703  1.00  0.00    -0.268 C  
HETATM   21  C   UNL     1     -10.440   6.489  70.842  1.00  0.00    -0.263 C  
BRANCH  21  22
HETATM   22  C   UNL     1      -9.156   6.294  70.127  1.00  0.00    -0.153 C  
HETATM   23  N   UNL     1      -9.047   6.926  68.911  1.00  0.00    -0.134 N  
HETATM   24  O   UNL     1      -8.222   5.651  70.596  1.00  0.00    -0.113 OA 
HETATM   25  H   UNL     1      -9.777   7.539  68.548  1.00  0.00     0.000 HD 
BRANCH  23  26
HETATM   26  N   UNL     1      -7.853   6.669  68.198  1.00  0.00    -0.108 NA 
HETATM   27  H   UNL     1      -6.945   7.030  68.490  1.00  0.00     0.000 HD 
BRANCH  26  28
HETATM   28  C   UNL     1      -8.026   5.866  67.044  1.00  0.00    -0.102 A  
HETATM   29  N   UNL     1      -8.083   4.514  67.131  1.00  0.00    -0.101 NA 
HETATM   30  C   UNL     1      -8.170   3.851  65.948  1.00  0.00    -0.105 A  
HETATM   31  C   UNL     1      -8.187   4.492  64.719  1.00  0.00    -0.108 A  
HETATM   32  N   UNL     1      -8.120   5.834  64.610  1.00  0.00    -0.129 NA 
HETATM   33  C   UNL     1      -8.031   6.495  65.791  1.00  0.00    -0.115 A  
ENDBRANCH  26  28
ENDBRANCH  23  26
ENDBRANCH  21  22
ENDBRANCH  17  20
ENDBRANCH  10  15
TORSDOF 5
ENDMDL
MODEL      185
REMARK 921   NORMALIZED FREE ENERGY PREDICTED BY IDOCK:   -5.60 KCAL/MOL
REMARK 922        TOTAL FREE ENERGY PREDICTED BY IDOCK:   -8.51 KCAL/MOL
REMARK 923 INTER-LIGAND FREE ENERGY PREDICTED BY IDOCK:   -6.73 KCAL/MOL
REMARK 924 INTRA-LIGAND FREE ENERGY PREDICTED BY IDOCK:   -1.78 KCAL/MOL
REMARK 927      BINDING AFFINITY PREDICTED BY RF-SCORE:    0.00 PKD
ROOT
HETATM    1  F   UNL     1     -12.522  14.851  69.313  1.00  0.00    -0.266 F  
HETATM    2  C   UNL     1     -11.706  13.768  69.171  1.00  0.00    -0.334 C  
HETATM    3  F   UNL     1     -11.589  13.226  70.414  1.00  0.00    -0.310 F  
HETATM    4  F   UNL     1     -12.410  12.869  68.430  1.00  0.00    -0.294 F  
HETATM    5  C   UNL     1     -10.368  14.101  68.556  1.00  0.00    -0.249 A  
HETATM    6  C   UNL     1     -10.037  15.409  68.173  1.00  0.00    -0.222 A  
HETATM    7  C   UNL     1      -8.782  15.702  67.611  1.00  0.00    -0.182 A  
HETATM    8  C   UNL     1      -8.426  17.116  67.213  1.00  0.00    -0.196 C  
HETATM    9  C   UNL     1      -7.852  14.660  67.426  1.00  0.00    -0.225 A  
HETATM   10  C   UNL     1      -8.164  13.344  67.792  1.00  0.00    -0.172 A  
HETATM   11  F   UNL     1      -8.119  17.224  65.889  1.00  0.00    -0.304 F  
HETATM   12  F   UNL     1      -9.428  18.010  67.436  1.00  0.00    -0.254 F  
HETATM   13  F   UNL     1      -7.347  17.592  67.890  1.00  0.00    -0.185 F  
HETATM   14  C   UNL     1      -9.422  13.083  68.360  1.00  0.00    -0.165 A  
ENDROOT
BRANCH  10  15
HETATM   15  C   UNL     1      -7.218  12.242  67.618  1.00  0.00    -0.128 A  
HETATM   16  N   UNL     1      -7.421  10.975  68.006  1.00  0.00    -0.088 NA 
HETATM   17  N   UNL     1      -6.340  10.307  67.496  1.00  0.00    -0.058 NA 
HETATM   18  N   UNL     1      -6.001  12.455  67.035  1.00  0.00    -0.279 NA 
HETATM   19  C   UNL     1      -5.472  11.259  66.997  1.00  0.00    -0.085 A  
BRANCH  17  20
HETATM   20  C   UNL     1      -6.159   8.919  67.589  1.00  0.00    -0.047 C  
HETATM   21  C   UNL     1      -6.492   7.913  66.756  1.00  0.00    -0.055 C  
BRANCH  21  22
HETATM   22  C   UNL     1      -7.344   8.021  65.548  1.00  0.00    -0.075 C  
HETATM   23  N   UNL     1      -8.052   9.192  65.418  1.00  0.00    -0.119 N  
HETATM   24  O   UNL     1      -7.392   7.149  64.685  1.00  0.00    -0.068 OA 
HETATM   25  H   UNL     1      -7.954   9.964  66.078  1.00  0.00     0.000 HD 
BRANCH  23  26
HETATM   26  N   UNL     1      -8.925   9.254  64.307  1.00  0.00    -0.395 NA 
HETATM   27  H   UNL     1      -8.927   8.555  63.565  1.00  0.00     0.000 HD 
BRANCH  26  28
HETATM   28  C   UNL     1      -9.797  10.371  64.315  1.00  0.00    -0.322 A  
HETATM   29  N   UNL     1     -10.009  11.104  63.194  1.00  0.00    -0.351 NA 
HETATM   30  C   UNL     1     -10.801  12.198  63.347  1.00  0.00    -0.414 A  
HETATM   31  C   UNL     1     -11.356  12.568  64.562  1.00  0.00    -0.330 A  
HETATM   32  N   UNL     1     -11.149  11.860  65.690  1.00  0.00    -0.313 NA 
HETATM   33  C   UNL     1     -10.355  10.770  65.537  1.00  0.00    -0.241 A  
ENDBRANCH  26  28
ENDBRANCH  23  26
ENDBRANCH  21  22
ENDBRANCH  17  20
ENDBRANCH  10  15
TORSDOF 5
ENDMDL
MODEL      186
REMARK 921   NORMALIZED FREE ENERGY PREDICTED BY IDOCK:   -5.58 KCAL/MOL
REMARK 922        TOTAL FREE ENERGY PREDICTED BY IDOCK:   -8.48 KCAL/MOL
REMARK 923 INTER-LIGAND FREE ENERGY PREDICTED BY IDOCK:   -7.46 KCAL/MOL
REMARK 924 INTRA-LIGAND FREE ENERGY PREDICTED BY IDOCK:   -1.02 KCAL/MOL
REMARK 927      BINDING AFFINITY PREDICTED BY RF-SCORE:    0.00 PKD
ROOT
HETATM    1  F   UNL     1     -12.244  14.874  63.964  1.00  0.00    -0.486 F  
HETATM    2  C   UNL     1     -12.524  13.897  64.871  1.00  0.00    -0.391 C  
HETATM    3  F   UNL     1     -13.757  14.192  65.366  1.00  0.00    -0.221 F  
HETATM    4  F   UNL     1     -12.669  12.752  64.150  1.00  0.00    -0.432 F  
HETATM    5  C   UNL     1     -11.481  13.768  65.955  1.00  0.00    -0.336 A  
HETATM    6  C   UNL     1     -10.343  14.588  65.986  1.00  0.00    -0.320 A  
HETATM    7  C   UNL     1      -9.387  14.460  67.008  1.00  0.00    -0.252 A  
HETATM    8  C   UNL     1      -8.170  15.355  67.043  1.00  0.00    -0.236 C  
HETATM    9  C   UNL     1      -9.578  13.488  68.009  1.00  0.00    -0.221 A  
HETATM   10  C   UNL     1     -10.702  12.651  67.994  1.00  0.00    -0.243 A  
HETATM   11  F   UNL     1      -7.003  14.653  66.999  1.00  0.00    -0.167 F  
HETATM   12  F   UNL     1      -8.114  16.233  66.004  1.00  0.00    -0.335 F  
HETATM   13  F   UNL     1      -8.112  16.113  68.172  1.00  0.00    -0.141 F  
HETATM   14  C   UNL     1     -11.644  12.808  66.965  1.00  0.00    -0.422 A  
ENDROOT
BRANCH  10  15
HETATM   15  C   UNL     1     -10.930  11.635  69.022  1.00  0.00    -0.233 A  
HETATM   16  N   UNL     1     -10.107  10.616  69.303  1.00  0.00    -0.221 NA 
HETATM   17  N   UNL     1     -10.669  10.048  70.416  1.00  0.00    -0.303 NA 
HETATM   18  N   UNL     1     -12.065  11.658  69.783  1.00  0.00    -0.303 NA 
HETATM   19  C   UNL     1     -11.892  10.659  70.610  1.00  0.00    -0.363 A  
BRANCH  17  20
HETATM   20  C   UNL     1     -10.102   8.976  71.122  1.00  0.00    -0.295 C  
HETATM   21  C   UNL     1      -9.101   8.128  70.814  1.00  0.00    -0.159 C  
BRANCH  21  22
HETATM   22  C   UNL     1      -8.434   8.001  69.496  1.00  0.00    -0.131 C  
HETATM   23  N   UNL     1      -9.265   7.780  68.423  1.00  0.00    -0.137 N  
HETATM   24  O   UNL     1      -7.222   8.129  69.346  1.00  0.00    -0.064 OA 
HETATM   25  H   UNL     1     -10.281   7.762  68.516  1.00  0.00     0.000 HD 
BRANCH  23  26
HETATM   26  N   UNL     1      -8.616   7.578  67.183  1.00  0.00    -0.120 NA 
HETATM   27  H   UNL     1      -7.942   8.238  66.797  1.00  0.00     0.000 HD 
BRANCH  26  28
HETATM   28  C   UNL     1      -8.983   6.379  66.523  1.00  0.00    -0.145 A  
HETATM   29  N   UNL     1      -9.730   5.435  67.147  1.00  0.00    -0.136 NA 
HETATM   30  C   UNL     1      -9.948   4.295  66.440  1.00  0.00    -0.203 A  
HETATM   31  C   UNL     1      -9.440   4.083  65.168  1.00  0.00    -0.172 A  
HETATM   32  N   UNL     1      -8.686   5.004  64.535  1.00  0.00    -0.151 NA 
HETATM   33  C   UNL     1      -8.466   6.140  65.243  1.00  0.00    -0.120 A  
ENDBRANCH  26  28
ENDBRANCH  23  26
ENDBRANCH  21  22
ENDBRANCH  17  20
ENDBRANCH  10  15
TORSDOF 5
ENDMDL
MODEL      187
REMARK 921   NORMALIZED FREE ENERGY PREDICTED BY IDOCK:   -5.57 KCAL/MOL
REMARK 922        TOTAL FREE ENERGY PREDICTED BY IDOCK:   -8.46 KCAL/MOL
REMARK 923 INTER-LIGAND FREE ENERGY PREDICTED BY IDOCK:   -6.79 KCAL/MOL
REMARK 924 INTRA-LIGAND FREE ENERGY PREDICTED BY IDOCK:   -1.67 KCAL/MOL
REMARK 927      BINDING AFFINITY PREDICTED BY RF-SCORE:    0.00 PKD
ROOT
HETATM    1  F   UNL     1      -6.928   9.474  70.836  1.00  0.00    -0.094 F  
HETATM    2  C   UNL     1      -7.186  10.153  69.683  1.00  0.00    -0.127 C  
HETATM    3  F   UNL     1      -7.498  11.422  70.060  1.00  0.00     0.082 F  
HETATM    4  F   UNL     1      -5.996  10.235  69.027  1.00  0.00    -0.038 F  
HETATM    5  C   UNL     1      -8.265   9.516  68.841  1.00  0.00    -0.116 A  
HETATM    6  C   UNL     1      -8.912   8.336  69.237  1.00  0.00    -0.147 A  
HETATM    7  C   UNL     1      -9.922   7.764  68.446  1.00  0.00    -0.195 A  
HETATM    8  C   UNL     1     -10.623   6.499  68.886  1.00  0.00    -0.241 C  
HETATM    9  C   UNL     1     -10.280   8.386  67.234  1.00  0.00    -0.349 A  
HETATM   10  C   UNL     1      -9.642   9.560  66.812  1.00  0.00    -0.229 A  
HETATM   11  F   UNL     1     -10.491   5.487  67.983  1.00  0.00    -0.218 F  
HETATM   12  F   UNL     1     -10.160   6.006  70.067  1.00  0.00    -0.187 F  
HETATM   13  F   UNL     1     -11.961   6.678  69.058  1.00  0.00    -0.143 F  
HETATM   14  C   UNL     1      -8.643  10.114  67.629  1.00  0.00    -0.118 A  
ENDROOT
BRANCH  10  15
HETATM   15  C   UNL     1      -9.995  10.232  65.561  1.00  0.00    -0.296 A  
HETATM   16  N   UNL     1     -11.145  10.879  65.325  1.00  0.00     0.045 NA 
HETATM   17  N   UNL     1     -10.942  11.455  64.099  1.00  0.00    -0.359 NA 
HETATM   18  N   UNL     1      -9.136  10.221  64.499  1.00  0.00    -0.212 NA 
HETATM   19  C   UNL     1      -9.752  10.955  63.608  1.00  0.00    -0.329 A  
BRANCH  17  20
HETATM   20  C   UNL     1     -11.863  12.306  63.469  1.00  0.00    -0.514 C  
HETATM   21  C   UNL     1     -12.133  13.616  63.635  1.00  0.00    -0.397 C  
BRANCH  21  22
HETATM   22  C   UNL     1     -11.616  14.487  64.717  1.00  0.00    -0.413 C  
HETATM   23  N   UNL     1     -11.199  13.841  65.857  1.00  0.00    -0.300 N  
HETATM   24  O   UNL     1     -11.516  15.705  64.603  1.00  0.00    -0.403 OA 
HETATM   25  H   UNL     1     -11.189  12.824  65.934  1.00  0.00     0.000 HD 
BRANCH  23  26
HETATM   26  N   UNL     1     -10.784  14.683  66.915  1.00  0.00    -0.289 NA 
HETATM   27  H   UNL     1     -11.437  15.232  67.474  1.00  0.00     0.000 HD 
BRANCH  26  28
HETATM   28  C   UNL     1      -9.384  14.698  67.132  1.00  0.00    -0.223 A  
HETATM   29  N   UNL     1      -8.757  13.663  67.743  1.00  0.00    -0.172 NA 
HETATM   30  C   UNL     1      -7.427  13.829  67.967  1.00  0.00    -0.139 A  
HETATM   31  C   UNL     1      -6.737  14.979  67.614  1.00  0.00    -0.177 A  
HETATM   32  N   UNL     1      -7.343  16.023  67.016  1.00  0.00    -0.221 NA 
HETATM   33  C   UNL     1      -8.672  15.858  66.796  1.00  0.00    -0.269 A  
ENDBRANCH  26  28
ENDBRANCH  23  26
ENDBRANCH  21  22
ENDBRANCH  17  20
ENDBRANCH  10  15
TORSDOF 5
ENDMDL
MODEL      188
REMARK 921   NORMALIZED FREE ENERGY PREDICTED BY IDOCK:   -5.56 KCAL/MOL
REMARK 922        TOTAL FREE ENERGY PREDICTED BY IDOCK:   -8.45 KCAL/MOL
REMARK 923 INTER-LIGAND FREE ENERGY PREDICTED BY IDOCK:   -7.67 KCAL/MOL
REMARK 924 INTRA-LIGAND FREE ENERGY PREDICTED BY IDOCK:   -0.77 KCAL/MOL
REMARK 927      BINDING AFFINITY PREDICTED BY RF-SCORE:    0.00 PKD
ROOT
HETATM    1  F   UNL     1     -12.301  14.378  64.183  1.00  0.00    -0.481 F  
HETATM    2  C   UNL     1     -11.983  13.083  64.461  1.00  0.00    -0.394 C  
HETATM    3  F   UNL     1     -12.995  12.332  63.948  1.00  0.00    -0.507 F  
HETATM    4  F   UNL     1     -10.884  12.801  63.708  1.00  0.00    -0.370 F  
HETATM    5  C   UNL     1     -11.756  12.823  65.931  1.00  0.00    -0.464 A  
HETATM    6  C   UNL     1     -11.865  13.844  66.887  1.00  0.00    -0.453 A  
HETATM    7  C   UNL     1     -11.661  13.581  68.252  1.00  0.00    -0.394 A  
HETATM    8  C   UNL     1     -11.792  14.683  69.278  1.00  0.00    -0.321 C  
HETATM    9  C   UNL     1     -11.336  12.272  68.658  1.00  0.00    -0.339 A  
HETATM   10  C   UNL     1     -11.213  11.238  67.721  1.00  0.00    -0.354 A  
HETATM   11  F   UNL     1     -10.648  14.871  69.993  1.00  0.00    -0.244 F  
HETATM   12  F   UNL     1     -12.095  15.894  68.736  1.00  0.00    -0.388 F  
HETATM   13  F   UNL     1     -12.770  14.431  70.191  1.00  0.00    -0.377 F  
HETATM   14  C   UNL     1     -11.431  11.528  66.365  1.00  0.00    -0.150 A  
ENDROOT
BRANCH  10  15
HETATM   15  C   UNL     1     -10.881   9.867  68.112  1.00  0.00    -0.234 A  
HETATM   16  N   UNL     1     -10.750   9.429  69.373  1.00  0.00    -0.226 NA 
HETATM   17  N   UNL     1     -10.591   8.077  69.227  1.00  0.00    -0.212 NA 
HETATM   18  N   UNL     1     -10.654   8.909  67.166  1.00  0.00    -0.274 NA 
HETATM   19  C   UNL     1     -10.453   7.828  67.875  1.00  0.00    -0.201 A  
BRANCH  17  20
HETATM   20  C   UNL     1     -10.492   7.177  70.299  1.00  0.00    -0.217 C  
HETATM   21  C   UNL     1      -9.531   6.298  70.646  1.00  0.00    -0.182 C  
BRANCH  21  22
HETATM   22  C   UNL     1      -8.356   5.915  69.827  1.00  0.00    -0.124 C  
HETATM   23  N   UNL     1      -8.613   5.081  68.765  1.00  0.00    -0.086 N  
HETATM   24  O   UNL     1      -7.225   6.343  70.041  1.00  0.00    -0.075 OA 
HETATM   25  H   UNL     1      -9.559   4.790  68.517  1.00  0.00     0.000 HD 
BRANCH  23  26
HETATM   26  N   UNL     1      -7.477   4.655  68.039  1.00  0.00    -0.073 NA 
HETATM   27  H   UNL     1      -6.707   4.141  68.466  1.00  0.00     0.000 HD 
BRANCH  26  28
HETATM   28  C   UNL     1      -7.500   5.003  66.666  1.00  0.00    -0.087 A  
HETATM   29  N   UNL     1      -7.730   6.280  66.269  1.00  0.00    -0.097 NA 
HETATM   30  C   UNL     1      -7.809   6.474  64.927  1.00  0.00    -0.114 A  
HETATM   31  C   UNL     1      -7.680   5.448  64.004  1.00  0.00    -0.087 A  
HETATM   32  N   UNL     1      -7.464   4.172  64.376  1.00  0.00    -0.070 NA 
HETATM   33  C   UNL     1      -7.387   3.978  65.717  1.00  0.00    -0.076 A  
ENDBRANCH  26  28
ENDBRANCH  23  26
ENDBRANCH  21  22
ENDBRANCH  17  20
ENDBRANCH  10  15
TORSDOF 5
ENDMDL
MODEL      189
REMARK 921   NORMALIZED FREE ENERGY PREDICTED BY IDOCK:   -5.55 KCAL/MOL
REMARK 922        TOTAL FREE ENERGY PREDICTED BY IDOCK:   -8.44 KCAL/MOL
REMARK 923 INTER-LIGAND FREE ENERGY PREDICTED BY IDOCK:   -7.32 KCAL/MOL
REMARK 924 INTRA-LIGAND FREE ENERGY PREDICTED BY IDOCK:   -1.11 KCAL/MOL
REMARK 927      BINDING AFFINITY PREDICTED BY RF-SCORE:    0.00 PKD
ROOT
HETATM    1  F   UNL     1     -10.093  12.114  62.896  1.00  0.00    -0.382 F  
HETATM    2  C   UNL     1     -10.850  12.167  64.027  1.00  0.00    -0.383 C  
HETATM    3  F   UNL     1     -10.958  13.487  64.341  1.00  0.00    -0.343 F  
HETATM    4  F   UNL     1     -12.097  11.763  63.658  1.00  0.00    -0.512 F  
HETATM    5  C   UNL     1     -10.290  11.345  65.163  1.00  0.00    -0.344 A  
HETATM    6  C   UNL     1      -9.106  10.605  65.025  1.00  0.00    -0.229 A  
HETATM    7  C   UNL     1      -8.594   9.854  66.097  1.00  0.00    -0.138 A  
HETATM    8  C   UNL     1      -7.311   9.070  65.945  1.00  0.00    -0.093 C  
HETATM    9  C   UNL     1      -9.290   9.842  67.322  1.00  0.00    -0.167 A  
HETATM   10  C   UNL     1     -10.479  10.565  67.480  1.00  0.00    -0.284 A  
HETATM   11  F   UNL     1      -7.482   7.737  66.176  1.00  0.00    -0.073 F  
HETATM   12  F   UNL     1      -6.762   9.164  64.704  1.00  0.00    -0.078 F  
HETATM   13  F   UNL     1      -6.344   9.481  66.811  1.00  0.00    -0.061 F  
HETATM   14  C   UNL     1     -10.962  11.314  66.395  1.00  0.00    -0.285 A  
ENDROOT
BRANCH  10  15
HETATM   15  C   UNL     1     -11.222  10.576  68.741  1.00  0.00    -0.262 A  
HETATM   16  N   UNL     1     -11.032   9.729  69.762  1.00  0.00    -0.247 NA 
HETATM   17  N   UNL     1     -11.840  10.230  70.748  1.00  0.00    -0.336 NA 
HETATM   18  N   UNL     1     -12.217  11.488  68.954  1.00  0.00    -0.419 NA 
HETATM   19  C   UNL     1     -12.597  11.236  70.181  1.00  0.00    -0.135 A  
BRANCH  17  20
HETATM   20  C   UNL     1     -11.913   9.703  72.047  1.00  0.00    -0.132 C  
HETATM   21  C   UNL     1     -11.923   8.435  72.501  1.00  0.00    -0.418 C  
BRANCH  21  22
HETATM   22  C   UNL     1     -12.050   7.209  71.676  1.00  0.00    -0.336 C  
HETATM   23  N   UNL     1     -11.214   7.132  70.588  1.00  0.00    -0.270 N  
HETATM   24  O   UNL     1     -12.814   6.291  71.959  1.00  0.00    -0.178 OA 
HETATM   25  H   UNL     1     -10.508   7.842  70.390  1.00  0.00     0.000 HD 
BRANCH  23  26
HETATM   26  N   UNL     1     -11.398   5.999  69.760  1.00  0.00    -0.380 NA 
HETATM   27  H   UNL     1     -12.318   5.654  69.491  1.00  0.00     0.000 HD 
BRANCH  26  28
HETATM   28  C   UNL     1     -10.192   5.386  69.338  1.00  0.00    -0.264 A  
HETATM   29  N   UNL     1      -9.788   4.201  69.857  1.00  0.00    -0.212 NA 
HETATM   30  C   UNL     1      -8.576   3.754  69.432  1.00  0.00    -0.074 A  
HETATM   31  C   UNL     1      -7.782   4.455  68.538  1.00  0.00    -0.074 A  
HETATM   32  N   UNL     1      -8.159   5.640  68.020  1.00  0.00    -0.097 NA 
HETATM   33  C   UNL     1      -9.368   6.086  68.446  1.00  0.00    -0.119 A  
ENDBRANCH  26  28
ENDBRANCH  23  26
ENDBRANCH  21  22
ENDBRANCH  17  20
ENDBRANCH  10  15
TORSDOF 5
ENDMDL
MODEL      190
REMARK 921   NORMALIZED FREE ENERGY PREDICTED BY IDOCK:   -5.55 KCAL/MOL
REMARK 922        TOTAL FREE ENERGY PREDICTED BY IDOCK:   -8.43 KCAL/MOL
REMARK 923 INTER-LIGAND FREE ENERGY PREDICTED BY IDOCK:   -7.54 KCAL/MOL
REMARK 924 INTRA-LIGAND FREE ENERGY PREDICTED BY IDOCK:   -0.89 KCAL/MOL
REMARK 927      BINDING AFFINITY PREDICTED BY RF-SCORE:    0.00 PKD
ROOT
HETATM    1  F   UNL     1      -9.305   6.661  70.696  1.00  0.00    -0.158 F  
HETATM    2  C   UNL     1      -9.297   7.391  69.545  1.00  0.00    -0.156 C  
HETATM    3  F   UNL     1      -8.017   7.827  69.390  1.00  0.00    -0.112 F  
HETATM    4  F   UNL     1      -9.517   6.500  68.539  1.00  0.00    -0.125 F  
HETATM    5  C   UNL     1     -10.298   8.521  69.544  1.00  0.00    -0.218 A  
HETATM    6  C   UNL     1     -11.143   8.760  70.637  1.00  0.00    -0.285 A  
HETATM    7  C   UNL     1     -12.061   9.823  70.623  1.00  0.00    -0.311 A  
HETATM    8  C   UNL     1     -12.960  10.083  71.810  1.00  0.00    -0.458 C  
HETATM    9  C   UNL     1     -12.134  10.653  69.486  1.00  0.00    -0.285 A  
HETATM   10  C   UNL     1     -11.307  10.428  68.378  1.00  0.00    -0.292 A  
HETATM   11  F   UNL     1     -14.283  10.027  71.486  1.00  0.00    -0.040 F  
HETATM   12  F   UNL     1     -12.788   9.192  72.825  1.00  0.00    -0.446 F  
HETATM   13  F   UNL     1     -12.758  11.313  72.358  1.00  0.00    -0.288 F  
HETATM   14  C   UNL     1     -10.392   9.364  68.425  1.00  0.00    -0.238 A  
ENDROOT
BRANCH  10  15
HETATM   15  C   UNL     1     -11.355  11.275  67.186  1.00  0.00    -0.220 A  
HETATM   16  N   UNL     1     -12.225  12.273  66.976  1.00  0.00    -0.430 NA 
HETATM   17  N   UNL     1     -11.779  12.848  65.816  1.00  0.00    -0.368 NA 
HETATM   18  N   UNL     1     -10.482  11.074  66.154  1.00  0.00    -0.251 NA 
HETATM   19  C   UNL     1     -10.781  12.034  65.317  1.00  0.00    -0.288 A  
BRANCH  17  20
HETATM   20  C   UNL     1     -12.345  13.996  65.241  1.00  0.00    -0.465 C  
HETATM   21  C   UNL     1     -11.891  15.260  65.130  1.00  0.00    -0.035 C  
BRANCH  21  22
HETATM   22  C   UNL     1     -10.688  15.821  65.790  1.00  0.00    -0.327 C  
HETATM   23  N   UNL     1     -10.761  15.952  67.156  1.00  0.00    -0.316 N  
HETATM   24  O   UNL     1      -9.665  16.112  65.177  1.00  0.00    -0.346 OA 
HETATM   25  H   UNL     1     -11.568  15.630  67.692  1.00  0.00     0.000 HD 
BRANCH  23  26
HETATM   26  N   UNL     1      -9.643  16.563  67.769  1.00  0.00    -0.230 NA 
HETATM   27  H   UNL     1      -9.627  17.547  68.036  1.00  0.00     0.000 HD 
BRANCH  26  28
HETATM   28  C   UNL     1      -8.546  15.691  67.979  1.00  0.00    -0.155 A  
HETATM   29  N   UNL     1      -7.268  16.132  67.872  1.00  0.00    -0.124 NA 
HETATM   30  C   UNL     1      -6.305  15.184  68.015  1.00  0.00    -0.146 A  
HETATM   31  C   UNL     1      -6.586  13.846  68.242  1.00  0.00    -0.110 A  
HETATM   32  N   UNL     1      -7.849  13.385  68.340  1.00  0.00    -0.136 NA 
HETATM   33  C   UNL     1      -8.810  14.332  68.195  1.00  0.00    -0.183 A  
ENDBRANCH  26  28
ENDBRANCH  23  26
ENDBRANCH  21  22
ENDBRANCH  17  20
ENDBRANCH  10  15
TORSDOF 5
ENDMDL
MODEL      191
REMARK 921   NORMALIZED FREE ENERGY PREDICTED BY IDOCK:   -5.53 KCAL/MOL
REMARK 922        TOTAL FREE ENERGY PREDICTED BY IDOCK:   -8.41 KCAL/MOL
REMARK 923 INTER-LIGAND FREE ENERGY PREDICTED BY IDOCK:   -6.74 KCAL/MOL
REMARK 924 INTRA-LIGAND FREE ENERGY PREDICTED BY IDOCK:   -1.67 KCAL/MOL
REMARK 927      BINDING AFFINITY PREDICTED BY RF-SCORE:    0.00 PKD
ROOT
HETATM    1  F   UNL     1     -13.191   9.293  72.946  1.00  0.00    -0.462 F  
HETATM    2  C   UNL     1     -12.485   8.351  72.260  1.00  0.00    -0.361 C  
HETATM    3  F   UNL     1     -11.594   7.834  73.148  1.00  0.00    -0.402 F  
HETATM    4  F   UNL     1     -13.368   7.352  71.985  1.00  0.00    -0.319 F  
HETATM    5  C   UNL     1     -11.818   8.889  71.016  1.00  0.00    -0.324 A  
HETATM    6  C   UNL     1     -11.943  10.232  70.633  1.00  0.00    -0.436 A  
HETATM    7  C   UNL     1     -11.306  10.717  69.478  1.00  0.00    -0.355 A  
HETATM    8  C   UNL     1     -11.435  12.169  69.079  1.00  0.00    -0.297 C  
HETATM    9  C   UNL     1     -10.539   9.833  68.694  1.00  0.00    -0.249 A  
HETATM   10  C   UNL     1     -10.407   8.485  69.051  1.00  0.00    -0.229 A  
HETATM   11  F   UNL     1     -11.980  12.324  67.839  1.00  0.00    -0.387 F  
HETATM   12  F   UNL     1     -12.219  12.896  69.922  1.00  0.00    -0.345 F  
HETATM   13  F   UNL     1     -10.234  12.809  69.045  1.00  0.00    -0.173 F  
HETATM   14  C   UNL     1     -11.047   8.031  70.216  1.00  0.00    -0.224 A  
ENDROOT
BRANCH  10  15
HETATM   15  C   UNL     1      -9.613   7.544  68.261  1.00  0.00    -0.152 A  
HETATM   16  N   UNL     1      -8.449   6.999  68.641  1.00  0.00    -0.121 NA 
HETATM   17  N   UNL     1      -8.183   6.090  67.651  1.00  0.00    -0.109 NA 
HETATM   18  N   UNL     1     -10.025   7.161  67.015  1.00  0.00    -0.198 NA 
HETATM   19  C   UNL     1      -9.117   6.292  66.654  1.00  0.00    -0.144 A  
BRANCH  17  20
HETATM   20  C   UNL     1      -7.086   5.216  67.662  1.00  0.00    -0.066 C  
HETATM   21  C   UNL     1      -6.900   4.018  68.251  1.00  0.00    -0.047 C  
BRANCH  21  22
HETATM   22  C   UNL     1      -7.800   3.377  69.239  1.00  0.00    -0.050 C  
HETATM   23  N   UNL     1      -8.739   4.201  69.815  1.00  0.00    -0.071 N  
HETATM   24  O   UNL     1      -7.756   2.179  69.505  1.00  0.00    -0.043 OA 
HETATM   25  H   UNL     1      -8.850   5.177  69.539  1.00  0.00     0.000 HD 
BRANCH  23  26
HETATM   26  N   UNL     1      -9.539   3.603  70.817  1.00  0.00    -0.172 NA 
HETATM   27  H   UNL     1     -10.056   2.737  70.668  1.00  0.00     0.000 HD 
BRANCH  26  28
HETATM   28  C   UNL     1      -9.560   4.311  72.043  1.00  0.00    -0.150 A  
HETATM   29  N   UNL     1      -8.640   5.268  72.317  1.00  0.00    -0.125 NA 
HETATM   30  C   UNL     1      -8.714   5.819  73.558  1.00  0.00    -0.123 A  
HETATM   31  C   UNL     1      -9.652   5.433  74.503  1.00  0.00    -0.164 A  
HETATM   32  N   UNL     1     -10.567   4.476  74.255  1.00  0.00    -0.267 NA 
HETATM   33  C   UNL     1     -10.491   3.925  73.018  1.00  0.00    -0.175 A  
ENDBRANCH  26  28
ENDBRANCH  23  26
ENDBRANCH  21  22
ENDBRANCH  17  20
ENDBRANCH  10  15
TORSDOF 5
ENDMDL
MODEL      192
REMARK 921   NORMALIZED FREE ENERGY PREDICTED BY IDOCK:   -5.52 KCAL/MOL
REMARK 922        TOTAL FREE ENERGY PREDICTED BY IDOCK:   -8.39 KCAL/MOL
REMARK 923 INTER-LIGAND FREE ENERGY PREDICTED BY IDOCK:   -6.46 KCAL/MOL
REMARK 924 INTRA-LIGAND FREE ENERGY PREDICTED BY IDOCK:   -1.94 KCAL/MOL
REMARK 927      BINDING AFFINITY PREDICTED BY RF-SCORE:    0.00 PKD
ROOT
HETATM    1  F   UNL     1     -10.456  11.539  67.658  1.00  0.00    -0.191 F  
HETATM    2  C   UNL     1      -9.472  10.937  68.384  1.00  0.00    -0.178 C  
HETATM    3  F   UNL     1      -8.852  10.079  67.530  1.00  0.00    -0.126 F  
HETATM    4  F   UNL     1      -8.566  11.915  68.661  1.00  0.00    -0.154 F  
HETATM    5  C   UNL     1      -9.979  10.251  69.629  1.00  0.00    -0.240 A  
HETATM    6  C   UNL     1     -11.338  10.260  69.976  1.00  0.00    -0.370 A  
HETATM    7  C   UNL     1     -11.793   9.606  71.134  1.00  0.00    -0.448 A  
HETATM    8  C   UNL     1     -13.261   9.609  71.494  1.00  0.00    -0.399 C  
HETATM    9  C   UNL     1     -10.864   8.941  71.957  1.00  0.00    -0.404 A  
HETATM   10  C   UNL     1      -9.500   8.927  71.637  1.00  0.00    -0.351 A  
HETATM   11  F   UNL     1     -13.498  10.163  72.717  1.00  0.00    -0.268 F  
HETATM   12  F   UNL     1     -14.034  10.303  70.615  1.00  0.00    -0.114 F  
HETATM   13  F   UNL     1     -13.788   8.355  71.541  1.00  0.00    -0.363 F  
HETATM   14  C   UNL     1      -9.076   9.580  70.468  1.00  0.00    -0.276 A  
ENDROOT
BRANCH  10  15
HETATM   15  C   UNL     1      -8.511   8.241  72.469  1.00  0.00    -0.187 A  
HETATM   16  N   UNL     1      -8.740   7.140  73.198  1.00  0.00    -0.124 NA 
HETATM   17  N   UNL     1      -7.497   6.801  73.665  1.00  0.00    -0.082 NA 
HETATM   18  N   UNL     1      -7.236   8.720  72.572  1.00  0.00    -0.333 NA 
HETATM   19  C   UNL     1      -6.643   7.834  73.332  1.00  0.00    -0.081 A  
BRANCH  17  20
HETATM   20  C   UNL     1      -7.230   5.653  74.426  1.00  0.00    -0.085 C  
HETATM   21  C   UNL     1      -7.092   4.358  74.077  1.00  0.00    -0.067 C  
BRANCH  21  22
HETATM   22  C   UNL     1      -7.388   3.772  72.748  1.00  0.00    -0.062 C  
HETATM   23  N   UNL     1      -7.969   4.621  71.836  1.00  0.00    -0.098 N  
HETATM   24  O   UNL     1      -7.097   2.618  72.448  1.00  0.00    -0.029 OA 
HETATM   25  H   UNL     1      -8.134   5.607  72.038  1.00  0.00     0.000 HD 
BRANCH  23  26
HETATM   26  N   UNL     1      -8.323   4.033  70.599  1.00  0.00    -0.069 NA 
HETATM   27  H   UNL     1      -7.940   3.144  70.279  1.00  0.00     0.000 HD 
BRANCH  26  28
HETATM   28  C   UNL     1      -9.257   4.785  69.844  1.00  0.00    -0.124 A  
HETATM   29  N   UNL     1      -9.063   5.022  68.523  1.00  0.00    -0.107 NA 
HETATM   30  C   UNL     1      -9.985   5.823  67.927  1.00  0.00    -0.137 A  
HETATM   31  C   UNL     1     -11.053   6.385  68.607  1.00  0.00    -0.311 A  
HETATM   32  N   UNL     1     -11.258   6.172  69.922  1.00  0.00    -0.406 NA 
HETATM   33  C   UNL     1     -10.336   5.374  70.517  1.00  0.00    -0.274 A  
ENDBRANCH  26  28
ENDBRANCH  23  26
ENDBRANCH  21  22
ENDBRANCH  17  20
ENDBRANCH  10  15
TORSDOF 5
ENDMDL
MODEL      193
REMARK 921   NORMALIZED FREE ENERGY PREDICTED BY IDOCK:   -5.51 KCAL/MOL
REMARK 922        TOTAL FREE ENERGY PREDICTED BY IDOCK:   -8.39 KCAL/MOL
REMARK 923 INTER-LIGAND FREE ENERGY PREDICTED BY IDOCK:   -7.05 KCAL/MOL
REMARK 924 INTRA-LIGAND FREE ENERGY PREDICTED BY IDOCK:   -1.33 KCAL/MOL
REMARK 927      BINDING AFFINITY PREDICTED BY RF-SCORE:    0.00 PKD
ROOT
HETATM    1  F   UNL     1      -9.874   9.876  62.331  1.00  0.00    -0.248 F  
HETATM    2  C   UNL     1      -9.059  10.005  63.416  1.00  0.00    -0.273 C  
HETATM    3  F   UNL     1      -9.127   8.816  64.074  1.00  0.00    -0.086 F  
HETATM    4  F   UNL     1      -7.794  10.092  62.921  1.00  0.00    -0.123 F  
HETATM    5  C   UNL     1      -9.416  11.177  64.298  1.00  0.00    -0.242 A  
HETATM    6  C   UNL     1     -10.484  12.033  63.993  1.00  0.00    -0.410 A  
HETATM    7  C   UNL     1     -10.808  13.113  64.832  1.00  0.00    -0.348 A  
HETATM    8  C   UNL     1     -11.968  14.023  64.504  1.00  0.00    -0.448 C  
HETATM    9  C   UNL     1     -10.038  13.337  65.991  1.00  0.00    -0.301 A  
HETATM   10  C   UNL     1      -8.960  12.502  66.311  1.00  0.00    -0.009 A  
HETATM   11  F   UNL     1     -11.588  15.324  64.360  1.00  0.00    -0.380 F  
HETATM   12  F   UNL     1     -12.607  13.693  63.348  1.00  0.00    -0.453 F  
HETATM   13  F   UNL     1     -12.926  14.016  65.472  1.00  0.00    -0.526 F  
HETATM   14  C   UNL     1      -8.667  11.425  65.459  1.00  0.00     0.030 A  
ENDROOT
BRANCH  10  15
HETATM   15  C   UNL     1      -8.146  12.706  67.509  1.00  0.00    -0.178 A  
HETATM   16  N   UNL     1      -7.556  11.736  68.222  1.00  0.00    -0.114 NA 
HETATM   17  N   UNL     1      -6.800  12.424  69.134  1.00  0.00    -0.095 NA 
HETATM   18  N   UNL     1      -7.945  13.962  68.008  1.00  0.00    -0.140 NA 
HETATM   19  C   UNL     1      -7.140  13.757  69.019  1.00  0.00    -0.088 A  
BRANCH  17  20
HETATM   20  C   UNL     1      -5.937  11.814  70.058  1.00  0.00    -0.158 C  
HETATM   21  C   UNL     1      -5.906  10.568  70.569  1.00  0.00    -0.107 C  
BRANCH  21  22
HETATM   22  C   UNL     1      -6.949   9.527  70.407  1.00  0.00    -0.112 C  
HETATM   23  N   UNL     1      -8.248   9.956  70.544  1.00  0.00    -0.220 N  
HETATM   24  O   UNL     1      -6.690   8.362  70.122  1.00  0.00    -0.038 OA 
HETATM   25  H   UNL     1      -8.485  10.938  70.690  1.00  0.00     0.000 HD 
BRANCH  23  26
HETATM   26  N   UNL     1      -9.233   8.944  70.470  1.00  0.00    -0.185 NA 
HETATM   27  H   UNL     1      -9.004   7.953  70.390  1.00  0.00     0.000 HD 
BRANCH  26  28
HETATM   28  C   UNL     1     -10.565   9.424  70.516  1.00  0.00    -0.271 A  
HETATM   29  N   UNL     1     -10.879  10.667  70.074  1.00  0.00    -0.257 NA 
HETATM   30  C   UNL     1     -12.173  11.044  70.245  1.00  0.00    -0.363 A  
HETATM   31  C   UNL     1     -13.125  10.233  70.842  1.00  0.00    -0.344 A  
HETATM   32  N   UNL     1     -12.832   8.999  71.299  1.00  0.00    -0.285 NA 
HETATM   33  C   UNL     1     -11.539   8.625  71.130  1.00  0.00    -0.281 A  
ENDBRANCH  26  28
ENDBRANCH  23  26
ENDBRANCH  21  22
ENDBRANCH  17  20
ENDBRANCH  10  15
TORSDOF 5
ENDMDL
MODEL      194
REMARK 921   NORMALIZED FREE ENERGY PREDICTED BY IDOCK:   -5.51 KCAL/MOL
REMARK 922        TOTAL FREE ENERGY PREDICTED BY IDOCK:   -8.38 KCAL/MOL
REMARK 923 INTER-LIGAND FREE ENERGY PREDICTED BY IDOCK:   -6.69 KCAL/MOL
REMARK 924 INTRA-LIGAND FREE ENERGY PREDICTED BY IDOCK:   -1.69 KCAL/MOL
REMARK 927      BINDING AFFINITY PREDICTED BY RF-SCORE:    0.00 PKD
ROOT
HETATM    1  F   UNL     1     -10.944   7.956  71.637  1.00  0.00    -0.241 F  
HETATM    2  C   UNL     1     -10.857   8.835  70.599  1.00  0.00    -0.232 C  
HETATM    3  F   UNL     1     -12.080   9.423  70.507  1.00  0.00    -0.280 F  
HETATM    4  F   UNL     1      -9.998   9.808  71.008  1.00  0.00    -0.335 F  
HETATM    5  C   UNL     1     -10.425   8.191  69.303  1.00  0.00    -0.221 A  
HETATM    6  C   UNL     1     -10.141   6.821  69.218  1.00  0.00    -0.179 A  
HETATM    7  C   UNL     1      -9.750   6.237  68.000  1.00  0.00    -0.122 A  
HETATM    8  C   UNL     1      -9.458   4.758  67.912  1.00  0.00    -0.144 C  
HETATM    9  C   UNL     1      -9.636   7.050  66.855  1.00  0.00    -0.214 A  
HETATM   10  C   UNL     1      -9.905   8.423  66.918  1.00  0.00    -0.313 A  
HETATM   11  F   UNL     1      -8.188   4.499  67.491  1.00  0.00    -0.098 F  
HETATM   12  F   UNL     1      -9.595   4.107  69.100  1.00  0.00    -0.205 F  
HETATM   13  F   UNL     1     -10.283   4.114  67.041  1.00  0.00    -0.222 F  
HETATM   14  C   UNL     1     -10.303   8.976  68.146  1.00  0.00    -0.262 A  
ENDROOT
BRANCH  10  15
HETATM   15  C   UNL     1      -9.801   9.292  65.745  1.00  0.00    -0.231 A  
HETATM   16  N   UNL     1     -10.750  10.136  65.316  1.00  0.00     0.213 NA 
HETATM   17  N   UNL     1     -10.136  10.820  64.301  1.00  0.00    -0.343 NA 
HETATM   18  N   UNL     1      -8.678   9.279  64.967  1.00  0.00    -0.180 NA 
HETATM   19  C   UNL     1      -8.920  10.204  64.074  1.00  0.00    -0.238 A  
BRANCH  17  20
HETATM   20  C   UNL     1     -10.729  11.876  63.593  1.00  0.00    -0.442 C  
HETATM   21  C   UNL     1     -10.811  13.196  63.853  1.00  0.00    -0.268 C  
BRANCH  21  22
HETATM   22  C   UNL     1     -10.427  13.865  65.119  1.00  0.00    -0.393 C  
HETATM   23  N   UNL     1      -9.578  13.157  65.937  1.00  0.00    -0.459 N  
HETATM   24  O   UNL     1     -10.795  14.998  65.413  1.00  0.00    -0.319 OA 
HETATM   25  H   UNL     1      -9.189  12.253  65.666  1.00  0.00     0.000 HD 
BRANCH  23  26
HETATM   26  N   UNL     1      -9.281  13.766  67.178  1.00  0.00    -0.234 NA 
HETATM   27  H   UNL     1      -9.780  14.585  67.526  1.00  0.00     0.000 HD 
BRANCH  26  28
HETATM   28  C   UNL     1      -8.232  13.141  67.896  1.00  0.00    -0.162 A  
HETATM   29  N   UNL     1      -8.061  11.797  67.860  1.00  0.00    -0.136 NA 
HETATM   30  C   UNL     1      -7.072  11.308  68.654  1.00  0.00    -0.093 A  
HETATM   31  C   UNL     1      -6.286  12.110  69.466  1.00  0.00    -0.122 A  
HETATM   32  N   UNL     1      -6.448  13.446  69.526  1.00  0.00    -0.105 NA 
HETATM   33  C   UNL     1      -7.437  13.934  68.735  1.00  0.00    -0.114 A  
ENDBRANCH  26  28
ENDBRANCH  23  26
ENDBRANCH  21  22
ENDBRANCH  17  20
ENDBRANCH  10  15
TORSDOF 5
ENDMDL
MODEL      195
REMARK 921   NORMALIZED FREE ENERGY PREDICTED BY IDOCK:   -5.48 KCAL/MOL
REMARK 922        TOTAL FREE ENERGY PREDICTED BY IDOCK:   -8.35 KCAL/MOL
REMARK 923 INTER-LIGAND FREE ENERGY PREDICTED BY IDOCK:   -6.75 KCAL/MOL
REMARK 924 INTRA-LIGAND FREE ENERGY PREDICTED BY IDOCK:   -1.61 KCAL/MOL
REMARK 927      BINDING AFFINITY PREDICTED BY RF-SCORE:    0.00 PKD
ROOT
HETATM    1  F   UNL     1     -13.429  13.702  64.852  1.00  0.00    -0.062 F  
HETATM    2  C   UNL     1     -12.253  13.039  64.669  1.00  0.00    -0.421 C  
HETATM    3  F   UNL     1     -12.580  11.857  64.079  1.00  0.00    -0.481 F  
HETATM    4  F   UNL     1     -11.568  13.752  63.733  1.00  0.00    -0.379 F  
HETATM    5  C   UNL     1     -11.465  12.852  65.943  1.00  0.00    -0.387 A  
HETATM    6  C   UNL     1     -11.928  13.335  67.176  1.00  0.00    -0.400 A  
HETATM    7  C   UNL     1     -11.185  13.142  68.353  1.00  0.00    -0.305 A  
HETATM    8  C   UNL     1     -11.696  13.654  69.680  1.00  0.00    -0.320 C  
HETATM    9  C   UNL     1      -9.955  12.459  68.285  1.00  0.00    -0.224 A  
HETATM   10  C   UNL     1      -9.467  11.976  67.064  1.00  0.00    -0.199 A  
HETATM   11  F   UNL     1     -10.837  14.533  70.267  1.00  0.00    -0.202 F  
HETATM   12  F   UNL     1     -12.888  14.305  69.587  1.00  0.00    -0.299 F  
HETATM   13  F   UNL     1     -11.890  12.655  70.584  1.00  0.00    -0.387 F  
HETATM   14  C   UNL     1     -10.235  12.175  65.905  1.00  0.00    -0.272 A  
ENDROOT
BRANCH  10  15
HETATM   15  C   UNL     1      -8.195  11.259  66.962  1.00  0.00    -0.151 A  
HETATM   16  N   UNL     1      -8.046  10.000  66.528  1.00  0.00    -0.117 NA 
HETATM   17  N   UNL     1      -6.687   9.839  66.473  1.00  0.00    -0.078 NA 
HETATM   18  N   UNL     1      -7.027  11.858  67.340  1.00  0.00    -0.116 NA 
HETATM   19  C   UNL     1      -6.122  10.956  67.056  1.00  0.00    -0.074 A  
BRANCH  17  20
HETATM   20  C   UNL     1      -6.052   8.683  65.995  1.00  0.00    -0.048 C  
HETATM   21  C   UNL     1      -6.400   7.382  66.047  1.00  0.00    -0.042 C  
BRANCH  21  22
HETATM   22  C   UNL     1      -7.519   6.804  66.829  1.00  0.00    -0.082 C  
HETATM   23  N   UNL     1      -7.810   7.438  68.014  1.00  0.00    -0.116 N  
HETATM   24  O   UNL     1      -8.183   5.849  66.438  1.00  0.00    -0.108 OA 
HETATM   25  H   UNL     1      -7.328   8.287  68.310  1.00  0.00     0.000 HD 
BRANCH  23  26
HETATM   26  N   UNL     1      -8.823   6.832  68.794  1.00  0.00    -0.131 NA 
HETATM   27  H   UNL     1      -9.015   5.831  68.770  1.00  0.00     0.000 HD 
BRANCH  26  28
HETATM   28  C   UNL     1      -9.547   7.736  69.609  1.00  0.00    -0.163 A  
HETATM   29  N   UNL     1     -10.512   8.534  69.088  1.00  0.00    -0.217 NA 
HETATM   30  C   UNL     1     -11.079   9.415  69.953  1.00  0.00    -0.200 A  
HETATM   31  C   UNL     1     -10.702   9.520  71.282  1.00  0.00    -0.316 A  
HETATM   32  N   UNL     1      -9.738   8.746  71.818  1.00  0.00    -0.292 NA 
HETATM   33  C   UNL     1      -9.171   7.868  70.953  1.00  0.00    -0.152 A  
ENDBRANCH  26  28
ENDBRANCH  23  26
ENDBRANCH  21  22
ENDBRANCH  17  20
ENDBRANCH  10  15
TORSDOF 5
ENDMDL
MODEL      196
REMARK 921   NORMALIZED FREE ENERGY PREDICTED BY IDOCK:   -5.46 KCAL/MOL
REMARK 922        TOTAL FREE ENERGY PREDICTED BY IDOCK:   -8.33 KCAL/MOL
REMARK 923 INTER-LIGAND FREE ENERGY PREDICTED BY IDOCK:   -7.16 KCAL/MOL
REMARK 924 INTRA-LIGAND FREE ENERGY PREDICTED BY IDOCK:   -1.17 KCAL/MOL
REMARK 927      BINDING AFFINITY PREDICTED BY RF-SCORE:    0.00 PKD
ROOT
HETATM    1  F   UNL     1      -5.624  13.708  70.095  1.00  0.00    -0.096 F  
HETATM    2  C   UNL     1      -6.312  13.714  68.918  1.00  0.00    -0.097 C  
HETATM    3  F   UNL     1      -7.232  14.710  69.031  1.00  0.00    -0.105 F  
HETATM    4  F   UNL     1      -5.424  14.125  67.972  1.00  0.00    -0.101 F  
HETATM    5  C   UNL     1      -6.938  12.382  68.582  1.00  0.00    -0.091 A  
HETATM    6  C   UNL     1      -6.796  11.266  69.421  1.00  0.00    -0.121 A  
HETATM    7  C   UNL     1      -7.395  10.037  69.097  1.00  0.00    -0.087 A  
HETATM    8  C   UNL     1      -7.249   8.843  70.012  1.00  0.00    -0.054 C  
HETATM    9  C   UNL     1      -8.141   9.929  67.907  1.00  0.00    -0.109 A  
HETATM   10  C   UNL     1      -8.288  11.026  67.049  1.00  0.00    -0.137 A  
HETATM   11  F   UNL     1      -6.666   7.778  69.393  1.00  0.00    -0.037 F  
HETATM   12  F   UNL     1      -6.490   9.095  71.114  1.00  0.00    -0.057 F  
HETATM   13  F   UNL     1      -8.446   8.397  70.482  1.00  0.00    -0.113 F  
HETATM   14  C   UNL     1      -7.686  12.244  67.403  1.00  0.00    -0.165 A  
ENDROOT
BRANCH  10  15
HETATM   15  C   UNL     1      -9.060  10.946  65.808  1.00  0.00    -0.196 A  
HETATM   16  N   UNL     1     -10.094  11.736  65.484  1.00  0.00    -0.240 NA 
HETATM   17  N   UNL     1     -10.376  11.380  64.192  1.00  0.00    -0.313 NA 
HETATM   18  N   UNL     1      -8.769  10.000  64.867  1.00  0.00    -0.168 NA 
HETATM   19  C   UNL     1      -9.607  10.271  63.899  1.00  0.00    -0.293 A  
BRANCH  17  20
HETATM   20  C   UNL     1     -11.352  12.005  63.401  1.00  0.00    -0.397 C  
HETATM   21  C   UNL     1     -12.051  13.144  63.572  1.00  0.00    -0.585 C  
BRANCH  21  22
HETATM   22  C   UNL     1     -12.091  13.972  64.801  1.00  0.00    -0.437 C  
HETATM   23  N   UNL     1     -10.894  14.527  65.188  1.00  0.00    -0.368 N  
HETATM   24  O   UNL     1     -13.127  14.196  65.421  1.00  0.00    -0.743 OA 
HETATM   25  H   UNL     1     -10.043  14.427  64.634  1.00  0.00     0.000 HD 
BRANCH  23  26
HETATM   26  N   UNL     1     -10.924  15.247  66.405  1.00  0.00    -0.318 NA 
HETATM   27  H   UNL     1     -11.470  14.947  67.212  1.00  0.00     0.000 HD 
BRANCH  26  28
HETATM   28  C   UNL     1     -10.129  16.419  66.406  1.00  0.00    -0.316 A  
HETATM   29  N   UNL     1     -10.696  17.651  66.412  1.00  0.00    -0.176 NA 
HETATM   30  C   UNL     1      -9.832  18.697  66.330  1.00  0.00    -0.342 A  
HETATM   31  C   UNL     1      -8.458  18.539  66.232  1.00  0.00    -0.207 A  
HETATM   32  N   UNL     1      -7.876  17.324  66.214  1.00  0.00    -0.354 NA 
HETATM   33  C   UNL     1      -8.739  16.281  66.293  1.00  0.00    -0.335 A  
ENDBRANCH  26  28
ENDBRANCH  23  26
ENDBRANCH  21  22
ENDBRANCH  17  20
ENDBRANCH  10  15
TORSDOF 5
ENDMDL
MODEL      197
REMARK 921   NORMALIZED FREE ENERGY PREDICTED BY IDOCK:   -5.45 KCAL/MOL
REMARK 922        TOTAL FREE ENERGY PREDICTED BY IDOCK:   -8.31 KCAL/MOL
REMARK 923 INTER-LIGAND FREE ENERGY PREDICTED BY IDOCK:   -7.61 KCAL/MOL
REMARK 924 INTRA-LIGAND FREE ENERGY PREDICTED BY IDOCK:   -0.71 KCAL/MOL
REMARK 927      BINDING AFFINITY PREDICTED BY RF-SCORE:    0.00 PKD
ROOT
HETATM    1  F   UNL     1     -12.527  14.751  64.114  1.00  0.00    -0.513 F  
HETATM    2  C   UNL     1     -12.186  13.515  64.575  1.00  0.00    -0.398 C  
HETATM    3  F   UNL     1     -13.298  12.745  64.431  1.00  0.00    -0.190 F  
HETATM    4  F   UNL     1     -11.272  13.029  63.691  1.00  0.00    -0.415 F  
HETATM    5  C   UNL     1     -11.667  13.525  65.993  1.00  0.00    -0.389 A  
HETATM    6  C   UNL     1     -11.555  14.714  66.730  1.00  0.00    -0.370 A  
HETATM    7  C   UNL     1     -11.080  14.703  68.052  1.00  0.00    -0.291 A  
HETATM    8  C   UNL     1     -10.974  15.985  68.844  1.00  0.00    -0.309 C  
HETATM    9  C   UNL     1     -10.706  13.477  68.638  1.00  0.00    -0.271 A  
HETATM   10  C   UNL     1     -10.800  12.278  67.918  1.00  0.00    -0.252 A  
HETATM   11  F   UNL     1      -9.702  16.235  69.268  1.00  0.00    -0.227 F  
HETATM   12  F   UNL     1     -11.355  17.088  68.144  1.00  0.00    -0.334 F  
HETATM   13  F   UNL     1     -11.748  15.972  69.964  1.00  0.00    -0.311 F  
HETATM   14  C   UNL     1     -11.287  12.319  66.602  1.00  0.00    -0.398 A  
ENDROOT
BRANCH  10  15
HETATM   15  C   UNL     1     -10.424  10.989  68.500  1.00  0.00    -0.189 A  
HETATM   16  N   UNL     1     -11.184   9.885  68.498  1.00  0.00    -0.135 NA 
HETATM   17  N   UNL     1     -10.354   8.924  69.011  1.00  0.00    -0.210 NA 
HETATM   18  N   UNL     1      -9.221  10.834  69.129  1.00  0.00    -0.159 NA 
HETATM   19  C   UNL     1      -9.215   9.567  69.456  1.00  0.00    -0.189 A  
BRANCH  17  20
HETATM   20  C   UNL     1     -10.699   7.569  69.129  1.00  0.00    -0.151 C  
HETATM   21  C   UNL     1     -10.319   6.483  68.429  1.00  0.00    -0.220 C  
BRANCH  21  22
HETATM   22  C   UNL     1      -9.536   6.481  67.170  1.00  0.00    -0.131 C  
HETATM   23  N   UNL     1     -10.073   5.756  66.133  1.00  0.00    -0.388 N  
HETATM   24  O   UNL     1      -8.495   7.117  67.031  1.00  0.00    -0.119 OA 
HETATM   25  H   UNL     1     -10.982   5.297  66.202  1.00  0.00     0.000 HD 
BRANCH  23  26
HETATM   26  N   UNL     1      -9.280   5.691  64.963  1.00  0.00    -0.357 NA 
HETATM   27  H   UNL     1      -8.891   6.518  64.511  1.00  0.00     0.000 HD 
BRANCH  26  28
HETATM   28  C   UNL     1      -9.074   4.378  64.474  1.00  0.00    -0.152 A  
HETATM   29  N   UNL     1      -9.219   4.088  63.157  1.00  0.00    -0.118 NA 
HETATM   30  C   UNL     1      -9.075   2.779  62.822  1.00  0.00    -0.087 A  
HETATM   31  C   UNL     1      -8.809   1.785  63.750  1.00  0.00    -0.090 A  
HETATM   32  N   UNL     1      -8.672   2.049  65.065  1.00  0.00    -0.109 NA 
HETATM   33  C   UNL     1      -8.820   3.356  65.398  1.00  0.00    -0.132 A  
ENDBRANCH  26  28
ENDBRANCH  23  26
ENDBRANCH  21  22
ENDBRANCH  17  20
ENDBRANCH  10  15
TORSDOF 5
ENDMDL
MODEL      198
REMARK 921   NORMALIZED FREE ENERGY PREDICTED BY IDOCK:   -5.44 KCAL/MOL
REMARK 922        TOTAL FREE ENERGY PREDICTED BY IDOCK:   -8.30 KCAL/MOL
REMARK 923 INTER-LIGAND FREE ENERGY PREDICTED BY IDOCK:   -7.42 KCAL/MOL
REMARK 924 INTRA-LIGAND FREE ENERGY PREDICTED BY IDOCK:   -0.87 KCAL/MOL
REMARK 927      BINDING AFFINITY PREDICTED BY RF-SCORE:    0.00 PKD
ROOT
HETATM    1  F   UNL     1      -9.267   3.768  69.590  1.00  0.00    -0.148 F  
HETATM    2  C   UNL     1      -9.168   4.839  68.752  1.00  0.00    -0.124 C  
HETATM    3  F   UNL     1      -7.836   5.081  68.615  1.00  0.00    -0.076 F  
HETATM    4  F   UNL     1      -9.600   4.401  67.538  1.00  0.00    -0.155 F  
HETATM    5  C   UNL     1      -9.931   6.050  69.233  1.00  0.00    -0.207 A  
HETATM    6  C   UNL     1     -10.665   6.033  70.428  1.00  0.00    -0.358 A  
HETATM    7  C   UNL     1     -11.360   7.173  70.866  1.00  0.00    -0.319 A  
HETATM    8  C   UNL     1     -12.139   7.153  72.160  1.00  0.00    -0.246 C  
HETATM    9  C   UNL     1     -11.321   8.344  70.083  1.00  0.00    -0.065 A  
HETATM   10  C   UNL     1     -10.602   8.382  68.881  1.00  0.00    -0.162 A  
HETATM   11  F   UNL     1     -13.461   7.434  71.980  1.00  0.00    -0.327 F  
HETATM   12  F   UNL     1     -12.099   5.951  72.798  1.00  0.00    -0.260 F  
HETATM   13  F   UNL     1     -11.679   8.065  73.060  1.00  0.00    -0.443 F  
HETATM   14  C   UNL     1      -9.909   7.230  68.474  1.00  0.00    -0.159 A  
ENDROOT
BRANCH  10  15
HETATM   15  C   UNL     1     -10.537   9.584  68.049  1.00  0.00    -0.230 A  
HETATM   16  N   UNL     1     -11.594  10.284  67.613  1.00  0.00    -0.157 NA 
HETATM   17  N   UNL     1     -11.027  11.380  67.018  1.00  0.00    -0.279 NA 
HETATM   18  N   UNL     1      -9.334  10.077  67.631  1.00  0.00    -0.143 NA 
HETATM   19  C   UNL     1      -9.664  11.162  66.979  1.00  0.00    -0.186 A  
BRANCH  17  20
HETATM   20  C   UNL     1     -11.761  12.446  66.476  1.00  0.00    -0.379 C  
HETATM   21  C   UNL     1     -11.845  13.746  66.823  1.00  0.00    -0.454 C  
BRANCH  21  22
HETATM   22  C   UNL     1     -11.287  14.363  68.050  1.00  0.00    -0.294 C  
HETATM   23  N   UNL     1      -9.936  14.195  68.243  1.00  0.00    -0.235 N  
HETATM   24  O   UNL     1     -11.964  15.025  68.831  1.00  0.00    -0.304 OA 
HETATM   25  H   UNL     1      -9.342  13.726  67.558  1.00  0.00     0.000 HD 
BRANCH  23  26
HETATM   26  N   UNL     1      -9.427  14.715  69.455  1.00  0.00    -0.415 NA 
HETATM   27  H   UNL     1      -9.871  14.552  70.358  1.00  0.00     0.000 HD 
BRANCH  26  28
HETATM   28  C   UNL     1      -8.246  15.484  69.307  1.00  0.00    -0.255 A  
HETATM   29  N   UNL     1      -7.043  15.008  69.715  1.00  0.00    -0.188 NA 
HETATM   30  C   UNL     1      -5.998  15.869  69.594  1.00  0.00    -0.154 A  
HETATM   31  C   UNL     1      -6.131  17.158  69.103  1.00  0.00    -0.204 A  
HETATM   32  N   UNL     1      -7.319  17.655  68.704  1.00  0.00    -0.249 NA 
HETATM   33  C   UNL     1      -8.362  16.795  68.827  1.00  0.00    -0.248 A  
ENDBRANCH  26  28
ENDBRANCH  23  26
ENDBRANCH  21  22
ENDBRANCH  17  20
ENDBRANCH  10  15
TORSDOF 5
ENDMDL
MODEL      199
REMARK 921   NORMALIZED FREE ENERGY PREDICTED BY IDOCK:   -5.44 KCAL/MOL
REMARK 922        TOTAL FREE ENERGY PREDICTED BY IDOCK:   -8.29 KCAL/MOL
REMARK 923 INTER-LIGAND FREE ENERGY PREDICTED BY IDOCK:   -6.35 KCAL/MOL
REMARK 924 INTRA-LIGAND FREE ENERGY PREDICTED BY IDOCK:   -1.95 KCAL/MOL
REMARK 927      BINDING AFFINITY PREDICTED BY RF-SCORE:    0.00 PKD
ROOT
HETATM    1  F   UNL     1     -11.217  14.784  66.696  1.00  0.00    -0.319 F  
HETATM    2  C   UNL     1     -11.105  13.654  65.942  1.00  0.00    -0.284 C  
HETATM    3  F   UNL     1     -12.264  12.966  66.129  1.00  0.00    -0.444 F  
HETATM    4  F   UNL     1     -11.116  14.070  64.646  1.00  0.00    -0.340 F  
HETATM    5  C   UNL     1      -9.883  12.831  66.274  1.00  0.00    -0.269 A  
HETATM    6  C   UNL     1      -8.970  13.229  67.262  1.00  0.00    -0.217 A  
HETATM    7  C   UNL     1      -7.844  12.445  67.564  1.00  0.00    -0.169 A  
HETATM    8  C   UNL     1      -6.872  12.872  68.639  1.00  0.00    -0.099 C  
HETATM    9  C   UNL     1      -7.631  11.246  66.854  1.00  0.00    -0.148 A  
HETATM   10  C   UNL     1      -8.523  10.834  65.856  1.00  0.00    -0.166 A  
HETATM   11  F   UNL     1      -5.604  13.031  68.165  1.00  0.00    -0.063 F  
HETATM   12  F   UNL     1      -7.199  14.056  69.226  1.00  0.00    -0.113 F  
HETATM   13  F   UNL     1      -6.784  11.968  69.652  1.00  0.00    -0.111 F  
HETATM   14  C   UNL     1      -9.645  11.633  65.582  1.00  0.00    -0.252 A  
ENDROOT
BRANCH  10  15
HETATM   15  C   UNL     1      -8.331   9.593  65.104  1.00  0.00    -0.137 A  
HETATM   16  N   UNL     1      -8.022   8.402  65.637  1.00  0.00    -0.109 NA 
HETATM   17  N   UNL     1      -8.101   7.545  64.572  1.00  0.00    -0.119 NA 
HETATM   18  N   UNL     1      -8.444   9.579  63.743  1.00  0.00    -0.181 NA 
HETATM   19  C   UNL     1      -8.272   8.318  63.440  1.00  0.00    -0.088 A  
BRANCH  17  20
HETATM   20  C   UNL     1      -7.928   6.156  64.667  1.00  0.00    -0.124 C  
HETATM   21  C   UNL     1      -8.609   5.212  65.347  1.00  0.00    -0.146 C  
BRANCH  21  22
HETATM   22  C   UNL     1      -9.660   5.451  66.365  1.00  0.00    -0.159 C  
HETATM   23  N   UNL     1     -10.266   6.684  66.321  1.00  0.00    -0.433 N  
HETATM   24  O   UNL     1     -10.012   4.597  67.174  1.00  0.00    -0.194 OA 
HETATM   25  H   UNL     1     -10.050   7.372  65.598  1.00  0.00     0.000 HD 
BRANCH  23  26
HETATM   26  N   UNL     1     -11.208   6.934  67.346  1.00  0.00    -0.624 NA 
HETATM   27  H   UNL     1     -12.131   6.502  67.367  1.00  0.00     0.000 HD 
BRANCH  26  28
HETATM   28  C   UNL     1     -10.759   7.838  68.340  1.00  0.00    -0.036 A  
HETATM   29  N   UNL     1     -10.711   9.173  68.105  1.00  0.00    -0.177 NA 
HETATM   30  C   UNL     1     -10.186   9.929  69.106  1.00  0.00    -0.205 A  
HETATM   31  C   UNL     1      -9.711   9.391  70.291  1.00  0.00    -0.246 A  
HETATM   32  N   UNL     1      -9.738   8.067  70.540  1.00  0.00    -0.177 NA 
HETATM   33  C   UNL     1     -10.260   7.313  69.540  1.00  0.00    -0.198 A  
ENDBRANCH  26  28
ENDBRANCH  23  26
ENDBRANCH  21  22
ENDBRANCH  17  20
ENDBRANCH  10  15
TORSDOF 5
ENDMDL
MODEL      200
REMARK 921   NORMALIZED FREE ENERGY PREDICTED BY IDOCK:   -5.44 KCAL/MOL
REMARK 922        TOTAL FREE ENERGY PREDICTED BY IDOCK:   -8.29 KCAL/MOL
REMARK 923 INTER-LIGAND FREE ENERGY PREDICTED BY IDOCK:   -7.33 KCAL/MOL
REMARK 924 INTRA-LIGAND FREE ENERGY PREDICTED BY IDOCK:   -0.96 KCAL/MOL
REMARK 927      BINDING AFFINITY PREDICTED BY RF-SCORE:    0.00 PKD
ROOT
HETATM    1  F   UNL     1      -9.537   6.423  66.699  1.00  0.00    -0.154 F  
HETATM    2  C   UNL     1     -10.407   7.393  67.099  1.00  0.00    -0.307 C  
HETATM    3  F   UNL     1     -10.307   8.387  66.176  1.00  0.00    -0.320 F  
HETATM    4  F   UNL     1     -11.651   6.860  66.948  1.00  0.00    -0.386 F  
HETATM    5  C   UNL     1     -10.156   7.881  68.506  1.00  0.00    -0.216 A  
HETATM    6  C   UNL     1      -9.122   7.357  69.296  1.00  0.00    -0.135 A  
HETATM    7  C   UNL     1      -8.897   7.831  70.599  1.00  0.00    -0.144 A  
HETATM    8  C   UNL     1      -7.773   7.271  71.440  1.00  0.00    -0.088 C  
HETATM    9  C   UNL     1      -9.731   8.842  71.116  1.00  0.00    -0.344 A  
HETATM   10  C   UNL     1     -10.775   9.374  70.349  1.00  0.00    -0.317 A  
HETATM   11  F   UNL     1      -8.216   6.722  72.607  1.00  0.00    -0.106 F  
HETATM   12  F   UNL     1      -7.065   6.291  70.815  1.00  0.00    -0.061 F  
HETATM   13  F   UNL     1      -6.863   8.219  71.792  1.00  0.00    -0.056 F  
HETATM   14  C   UNL     1     -10.971   8.888  69.047  1.00  0.00     0.026 A  
ENDROOT
BRANCH  10  15
HETATM   15  C   UNL     1     -11.655  10.428  70.856  1.00  0.00    -0.337 A  
HETATM   16  N   UNL     1     -11.541  11.735  70.579  1.00  0.00    -0.050 NA 
HETATM   17  N   UNL     1     -12.660  12.282  71.148  1.00  0.00    -0.326 NA 
HETATM   18  N   UNL     1     -12.686  10.128  71.701  1.00  0.00    -0.414 NA 
HETATM   19  C   UNL     1     -13.269  11.285  71.886  1.00  0.00    -0.386 A  
BRANCH  17  20
HETATM   20  C   UNL     1     -13.011  13.637  71.047  1.00  0.00    -0.232 C  
HETATM   21  C   UNL     1     -12.779  14.554  70.088  1.00  0.00    -0.264 C  
BRANCH  21  22
HETATM   22  C   UNL     1     -11.885  14.391  68.916  1.00  0.00    -0.320 C  
HETATM   23  N   UNL     1     -10.548  14.242  69.200  1.00  0.00    -0.340 N  
HETATM   24  O   UNL     1     -12.300  14.342  67.762  1.00  0.00    -0.236 OA 
HETATM   25  H   UNL     1     -10.197  14.188  70.156  1.00  0.00     0.000 HD 
BRANCH  23  26
HETATM   26  N   UNL     1      -9.693  14.169  68.075  1.00  0.00    -0.219 NA 
HETATM   27  H   UNL     1      -9.553  13.313  67.541  1.00  0.00     0.000 HD 
BRANCH  26  28
HETATM   28  C   UNL     1      -9.049  15.390  67.756  1.00  0.00    -0.178 A  
HETATM   29  N   UNL     1      -8.931  16.383  68.672  1.00  0.00    -0.223 NA 
HETATM   30  C   UNL     1      -8.367  17.535  68.223  1.00  0.00    -0.265 A  
HETATM   31  C   UNL     1      -7.945  17.712  66.914  1.00  0.00    -0.226 A  
HETATM   32  N   UNL     1      -8.063  16.742  65.985  1.00  0.00    -0.423 NA 
HETATM   33  C   UNL     1      -8.629  15.594  66.434  1.00  0.00    -0.284 A  
ENDBRANCH  26  28
ENDBRANCH  23  26
ENDBRANCH  21  22
ENDBRANCH  17  20
ENDBRANCH  10  15
TORSDOF 5
ENDMDL
MODEL      201
REMARK 921   NORMALIZED FREE ENERGY PREDICTED BY IDOCK:   -5.43 KCAL/MOL
REMARK 922        TOTAL FREE ENERGY PREDICTED BY IDOCK:   -8.29 KCAL/MOL
REMARK 923 INTER-LIGAND FREE ENERGY PREDICTED BY IDOCK:   -6.53 KCAL/MOL
REMARK 924 INTRA-LIGAND FREE ENERGY PREDICTED BY IDOCK:   -1.75 KCAL/MOL
REMARK 927      BINDING AFFINITY PREDICTED BY RF-SCORE:    0.00 PKD
ROOT
HETATM    1  F   UNL     1      -9.010   6.850  72.504  1.00  0.00    -0.129 F  
HETATM    2  C   UNL     1      -9.195   8.109  72.017  1.00  0.00    -0.191 C  
HETATM    3  F   UNL     1     -10.493   8.422  72.279  1.00  0.00    -0.306 F  
HETATM    4  F   UNL     1      -8.442   8.926  72.805  1.00  0.00    -0.180 F  
HETATM    5  C   UNL     1      -8.850   8.243  70.553  1.00  0.00    -0.148 A  
HETATM    6  C   UNL     1      -8.380   7.154  69.803  1.00  0.00    -0.132 A  
HETATM    7  C   UNL     1      -8.075   7.295  68.438  1.00  0.00    -0.125 A  
HETATM    8  C   UNL     1      -7.582   6.115  67.633  1.00  0.00    -0.097 C  
HETATM    9  C   UNL     1      -8.238   8.552  67.824  1.00  0.00    -0.122 A  
HETATM   10  C   UNL     1      -8.696   9.656  68.555  1.00  0.00    -0.120 A  
HETATM   11  F   UNL     1      -6.356   6.335  67.080  1.00  0.00    -0.034 F  
HETATM   12  F   UNL     1      -7.460   4.973  68.364  1.00  0.00    -0.069 F  
HETATM   13  F   UNL     1      -8.412   5.806  66.599  1.00  0.00    -0.111 F  
HETATM   14  C   UNL     1      -9.003   9.483  69.914  1.00  0.00    -0.231 A  
ENDROOT
BRANCH  10  15
HETATM   15  C   UNL     1      -8.880  10.972  67.944  1.00  0.00    -0.134 A  
HETATM   16  N   UNL     1      -8.479  12.137  68.473  1.00  0.00    -0.126 NA 
HETATM   17  N   UNL     1      -8.735  13.045  67.479  1.00  0.00    -0.185 NA 
HETATM   18  N   UNL     1      -9.522  11.100  66.744  1.00  0.00    -0.181 NA 
HETATM   19  C   UNL     1      -9.443  12.382  66.496  1.00  0.00    -0.242 A  
BRANCH  17  20
HETATM   20  C   UNL     1      -8.403  14.406  67.555  1.00  0.00    -0.187 C  
HETATM   21  C   UNL     1      -8.877  15.404  68.326  1.00  0.00    -0.176 C  
BRANCH  21  22
HETATM   22  C   UNL     1     -10.066  15.339  69.210  1.00  0.00    -0.252 C  
HETATM   23  N   UNL     1     -10.547  14.078  69.474  1.00  0.00    -0.444 N  
HETATM   24  O   UNL     1     -10.574  16.333  69.720  1.00  0.00    -0.308 OA 
HETATM   25  H   UNL     1     -10.082  13.235  69.134  1.00  0.00     0.000 HD 
BRANCH  23  26
HETATM   26  N   UNL     1     -11.728  14.029  70.250  1.00  0.00    -0.427 NA 
HETATM   27  H   UNL     1     -12.242  14.864  70.529  1.00  0.00     0.000 HD 
BRANCH  26  28
HETATM   28  C   UNL     1     -12.135  12.719  70.606  1.00  0.00    -0.228 A  
HETATM   29  N   UNL     1     -11.883  11.661  69.797  1.00  0.00    -0.334 NA 
HETATM   30  C   UNL     1     -12.393  10.470  70.208  1.00  0.00    -0.298 A  
HETATM   31  C   UNL     1     -13.138  10.325  71.368  1.00  0.00    -0.414 A  
HETATM   32  N   UNL     1     -13.411  11.366  72.180  1.00  0.00    -0.364 NA 
HETATM   33  C   UNL     1     -12.903  12.555  71.767  1.00  0.00    -0.242 A  
ENDBRANCH  26  28
ENDBRANCH  23  26
ENDBRANCH  21  22
ENDBRANCH  17  20
ENDBRANCH  10  15
TORSDOF 5
ENDMDL
MODEL      202
REMARK 921   NORMALIZED FREE ENERGY PREDICTED BY IDOCK:   -5.40 KCAL/MOL
REMARK 922        TOTAL FREE ENERGY PREDICTED BY IDOCK:   -8.25 KCAL/MOL
REMARK 923 INTER-LIGAND FREE ENERGY PREDICTED BY IDOCK:   -6.59 KCAL/MOL
REMARK 924 INTRA-LIGAND FREE ENERGY PREDICTED BY IDOCK:   -1.66 KCAL/MOL
REMARK 927      BINDING AFFINITY PREDICTED BY RF-SCORE:    0.00 PKD
ROOT
HETATM    1  F   UNL     1     -10.750  12.812  64.756  1.00  0.00    -0.284 F  
HETATM    2  C   UNL     1     -11.170  12.476  66.008  1.00  0.00    -0.315 C  
HETATM    3  F   UNL     1     -10.822  13.519  66.809  1.00  0.00    -0.275 F  
HETATM    4  F   UNL     1     -12.531  12.478  65.955  1.00  0.00    -0.467 F  
HETATM    5  C   UNL     1     -10.614  11.160  66.495  1.00  0.00    -0.314 A  
HETATM    6  C   UNL     1      -9.756  10.383  65.702  1.00  0.00    -0.294 A  
HETATM    7  C   UNL     1      -9.240   9.165  66.176  1.00  0.00    -0.259 A  
HETATM    8  C   UNL     1      -8.306   8.339  65.323  1.00  0.00    -0.166 C  
HETATM    9  C   UNL     1      -9.599   8.721  67.465  1.00  0.00    -0.192 A  
HETATM   10  C   UNL     1     -10.462   9.476  68.270  1.00  0.00    -0.265 A  
HETATM   11  F   UNL     1      -8.788   7.087  65.081  1.00  0.00    -0.079 F  
HETATM   12  F   UNL     1      -8.063   8.886  64.100  1.00  0.00    -0.127 F  
HETATM   13  F   UNL     1      -7.085   8.167  65.901  1.00  0.00    -0.061 F  
HETATM   14  C   UNL     1     -10.955  10.693  67.773  1.00  0.00    -0.364 A  
ENDROOT
BRANCH  10  15
HETATM   15  C   UNL     1     -10.849   9.044  69.613  1.00  0.00    -0.186 A  
HETATM   16  N   UNL     1     -11.440   7.879  69.915  1.00  0.00     0.039 NA 
HETATM   17  N   UNL     1     -11.460   7.875  71.284  1.00  0.00    -0.261 NA 
HETATM   18  N   UNL     1     -10.638   9.854  70.693  1.00  0.00    -0.300 NA 
HETATM   19  C   UNL     1     -11.045   9.125  71.700  1.00  0.00    -0.375 A  
BRANCH  17  20
HETATM   20  C   UNL     1     -11.925   6.802  72.060  1.00  0.00    -0.317 C  
HETATM   21  C   UNL     1     -11.383   5.603  72.349  1.00  0.00    -0.327 C  
BRANCH  21  22
HETATM   22  C   UNL     1     -10.168   5.018  71.731  1.00  0.00    -0.207 C  
HETATM   23  N   UNL     1      -9.724   5.634  70.586  1.00  0.00    -0.174 N  
HETATM   24  O   UNL     1      -9.559   4.072  72.223  1.00  0.00    -0.131 OA 
HETATM   25  H   UNL     1     -10.164   6.477  70.214  1.00  0.00     0.000 HD 
BRANCH  23  26
HETATM   26  N   UNL     1      -8.615   5.021  69.958  1.00  0.00    -0.097 NA 
HETATM   27  H   UNL     1      -7.677   5.030  70.358  1.00  0.00     0.000 HD 
BRANCH  26  28
HETATM   28  C   UNL     1      -8.919   4.395  68.724  1.00  0.00    -0.110 A  
HETATM   29  N   UNL     1      -8.326   3.230  68.363  1.00  0.00    -0.076 NA 
HETATM   30  C   UNL     1      -8.638   2.769  67.123  1.00  0.00    -0.107 A  
HETATM   31  C   UNL     1      -9.492   3.437  66.260  1.00  0.00    -0.113 A  
HETATM   32  N   UNL     1     -10.083   4.601  66.594  1.00  0.00    -0.235 NA 
HETATM   33  C   UNL     1      -9.769   5.061  67.831  1.00  0.00    -0.153 A  
ENDBRANCH  26  28
ENDBRANCH  23  26
ENDBRANCH  21  22
ENDBRANCH  17  20
ENDBRANCH  10  15
TORSDOF 5
ENDMDL
MODEL      203
REMARK 921   NORMALIZED FREE ENERGY PREDICTED BY IDOCK:   -5.39 KCAL/MOL
REMARK 922        TOTAL FREE ENERGY PREDICTED BY IDOCK:   -8.23 KCAL/MOL
REMARK 923 INTER-LIGAND FREE ENERGY PREDICTED BY IDOCK:   -6.86 KCAL/MOL
REMARK 924 INTRA-LIGAND FREE ENERGY PREDICTED BY IDOCK:   -1.38 KCAL/MOL
REMARK 927      BINDING AFFINITY PREDICTED BY RF-SCORE:    0.00 PKD
ROOT
HETATM    1  F   UNL     1      -9.494  10.879  62.769  1.00  0.00    -0.245 F  
HETATM    2  C   UNL     1     -10.080  11.397  63.885  1.00  0.00    -0.345 C  
HETATM    3  F   UNL     1      -9.464  12.590  64.108  1.00  0.00    -0.065 F  
HETATM    4  F   UNL     1     -11.360  11.694  63.527  1.00  0.00    -0.440 F  
HETATM    5  C   UNL     1     -10.013  10.478  65.080  1.00  0.00    -0.375 A  
HETATM    6  C   UNL     1      -9.405   9.216  65.008  1.00  0.00    -0.120 A  
HETATM    7  C   UNL     1      -9.343   8.377  66.134  1.00  0.00    -0.267 A  
HETATM    8  C   UNL     1      -8.675   7.025  66.053  1.00  0.00    -0.144 C  
HETATM    9  C   UNL     1      -9.910   8.815  67.348  1.00  0.00    -0.250 A  
HETATM   10  C   UNL     1     -10.531  10.067  67.442  1.00  0.00    -0.316 A  
HETATM   11  F   UNL     1      -9.521   6.004  66.370  1.00  0.00    -0.154 F  
HETATM   12  F   UNL     1      -8.190   6.734  64.815  1.00  0.00    -0.124 F  
HETATM   13  F   UNL     1      -7.617   6.914  66.902  1.00  0.00    -0.086 F  
HETATM   14  C   UNL     1     -10.569  10.887  66.302  1.00  0.00    -0.276 A  
ENDROOT
BRANCH  10  15
HETATM   15  C   UNL     1     -11.123  10.551  68.689  1.00  0.00    -0.267 A  
HETATM   16  N   UNL     1     -11.688  11.754  68.865  1.00  0.00    -0.300 NA 
HETATM   17  N   UNL     1     -12.219  11.677  70.125  1.00  0.00    -0.306 NA 
HETATM   18  N   UNL     1     -11.119   9.771  69.811  1.00  0.00    -0.244 NA 
HETATM   19  C   UNL     1     -11.772  10.495  70.683  1.00  0.00    -0.357 A  
BRANCH  17  20
HETATM   20  C   UNL     1     -12.983  12.693  70.719  1.00  0.00     0.097 C  
HETATM   21  C   UNL     1     -12.786  14.022  70.817  1.00  0.00    -0.396 C  
BRANCH  21  22
HETATM   22  C   UNL     1     -11.548  14.754  70.456  1.00  0.00    -0.279 C  
HETATM   23  N   UNL     1     -11.005  14.443  69.231  1.00  0.00    -0.258 N  
HETATM   24  O   UNL     1     -11.051  15.619  71.171  1.00  0.00    -0.348 OA 
HETATM   25  H   UNL     1     -11.455  13.795  68.584  1.00  0.00     0.000 HD 
BRANCH  23  26
HETATM   26  N   UNL     1      -9.781  15.084  68.929  1.00  0.00    -0.218 NA 
HETATM   27  H   UNL     1      -8.980  15.073  69.560  1.00  0.00     0.000 HD 
BRANCH  26  28
HETATM   28  C   UNL     1      -9.764  15.743  67.675  1.00  0.00    -0.222 A  
HETATM   29  N   UNL     1      -9.684  17.094  67.593  1.00  0.00    -0.258 NA 
HETATM   30  C   UNL     1      -9.758  17.614  66.339  1.00  0.00    -0.294 A  
HETATM   31  C   UNL     1      -9.919  16.834  65.205  1.00  0.00     0.595 A  
HETATM   32  N   UNL     1     -10.012  15.491  65.265  1.00  0.00    -0.334 NA 
HETATM   33  C   UNL     1      -9.941  14.973  66.517  1.00  0.00    -0.263 A  
ENDBRANCH  26  28
ENDBRANCH  23  26
ENDBRANCH  21  22
ENDBRANCH  17  20
ENDBRANCH  10  15
TORSDOF 5
ENDMDL
MODEL      204
REMARK 921   NORMALIZED FREE ENERGY PREDICTED BY IDOCK:   -5.39 KCAL/MOL
REMARK 922        TOTAL FREE ENERGY PREDICTED BY IDOCK:   -8.23 KCAL/MOL
REMARK 923 INTER-LIGAND FREE ENERGY PREDICTED BY IDOCK:   -7.43 KCAL/MOL
REMARK 924 INTRA-LIGAND FREE ENERGY PREDICTED BY IDOCK:   -0.80 KCAL/MOL
REMARK 927      BINDING AFFINITY PREDICTED BY RF-SCORE:    0.00 PKD
ROOT
HETATM    1  F   UNL     1     -11.379   6.021  67.543  1.00  0.00    -0.357 F  
HETATM    2  C   UNL     1     -10.322   6.864  67.372  1.00  0.00    -0.231 C  
HETATM    3  F   UNL     1      -9.256   6.070  67.083  1.00  0.00    -0.117 F  
HETATM    4  F   UNL     1     -10.589   7.567  66.237  1.00  0.00    -0.201 F  
HETATM    5  C   UNL     1     -10.072   7.762  68.560  1.00  0.00    -0.216 A  
HETATM    6  C   UNL     1     -10.876   7.708  69.708  1.00  0.00    -0.222 A  
HETATM    7  C   UNL     1     -10.622   8.544  70.809  1.00  0.00    -0.244 A  
HETATM    8  C   UNL     1     -11.484   8.472  72.048  1.00  0.00    -0.361 C  
HETATM    9  C   UNL     1      -9.546   9.452  70.748  1.00  0.00    -0.322 A  
HETATM   10  C   UNL     1      -8.735   9.530  69.608  1.00  0.00    -0.189 A  
HETATM   11  F   UNL     1     -12.084   9.661  72.338  1.00  0.00    -0.335 F  
HETATM   12  F   UNL     1     -12.492   7.561  71.954  1.00  0.00    -0.305 F  
HETATM   13  F   UNL     1     -10.775   8.127  73.157  1.00  0.00    -0.402 F  
HETATM   14  C   UNL     1      -9.008   8.676  68.528  1.00  0.00    -0.139 A  
ENDROOT
BRANCH  10  15
HETATM   15  C   UNL     1      -7.608  10.458  69.517  1.00  0.00    -0.156 A  
HETATM   16  N   UNL     1      -7.286  11.186  68.438  1.00  0.00    -0.088 NA 
HETATM   17  N   UNL     1      -6.274  11.993  68.886  1.00  0.00    -0.066 NA 
HETATM   18  N   UNL     1      -6.762  10.633  70.576  1.00  0.00    -0.317 NA 
HETATM   19  C   UNL     1      -5.939  11.558  70.153  1.00  0.00    -0.159 A  
BRANCH  17  20
HETATM   20  C   UNL     1      -5.664  12.991  68.111  1.00  0.00    -0.093 C  
HETATM   21  C   UNL     1      -6.093  14.205  67.713  1.00  0.00    -0.134 C  
BRANCH  21  22
HETATM   22  C   UNL     1      -7.469  14.739  67.856  1.00  0.00    -0.145 C  
HETATM   23  N   UNL     1      -7.594  15.876  68.617  1.00  0.00    -0.152 N  
HETATM   24  O   UNL     1      -8.441  14.236  67.298  1.00  0.00    -0.191 OA 
HETATM   25  H   UNL     1      -6.786  16.359  69.012  1.00  0.00     0.000 HD 
BRANCH  23  26
HETATM   26  N   UNL     1      -8.918  16.332  68.816  1.00  0.00    -0.231 NA 
HETATM   27  H   UNL     1      -9.615  15.798  69.335  1.00  0.00     0.000 HD 
BRANCH  26  28
HETATM   28  C   UNL     1      -9.193  17.593  68.233  1.00  0.00    -0.283 A  
HETATM   29  N   UNL     1      -8.473  18.693  68.567  1.00  0.00    -0.335 NA 
HETATM   30  C   UNL     1      -8.883  19.859  68.002  1.00  0.00    -0.271 A  
HETATM   31  C   UNL     1      -9.971  19.946  67.148  1.00  0.00    -0.423 A  
HETATM   32  N   UNL     1     -10.707  18.868  66.812  1.00  0.00    -0.388 NA 
HETATM   33  C   UNL     1     -10.298  17.704  67.379  1.00  0.00    -0.360 A  
ENDBRANCH  26  28
ENDBRANCH  23  26
ENDBRANCH  21  22
ENDBRANCH  17  20
ENDBRANCH  10  15
TORSDOF 5
ENDMDL
MODEL      205
REMARK 921   NORMALIZED FREE ENERGY PREDICTED BY IDOCK:   -5.39 KCAL/MOL
REMARK 922        TOTAL FREE ENERGY PREDICTED BY IDOCK:   -8.23 KCAL/MOL
REMARK 923 INTER-LIGAND FREE ENERGY PREDICTED BY IDOCK:   -6.50 KCAL/MOL
REMARK 924 INTRA-LIGAND FREE ENERGY PREDICTED BY IDOCK:   -1.72 KCAL/MOL
REMARK 927      BINDING AFFINITY PREDICTED BY RF-SCORE:    0.00 PKD
ROOT
HETATM    1  F   UNL     1     -12.354  15.517  68.732  1.00  0.00    -0.269 F  
HETATM    2  C   UNL     1     -11.854  14.322  68.309  1.00  0.00    -0.335 C  
HETATM    3  F   UNL     1     -12.288  13.398  69.208  1.00  0.00    -0.336 F  
HETATM    4  F   UNL     1     -12.495  14.044  67.141  1.00  0.00    -0.434 F  
HETATM    5  C   UNL     1     -10.352  14.321  68.157  1.00  0.00    -0.233 A  
HETATM    6  C   UNL     1      -9.581  15.462  68.426  1.00  0.00    -0.200 A  
HETATM    7  C   UNL     1      -8.183  15.439  68.289  1.00  0.00    -0.145 A  
HETATM    8  C   UNL     1      -7.358  16.668  68.594  1.00  0.00    -0.203 C  
HETATM    9  C   UNL     1      -7.553  14.252  67.867  1.00  0.00    -0.159 A  
HETATM   10  C   UNL     1      -8.302  13.103  67.582  1.00  0.00    -0.174 A  
HETATM   11  F   UNL     1      -6.626  17.086  67.522  1.00  0.00    -0.133 F  
HETATM   12  F   UNL     1      -8.104  17.741  68.975  1.00  0.00    -0.263 F  
HETATM   13  F   UNL     1      -6.466  16.461  69.601  1.00  0.00    -0.186 F  
HETATM   14  C   UNL     1      -9.697  13.152  67.738  1.00  0.00    -0.218 A  
ENDROOT
BRANCH  10  15
HETATM   15  C   UNL     1      -7.677  11.854  67.147  1.00  0.00    -0.163 A  
HETATM   16  N   UNL     1      -8.091  11.094  66.122  1.00  0.00    -0.147 NA 
HETATM   17  N   UNL     1      -7.115  10.138  66.018  1.00  0.00    -0.111 NA 
HETATM   18  N   UNL     1      -6.590  11.353  67.805  1.00  0.00    -0.066 NA 
HETATM   19  C   UNL     1      -6.282  10.288  67.110  1.00  0.00    -0.062 A  
BRANCH  17  20
HETATM   20  C   UNL     1      -7.084   9.153  65.020  1.00  0.00    -0.092 C  
HETATM   21  C   UNL     1      -7.868   8.081  64.793  1.00  0.00    -0.131 C  
BRANCH  21  22
HETATM   22  C   UNL     1      -8.908   7.546  65.705  1.00  0.00    -0.090 C  
HETATM   23  N   UNL     1      -9.842   8.455  66.145  1.00  0.00    -0.458 N  
HETATM   24  O   UNL     1      -8.974   6.362  66.022  1.00  0.00    -0.157 OA 
HETATM   25  H   UNL     1      -9.857   9.422  65.820  1.00  0.00     0.000 HD 
BRANCH  23  26
HETATM   26  N   UNL     1     -10.781   7.957  67.078  1.00  0.00    -0.443 NA 
HETATM   27  H   UNL     1     -11.515   7.296  66.827  1.00  0.00     0.000 HD 
BRANCH  26  28
HETATM   28  C   UNL     1     -10.614   8.457  68.393  1.00  0.00    -0.105 A  
HETATM   29  N   UNL     1     -10.713   9.783  68.658  1.00  0.00    -0.223 NA 
HETATM   30  C   UNL     1     -10.453  10.149  69.941  1.00  0.00    -0.275 A  
HETATM   31  C   UNL     1     -10.093   9.245  70.928  1.00  0.00    -0.302 A  
HETATM   32  N   UNL     1      -9.977   7.925  70.684  1.00  0.00    -0.186 NA 
HETATM   33  C   UNL     1     -10.235   7.561  69.402  1.00  0.00    -0.204 A  
ENDBRANCH  26  28
ENDBRANCH  23  26
ENDBRANCH  21  22
ENDBRANCH  17  20
ENDBRANCH  10  15
TORSDOF 5
ENDMDL
MODEL      206
REMARK 921   NORMALIZED FREE ENERGY PREDICTED BY IDOCK:   -5.38 KCAL/MOL
REMARK 922        TOTAL FREE ENERGY PREDICTED BY IDOCK:   -8.22 KCAL/MOL
REMARK 923 INTER-LIGAND FREE ENERGY PREDICTED BY IDOCK:   -6.83 KCAL/MOL
REMARK 924 INTRA-LIGAND FREE ENERGY PREDICTED BY IDOCK:   -1.39 KCAL/MOL
REMARK 927      BINDING AFFINITY PREDICTED BY RF-SCORE:    0.00 PKD
ROOT
HETATM    1  F   UNL     1     -10.976  18.610  67.149  1.00  0.00    -0.446 F  
HETATM    2  C   UNL     1      -9.871  18.011  67.676  1.00  0.00    -0.305 C  
HETATM    3  F   UNL     1      -8.810  18.748  67.251  1.00  0.00    -0.265 F  
HETATM    4  F   UNL     1      -9.952  18.203  69.021  1.00  0.00    -0.347 F  
HETATM    5  C   UNL     1      -9.748  16.552  67.307  1.00  0.00    -0.247 A  
HETATM    6  C   UNL     1     -10.702  15.909  66.505  1.00  0.00    -0.258 A  
HETATM    7  C   UNL     1     -10.565  14.553  66.164  1.00  0.00    -0.308 A  
HETATM    8  C   UNL     1     -11.590  13.870  65.288  1.00  0.00    -0.327 C  
HETATM    9  C   UNL     1      -9.454  13.832  66.645  1.00  0.00    -0.289 A  
HETATM   10  C   UNL     1      -8.493  14.450  67.456  1.00  0.00    -0.202 A  
HETATM   11  F   UNL     1     -12.173  12.801  65.901  1.00  0.00    -0.448 F  
HETATM   12  F   UNL     1     -12.613  14.687  64.914  1.00  0.00    -0.419 F  
HETATM   13  F   UNL     1     -11.053  13.394  64.131  1.00  0.00    -0.359 F  
HETATM   14  C   UNL     1      -8.652  15.809  67.773  1.00  0.00    -0.164 A  
ENDROOT
BRANCH  10  15
HETATM   15  C   UNL     1      -7.326  13.730  67.967  1.00  0.00    -0.134 A  
HETATM   16  N   UNL     1      -7.244  13.136  69.166  1.00  0.00     0.009 NA 
HETATM   17  N   UNL     1      -6.041  12.483  69.117  1.00  0.00    -0.081 NA 
HETATM   18  N   UNL     1      -6.186  13.633  67.220  1.00  0.00    -0.246 NA 
HETATM   19  C   UNL     1      -5.406  12.887  67.959  1.00  0.00    -0.099 A  
BRANCH  17  20
HETATM   20  C   UNL     1      -5.557  11.651  70.138  1.00  0.00    -0.127 C  
HETATM   21  C   UNL     1      -6.031  10.502  70.660  1.00  0.00    -0.104 C  
BRANCH  21  22
HETATM   22  C   UNL     1      -7.357   9.897  70.387  1.00  0.00    -0.127 C  
HETATM   23  N   UNL     1      -7.841  10.068  69.112  1.00  0.00    -0.102 N  
HETATM   24  O   UNL     1      -7.976   9.242  71.220  1.00  0.00    -0.322 OA 
HETATM   25  H   UNL     1      -7.300  10.530  68.380  1.00  0.00     0.000 HD 
BRANCH  23  26
HETATM   26  N   UNL     1      -9.141   9.560  68.883  1.00  0.00    -0.138 NA 
HETATM   27  H   UNL     1      -9.972   9.939  69.337  1.00  0.00     0.000 HD 
BRANCH  26  28
HETATM   28  C   UNL     1      -9.190   8.479  67.968  1.00  0.00    -0.136 A  
HETATM   29  N   UNL     1     -10.373   7.986  67.527  1.00  0.00    -0.241 NA 
HETATM   30  C   UNL     1     -10.292   6.897  66.717  1.00  0.00    -0.217 A  
HETATM   31  C   UNL     1      -9.091   6.304  66.363  1.00  0.00    -0.153 A  
HETATM   32  N   UNL     1      -7.904   6.772  66.800  1.00  0.00    -0.105 NA 
HETATM   33  C   UNL     1      -7.986   7.857  67.610  1.00  0.00    -0.124 A  
ENDBRANCH  26  28
ENDBRANCH  23  26
ENDBRANCH  21  22
ENDBRANCH  17  20
ENDBRANCH  10  15
TORSDOF 5
ENDMDL
MODEL      207
REMARK 921   NORMALIZED FREE ENERGY PREDICTED BY IDOCK:   -5.37 KCAL/MOL
REMARK 922        TOTAL FREE ENERGY PREDICTED BY IDOCK:   -8.20 KCAL/MOL
REMARK 923 INTER-LIGAND FREE ENERGY PREDICTED BY IDOCK:   -6.68 KCAL/MOL
REMARK 924 INTRA-LIGAND FREE ENERGY PREDICTED BY IDOCK:   -1.53 KCAL/MOL
REMARK 927      BINDING AFFINITY PREDICTED BY RF-SCORE:    0.00 PKD
ROOT
HETATM    1  F   UNL     1      -9.361   6.538  67.865  1.00  0.00    -0.118 F  
HETATM    2  C   UNL     1     -10.080   7.656  67.566  1.00  0.00    -0.202 C  
HETATM    3  F   UNL     1     -10.228   7.652  66.213  1.00  0.00    -0.257 F  
HETATM    4  F   UNL     1     -11.322   7.446  68.082  1.00  0.00    -0.021 F  
HETATM    5  C   UNL     1      -9.450   8.929  68.077  1.00  0.00    -0.158 A  
HETATM    6  C   UNL     1      -8.244   8.921  68.793  1.00  0.00    -0.115 A  
HETATM    7  C   UNL     1      -7.667  10.118  69.252  1.00  0.00    -0.126 A  
HETATM    8  C   UNL     1      -6.361  10.103  70.011  1.00  0.00    -0.088 C  
HETATM    9  C   UNL     1      -8.320  11.339  68.991  1.00  0.00    -0.014 A  
HETATM   10  C   UNL     1      -9.530  11.371  68.286  1.00  0.00    -0.187 A  
HETATM   11  F   UNL     1      -6.473  10.650  71.255  1.00  0.00     0.119 F  
HETATM   12  F   UNL     1      -5.859   8.852  70.200  1.00  0.00    -0.030 F  
HETATM   13  F   UNL     1      -5.382  10.804  69.378  1.00  0.00    -0.039 F  
HETATM   14  C   UNL     1     -10.078  10.161  67.832  1.00  0.00    -0.207 A  
ENDROOT
BRANCH  10  15
HETATM   15  C   UNL     1     -10.229  12.624  67.995  1.00  0.00    -0.230 A  
HETATM   16  N   UNL     1      -9.939  13.460  66.989  1.00  0.00    -0.242 NA 
HETATM   17  N   UNL     1     -10.946  14.387  67.042  1.00  0.00    -0.298 NA 
HETATM   18  N   UNL     1     -11.261  13.045  68.787  1.00  0.00    -0.266 NA 
HETATM   19  C   UNL     1     -11.664  14.140  68.196  1.00  0.00    -0.355 A  
BRANCH  17  20
HETATM   20  C   UNL     1     -11.101  15.431  66.118  1.00  0.00    -0.230 C  
HETATM   21  C   UNL     1     -11.484  15.437  64.826  1.00  0.00    -0.337 C  
BRANCH  21  22
HETATM   22  C   UNL     1     -11.671  14.247  63.962  1.00  0.00    -0.163 C  
HETATM   23  N   UNL     1     -10.761  13.232  64.137  1.00  0.00    -0.518 N  
HETATM   24  O   UNL     1     -12.602  14.138  63.169  1.00  0.00    -0.686 OA 
HETATM   25  H   UNL     1     -10.037  13.267  64.855  1.00  0.00     0.000 HD 
BRANCH  23  26
HETATM   26  N   UNL     1     -10.896  12.136  63.253  1.00  0.00    -0.647 NA 
HETATM   27  H   UNL     1     -11.595  12.106  62.512  1.00  0.00     0.000 HD 
BRANCH  26  28
HETATM   28  C   UNL     1      -9.977  11.084  63.487  1.00  0.00    -0.370 A  
HETATM   29  N   UNL     1      -9.436  10.884  64.714  1.00  0.00    -0.225 NA 
HETATM   30  C   UNL     1      -8.506   9.895  64.795  1.00  0.00    -0.172 A  
HETATM   31  C   UNL     1      -8.110   9.138  63.704  1.00  0.00    -0.160 A  
HETATM   32  N   UNL     1      -8.626   9.328  62.473  1.00  0.00    -0.210 NA 
HETATM   33  C   UNL     1      -9.552  10.316  62.394  1.00  0.00    -0.132 A  
ENDBRANCH  26  28
ENDBRANCH  23  26
ENDBRANCH  21  22
ENDBRANCH  17  20
ENDBRANCH  10  15
TORSDOF 5
ENDMDL
MODEL      208
REMARK 921   NORMALIZED FREE ENERGY PREDICTED BY IDOCK:   -5.34 KCAL/MOL
REMARK 922        TOTAL FREE ENERGY PREDICTED BY IDOCK:   -8.17 KCAL/MOL
REMARK 923 INTER-LIGAND FREE ENERGY PREDICTED BY IDOCK:   -6.68 KCAL/MOL
REMARK 924 INTRA-LIGAND FREE ENERGY PREDICTED BY IDOCK:   -1.49 KCAL/MOL
REMARK 927      BINDING AFFINITY PREDICTED BY RF-SCORE:    0.00 PKD
ROOT
HETATM    1  F   UNL     1     -12.985  13.756  64.973  1.00  0.00    -0.405 F  
HETATM    2  C   UNL     1     -12.390  12.795  64.210  1.00  0.00    -0.416 C  
HETATM    3  F   UNL     1     -13.337  11.838  64.012  1.00  0.00    -0.474 F  
HETATM    4  F   UNL     1     -12.172  13.369  62.995  1.00  0.00    -0.608 F  
HETATM    5  C   UNL     1     -11.126  12.242  64.823  1.00  0.00    -0.356 A  
HETATM    6  C   UNL     1     -10.639  12.703  66.055  1.00  0.00    -0.294 A  
HETATM    7  C   UNL     1      -9.466  12.169  66.614  1.00  0.00    -0.226 A  
HETATM    8  C   UNL     1      -8.954  12.661  67.948  1.00  0.00    -0.189 C  
HETATM    9  C   UNL     1      -8.770  11.161  65.918  1.00  0.00    -0.167 A  
HETATM   10  C   UNL     1      -9.231  10.692  64.681  1.00  0.00    -0.262 A  
HETATM   11  F   UNL     1      -7.693  13.173  67.868  1.00  0.00    -0.100 F  
HETATM   12  F   UNL     1      -9.720  13.645  68.493  1.00  0.00    -0.218 F  
HETATM   13  F   UNL     1      -8.900  11.673  68.883  1.00  0.00    -0.143 F  
HETATM   14  C   UNL     1     -10.412  11.238  64.152  1.00  0.00    -0.431 A  
ENDROOT
BRANCH  10  15
HETATM   15  C   UNL     1      -8.534   9.643  63.937  1.00  0.00    -0.187 A  
HETATM   16  N   UNL     1      -7.439   8.991  64.354  1.00  0.00    -0.102 NA 
HETATM   17  N   UNL     1      -7.260   8.024  63.401  1.00  0.00    -0.086 NA 
HETATM   18  N   UNL     1      -8.969   9.261  62.699  1.00  0.00    -0.210 NA 
HETATM   19  C   UNL     1      -8.155   8.286  62.383  1.00  0.00    -0.172 A  
BRANCH  17  20
HETATM   20  C   UNL     1      -6.263   7.038  63.460  1.00  0.00    -0.044 C  
HETATM   21  C   UNL     1      -6.311   5.732  63.789  1.00  0.00    -0.025 C  
BRANCH  21  22
HETATM   22  C   UNL     1      -7.469   5.019  64.380  1.00  0.00    -0.068 C  
HETATM   23  N   UNL     1      -8.415   5.813  64.985  1.00  0.00    -0.199 N  
HETATM   24  O   UNL     1      -7.614   3.802  64.304  1.00  0.00    -0.076 OA 
HETATM   25  H   UNL     1      -8.357   6.831  64.978  1.00  0.00     0.000 HD 
BRANCH  23  26
HETATM   26  N   UNL     1      -9.473   5.120  65.618  1.00  0.00    -0.248 NA 
HETATM   27  H   UNL     1     -10.018   4.396  65.152  1.00  0.00     0.000 HD 
BRANCH  26  28
HETATM   28  C   UNL     1      -9.711   5.521  66.956  1.00  0.00    -0.146 A  
HETATM   29  N   UNL     1      -9.962   4.609  67.928  1.00  0.00    -0.116 NA 
HETATM   30  C   UNL     1     -10.255   5.118  69.153  1.00  0.00    -0.189 A  
HETATM   31  C   UNL     1     -10.313   6.479  69.413  1.00  0.00    -0.205 A  
HETATM   32  N   UNL     1     -10.079   7.402  68.460  1.00  0.00    -0.170 NA 
HETATM   33  C   UNL     1      -9.790   6.892  67.236  1.00  0.00    -0.152 A  
ENDBRANCH  26  28
ENDBRANCH  23  26
ENDBRANCH  21  22
ENDBRANCH  17  20
ENDBRANCH  10  15
TORSDOF 5
ENDMDL
MODEL      209
REMARK 921   NORMALIZED FREE ENERGY PREDICTED BY IDOCK:   -5.34 KCAL/MOL
REMARK 922        TOTAL FREE ENERGY PREDICTED BY IDOCK:   -8.16 KCAL/MOL
REMARK 923 INTER-LIGAND FREE ENERGY PREDICTED BY IDOCK:   -6.83 KCAL/MOL
REMARK 924 INTRA-LIGAND FREE ENERGY PREDICTED BY IDOCK:   -1.33 KCAL/MOL
REMARK 927      BINDING AFFINITY PREDICTED BY RF-SCORE:    0.00 PKD
ROOT
HETATM    1  F   UNL     1     -11.217  18.867  67.556  1.00  0.00    -0.465 F  
HETATM    2  C   UNL     1     -10.160  18.084  67.203  1.00  0.00    -0.346 C  
HETATM    3  F   UNL     1     -10.359  17.756  65.898  1.00  0.00    -0.349 F  
HETATM    4  F   UNL     1      -9.070  18.900  67.226  1.00  0.00    -0.274 F  
HETATM    5  C   UNL     1      -9.991  16.871  68.086  1.00  0.00    -0.285 A  
HETATM    6  C   UNL     1     -10.854  16.614  69.161  1.00  0.00    -0.315 A  
HETATM    7  C   UNL     1     -10.688  15.474  69.966  1.00  0.00    -0.331 A  
HETATM    8  C   UNL     1     -11.630  15.196  71.114  1.00  0.00    -0.360 C  
HETATM    9  C   UNL     1      -9.631  14.585  69.688  1.00  0.00     0.350 A  
HETATM   10  C   UNL     1      -8.750  14.826  68.625  1.00  0.00    -0.178 A  
HETATM   11  F   UNL     1     -10.986  15.118  72.313  1.00  0.00    -0.468 F  
HETATM   12  F   UNL     1     -12.590  16.149  71.270  1.00  0.00    -0.484 F  
HETATM   13  F   UNL     1     -12.297  14.018  70.968  1.00  0.00    -0.361 F  
HETATM   14  C   UNL     1      -8.947  15.968  67.833  1.00  0.00    -0.186 A  
ENDROOT
BRANCH  10  15
HETATM   15  C   UNL     1      -7.646  13.919  68.308  1.00  0.00    -0.130 A  
HETATM   16  N   UNL     1      -7.477  12.692  68.821  1.00  0.00    -0.083 NA 
HETATM   17  N   UNL     1      -6.412  12.195  68.117  1.00  0.00    -0.052 NA 
HETATM   18  N   UNL     1      -6.661  14.298  67.440  1.00  0.00    -0.274 NA 
HETATM   19  C   UNL     1      -5.904  13.234  67.362  1.00  0.00     0.063 A  
BRANCH  17  20
HETATM   20  C   UNL     1      -5.916  10.890  68.261  1.00  0.00    -0.046 C  
HETATM   21  C   UNL     1      -6.508   9.686  68.137  1.00  0.00    -0.057 C  
BRANCH  21  22
HETATM   22  C   UNL     1      -7.962   9.436  67.987  1.00  0.00    -0.092 C  
HETATM   23  N   UNL     1      -8.762   9.938  68.986  1.00  0.00    -0.141 N  
HETATM   24  O   UNL     1      -8.443   8.859  67.016  1.00  0.00    -0.111 OA 
HETATM   25  H   UNL     1      -8.389  10.499  69.753  1.00  0.00     0.000 HD 
BRANCH  23  26
HETATM   26  N   UNL     1     -10.137   9.624  68.878  1.00  0.00    -0.180 NA 
HETATM   27  H   UNL     1     -10.705   9.895  68.077  1.00  0.00     0.000 HD 
BRANCH  26  28
HETATM   28  C   UNL     1     -10.655   8.900  69.980  1.00  0.00    -0.220 A  
HETATM   29  N   UNL     1     -11.123   9.538  71.082  1.00  0.00    -0.352 NA 
HETATM   30  C   UNL     1     -11.519   8.735  72.104  1.00  0.00    -0.351 A  
HETATM   31  C   UNL     1     -11.445   7.352  72.053  1.00  0.00    -0.273 A  
HETATM   32  N   UNL     1     -10.972   6.698  70.973  1.00  0.00    -0.247 NA 
HETATM   33  C   UNL     1     -10.575   7.501  69.954  1.00  0.00    -0.237 A  
ENDBRANCH  26  28
ENDBRANCH  23  26
ENDBRANCH  21  22
ENDBRANCH  17  20
ENDBRANCH  10  15
TORSDOF 5
ENDMDL
MODEL      210
REMARK 921   NORMALIZED FREE ENERGY PREDICTED BY IDOCK:   -5.34 KCAL/MOL
REMARK 922        TOTAL FREE ENERGY PREDICTED BY IDOCK:   -8.16 KCAL/MOL
REMARK 923 INTER-LIGAND FREE ENERGY PREDICTED BY IDOCK:   -7.22 KCAL/MOL
REMARK 924 INTRA-LIGAND FREE ENERGY PREDICTED BY IDOCK:   -0.95 KCAL/MOL
REMARK 927      BINDING AFFINITY PREDICTED BY RF-SCORE:    0.00 PKD
ROOT
HETATM    1  F   UNL     1     -11.207  15.776  64.912  1.00  0.00    -0.370 F  
HETATM    2  C   UNL     1     -10.357  15.668  65.971  1.00  0.00    -0.335 C  
HETATM    3  F   UNL     1      -9.369  16.577  65.749  1.00  0.00    -0.316 F  
HETATM    4  F   UNL     1     -11.051  16.119  67.052  1.00  0.00    -0.292 F  
HETATM    5  C   UNL     1      -9.823  14.269  66.172  1.00  0.00    -0.335 A  
HETATM    6  C   UNL     1     -10.197  13.209  65.333  1.00  0.00    -0.301 A  
HETATM    7  C   UNL     1      -9.682  11.916  65.528  1.00  0.00    -0.237 A  
HETATM    8  C   UNL     1     -10.079  10.782  64.613  1.00  0.00    -0.344 C  
HETATM    9  C   UNL     1      -8.784  11.688  66.589  1.00  0.00    -0.187 A  
HETATM   10  C   UNL     1      -8.404  12.729  67.446  1.00  0.00    -0.189 A  
HETATM   11  F   UNL     1     -10.668   9.751  65.282  1.00  0.00    -0.073 F  
HETATM   12  F   UNL     1     -10.963  11.150  63.645  1.00  0.00    -0.433 F  
HETATM   13  F   UNL     1      -9.014  10.245  63.956  1.00  0.00    -0.172 F  
HETATM   14  C   UNL     1      -8.927  14.012  67.221  1.00  0.00    -0.223 A  
ENDROOT
BRANCH  10  15
HETATM   15  C   UNL     1      -7.470  12.524  68.554  1.00  0.00    -0.122 A  
HETATM   16  N   UNL     1      -7.344  11.395  69.265  1.00  0.00    -0.084 NA 
HETATM   17  N   UNL     1      -6.260  11.640  70.066  1.00  0.00    -0.151 NA 
HETATM   18  N   UNL     1      -6.642  13.532  68.961  1.00  0.00    -0.106 NA 
HETATM   19  C   UNL     1      -5.930  12.972  69.906  1.00  0.00    -0.136 A  
BRANCH  17  20
HETATM   20  C   UNL     1      -5.701  10.697  70.941  1.00  0.00    -0.074 C  
HETATM   21  C   UNL     1      -6.044   9.426  71.230  1.00  0.00    -0.072 C  
BRANCH  21  22
HETATM   22  C   UNL     1      -7.282   8.734  70.798  1.00  0.00    -0.073 C  
HETATM   23  N   UNL     1      -8.396   8.962  71.571  1.00  0.00    -0.145 N  
HETATM   24  O   UNL     1      -7.339   8.033  69.792  1.00  0.00    -0.070 OA 
HETATM   25  H   UNL     1      -8.390   9.613  72.357  1.00  0.00     0.000 HD 
BRANCH  23  26
HETATM   26  N   UNL     1      -9.551   8.234  71.202  1.00  0.00    -0.156 NA 
HETATM   27  H   UNL     1      -9.527   7.246  70.955  1.00  0.00     0.000 HD 
BRANCH  26  28
HETATM   28  C   UNL     1     -10.745   8.997  71.206  1.00  0.00    -0.309 A  
HETATM   29  N   UNL     1     -10.858  10.128  70.466  1.00  0.00    -0.303 NA 
HETATM   30  C   UNL     1     -12.020  10.816  70.616  1.00  0.00    -0.367 A  
HETATM   31  C   UNL     1     -13.033  10.415  71.473  1.00  0.00    -0.458 A  
HETATM   32  N   UNL     1     -12.936   9.302  72.226  1.00  0.00    -0.412 NA 
HETATM   33  C   UNL     1     -11.774   8.617  72.078  1.00  0.00    -0.369 A  
ENDBRANCH  26  28
ENDBRANCH  23  26
ENDBRANCH  21  22
ENDBRANCH  17  20
ENDBRANCH  10  15
TORSDOF 5
ENDMDL
MODEL      211
REMARK 921   NORMALIZED FREE ENERGY PREDICTED BY IDOCK:   -5.34 KCAL/MOL
REMARK 922        TOTAL FREE ENERGY PREDICTED BY IDOCK:   -8.16 KCAL/MOL
REMARK 923 INTER-LIGAND FREE ENERGY PREDICTED BY IDOCK:   -6.81 KCAL/MOL
REMARK 924 INTRA-LIGAND FREE ENERGY PREDICTED BY IDOCK:   -1.35 KCAL/MOL
REMARK 927      BINDING AFFINITY PREDICTED BY RF-SCORE:    0.00 PKD
ROOT
HETATM    1  F   UNL     1     -10.044   7.463  74.178  1.00  0.00    -0.331 F  
HETATM    2  C   UNL     1      -9.429   7.221  72.986  1.00  0.00    -0.168 C  
HETATM    3  F   UNL     1      -8.129   7.581  73.158  1.00  0.00    -0.112 F  
HETATM    4  F   UNL     1      -9.430   5.868  72.836  1.00  0.00    -0.150 F  
HETATM    5  C   UNL     1     -10.078   7.931  71.821  1.00  0.00    -0.236 A  
HETATM    6  C   UNL     1     -11.207   8.746  71.989  1.00  0.00    -0.443 A  
HETATM    7  C   UNL     1     -11.791   9.407  70.895  1.00  0.00    -0.365 A  
HETATM    8  C   UNL     1     -12.999  10.293  71.085  1.00  0.00    -0.409 C  
HETATM    9  C   UNL     1     -11.232   9.238  69.613  1.00  0.00    -0.061 A  
HETATM   10  C   UNL     1     -10.111   8.421  69.419  1.00  0.00    -0.198 A  
HETATM   11  F   UNL     1     -14.070   9.884  70.348  1.00  0.00    -0.118 F  
HETATM   12  F   UNL     1     -13.435  10.347  72.374  1.00  0.00    -0.493 F  
HETATM   13  F   UNL     1     -12.763  11.583  70.720  1.00  0.00    -0.397 F  
HETATM   14  C   UNL     1      -9.543   7.781  70.532  1.00  0.00    -0.167 A  
ENDROOT
BRANCH  10  15
HETATM   15  C   UNL     1      -9.505   8.230  68.101  1.00  0.00    -0.137 A  
HETATM   16  N   UNL     1      -9.946   8.772  66.957  1.00  0.00    -0.215 NA 
HETATM   17  N   UNL     1      -8.981   8.430  66.047  1.00  0.00    -0.176 NA 
HETATM   18  N   UNL     1      -8.409   7.429  67.948  1.00  0.00    -0.119 NA 
HETATM   19  C   UNL     1      -8.125   7.548  66.677  1.00  0.00    -0.123 A  
BRANCH  17  20
HETATM   20  C   UNL     1      -8.979   8.851  64.709  1.00  0.00    -0.036 C  
HETATM   21  C   UNL     1      -9.156  10.064  64.150  1.00  0.00    -0.295 C  
BRANCH  21  22
HETATM   22  C   UNL     1      -9.604  11.294  64.847  1.00  0.00    -0.232 C  
HETATM   23  N   UNL     1      -8.804  11.720  65.881  1.00  0.00    -0.397 N  
HETATM   24  O   UNL     1     -10.597  11.930  64.506  1.00  0.00    -0.277 OA 
HETATM   25  H   UNL     1      -7.926  11.256  66.118  1.00  0.00     0.000 HD 
BRANCH  23  26
HETATM   26  N   UNL     1      -9.280  12.845  66.593  1.00  0.00    -0.303 NA 
HETATM   27  H   UNL     1     -10.226  13.211  66.482  1.00  0.00     0.000 HD 
BRANCH  26  28
HETATM   28  C   UNL     1      -8.331  13.421  67.473  1.00  0.00    -0.190 A  
HETATM   29  N   UNL     1      -8.687  14.386  68.356  1.00  0.00    -0.176 NA 
HETATM   30  C   UNL     1      -7.673  14.917  69.089  1.00  0.00    -0.164 A  
HETATM   31  C   UNL     1      -6.351  14.523  68.951  1.00  0.00    -0.089 A  
HETATM   32  N   UNL     1      -5.974  13.574  68.071  1.00  0.00    -0.118 NA 
HETATM   33  C   UNL     1      -6.987  13.046  67.338  1.00  0.00    -0.116 A  
ENDBRANCH  26  28
ENDBRANCH  23  26
ENDBRANCH  21  22
ENDBRANCH  17  20
ENDBRANCH  10  15
TORSDOF 5
ENDMDL
MODEL      212
REMARK 921   NORMALIZED FREE ENERGY PREDICTED BY IDOCK:   -5.32 KCAL/MOL
REMARK 922        TOTAL FREE ENERGY PREDICTED BY IDOCK:   -8.14 KCAL/MOL
REMARK 923 INTER-LIGAND FREE ENERGY PREDICTED BY IDOCK:   -7.32 KCAL/MOL
REMARK 924 INTRA-LIGAND FREE ENERGY PREDICTED BY IDOCK:   -0.82 KCAL/MOL
REMARK 927      BINDING AFFINITY PREDICTED BY RF-SCORE:    0.00 PKD
ROOT
HETATM    1  F   UNL     1     -10.355   4.757  69.986  1.00  0.00    -0.321 F  
HETATM    2  C   UNL     1      -9.714   5.743  69.298  1.00  0.00    -0.144 C  
HETATM    3  F   UNL     1      -8.407   5.665  69.667  1.00  0.00    -0.100 F  
HETATM    4  F   UNL     1      -9.761   5.373  67.989  1.00  0.00    -0.124 F  
HETATM    5  C   UNL     1     -10.301   7.115  69.531  1.00  0.00    -0.224 A  
HETATM    6  C   UNL     1     -11.404   7.313  70.374  1.00  0.00    -0.299 A  
HETATM    7  C   UNL     1     -11.930   8.598  70.588  1.00  0.00    -0.056 A  
HETATM    8  C   UNL     1     -13.111   8.806  71.508  1.00  0.00    -0.318 C  
HETATM    9  C   UNL     1     -11.341   9.699  69.935  1.00  0.00    -0.200 A  
HETATM   10  C   UNL     1     -10.244   9.525  69.080  1.00  0.00    -0.211 A  
HETATM   11  F   UNL     1     -14.173   9.379  70.875  1.00  0.00    -0.318 F  
HETATM   12  F   UNL     1     -13.582   7.651  72.053  1.00  0.00    -0.331 F  
HETATM   13  F   UNL     1     -12.816   9.619  72.559  1.00  0.00    -0.431 F  
HETATM   14  C   UNL     1      -9.734   8.230  68.894  1.00  0.00    -0.164 A  
ENDROOT
BRANCH  10  15
HETATM   15  C   UNL     1      -9.607  10.648  68.392  1.00  0.00    -0.168 A  
HETATM   16  N   UNL     1      -8.431  11.197  68.726  1.00  0.00    -0.154 NA 
HETATM   17  N   UNL     1      -8.197  12.091  67.715  1.00  0.00    -0.141 NA 
HETATM   18  N   UNL     1     -10.216  11.245  67.324  1.00  0.00    -0.190 NA 
HETATM   19  C   UNL     1      -9.343  12.144  66.945  1.00  0.00    -0.203 A  
BRANCH  17  20
HETATM   20  C   UNL     1      -7.027  12.857  67.599  1.00  0.00    -0.152 C  
HETATM   21  C   UNL     1      -6.716  14.092  68.040  1.00  0.00    -0.148 C  
BRANCH  21  22
HETATM   22  C   UNL     1      -7.655  15.072  68.636  1.00  0.00    -0.128 C  
HETATM   23  N   UNL     1      -8.683  15.486  67.822  1.00  0.00    -0.165 N  
HETATM   24  O   UNL     1      -7.562  15.467  69.794  1.00  0.00    -0.192 OA 
HETATM   25  H   UNL     1      -8.829  15.100  66.889  1.00  0.00     0.000 HD 
BRANCH  23  26
HETATM   26  N   UNL     1      -9.526  16.482  68.368  1.00  0.00    -0.217 NA 
HETATM   27  H   UNL     1     -10.102  16.328  69.195  1.00  0.00     0.000 HD 
BRANCH  26  28
HETATM   28  C   UNL     1      -9.501  17.712  67.666  1.00  0.00    -0.258 A  
HETATM   29  N   UNL     1     -10.537  18.584  67.741  1.00  0.00    -0.406 NA 
HETATM   30  C   UNL     1     -10.432  19.692  66.960  1.00  0.00    -0.479 A  
HETATM   31  C   UNL     1      -9.353  19.929  66.124  1.00  0.00    -0.358 A  
HETATM   32  N   UNL     1      -8.319  19.071  66.026  1.00  0.00    -0.473 NA 
HETATM   33  C   UNL     1      -8.426  17.964  66.804  1.00  0.00    -0.249 A  
ENDBRANCH  26  28
ENDBRANCH  23  26
ENDBRANCH  21  22
ENDBRANCH  17  20
ENDBRANCH  10  15
TORSDOF 5
ENDMDL
MODEL      213
REMARK 921   NORMALIZED FREE ENERGY PREDICTED BY IDOCK:   -5.31 KCAL/MOL
REMARK 922        TOTAL FREE ENERGY PREDICTED BY IDOCK:   -8.13 KCAL/MOL
REMARK 923 INTER-LIGAND FREE ENERGY PREDICTED BY IDOCK:   -7.06 KCAL/MOL
REMARK 924 INTRA-LIGAND FREE ENERGY PREDICTED BY IDOCK:   -1.07 KCAL/MOL
REMARK 927      BINDING AFFINITY PREDICTED BY RF-SCORE:    0.00 PKD
ROOT
HETATM    1  F   UNL     1     -12.478  14.001  63.574  1.00  0.00    -0.499 F  
HETATM    2  C   UNL     1     -11.686  13.199  64.340  1.00  0.00    -0.380 C  
HETATM    3  F   UNL     1     -12.529  12.336  64.969  1.00  0.00    -0.483 F  
HETATM    4  F   UNL     1     -10.960  12.450  63.466  1.00  0.00    -0.402 F  
HETATM    5  C   UNL     1     -10.814  13.964  65.307  1.00  0.00    -0.337 A  
HETATM    6  C   UNL     1     -10.839  15.365  65.373  1.00  0.00    -0.403 A  
HETATM    7  C   UNL     1     -10.028  16.060  66.286  1.00  0.00    -0.329 A  
HETATM    8  C   UNL     1     -10.069  17.568  66.362  1.00  0.00    -0.345 C  
HETATM    9  C   UNL     1      -9.174  15.332  67.139  1.00  0.00    -0.223 A  
HETATM   10  C   UNL     1      -9.125  13.933  67.083  1.00  0.00    -0.245 A  
HETATM   11  F   UNL     1      -8.854  18.138  66.121  1.00  0.00    -0.274 F  
HETATM   12  F   UNL     1     -10.928  18.133  65.469  1.00  0.00    -0.381 F  
HETATM   13  F   UNL     1     -10.459  18.019  67.586  1.00  0.00    -0.341 F  
HETATM   14  C   UNL     1      -9.954  13.266  66.168  1.00  0.00    -0.295 A  
ENDROOT
BRANCH  10  15
HETATM   15  C   UNL     1      -8.252  13.150  67.958  1.00  0.00    -0.158 A  
HETATM   16  N   UNL     1      -8.514  11.916  68.413  1.00  0.00    -0.166 NA 
HETATM   17  N   UNL     1      -7.355  11.558  69.051  1.00  0.00    -0.113 NA 
HETATM   18  N   UNL     1      -7.067  13.664  68.401  1.00  0.00    -0.096 NA 
HETATM   19  C   UNL     1      -6.550  12.679  69.090  1.00  0.00    -0.099 A  
BRANCH  17  20
HETATM   20  C   UNL     1      -7.133  10.298  69.627  1.00  0.00    -0.125 C  
HETATM   21  C   UNL     1      -7.378   9.051  69.178  1.00  0.00    -0.072 C  
BRANCH  21  22
HETATM   22  C   UNL     1      -8.155   8.691  67.968  1.00  0.00    -0.111 C  
HETATM   23  N   UNL     1      -7.422   8.510  66.819  1.00  0.00    -0.082 N  
HETATM   24  O   UNL     1      -9.370   8.516  67.982  1.00  0.00    -0.136 OA 
HETATM   25  H   UNL     1      -6.403   8.561  66.808  1.00  0.00     0.000 HD 
BRANCH  23  26
HETATM   26  N   UNL     1      -8.178   8.249  65.652  1.00  0.00    -0.126 NA 
HETATM   27  H   UNL     1      -8.864   7.497  65.594  1.00  0.00     0.000 HD 
BRANCH  26  28
HETATM   28  C   UNL     1      -7.899   9.121  64.571  1.00  0.00    -0.120 A  
HETATM   29  N   UNL     1      -8.892   9.791  63.935  1.00  0.00    -0.218 NA 
HETATM   30  C   UNL     1      -8.509  10.533  62.863  1.00  0.00    -0.186 A  
HETATM   31  C   UNL     1      -7.197  10.606  62.422  1.00  0.00    -0.112 A  
HETATM   32  N   UNL     1      -6.197   9.940  63.032  1.00  0.00    -0.112 NA 
HETATM   33  C   UNL     1      -6.581   9.196  64.101  1.00  0.00    -0.088 A  
ENDBRANCH  26  28
ENDBRANCH  23  26
ENDBRANCH  21  22
ENDBRANCH  17  20
ENDBRANCH  10  15
TORSDOF 5
ENDMDL
MODEL      214
REMARK 921   NORMALIZED FREE ENERGY PREDICTED BY IDOCK:   -5.31 KCAL/MOL
REMARK 922        TOTAL FREE ENERGY PREDICTED BY IDOCK:   -8.13 KCAL/MOL
REMARK 923 INTER-LIGAND FREE ENERGY PREDICTED BY IDOCK:   -6.53 KCAL/MOL
REMARK 924 INTRA-LIGAND FREE ENERGY PREDICTED BY IDOCK:   -1.60 KCAL/MOL
REMARK 927      BINDING AFFINITY PREDICTED BY RF-SCORE:    0.00 PKD
ROOT
HETATM    1  F   UNL     1      -7.402  16.431  68.920  1.00  0.00    -0.163 F  
HETATM    2  C   UNL     1      -7.060  15.123  68.743  1.00  0.00    -0.117 C  
HETATM    3  F   UNL     1      -6.154  15.110  67.728  1.00  0.00    -0.129 F  
HETATM    4  F   UNL     1      -6.378  14.763  69.864  1.00  0.00    -0.113 F  
HETATM    5  C   UNL     1      -8.244  14.225  68.474  1.00  0.00    -0.145 A  
HETATM    6  C   UNL     1      -9.554  14.724  68.427  1.00  0.00    -0.213 A  
HETATM    7  C   UNL     1     -10.642  13.875  68.165  1.00  0.00    -0.258 A  
HETATM    8  C   UNL     1     -12.050  14.421  68.103  1.00  0.00    -0.223 C  
HETATM    9  C   UNL     1     -10.407  12.501  67.956  1.00  0.00    -0.226 A  
HETATM   10  C   UNL     1      -9.108  11.978  68.008  1.00  0.00    -0.188 A  
HETATM   11  F   UNL     1     -12.879  13.836  69.013  1.00  0.00    -0.042 F  
HETATM   12  F   UNL     1     -12.122  15.759  68.340  1.00  0.00    -0.335 F  
HETATM   13  F   UNL     1     -12.630  14.229  66.887  1.00  0.00    -0.440 F  
HETATM   14  C   UNL     1      -8.039  12.853  68.262  1.00  0.00    -0.151 A  
ENDROOT
BRANCH  10  15
HETATM   15  C   UNL     1      -8.831  10.558  67.790  1.00  0.00    -0.125 A  
HETATM   16  N   UNL     1      -9.598   9.717  67.082  1.00  0.00    -0.161 NA 
HETATM   17  N   UNL     1      -8.857   8.566  67.042  1.00  0.00    -0.130 NA 
HETATM   18  N   UNL     1      -7.726   9.972  68.340  1.00  0.00    -0.084 NA 
HETATM   19  C   UNL     1      -7.781   8.745  67.888  1.00  0.00    -0.102 A  
BRANCH  17  20
HETATM   20  C   UNL     1      -9.233   7.414  66.333  1.00  0.00    -0.159 C  
HETATM   21  C   UNL     1     -10.045   6.388  66.654  1.00  0.00    -0.206 C  
BRANCH  21  22
HETATM   22  C   UNL     1     -10.632   6.119  67.989  1.00  0.00    -0.268 C  
HETATM   23  N   UNL     1     -11.204   7.199  68.619  1.00  0.00    -0.474 N  
HETATM   24  O   UNL     1     -10.655   5.001  68.495  1.00  0.00    -0.027 OA 
HETATM   25  H   UNL     1     -11.275   8.115  68.174  1.00  0.00     0.000 HD 
BRANCH  23  26
HETATM   26  N   UNL     1     -11.688   6.953  69.925  1.00  0.00    -0.605 NA 
HETATM   27  H   UNL     1     -12.604   6.546  70.108  1.00  0.00     0.000 HD 
BRANCH  26  28
HETATM   28  C   UNL     1     -10.790   7.323  70.956  1.00  0.00    -0.239 A  
HETATM   29  N   UNL     1     -10.617   6.541  72.051  1.00  0.00    -0.213 NA 
HETATM   30  C   UNL     1      -9.792   7.041  73.007  1.00  0.00    -0.187 A  
HETATM   31  C   UNL     1      -9.167   8.274  72.900  1.00  0.00    -0.259 A  
HETATM   32  N   UNL     1      -9.334   9.072  71.827  1.00  0.00    -0.346 NA 
HETATM   33  C   UNL     1     -10.161   8.573  70.873  1.00  0.00    -0.201 A  
ENDBRANCH  26  28
ENDBRANCH  23  26
ENDBRANCH  21  22
ENDBRANCH  17  20
ENDBRANCH  10  15
TORSDOF 5
ENDMDL
MODEL      215
REMARK 921   NORMALIZED FREE ENERGY PREDICTED BY IDOCK:   -5.29 KCAL/MOL
REMARK 922        TOTAL FREE ENERGY PREDICTED BY IDOCK:   -8.10 KCAL/MOL
REMARK 923 INTER-LIGAND FREE ENERGY PREDICTED BY IDOCK:   -7.30 KCAL/MOL
REMARK 924 INTRA-LIGAND FREE ENERGY PREDICTED BY IDOCK:   -0.80 KCAL/MOL
REMARK 927      BINDING AFFINITY PREDICTED BY RF-SCORE:    0.00 PKD
ROOT
HETATM    1  F   UNL     1      -9.027  20.450  69.131  1.00  0.00     0.164 F  
HETATM    2  C   UNL     1      -9.916  19.522  68.677  1.00  0.00    -0.449 C  
HETATM    3  F   UNL     1     -10.584  19.079  69.777  1.00  0.00     0.076 F  
HETATM    4  F   UNL     1     -10.825  20.211  67.935  1.00  0.00    -0.430 F  
HETATM    5  C   UNL     1      -9.269  18.400  67.901  1.00  0.00    -0.294 A  
HETATM    6  C   UNL     1      -7.884  18.356  67.682  1.00  0.00    -0.240 A  
HETATM    7  C   UNL     1      -7.298  17.299  66.966  1.00  0.00    -0.218 A  
HETATM    8  C   UNL     1      -5.804  17.251  66.745  1.00  0.00    -0.192 C  
HETATM    9  C   UNL     1      -8.121  16.275  66.457  1.00  0.00    -0.337 A  
HETATM   10  C   UNL     1      -9.508  16.302  66.655  1.00  0.00    -0.269 A  
HETATM   11  F   UNL     1      -5.471  17.233  65.423  1.00  0.00    -0.006 F  
HETATM   12  F   UNL     1      -5.143  18.314  67.280  1.00  0.00    -0.127 F  
HETATM   13  F   UNL     1      -5.231  16.144  67.293  1.00  0.00    -0.138 F  
HETATM   14  C   UNL     1     -10.064  17.366  67.382  1.00  0.00    -0.321 A  
ENDROOT
BRANCH  10  15
HETATM   15  C   UNL     1     -10.388  15.251  66.143  1.00  0.00    -0.302 A  
HETATM   16  N   UNL     1     -10.373  14.765  64.894  1.00  0.00    -0.388 NA 
HETATM   17  N   UNL     1     -11.255  13.718  64.947  1.00  0.00    -0.334 NA 
HETATM   18  N   UNL     1     -11.341  14.689  66.946  1.00  0.00    -0.347 NA 
HETATM   19  C   UNL     1     -11.875  13.772  66.180  1.00  0.00    -0.398 A  
BRANCH  17  20
HETATM   20  C   UNL     1     -11.511  12.851  63.874  1.00  0.00    -0.446 C  
HETATM   21  C   UNL     1     -11.041  11.623  63.581  1.00  0.00    -0.506 C  
BRANCH  21  22
HETATM   22  C   UNL     1      -9.932  10.921  64.272  1.00  0.00    -0.333 C  
HETATM   23  N   UNL     1     -10.060   9.556  64.372  1.00  0.00    -0.094 N  
HETATM   24  O   UNL     1      -8.935  11.500  64.693  1.00  0.00     0.049 OA 
HETATM   25  H   UNL     1     -10.836   9.048  63.948  1.00  0.00     0.000 HD 
BRANCH  23  26
HETATM   26  N   UNL     1      -9.040   8.903  65.104  1.00  0.00    -0.403 NA 
HETATM   27  H   UNL     1      -8.096   8.772  64.742  1.00  0.00     0.000 HD 
BRANCH  26  28
HETATM   28  C   UNL     1      -9.444   8.448  66.384  1.00  0.00    -0.227 A  
HETATM   29  N   UNL     1      -9.697   9.319  67.391  1.00  0.00    -0.153 NA 
HETATM   30  C   UNL     1      -9.996   8.759  68.593  1.00  0.00    -0.182 A  
HETATM   31  C   UNL     1     -10.034   7.390  68.802  1.00  0.00    -0.169 A  
HETATM   32  N   UNL     1      -9.774   6.506  67.818  1.00  0.00    -0.121 NA 
HETATM   33  C   UNL     1      -9.473   7.066  66.619  1.00  0.00    -0.165 A  
ENDBRANCH  26  28
ENDBRANCH  23  26
ENDBRANCH  21  22
ENDBRANCH  17  20
ENDBRANCH  10  15
TORSDOF 5
ENDMDL
MODEL      216
REMARK 921   NORMALIZED FREE ENERGY PREDICTED BY IDOCK:   -5.29 KCAL/MOL
REMARK 922        TOTAL FREE ENERGY PREDICTED BY IDOCK:   -8.10 KCAL/MOL
REMARK 923 INTER-LIGAND FREE ENERGY PREDICTED BY IDOCK:   -6.46 KCAL/MOL
REMARK 924 INTRA-LIGAND FREE ENERGY PREDICTED BY IDOCK:   -1.64 KCAL/MOL
REMARK 927      BINDING AFFINITY PREDICTED BY RF-SCORE:    0.00 PKD
ROOT
HETATM    1  F   UNL     1      -8.440  10.894  63.153  1.00  0.00    -0.167 F  
HETATM    2  C   UNL     1      -8.477  10.254  64.355  1.00  0.00    -0.179 C  
HETATM    3  F   UNL     1      -8.725   8.946  64.073  1.00  0.00    -0.199 F  
HETATM    4  F   UNL     1      -7.205  10.301  64.839  1.00  0.00    -0.128 F  
HETATM    5  C   UNL     1      -9.482  10.840  65.317  1.00  0.00    -0.263 A  
HETATM    6  C   UNL     1     -10.278  11.943  64.972  1.00  0.00    -0.316 A  
HETATM    7  C   UNL     1     -11.216  12.469  65.877  1.00  0.00    -0.356 A  
HETATM    8  C   UNL     1     -12.079  13.648  65.495  1.00  0.00    -0.411 C  
HETATM    9  C   UNL     1     -11.347  11.879  67.150  1.00  0.00    -0.393 A  
HETATM   10  C   UNL     1     -10.557  10.783  67.520  1.00  0.00    -0.280 A  
HETATM   11  F   UNL     1     -11.913  14.711  66.332  1.00  0.00    -0.381 F  
HETATM   12  F   UNL     1     -11.828  14.119  64.242  1.00  0.00    -0.401 F  
HETATM   13  F   UNL     1     -13.407  13.352  65.520  1.00  0.00    -0.371 F  
HETATM   14  C   UNL     1      -9.635  10.273  66.592  1.00  0.00    -0.220 A  
ENDROOT
BRANCH  10  15
HETATM   15  C   UNL     1     -10.674  10.147  68.832  1.00  0.00    -0.223 A  
HETATM   16  N   UNL     1      -9.652   9.862  69.652  1.00  0.00    -0.216 NA 
HETATM   17  N   UNL     1     -10.270   9.425  70.794  1.00  0.00    -0.281 NA 
HETATM   18  N   UNL     1     -11.895   9.767  69.315  1.00  0.00     0.269 NA 
HETATM   19  C   UNL     1     -11.615   9.304  70.507  1.00  0.00    -0.217 A  
BRANCH  17  20
HETATM   20  C   UNL     1      -9.590   9.081  71.972  1.00  0.00    -0.050 C  
HETATM   21  C   UNL     1      -8.641   8.158  72.223  1.00  0.00    -0.234 C  
BRANCH  21  22
HETATM   22  C   UNL     1      -8.187   7.092  71.298  1.00  0.00    -0.108 C  
HETATM   23  N   UNL     1      -8.246   7.399  69.959  1.00  0.00    -0.129 N  
HETATM   24  O   UNL     1      -7.742   6.016  71.685  1.00  0.00    -0.098 OA 
HETATM   25  H   UNL     1      -8.526   8.321  69.622  1.00  0.00     0.000 HD 
BRANCH  23  26
HETATM   26  N   UNL     1      -7.890   6.350  69.079  1.00  0.00    -0.108 NA 
HETATM   27  H   UNL     1      -6.965   5.921  69.074  1.00  0.00     0.000 HD 
BRANCH  26  28
HETATM   28  C   UNL     1      -8.930   5.945  68.207  1.00  0.00    -0.112 A  
HETATM   29  N   UNL     1      -8.804   4.842  67.428  1.00  0.00    -0.103 NA 
HETATM   30  C   UNL     1      -9.834   4.603  66.574  1.00  0.00    -0.223 A  
HETATM   31  C   UNL     1     -10.945   5.426  66.478  1.00  0.00    -0.009 A  
HETATM   32  N   UNL     1     -11.085   6.532  67.235  1.00  0.00    -0.390 NA 
HETATM   33  C   UNL     1     -10.055   6.772  68.085  1.00  0.00    -0.164 A  
ENDBRANCH  26  28
ENDBRANCH  23  26
ENDBRANCH  21  22
ENDBRANCH  17  20
ENDBRANCH  10  15
TORSDOF 5
ENDMDL
MODEL      217
REMARK 921   NORMALIZED FREE ENERGY PREDICTED BY IDOCK:   -5.28 KCAL/MOL
REMARK 922        TOTAL FREE ENERGY PREDICTED BY IDOCK:   -8.09 KCAL/MOL
REMARK 923 INTER-LIGAND FREE ENERGY PREDICTED BY IDOCK:   -7.11 KCAL/MOL
REMARK 924 INTRA-LIGAND FREE ENERGY PREDICTED BY IDOCK:   -0.98 KCAL/MOL
REMARK 927      BINDING AFFINITY PREDICTED BY RF-SCORE:    0.00 PKD
ROOT
HETATM    1  F   UNL     1      -9.382   1.590  69.967  1.00  0.00    -0.134 F  
HETATM    2  C   UNL     1      -9.040   2.467  68.982  1.00  0.00    -0.128 C  
HETATM    3  F   UNL     1      -7.699   2.324  68.807  1.00  0.00    -0.049 F  
HETATM    4  F   UNL     1      -9.622   1.993  67.846  1.00  0.00    -0.232 F  
HETATM    5  C   UNL     1      -9.438   3.892  69.283  1.00  0.00    -0.256 A  
HETATM    6  C   UNL     1     -10.101   4.239  70.469  1.00  0.00    -0.126 A  
HETATM    7  C   UNL     1     -10.453   5.573  70.737  1.00  0.00    -0.330 A  
HETATM    8  C   UNL     1     -11.156   5.941  72.023  1.00  0.00    -0.274 C  
HETATM    9  C   UNL     1     -10.140   6.569  69.792  1.00  0.00    -0.207 A  
HETATM   10  C   UNL     1      -9.487   6.245  68.595  1.00  0.00    -0.121 A  
HETATM   11  F   UNL     1     -12.363   6.535  71.808  1.00  0.00    -0.363 F  
HETATM   12  F   UNL     1     -11.406   4.873  72.829  1.00  0.00    -0.287 F  
HETATM   13  F   UNL     1     -10.435   6.815  72.779  1.00  0.00    -0.191 F  
HETATM   14  C   UNL     1      -9.138   4.905  68.359  1.00  0.00    -0.141 A  
ENDROOT
BRANCH  10  15
HETATM   15  C   UNL     1      -9.144   7.258  67.597  1.00  0.00    -0.124 A  
HETATM   16  N   UNL     1     -10.008   7.845  66.757  1.00  0.00    -0.250 NA 
HETATM   17  N   UNL     1      -9.252   8.807  66.141  1.00  0.00    -0.200 NA 
HETATM   18  N   UNL     1      -7.851   7.671  67.440  1.00  0.00    -0.116 NA 
HETATM   19  C   UNL     1      -7.941   8.601  66.524  1.00  0.00    -0.099 A  
BRANCH  17  20
HETATM   20  C   UNL     1      -9.761   9.735  65.220  1.00  0.00    -0.300 C  
HETATM   21  C   UNL     1     -10.251  10.980  65.379  1.00  0.00    -0.333 C  
BRANCH  21  22
HETATM   22  C   UNL     1     -10.559  11.643  66.669  1.00  0.00    -0.243 C  
HETATM   23  N   UNL     1     -11.620  11.123  67.371  1.00  0.00    -0.176 N  
HETATM   24  O   UNL     1      -9.890  12.569  67.120  1.00  0.00    -0.205 OA 
HETATM   25  H   UNL     1     -12.129  10.296  67.056  1.00  0.00     0.000 HD 
BRANCH  23  26
HETATM   26  N   UNL     1     -11.959  11.811  68.559  1.00  0.00    -0.461 NA 
HETATM   27  H   UNL     1     -12.211  12.799  68.574  1.00  0.00     0.000 HD 
BRANCH  26  28
HETATM   28  C   UNL     1     -11.917  11.010  69.727  1.00  0.00    -0.356 A  
HETATM   29  N   UNL     1     -10.788  10.351  70.086  1.00  0.00    -0.288 NA 
HETATM   30  C   UNL     1     -10.896   9.551  71.179  1.00  0.00    -0.355 A  
HETATM   31  C   UNL     1     -12.076   9.392  71.889  1.00  0.00    -0.357 A  
HETATM   32  N   UNL     1     -13.212  10.029  71.542  1.00  0.00    -0.395 NA 
HETATM   33  C   UNL     1     -13.104  10.825  70.449  1.00  0.00    -0.018 A  
ENDBRANCH  26  28
ENDBRANCH  23  26
ENDBRANCH  21  22
ENDBRANCH  17  20
ENDBRANCH  10  15
TORSDOF 5
ENDMDL
MODEL      218
REMARK 921   NORMALIZED FREE ENERGY PREDICTED BY IDOCK:   -5.28 KCAL/MOL
REMARK 922        TOTAL FREE ENERGY PREDICTED BY IDOCK:   -8.09 KCAL/MOL
REMARK 923 INTER-LIGAND FREE ENERGY PREDICTED BY IDOCK:   -7.45 KCAL/MOL
REMARK 924 INTRA-LIGAND FREE ENERGY PREDICTED BY IDOCK:   -0.64 KCAL/MOL
REMARK 927      BINDING AFFINITY PREDICTED BY RF-SCORE:    0.00 PKD
ROOT
HETATM    1  F   UNL     1     -10.738   6.522  72.431  1.00  0.00    -0.215 F  
HETATM    2  C   UNL     1     -11.010   7.823  72.131  1.00  0.00    -0.266 C  
HETATM    3  F   UNL     1     -12.216   8.092  72.702  1.00  0.00    -0.387 F  
HETATM    4  F   UNL     1     -10.094   8.561  72.817  1.00  0.00    -0.350 F  
HETATM    5  C   UNL     1     -10.992   8.114  70.650  1.00  0.00    -0.255 A  
HETATM    6  C   UNL     1     -10.711   7.117  69.705  1.00  0.00    -0.256 A  
HETATM    7  C   UNL     1     -10.709   7.404  68.329  1.00  0.00    -0.151 A  
HETATM    8  C   UNL     1     -10.418   6.322  67.316  1.00  0.00    -0.254 C  
HETATM    9  C   UNL     1     -10.987   8.717  67.901  1.00  0.00     0.056 A  
HETATM   10  C   UNL     1     -11.261   9.732  68.827  1.00  0.00    -0.070 A  
HETATM   11  F   UNL     1      -9.339   6.613  66.534  1.00  0.00    -0.153 F  
HETATM   12  F   UNL     1     -10.153   5.110  67.877  1.00  0.00    -0.177 F  
HETATM   13  F   UNL     1     -11.457   6.114  66.461  1.00  0.00    -0.294 F  
HETATM   14  C   UNL     1     -11.265   9.413  70.195  1.00  0.00    -0.253 A  
ENDROOT
BRANCH  10  15
HETATM   15  C   UNL     1     -11.558  11.104  68.413  1.00  0.00    -0.306 A  
HETATM   16  N   UNL     1     -11.737  11.513  67.149  1.00  0.00    -0.577 NA 
HETATM   17  N   UNL     1     -12.133  12.817  67.288  1.00  0.00    -0.417 NA 
HETATM   18  N   UNL     1     -11.656  12.104  69.339  1.00  0.00    -0.302 NA 
HETATM   19  C   UNL     1     -11.983  13.147  68.620  1.00  0.00    -0.284 A  
BRANCH  17  20
HETATM   20  C   UNL     1     -12.512  13.640  66.217  1.00  0.00    -0.366 C  
HETATM   21  C   UNL     1     -12.023  14.814  65.772  1.00  0.00    -0.155 C  
BRANCH  21  22
HETATM   22  C   UNL     1     -11.020  15.663  66.459  1.00  0.00    -0.206 C  
HETATM   23  N   UNL     1      -9.847  15.875  65.774  1.00  0.00    -0.340 N  
HETATM   24  O   UNL     1     -11.224  16.188  67.549  1.00  0.00    -0.231 OA 
HETATM   25  H   UNL     1      -9.696  15.522  64.828  1.00  0.00     0.000 HD 
BRANCH  23  26
HETATM   26  N   UNL     1      -8.863  16.616  66.469  1.00  0.00    -0.255 NA 
HETATM   27  H   UNL     1      -8.925  17.624  66.609  1.00  0.00     0.000 HD 
BRANCH  26  28
HETATM   28  C   UNL     1      -7.784  15.837  66.954  1.00  0.00    -0.219 A  
HETATM   29  N   UNL     1      -7.899  14.495  67.104  1.00  0.00    -0.164 NA 
HETATM   30  C   UNL     1      -6.825  13.869  67.654  1.00  0.00    -0.179 A  
HETATM   31  C   UNL     1      -5.681  14.541  68.056  1.00  0.00    -0.134 A  
HETATM   32  N   UNL     1      -5.551  15.876  67.927  1.00  0.00    -0.127 NA 
HETATM   33  C   UNL     1      -6.625  16.500  67.380  1.00  0.00    -0.164 A  
ENDBRANCH  26  28
ENDBRANCH  23  26
ENDBRANCH  21  22
ENDBRANCH  17  20
ENDBRANCH  10  15
TORSDOF 5
ENDMDL
MODEL      219
REMARK 921   NORMALIZED FREE ENERGY PREDICTED BY IDOCK:   -5.27 KCAL/MOL
REMARK 922        TOTAL FREE ENERGY PREDICTED BY IDOCK:   -8.08 KCAL/MOL
REMARK 923 INTER-LIGAND FREE ENERGY PREDICTED BY IDOCK:   -6.87 KCAL/MOL
REMARK 924 INTRA-LIGAND FREE ENERGY PREDICTED BY IDOCK:   -1.20 KCAL/MOL
REMARK 927      BINDING AFFINITY PREDICTED BY RF-SCORE:    0.00 PKD
ROOT
HETATM    1  F   UNL     1      -8.564  18.710  67.417  1.00  0.00    -0.260 F  
HETATM    2  C   UNL     1      -7.725  17.661  67.192  1.00  0.00    -0.207 C  
HETATM    3  F   UNL     1      -7.401  17.721  65.872  1.00  0.00    -0.299 F  
HETATM    4  F   UNL     1      -6.582  17.947  67.875  1.00  0.00    -0.175 F  
HETATM    5  C   UNL     1      -8.313  16.327  67.584  1.00  0.00    -0.172 A  
HETATM    6  C   UNL     1      -9.600  16.219  68.132  1.00  0.00    -0.219 A  
HETATM    7  C   UNL     1     -10.135  14.968  68.482  1.00  0.00    -0.225 A  
HETATM    8  C   UNL     1     -11.527  14.858  69.060  1.00  0.00    -0.301 C  
HETATM    9  C   UNL     1      -9.358  13.809  68.283  1.00  0.00    -0.209 A  
HETATM   10  C   UNL     1      -8.067  13.892  67.747  1.00  0.00    -0.174 A  
HETATM   11  F   UNL     1     -11.537  14.280  70.294  1.00  0.00    -0.301 F  
HETATM   12  F   UNL     1     -12.148  16.060  69.208  1.00  0.00    -0.353 F  
HETATM   13  F   UNL     1     -12.355  14.106  68.285  1.00  0.00    -0.373 F  
HETATM   14  C   UNL     1      -7.562  15.156  67.398  1.00  0.00    -0.232 A  
ENDROOT
BRANCH  10  15
HETATM   15  C   UNL     1      -7.238  12.707  67.524  1.00  0.00    -0.155 A  
HETATM   16  N   UNL     1      -7.654  11.437  67.633  1.00  0.00    -0.103 NA 
HETATM   17  N   UNL     1      -6.581  10.710  67.188  1.00  0.00    -0.073 NA 
HETATM   18  N   UNL     1      -5.918  12.833  67.193  1.00  0.00    -0.311 NA 
HETATM   19  C   UNL     1      -5.534  11.594  67.020  1.00  0.00    -0.121 A  
BRANCH  17  20
HETATM   20  C   UNL     1      -6.582   9.314  67.050  1.00  0.00    -0.068 C  
HETATM   21  C   UNL     1      -7.027   8.333  67.860  1.00  0.00    -0.078 C  
BRANCH  21  22
HETATM   22  C   UNL     1      -7.488   8.493  69.260  1.00  0.00    -0.082 C  
HETATM   23  N   UNL     1      -8.844   8.380  69.459  1.00  0.00    -0.144 N  
HETATM   24  O   UNL     1      -6.719   8.669  70.200  1.00  0.00    -0.038 OA 
HETATM   25  H   UNL     1      -9.488   8.143  68.704  1.00  0.00     0.000 HD 
BRANCH  23  26
HETATM   26  N   UNL     1      -9.284   8.616  70.783  1.00  0.00    -0.170 NA 
HETATM   27  H   UNL     1      -8.780   8.279  71.602  1.00  0.00     0.000 HD 
BRANCH  26  28
HETATM   28  C   UNL     1     -10.486   9.360  70.871  1.00  0.00    -0.310 A  
HETATM   29  N   UNL     1     -11.484   8.985  71.710  1.00  0.00    -0.352 NA 
HETATM   30  C   UNL     1     -12.618   9.731  71.646  1.00  0.00    -0.416 A  
HETATM   31  C   UNL     1     -12.774  10.801  70.778  1.00  0.00    -0.360 A  
HETATM   32  N   UNL     1     -11.800  11.183  69.929  1.00  0.00    -0.330 NA 
HETATM   33  C   UNL     1     -10.669  10.436  69.991  1.00  0.00    -0.265 A  
ENDBRANCH  26  28
ENDBRANCH  23  26
ENDBRANCH  21  22
ENDBRANCH  17  20
ENDBRANCH  10  15
TORSDOF 5
ENDMDL
MODEL      220
REMARK 921   NORMALIZED FREE ENERGY PREDICTED BY IDOCK:   -5.26 KCAL/MOL
REMARK 922        TOTAL FREE ENERGY PREDICTED BY IDOCK:   -8.06 KCAL/MOL
REMARK 923 INTER-LIGAND FREE ENERGY PREDICTED BY IDOCK:   -9.78 KCAL/MOL
REMARK 924 INTRA-LIGAND FREE ENERGY PREDICTED BY IDOCK:    1.72 KCAL/MOL
REMARK 927      BINDING AFFINITY PREDICTED BY RF-SCORE:    0.00 PKD
ROOT
HETATM    1  F   UNL     1     -13.237  14.513  74.229  1.00  0.00     0.376 F  
HETATM    2  C   UNL     1     -12.876  15.407  73.266  1.00  0.00    -0.518 C  
HETATM    3  F   UNL     1     -13.946  16.234  73.107  1.00  0.00    -0.679 F  
HETATM    4  F   UNL     1     -11.890  16.167  73.816  1.00  0.00    -0.475 F  
HETATM    5  C   UNL     1     -12.450  14.756  71.972  1.00  0.00    -0.410 A  
HETATM    6  C   UNL     1     -12.432  13.363  71.817  1.00  0.00    -0.126 A  
HETATM    7  C   UNL     1     -12.042  12.775  70.602  1.00  0.00    -0.316 A  
HETATM    8  C   UNL     1     -12.038  11.273  70.438  1.00  0.00    -0.384 C  
HETATM    9  C   UNL     1     -11.658  13.604  69.530  1.00  0.00    -0.361 A  
HETATM   10  C   UNL     1     -11.658  14.999  69.664  1.00  0.00    -0.333 A  
HETATM   11  F   UNL     1     -10.807  10.785  70.113  1.00  0.00    -0.312 F  
HETATM   12  F   UNL     1     -12.418  10.604  71.561  1.00  0.00    -0.426 F  
HETATM   13  F   UNL     1     -12.880  10.853  69.454  1.00  0.00    -0.265 F  
HETATM   14  C   UNL     1     -12.062  15.558  70.887  1.00  0.00    -0.433 A  
ENDROOT
BRANCH  10  15
HETATM   15  C   UNL     1     -11.269  15.887  68.568  1.00  0.00    -0.362 A  
HETATM   16  N   UNL     1     -11.262  15.559  67.268  1.00  0.00    -0.276 NA 
HETATM   17  N   UNL     1     -10.978  16.744  66.641  1.00  0.00     0.024 NA 
HETATM   18  N   UNL     1     -10.849  17.162  68.821  1.00  0.00    -0.270 NA 
HETATM   19  C   UNL     1     -10.652  17.656  67.626  1.00  0.00    -0.362 A  
BRANCH  17  20
HETATM   20  C   UNL     1     -10.941  16.906  65.248  1.00  0.00    -0.044 C  
HETATM   21  C   UNL     1     -11.168  16.042  64.238  1.00  0.00    -0.079 C  
BRANCH  21  22
HETATM   22  C   UNL     1     -11.345  14.576  64.362  1.00  0.00    -0.236 C  
HETATM   23  N   UNL     1     -12.282  14.014  63.528  1.00  0.00    -1.079 N  
HETATM   24  O   UNL     1     -10.674  13.884  65.122  1.00  0.00    -0.319 OA 
HETATM   25  H   UNL     1     -12.783  14.559  62.825  1.00  0.00     0.000 HD 
BRANCH  23  26
HETATM   26  N   UNL     1     -12.504  12.629  63.709  1.00  0.00    -0.681 NA 
HETATM   27  H   UNL     1     -13.435  12.213  63.710  1.00  0.00     0.000 HD 
BRANCH  26  28
HETATM   28  C   UNL     1     -11.322  11.870  63.889  1.00  0.00    -0.428 A  
HETATM   29  N   UNL     1     -10.424  11.719  62.884  1.00  0.00    -0.132 NA 
HETATM   30  C   UNL     1      -9.371  10.903  63.152  1.00  0.00    -0.324 A  
HETATM   31  C   UNL     1      -9.211  10.245  64.361  1.00  0.00    -0.252 A  
HETATM   32  N   UNL     1     -10.097  10.371  65.369  1.00  0.00    -0.290 NA 
HETATM   33  C   UNL     1     -11.150  11.184  65.099  1.00  0.00    -0.009 A  
ENDBRANCH  26  28
ENDBRANCH  23  26
ENDBRANCH  21  22
ENDBRANCH  17  20
ENDBRANCH  10  15
TORSDOF 5
ENDMDL
MODEL      221
REMARK 921   NORMALIZED FREE ENERGY PREDICTED BY IDOCK:   -5.26 KCAL/MOL
REMARK 922        TOTAL FREE ENERGY PREDICTED BY IDOCK:   -8.06 KCAL/MOL
REMARK 923 INTER-LIGAND FREE ENERGY PREDICTED BY IDOCK:   -6.43 KCAL/MOL
REMARK 924 INTRA-LIGAND FREE ENERGY PREDICTED BY IDOCK:   -1.63 KCAL/MOL
REMARK 927      BINDING AFFINITY PREDICTED BY RF-SCORE:    0.00 PKD
ROOT
HETATM    1  F   UNL     1      -7.660  15.048  68.514  1.00  0.00    -0.104 F  
HETATM    2  C   UNL     1      -7.226  13.788  68.229  1.00  0.00    -0.114 C  
HETATM    3  F   UNL     1      -5.970  13.932  67.725  1.00  0.00    -0.119 F  
HETATM    4  F   UNL     1      -7.082  13.165  69.431  1.00  0.00    -0.081 F  
HETATM    5  C   UNL     1      -8.142  13.034  67.295  1.00  0.00    -0.164 A  
HETATM    6  C   UNL     1      -9.321  13.607  66.796  1.00  0.00    -0.269 A  
HETATM    7  C   UNL     1     -10.156  12.894  65.919  1.00  0.00    -0.295 A  
HETATM    8  C   UNL     1     -11.418  13.522  65.375  1.00  0.00    -0.302 C  
HETATM    9  C   UNL     1      -9.802  11.583  65.547  1.00  0.00    -0.269 A  
HETATM   10  C   UNL     1      -8.634  10.986  66.040  1.00  0.00    -0.173 A  
HETATM   11  F   UNL     1     -12.537  12.811  65.694  1.00  0.00    -0.512 F  
HETATM   12  F   UNL     1     -11.637  14.785  65.835  1.00  0.00    -0.349 F  
HETATM   13  F   UNL     1     -11.409  13.619  64.017  1.00  0.00    -0.387 F  
HETATM   14  C   UNL     1      -7.814  11.726  66.907  1.00  0.00    -0.141 A  
ENDROOT
BRANCH  10  15
HETATM   15  C   UNL     1      -8.236   9.628  65.668  1.00  0.00    -0.120 A  
HETATM   16  N   UNL     1      -7.665   8.734  66.487  1.00  0.00    -0.098 NA 
HETATM   17  N   UNL     1      -7.627   7.590  65.735  1.00  0.00    -0.089 NA 
HETATM   18  N   UNL     1      -8.416   9.175  64.391  1.00  0.00    -0.179 NA 
HETATM   19  C   UNL     1      -8.009   7.933  64.453  1.00  0.00    -0.132 A  
BRANCH  17  20
HETATM   20  C   UNL     1      -7.172   6.351  66.212  1.00  0.00    -0.072 C  
HETATM   21  C   UNL     1      -7.798   5.364  66.884  1.00  0.00    -0.101 C  
BRANCH  21  22
HETATM   22  C   UNL     1      -9.156   5.431  67.476  1.00  0.00    -0.107 C  
HETATM   23  N   UNL     1      -9.657   6.694  67.681  1.00  0.00    -0.123 N  
HETATM   24  O   UNL     1      -9.822   4.432  67.731  1.00  0.00    -0.156 OA 
HETATM   25  H   UNL     1      -9.155   7.534  67.390  1.00  0.00     0.000 HD 
BRANCH  23  26
HETATM   26  N   UNL     1     -10.917   6.751  68.321  1.00  0.00    -0.460 NA 
HETATM   27  H   UNL     1     -11.702   6.160  68.052  1.00  0.00     0.000 HD 
BRANCH  26  28
HETATM   28  C   UNL     1     -10.994   7.701  69.370  1.00  0.00    -0.057 A  
HETATM   29  N   UNL     1     -10.491   8.951  69.223  1.00  0.00    -0.224 NA 
HETATM   30  C   UNL     1     -10.551   9.744  70.325  1.00  0.00    -0.292 A  
HETATM   31  C   UNL     1     -11.075   9.319  71.536  1.00  0.00    -0.373 A  
HETATM   32  N   UNL     1     -11.569   8.077  71.707  1.00  0.00    -0.271 NA 
HETATM   33  C   UNL     1     -11.506   7.286  70.607  1.00  0.00    -0.293 A  
ENDBRANCH  26  28
ENDBRANCH  23  26
ENDBRANCH  21  22
ENDBRANCH  17  20
ENDBRANCH  10  15
TORSDOF 5
ENDMDL
MODEL      222
REMARK 921   NORMALIZED FREE ENERGY PREDICTED BY IDOCK:   -5.24 KCAL/MOL
REMARK 922        TOTAL FREE ENERGY PREDICTED BY IDOCK:   -8.04 KCAL/MOL
REMARK 923 INTER-LIGAND FREE ENERGY PREDICTED BY IDOCK:   -6.57 KCAL/MOL
REMARK 924 INTRA-LIGAND FREE ENERGY PREDICTED BY IDOCK:   -1.47 KCAL/MOL
REMARK 927      BINDING AFFINITY PREDICTED BY RF-SCORE:    0.00 PKD
ROOT
HETATM    1  F   UNL     1      -7.732   6.212  66.595  1.00  0.00    -0.095 F  
HETATM    2  C   UNL     1      -8.703   7.037  66.110  1.00  0.00    -0.145 C  
HETATM    3  F   UNL     1      -8.669   6.895  64.758  1.00  0.00    -0.033 F  
HETATM    4  F   UNL     1      -9.884   6.498  66.518  1.00  0.00    -0.196 F  
HETATM    5  C   UNL     1      -8.543   8.473  66.547  1.00  0.00    -0.130 A  
HETATM    6  C   UNL     1      -7.489   8.880  67.378  1.00  0.00    -0.085 A  
HETATM    7  C   UNL     1      -7.350  10.223  67.766  1.00  0.00    -0.087 A  
HETATM    8  C   UNL     1      -6.204  10.657  68.651  1.00  0.00    -0.046 C  
HETATM    9  C   UNL     1      -8.293  11.169  67.316  1.00  0.00    -0.135 A  
HETATM   10  C   UNL     1      -9.360  10.785  66.493  1.00  0.00    -0.192 A  
HETATM   11  F   UNL     1      -6.628  11.229  69.813  1.00  0.00    -0.100 F  
HETATM   12  F   UNL     1      -5.386   9.632  69.018  1.00  0.00    -0.036 F  
HETATM   13  F   UNL     1      -5.400  11.576  68.050  1.00  0.00    -0.043 F  
HETATM   14  C   UNL     1      -9.467   9.437  66.114  1.00  0.00    -0.287 A  
ENDROOT
BRANCH  10  15
HETATM   15  C   UNL     1     -10.351  11.744  66.005  1.00  0.00    -0.239 A  
HETATM   16  N   UNL     1     -10.095  12.784  65.200  1.00  0.00    -0.260 NA 
HETATM   17  N   UNL     1     -11.339  13.278  64.910  1.00  0.00    -0.307 NA 
HETATM   18  N   UNL     1     -11.662  11.640  66.378  1.00  0.00    -0.439 NA 
HETATM   19  C   UNL     1     -12.240  12.608  65.714  1.00  0.00    -0.361 A  
BRANCH  17  20
HETATM   20  C   UNL     1     -11.575  14.341  64.025  1.00  0.00    -0.075 C  
HETATM   21  C   UNL     1     -11.328  15.662  64.124  1.00  0.00    -0.033 C  
BRANCH  21  22
HETATM   22  C   UNL     1     -10.884  16.383  65.341  1.00  0.00    -0.239 C  
HETATM   23  N   UNL     1     -10.856  15.641  66.498  1.00  0.00    -0.295 N  
HETATM   24  O   UNL     1     -10.517  17.554  65.327  1.00  0.00    -0.643 OA 
HETATM   25  H   UNL     1     -11.070  14.643  66.511  1.00  0.00     0.000 HD 
BRANCH  23  26
HETATM   26  N   UNL     1     -10.511  16.355  67.669  1.00  0.00    -0.296 NA 
HETATM   27  H   UNL     1      -9.971  17.219  67.652  1.00  0.00     0.000 HD 
BRANCH  26  28
HETATM   28  C   UNL     1     -10.982  15.766  68.869  1.00  0.00    -0.283 A  
HETATM   29  N   UNL     1     -10.606  16.245  70.081  1.00  0.00    -0.244 NA 
HETATM   30  C   UNL     1     -11.058  15.546  71.156  1.00  0.00    -0.314 A  
HETATM   31  C   UNL     1     -11.840  14.408  71.045  1.00  0.00    -0.270 A  
HETATM   32  N   UNL     1     -12.216  13.909  69.851  1.00  0.00    -0.336 NA 
HETATM   33  C   UNL     1     -11.762  14.605  68.778  1.00  0.00    -0.324 A  
ENDBRANCH  26  28
ENDBRANCH  23  26
ENDBRANCH  21  22
ENDBRANCH  17  20
ENDBRANCH  10  15
TORSDOF 5
ENDMDL
MODEL      223
REMARK 921   NORMALIZED FREE ENERGY PREDICTED BY IDOCK:   -5.24 KCAL/MOL
REMARK 922        TOTAL FREE ENERGY PREDICTED BY IDOCK:   -8.04 KCAL/MOL
REMARK 923 INTER-LIGAND FREE ENERGY PREDICTED BY IDOCK:   -6.37 KCAL/MOL
REMARK 924 INTRA-LIGAND FREE ENERGY PREDICTED BY IDOCK:   -1.67 KCAL/MOL
REMARK 927      BINDING AFFINITY PREDICTED BY RF-SCORE:    0.00 PKD
ROOT
HETATM    1  F   UNL     1      -7.464   6.824  66.583  1.00  0.00    -0.073 F  
HETATM    2  C   UNL     1      -8.451   7.642  66.119  1.00  0.00    -0.143 C  
HETATM    3  F   UNL     1      -8.359   7.602  64.762  1.00  0.00    -0.147 F  
HETATM    4  F   UNL     1      -9.622   7.026  66.438  1.00  0.00    -0.208 F  
HETATM    5  C   UNL     1      -8.371   9.047  66.664  1.00  0.00    -0.118 A  
HETATM    6  C   UNL     1      -7.368   9.434  67.565  1.00  0.00    -0.084 A  
HETATM    7  C   UNL     1      -7.303  10.750  68.054  1.00  0.00    -0.088 A  
HETATM    8  C   UNL     1      -6.212  11.163  69.014  1.00  0.00    -0.047 C  
HETATM    9  C   UNL     1      -8.268  11.687  67.634  1.00  0.00    -0.141 A  
HETATM   10  C   UNL     1      -9.285  11.322  66.743  1.00  0.00    -0.186 A  
HETATM   11  F   UNL     1      -6.704  11.631  70.196  1.00  0.00    -0.122 F  
HETATM   12  F   UNL     1      -5.364  10.149  69.340  1.00  0.00    -0.038 F  
HETATM   13  F   UNL     1      -5.426  12.156  68.515  1.00  0.00    -0.052 F  
HETATM   14  C   UNL     1      -9.318  10.002  66.264  1.00  0.00    -0.213 A  
ENDROOT
BRANCH  10  15
HETATM   15  C   UNL     1     -10.298  12.273  66.285  1.00  0.00    -0.232 A  
HETATM   16  N   UNL     1     -10.053  13.398  65.599  1.00  0.00    -0.290 NA 
HETATM   17  N   UNL     1     -11.303  13.855  65.277  1.00  0.00    -0.306 NA 
HETATM   18  N   UNL     1     -11.620  12.067  66.560  1.00  0.00    -0.507 NA 
HETATM   19  C   UNL     1     -12.211  13.065  65.955  1.00  0.00    -0.432 A  
BRANCH  17  20
HETATM   20  C   UNL     1     -11.546  14.987  64.483  1.00  0.00    -0.343 C  
HETATM   21  C   UNL     1     -11.274  16.293  64.676  1.00  0.00    -0.264 C  
BRANCH  21  22
HETATM   22  C   UNL     1     -10.785  16.910  65.932  1.00  0.00    -0.149 C  
HETATM   23  N   UNL     1     -10.622  16.055  66.995  1.00  0.00    -0.312 N  
HETATM   24  O   UNL     1     -10.494  18.100  66.022  1.00  0.00    -0.440 OA 
HETATM   25  H   UNL     1     -10.771  15.048  66.913  1.00  0.00     0.000 HD 
BRANCH  23  26
HETATM   26  N   UNL     1     -10.235  16.664  68.212  1.00  0.00    -0.267 NA 
HETATM   27  H   UNL     1     -10.876  17.213  68.784  1.00  0.00     0.000 HD 
BRANCH  26  28
HETATM   28  C   UNL     1      -8.881  16.447  68.565  1.00  0.00    -0.224 A  
HETATM   29  N   UNL     1      -7.925  17.367  68.284  1.00  0.00    -0.243 NA 
HETATM   30  C   UNL     1      -6.652  17.010  68.598  1.00  0.00    -0.177 A  
HETATM   31  C   UNL     1      -6.326  15.784  69.158  1.00  0.00    -0.134 A  
HETATM   32  N   UNL     1      -7.258  14.851  69.434  1.00  0.00    -0.171 NA 
HETATM   33  C   UNL     1      -8.528  15.208  69.117  1.00  0.00    -0.220 A  
ENDBRANCH  26  28
ENDBRANCH  23  26
ENDBRANCH  21  22
ENDBRANCH  17  20
ENDBRANCH  10  15
TORSDOF 5
ENDMDL
MODEL      224
REMARK 921   NORMALIZED FREE ENERGY PREDICTED BY IDOCK:   -5.23 KCAL/MOL
REMARK 922        TOTAL FREE ENERGY PREDICTED BY IDOCK:   -8.02 KCAL/MOL
REMARK 923 INTER-LIGAND FREE ENERGY PREDICTED BY IDOCK:   -7.06 KCAL/MOL
REMARK 924 INTRA-LIGAND FREE ENERGY PREDICTED BY IDOCK:   -0.96 KCAL/MOL
REMARK 927      BINDING AFFINITY PREDICTED BY RF-SCORE:    0.00 PKD
ROOT
HETATM    1  F   UNL     1     -13.074  15.627  70.297  1.00  0.00    -0.401 F  
HETATM    2  C   UNL     1     -12.061  14.721  70.210  1.00  0.00    -0.322 C  
HETATM    3  F   UNL     1     -11.681  14.464  71.491  1.00  0.00    -0.376 F  
HETATM    4  F   UNL     1     -12.629  13.573  69.746  1.00  0.00    -0.311 F  
HETATM    5  C   UNL     1     -10.913  15.186  69.347  1.00  0.00    -0.268 A  
HETATM    6  C   UNL     1     -10.928  16.433  68.707  1.00  0.00    -0.344 A  
HETATM    7  C   UNL     1      -9.845  16.854  67.916  1.00  0.00    -0.263 A  
HETATM    8  C   UNL     1      -9.862  18.205  67.240  1.00  0.00    -0.314 C  
HETATM    9  C   UNL     1      -8.734  16.000  67.762  1.00  0.00    -0.170 A  
HETATM   10  C   UNL     1      -8.701  14.745  68.384  1.00  0.00    -0.169 A  
HETATM   11  F   UNL     1      -9.744  18.114  65.885  1.00  0.00    -0.263 F  
HETATM   12  F   UNL     1     -11.004  18.910  67.467  1.00  0.00    -0.484 F  
HETATM   13  F   UNL     1      -8.843  19.008  67.653  1.00  0.00    -0.292 F  
HETATM   14  C   UNL     1      -9.793  14.356  69.176  1.00  0.00    -0.040 A  
ENDROOT
BRANCH  10  15
HETATM   15  C   UNL     1      -7.560  13.839  68.247  1.00  0.00    -0.129 A  
HETATM   16  N   UNL     1      -7.453  12.633  68.823  1.00  0.00    -0.083 NA 
HETATM   17  N   UNL     1      -6.303  12.122  68.283  1.00  0.00    -0.051 NA 
HETATM   18  N   UNL     1      -6.473  14.196  67.501  1.00  0.00    -0.310 NA 
HETATM   19  C   UNL     1      -5.707  13.137  67.561  1.00  0.00    -0.050 A  
BRANCH  17  20
HETATM   20  C   UNL     1      -5.822  10.829  68.539  1.00  0.00    -0.043 C  
HETATM   21  C   UNL     1      -6.394   9.616  68.404  1.00  0.00    -0.051 C  
BRANCH  21  22
HETATM   22  C   UNL     1      -7.821   9.348  68.105  1.00  0.00    -0.087 C  
HETATM   23  N   UNL     1      -8.557   8.809  69.134  1.00  0.00    -0.126 N  
HETATM   24  O   UNL     1      -8.341   9.626  67.028  1.00  0.00    -0.116 OA 
HETATM   25  H   UNL     1      -8.164   8.656  70.063  1.00  0.00     0.000 HD 
BRANCH  23  26
HETATM   26  N   UNL     1      -9.895   8.480  68.815  1.00  0.00    -0.168 NA 
HETATM   27  H   UNL     1     -10.207   8.289  67.864  1.00  0.00     0.000 HD 
BRANCH  26  28
HETATM   28  C   UNL     1     -10.765   8.438  69.933  1.00  0.00    -0.227 A  
HETATM   29  N   UNL     1     -10.927   9.518  70.737  1.00  0.00    -0.292 NA 
HETATM   30  C   UNL     1     -11.724   9.331  71.822  1.00  0.00    -0.386 A  
HETATM   31  C   UNL     1     -12.330   8.120  72.116  1.00  0.00    -0.338 A  
HETATM   32  N   UNL     1     -12.173   7.031  71.337  1.00  0.00    -0.346 NA 
HETATM   33  C   UNL     1     -11.376   7.219  70.255  1.00  0.00    -0.238 A  
ENDBRANCH  26  28
ENDBRANCH  23  26
ENDBRANCH  21  22
ENDBRANCH  17  20
ENDBRANCH  10  15
TORSDOF 5
ENDMDL
MODEL      225
REMARK 921   NORMALIZED FREE ENERGY PREDICTED BY IDOCK:   -5.21 KCAL/MOL
REMARK 922        TOTAL FREE ENERGY PREDICTED BY IDOCK:   -8.00 KCAL/MOL
REMARK 923 INTER-LIGAND FREE ENERGY PREDICTED BY IDOCK:   -7.24 KCAL/MOL
REMARK 924 INTRA-LIGAND FREE ENERGY PREDICTED BY IDOCK:   -0.76 KCAL/MOL
REMARK 927      BINDING AFFINITY PREDICTED BY RF-SCORE:    0.00 PKD
ROOT
HETATM    1  F   UNL     1     -10.693  17.732  65.701  1.00  0.00    -0.398 F  
HETATM    2  C   UNL     1      -9.810  16.959  66.394  1.00  0.00    -0.305 C  
HETATM    3  F   UNL     1      -8.576  17.451  66.102  1.00  0.00    -0.275 F  
HETATM    4  F   UNL     1     -10.027  17.237  67.709  1.00  0.00    -0.266 F  
HETATM    5  C   UNL     1      -9.934  15.486  66.088  1.00  0.00    -0.332 A  
HETATM    6  C   UNL     1     -10.884  14.998  65.179  1.00  0.00    -0.422 A  
HETATM    7  C   UNL     1     -10.978  13.624  64.899  1.00  0.00    -0.372 A  
HETATM    8  C   UNL     1     -11.994  13.106  63.909  1.00  0.00    -0.488 C  
HETATM    9  C   UNL     1     -10.106  12.729  65.551  1.00  0.00    -0.278 A  
HETATM   10  C   UNL     1      -9.156  13.192  66.471  1.00  0.00    -0.135 A  
HETATM   11  F   UNL     1     -12.855  12.207  64.464  1.00  0.00    -0.520 F  
HETATM   12  F   UNL     1     -12.775  14.084  63.372  1.00  0.00    -0.331 F  
HETATM   13  F   UNL     1     -11.417  12.471  62.852  1.00  0.00    -0.418 F  
HETATM   14  C   UNL     1      -9.080  14.571  66.723  1.00  0.00    -0.283 A  
ENDROOT
BRANCH  10  15
HETATM   15  C   UNL     1      -8.235  12.288  67.160  1.00  0.00    -0.179 A  
HETATM   16  N   UNL     1      -7.988  12.287  68.477  1.00  0.00    -0.133 NA 
HETATM   17  N   UNL     1      -7.193  11.185  68.653  1.00  0.00    -0.090 NA 
HETATM   18  N   UNL     1      -7.520  11.357  66.461  1.00  0.00    -0.110 NA 
HETATM   19  C   UNL     1      -6.870  10.713  67.396  1.00  0.00    -0.077 A  
BRANCH  17  20
HETATM   20  C   UNL     1      -6.741  10.734  69.902  1.00  0.00    -0.156 C  
HETATM   21  C   UNL     1      -7.147   9.719  70.690  1.00  0.00    -0.097 C  
BRANCH  21  22
HETATM   22  C   UNL     1      -8.364   8.894  70.499  1.00  0.00    -0.159 C  
HETATM   23  N   UNL     1      -8.147   7.567  70.211  1.00  0.00    -0.110 N  
HETATM   24  O   UNL     1      -9.500   9.339  70.631  1.00  0.00    -0.235 OA 
HETATM   25  H   UNL     1      -7.212   7.160  70.188  1.00  0.00     0.000 HD 
BRANCH  23  26
HETATM   26  N   UNL     1      -9.310   6.805  69.948  1.00  0.00    -0.157 NA 
HETATM   27  H   UNL     1     -10.016   7.088  69.269  1.00  0.00     0.000 HD 
BRANCH  26  28
HETATM   28  C   UNL     1      -9.409   5.615  70.711  1.00  0.00    -0.163 A  
HETATM   29  N   UNL     1      -9.611   4.414  70.115  1.00  0.00    -0.176 NA 
HETATM   30  C   UNL     1      -9.769   3.358  70.956  1.00  0.00    -0.146 A  
HETATM   31  C   UNL     1      -9.744   3.479  72.336  1.00  0.00    -0.153 A  
HETATM   32  N   UNL     1      -9.557   4.664  72.949  1.00  0.00    -0.130 NA 
HETATM   33  C   UNL     1      -9.401   5.718  72.109  1.00  0.00    -0.146 A  
ENDBRANCH  26  28
ENDBRANCH  23  26
ENDBRANCH  21  22
ENDBRANCH  17  20
ENDBRANCH  10  15
TORSDOF 5
ENDMDL
MODEL      226
REMARK 921   NORMALIZED FREE ENERGY PREDICTED BY IDOCK:   -5.21 KCAL/MOL
REMARK 922        TOTAL FREE ENERGY PREDICTED BY IDOCK:   -8.00 KCAL/MOL
REMARK 923 INTER-LIGAND FREE ENERGY PREDICTED BY IDOCK:   -6.25 KCAL/MOL
REMARK 924 INTRA-LIGAND FREE ENERGY PREDICTED BY IDOCK:   -1.75 KCAL/MOL
REMARK 927      BINDING AFFINITY PREDICTED BY RF-SCORE:    0.00 PKD
ROOT
HETATM    1  F   UNL     1      -9.334   9.949  63.848  1.00  0.00    -0.268 F  
HETATM    2  C   UNL     1      -8.593   9.386  64.844  1.00  0.00    -0.176 C  
HETATM    3  F   UNL     1      -8.699   8.040  64.670  1.00  0.00    -0.105 F  
HETATM    4  F   UNL     1      -7.298   9.702  64.568  1.00  0.00    -0.105 F  
HETATM    5  C   UNL     1      -9.013   9.826  66.226  1.00  0.00    -0.180 A  
HETATM    6  C   UNL     1     -10.063  10.735  66.424  1.00  0.00    -0.278 A  
HETATM    7  C   UNL     1     -10.446  11.125  67.719  1.00  0.00    -0.225 A  
HETATM    8  C   UNL     1     -11.586  12.095  67.926  1.00  0.00    -0.347 C  
HETATM    9  C   UNL     1      -9.756  10.598  68.828  1.00  0.00    -0.193 A  
HETATM   10  C   UNL     1      -8.698   9.696  68.654  1.00  0.00    -0.124 A  
HETATM   11  F   UNL     1     -11.203  13.217  68.597  1.00  0.00    -0.244 F  
HETATM   12  F   UNL     1     -12.145  12.530  66.763  1.00  0.00    -0.442 F  
HETATM   13  F   UNL     1     -12.606  11.554  68.647  1.00  0.00    -0.128 F  
HETATM   14  C   UNL     1      -8.344   9.317  67.349  1.00  0.00    -0.122 A  
ENDROOT
BRANCH  10  15
HETATM   15  C   UNL     1      -7.966   9.127  69.786  1.00  0.00    -0.098 A  
HETATM   16  N   UNL     1      -7.892   7.823  70.087  1.00  0.00    -0.094 NA 
HETATM   17  N   UNL     1      -6.989   7.783  71.116  1.00  0.00    -0.049 NA 
HETATM   18  N   UNL     1      -7.296   9.937  70.659  1.00  0.00    -0.313 NA 
HETATM   19  C   UNL     1      -6.728   9.090  71.479  1.00  0.00    -0.052 A  
BRANCH  17  20
HETATM   20  C   UNL     1      -6.533   6.599  71.715  1.00  0.00    -0.049 C  
HETATM   21  C   UNL     1      -7.180   5.626  72.387  1.00  0.00    -0.090 C  
BRANCH  21  22
HETATM   22  C   UNL     1      -8.591   5.664  72.841  1.00  0.00    -0.122 C  
HETATM   23  N   UNL     1      -9.525   5.927  71.868  1.00  0.00    -0.151 N  
HETATM   24  O   UNL     1      -8.925   5.432  73.999  1.00  0.00    -0.120 OA 
HETATM   25  H   UNL     1      -9.274   6.032  70.885  1.00  0.00     0.000 HD 
BRANCH  23  26
HETATM   26  N   UNL     1     -10.860   6.043  72.323  1.00  0.00    -0.233 NA 
HETATM   27  H   UNL     1     -11.329   5.311  72.855  1.00  0.00     0.000 HD 
BRANCH  26  28
HETATM   28  C   UNL     1     -11.488   7.265  71.977  1.00  0.00    -0.269 A  
HETATM   29  N   UNL     1     -10.783   8.422  71.909  1.00  0.00    -0.278 NA 
HETATM   30  C   UNL     1     -11.510   9.540  71.648  1.00  0.00    -0.363 A  
HETATM   31  C   UNL     1     -12.885   9.525  71.471  1.00  0.00    -0.377 A  
HETATM   32  N   UNL     1     -13.606   8.389  71.546  1.00  0.00    -0.324 NA 
HETATM   33  C   UNL     1     -12.879   7.274  71.810  1.00  0.00    -0.331 A  
ENDBRANCH  26  28
ENDBRANCH  23  26
ENDBRANCH  21  22
ENDBRANCH  17  20
ENDBRANCH  10  15
TORSDOF 5
ENDMDL
MODEL      227
REMARK 921   NORMALIZED FREE ENERGY PREDICTED BY IDOCK:   -5.21 KCAL/MOL
REMARK 922        TOTAL FREE ENERGY PREDICTED BY IDOCK:   -7.99 KCAL/MOL
REMARK 923 INTER-LIGAND FREE ENERGY PREDICTED BY IDOCK:   -6.88 KCAL/MOL
REMARK 924 INTRA-LIGAND FREE ENERGY PREDICTED BY IDOCK:   -1.11 KCAL/MOL
REMARK 927      BINDING AFFINITY PREDICTED BY RF-SCORE:    0.00 PKD
ROOT
HETATM    1  F   UNL     1      -8.535  17.682  67.440  1.00  0.00    -0.213 F  
HETATM    2  C   UNL     1      -8.482  16.434  66.896  1.00  0.00    -0.221 C  
HETATM    3  F   UNL     1      -8.826  16.583  65.588  1.00  0.00    -0.282 F  
HETATM    4  F   UNL     1      -7.167  16.082  66.903  1.00  0.00    -0.216 F  
HETATM    5  C   UNL     1      -9.351  15.429  67.613  1.00  0.00    -0.203 A  
HETATM    6  C   UNL     1     -10.119  15.783  68.732  1.00  0.00    -0.215 A  
HETATM    7  C   UNL     1     -10.931  14.836  69.381  1.00  0.00    -0.282 A  
HETATM    8  C   UNL     1     -11.766  15.227  70.578  1.00  0.00    -0.318 C  
HETATM    9  C   UNL     1     -10.963  13.513  68.898  1.00  0.00    -0.286 A  
HETATM   10  C   UNL     1     -10.197  13.134  67.788  1.00  0.00    -0.231 A  
HETATM   11  F   UNL     1     -11.460  14.500  71.689  1.00  0.00    -0.342 F  
HETATM   12  F   UNL     1     -11.620  16.532  70.937  1.00  0.00    -0.402 F  
HETATM   13  F   UNL     1     -13.098  15.048  70.366  1.00  0.00    -0.373 F  
HETATM   14  C   UNL     1      -9.403  14.103  67.155  1.00  0.00    -0.241 A  
ENDROOT
BRANCH  10  15
HETATM   15  C   UNL     1     -10.212  11.769  67.261  1.00  0.00    -0.203 A  
HETATM   16  N   UNL     1      -9.324  11.260  66.396  1.00  0.00    -0.187 NA 
HETATM   17  N   UNL     1      -9.665   9.936  66.328  1.00  0.00    -0.206 NA 
HETATM   18  N   UNL     1     -11.197  10.894  67.624  1.00  0.00    -0.356 NA 
HETATM   19  C   UNL     1     -10.853   9.787  67.017  1.00  0.00    -0.094 A  
BRANCH  17  20
HETATM   20  C   UNL     1      -8.953   8.978  65.590  1.00  0.00    -0.202 C  
HETATM   21  C   UNL     1      -8.599   7.709  65.874  1.00  0.00    -0.164 C  
BRANCH  21  22
HETATM   22  C   UNL     1      -8.727   7.036  67.188  1.00  0.00    -0.121 C  
HETATM   23  N   UNL     1      -8.268   7.747  68.272  1.00  0.00    -0.123 N  
HETATM   24  O   UNL     1      -9.250   5.933  67.325  1.00  0.00    -0.114 OA 
HETATM   25  H   UNL     1      -7.916   8.701  68.188  1.00  0.00     0.000 HD 
BRANCH  23  26
HETATM   26  N   UNL     1      -8.319   7.066  69.510  1.00  0.00    -0.131 NA 
HETATM   27  H   UNL     1      -7.866   6.165  69.666  1.00  0.00     0.000 HD 
BRANCH  26  28
HETATM   28  C   UNL     1      -9.052   7.742  70.516  1.00  0.00    -0.154 A  
HETATM   29  N   UNL     1      -8.624   7.764  71.803  1.00  0.00    -0.112 NA 
HETATM   30  C   UNL     1      -9.453   8.374  72.689  1.00  0.00    -0.265 A  
HETATM   31  C   UNL     1     -10.669   8.934  72.328  1.00  0.00    -0.149 A  
HETATM   32  N   UNL     1     -11.118   8.914  71.058  1.00  0.00    -0.258 NA 
HETATM   33  C   UNL     1     -10.291   8.301  70.174  1.00  0.00    -0.212 A  
ENDBRANCH  26  28
ENDBRANCH  23  26
ENDBRANCH  21  22
ENDBRANCH  17  20
ENDBRANCH  10  15
TORSDOF 5
ENDMDL
MODEL      228
REMARK 921   NORMALIZED FREE ENERGY PREDICTED BY IDOCK:   -5.17 KCAL/MOL
REMARK 922        TOTAL FREE ENERGY PREDICTED BY IDOCK:   -7.95 KCAL/MOL
REMARK 923 INTER-LIGAND FREE ENERGY PREDICTED BY IDOCK:   -6.70 KCAL/MOL
REMARK 924 INTRA-LIGAND FREE ENERGY PREDICTED BY IDOCK:   -1.25 KCAL/MOL
REMARK 927      BINDING AFFINITY PREDICTED BY RF-SCORE:    0.00 PKD
ROOT
HETATM    1  F   UNL     1      -8.057   8.428  64.744  1.00  0.00    -0.121 F  
HETATM    2  C   UNL     1      -8.846   9.534  64.634  1.00  0.00    -0.213 C  
HETATM    3  F   UNL     1      -8.620  10.028  63.387  1.00  0.00    -0.149 F  
HETATM    4  F   UNL     1     -10.128   9.076  64.634  1.00  0.00     0.416 F  
HETATM    5  C   UNL     1      -8.598  10.556  65.717  1.00  0.00    -0.180 A  
HETATM    6  C   UNL     1      -7.646  10.349  66.726  1.00  0.00    -0.110 A  
HETATM    7  C   UNL     1      -7.422  11.317  67.719  1.00  0.00    -0.095 A  
HETATM    8  C   UNL     1      -6.386  11.093  68.795  1.00  0.00    -0.046 C  
HETATM    9  C   UNL     1      -8.175  12.508  67.700  1.00  0.00    -0.172 A  
HETATM   10  C   UNL     1      -9.138  12.733  66.708  1.00  0.00    -0.209 A  
HETATM   11  F   UNL     1      -6.918  11.127  70.050  1.00  0.00    -0.145 F  
HETATM   12  F   UNL     1      -5.751   9.893  68.694  1.00  0.00    -0.039 F  
HETATM   13  F   UNL     1      -5.403  12.034  68.777  1.00  0.00    -0.050 F  
HETATM   14  C   UNL     1      -9.333  11.752  65.723  1.00  0.00    -0.197 A  
ENDROOT
BRANCH  10  15
HETATM   15  C   UNL     1      -9.932  13.962  66.658  1.00  0.00    -0.279 A  
HETATM   16  N   UNL     1      -9.436  15.204  66.567  1.00  0.00    -0.264 NA 
HETATM   17  N   UNL     1     -10.551  15.982  66.401  1.00  0.00    -0.305 NA 
HETATM   18  N   UNL     1     -11.296  13.912  66.725  1.00  0.00    -0.322 NA 
HETATM   19  C   UNL     1     -11.649  15.165  66.593  1.00  0.00    -0.122 A  
BRANCH  17  20
HETATM   20  C   UNL     1     -10.517  17.368  66.184  1.00  0.00    -0.284 C  
HETATM   21  C   UNL     1     -10.332  18.404  67.025  1.00  0.00    -0.419 C  
BRANCH  21  22
HETATM   22  C   UNL     1     -10.300  18.335  68.506  1.00  0.00    -0.317 C  
HETATM   23  N   UNL     1     -10.808  17.185  69.063  1.00  0.00    -0.308 N  
HETATM   24  O   UNL     1      -9.812  19.219  69.204  1.00  0.00    -0.412 OA 
HETATM   25  H   UNL     1     -11.133  16.402  68.495  1.00  0.00     0.000 HD 
BRANCH  23  26
HETATM   26  N   UNL     1     -10.849  17.162  70.476  1.00  0.00     0.024 NA 
HETATM   27  H   UNL     1     -10.415  17.881  71.055  1.00  0.00     0.000 HD 
BRANCH  26  28
HETATM   28  C   UNL     1     -11.545  16.054  71.019  1.00  0.00    -0.431 A  
HETATM   29  N   UNL     1     -11.974  15.039  70.229  1.00  0.00    -0.293 NA 
HETATM   30  C   UNL     1     -12.700  14.073  70.853  1.00  0.00    -0.350 A  
HETATM   31  C   UNL     1     -13.006  14.110  72.204  1.00  0.00    -0.376 A  
HETATM   32  N   UNL     1     -12.600  15.115  73.004  1.00  0.00    -0.398 NA 
HETATM   33  C   UNL     1     -11.877  16.080  72.381  1.00  0.00    -0.535 A  
ENDBRANCH  26  28
ENDBRANCH  23  26
ENDBRANCH  21  22
ENDBRANCH  17  20
ENDBRANCH  10  15
TORSDOF 5
ENDMDL
MODEL      229
REMARK 921   NORMALIZED FREE ENERGY PREDICTED BY IDOCK:   -5.14 KCAL/MOL
REMARK 922        TOTAL FREE ENERGY PREDICTED BY IDOCK:   -7.91 KCAL/MOL
REMARK 923 INTER-LIGAND FREE ENERGY PREDICTED BY IDOCK:   -6.80 KCAL/MOL
REMARK 924 INTRA-LIGAND FREE ENERGY PREDICTED BY IDOCK:   -1.11 KCAL/MOL
REMARK 927      BINDING AFFINITY PREDICTED BY RF-SCORE:    0.00 PKD
ROOT
HETATM    1  F   UNL     1      -9.969   2.690  71.043  1.00  0.00    -0.225 F  
HETATM    2  C   UNL     1      -9.330   3.246  69.976  1.00  0.00    -0.168 C  
HETATM    3  F   UNL     1      -8.008   2.971  70.149  1.00  0.00    -0.043 F  
HETATM    4  F   UNL     1      -9.726   2.527  68.890  1.00  0.00    -0.225 F  
HETATM    5  C   UNL     1      -9.598   4.723  69.819  1.00  0.00    -0.249 A  
HETATM    6  C   UNL     1     -10.437   5.419  70.702  1.00  0.00    -0.329 A  
HETATM    7  C   UNL     1     -10.667   6.797  70.546  1.00  0.00    -0.277 A  
HETATM    8  C   UNL     1     -11.562   7.543  71.508  1.00  0.00    -0.272 C  
HETATM    9  C   UNL     1     -10.049   7.480  69.480  1.00  0.00    -0.189 A  
HETATM   10  C   UNL     1      -9.215   6.805  68.580  1.00  0.00    -0.132 A  
HETATM   11  F   UNL     1     -12.618   8.139  70.886  1.00  0.00    -0.252 F  
HETATM   12  F   UNL     1     -12.100   6.749  72.475  1.00  0.00    -0.261 F  
HETATM   13  F   UNL     1     -10.904   8.536  72.168  1.00  0.00    -0.329 F  
HETATM   14  C   UNL     1      -8.996   5.430  68.767  1.00  0.00    -0.127 A  
ENDROOT
BRANCH  10  15
HETATM   15  C   UNL     1      -8.555   7.488  67.467  1.00  0.00    -0.122 A  
HETATM   16  N   UNL     1      -7.408   8.177  67.549  1.00  0.00    -0.091 NA 
HETATM   17  N   UNL     1      -7.128   8.488  66.245  1.00  0.00    -0.077 NA 
HETATM   18  N   UNL     1      -9.108   7.477  66.218  1.00  0.00    -0.168 NA 
HETATM   19  C   UNL     1      -8.228   8.120  65.494  1.00  0.00    -0.144 A  
BRANCH  17  20
HETATM   20  C   UNL     1      -5.965   9.153  65.828  1.00  0.00    -0.051 C  
HETATM   21  C   UNL     1      -5.573  10.436  65.948  1.00  0.00    -0.090 C  
BRANCH  21  22
HETATM   22  C   UNL     1      -6.408  11.568  66.419  1.00  0.00     0.012 C  
HETATM   23  N   UNL     1      -7.754  11.467  66.155  1.00  0.00    -0.379 N  
HETATM   24  O   UNL     1      -5.952  12.519  67.046  1.00  0.00    -0.283 OA 
HETATM   25  H   UNL     1      -8.164  10.642  65.717  1.00  0.00     0.000 HD 
BRANCH  23  26
HETATM   26  N   UNL     1      -8.532  12.586  66.533  1.00  0.00    -0.413 NA 
HETATM   27  H   UNL     1      -8.273  13.207  67.299  1.00  0.00     0.000 HD 
BRANCH  26  28
HETATM   28  C   UNL     1      -9.702  12.770  65.756  1.00  0.00    -0.159 A  
HETATM   29  N   UNL     1     -10.309  11.724  65.143  1.00  0.00    -0.267 NA 
HETATM   30  C   UNL     1     -11.375  12.037  64.361  1.00  0.00    -0.345 A  
HETATM   31  C   UNL     1     -11.822  13.335  64.174  1.00  0.00    -0.443 A  
HETATM   32  N   UNL     1     -11.227  14.391  64.764  1.00  0.00    -0.383 NA 
HETATM   33  C   UNL     1     -10.161  14.077  65.543  1.00  0.00    -0.320 A  
ENDBRANCH  26  28
ENDBRANCH  23  26
ENDBRANCH  21  22
ENDBRANCH  17  20
ENDBRANCH  10  15
TORSDOF 5
ENDMDL
MODEL      230
REMARK 921   NORMALIZED FREE ENERGY PREDICTED BY IDOCK:   -5.14 KCAL/MOL
REMARK 922        TOTAL FREE ENERGY PREDICTED BY IDOCK:   -7.91 KCAL/MOL
REMARK 923 INTER-LIGAND FREE ENERGY PREDICTED BY IDOCK:   -6.54 KCAL/MOL
REMARK 924 INTRA-LIGAND FREE ENERGY PREDICTED BY IDOCK:   -1.37 KCAL/MOL
REMARK 927      BINDING AFFINITY PREDICTED BY RF-SCORE:    0.00 PKD
ROOT
HETATM    1  F   UNL     1      -9.499   6.271  67.231  1.00  0.00    -0.117 F  
HETATM    2  C   UNL     1     -10.222   7.406  67.444  1.00  0.00    -0.246 C  
HETATM    3  F   UNL     1      -9.648   8.363  66.666  1.00  0.00    -0.203 F  
HETATM    4  F   UNL     1     -11.450   7.169  66.909  1.00  0.00    -0.360 F  
HETATM    5  C   UNL     1     -10.294   7.807  68.898  1.00  0.00    -0.224 A  
HETATM    6  C   UNL     1      -9.671   7.054  69.904  1.00  0.00    -0.163 A  
HETATM    7  C   UNL     1      -9.740   7.448  71.251  1.00  0.00    -0.171 A  
HETATM    8  C   UNL     1      -9.055   6.639  72.328  1.00  0.00    -0.137 C  
HETATM    9  C   UNL     1     -10.454   8.615  71.589  1.00  0.00    -0.366 A  
HETATM   10  C   UNL     1     -11.093   9.378  70.603  1.00  0.00    -0.351 A  
HETATM   11  F   UNL     1      -9.925   6.189  73.277  1.00  0.00    -0.162 F  
HETATM   12  F   UNL     1      -8.419   5.533  71.853  1.00  0.00    -0.117 F  
HETATM   13  F   UNL     1      -8.108   7.354  72.994  1.00  0.00    -0.105 F  
HETATM   14  C   UNL     1     -10.999   8.964  69.265  1.00  0.00    -0.026 A  
ENDROOT
BRANCH  10  15
HETATM   15  C   UNL     1     -11.838  10.596  70.922  1.00  0.00    -0.331 A  
HETATM   16  N   UNL     1     -11.722  11.768  70.282  1.00  0.00    -0.282 NA 
HETATM   17  N   UNL     1     -12.713  12.535  70.835  1.00  0.00    -0.243 NA 
HETATM   18  N   UNL     1     -12.728  10.616  71.959  1.00  0.00    -0.295 NA 
HETATM   19  C   UNL     1     -13.230  11.823  71.900  1.00  0.00    -0.362 A  
BRANCH  17  20
HETATM   20  C   UNL     1     -13.024  13.837  70.417  1.00  0.00     0.014 C  
HETATM   21  C   UNL     1     -12.264  14.815  69.886  1.00  0.00    -0.358 C  
BRANCH  21  22
HETATM   22  C   UNL     1     -10.785  14.813  69.776  1.00  0.00    -0.154 C  
HETATM   23  N   UNL     1     -10.251  13.891  68.907  1.00  0.00    -0.384 N  
HETATM   24  O   UNL     1     -10.070  15.608  70.380  1.00  0.00    -0.181 OA 
HETATM   25  H   UNL     1     -10.834  13.286  68.328  1.00  0.00     0.000 HD 
BRANCH  23  26
HETATM   26  N   UNL     1      -8.838  13.840  68.869  1.00  0.00    -0.380 NA 
HETATM   27  H   UNL     1      -8.247  14.549  69.301  1.00  0.00     0.000 HD 
BRANCH  26  28
HETATM   28  C   UNL     1      -8.316  12.718  68.179  1.00  0.00    -0.172 A  
HETATM   29  N   UNL     1      -7.198  12.085  68.614  1.00  0.00    -0.105 NA 
HETATM   30  C   UNL     1      -6.749  11.074  67.824  1.00  0.00    -0.064 A  
HETATM   31  C   UNL     1      -7.368  10.707  66.639  1.00  0.00    -0.129 A  
HETATM   32  N   UNL     1      -8.472  11.331  66.183  1.00  0.00    -0.164 NA 
HETATM   33  C   UNL     1      -8.918  12.341  66.971  1.00  0.00    -0.204 A  
ENDBRANCH  26  28
ENDBRANCH  23  26
ENDBRANCH  21  22
ENDBRANCH  17  20
ENDBRANCH  10  15
TORSDOF 5
ENDMDL
MODEL      231
REMARK 921   NORMALIZED FREE ENERGY PREDICTED BY IDOCK:   -5.13 KCAL/MOL
REMARK 922        TOTAL FREE ENERGY PREDICTED BY IDOCK:   -7.89 KCAL/MOL
REMARK 923 INTER-LIGAND FREE ENERGY PREDICTED BY IDOCK:   -6.23 KCAL/MOL
REMARK 924 INTRA-LIGAND FREE ENERGY PREDICTED BY IDOCK:   -1.66 KCAL/MOL
REMARK 927      BINDING AFFINITY PREDICTED BY RF-SCORE:    0.00 PKD
ROOT
HETATM    1  F   UNL     1      -9.370  15.056  67.034  1.00  0.00    -0.195 F  
HETATM    2  C   UNL     1      -9.354  13.716  67.276  1.00  0.00    -0.233 C  
HETATM    3  F   UNL     1      -9.652  13.120  66.090  1.00  0.00    -0.259 F  
HETATM    4  F   UNL     1      -8.056  13.402  67.541  1.00  0.00    -0.136 F  
HETATM    5  C   UNL     1     -10.288  13.296  68.386  1.00  0.00    -0.254 A  
HETATM    6  C   UNL     1     -11.073  14.227  69.083  1.00  0.00    -0.291 A  
HETATM    7  C   UNL     1     -11.944  13.816  70.106  1.00  0.00    -0.404 A  
HETATM    8  C   UNL     1     -12.796  14.822  70.843  1.00  0.00    -0.362 C  
HETATM    9  C   UNL     1     -12.018  12.448  70.437  1.00  0.00    -0.342 A  
HETATM   10  C   UNL     1     -11.237  11.502  69.762  1.00  0.00    -0.237 A  
HETATM   11  F   UNL     1     -12.555  14.829  72.185  1.00  0.00    -0.337 F  
HETATM   12  F   UNL     1     -12.605  16.104  70.425  1.00  0.00    -0.332 F  
HETATM   13  F   UNL     1     -14.128  14.581  70.701  1.00  0.00    -0.177 F  
HETATM   14  C   UNL     1     -10.382  11.940  68.738  1.00  0.00    -0.184 A  
ENDROOT
BRANCH  10  15
HETATM   15  C   UNL     1     -11.295  10.075  70.080  1.00  0.00    -0.275 A  
HETATM   16  N   UNL     1     -11.226   9.077  69.187  1.00  0.00     0.110 NA 
HETATM   17  N   UNL     1     -11.171   7.953  69.968  1.00  0.00    -0.165 NA 
HETATM   18  N   UNL     1     -11.451   9.655  71.371  1.00  0.00    -0.380 NA 
HETATM   19  C   UNL     1     -11.399   8.351  71.270  1.00  0.00    -0.266 A  
BRANCH  17  20
HETATM   20  C   UNL     1     -11.014   6.653  69.463  1.00  0.00    -0.313 C  
HETATM   21  C   UNL     1      -9.959   6.030  68.903  1.00  0.00    -0.192 C  
BRANCH  21  22
HETATM   22  C   UNL     1      -8.682   6.664  68.493  1.00  0.00    -0.123 C  
HETATM   23  N   UNL     1      -8.797   7.848  67.803  1.00  0.00    -0.123 N  
HETATM   24  O   UNL     1      -7.583   6.200  68.783  1.00  0.00    -0.088 OA 
HETATM   25  H   UNL     1      -9.698   8.294  67.634  1.00  0.00     0.000 HD 
BRANCH  23  26
HETATM   26  N   UNL     1      -7.580   8.403  67.345  1.00  0.00    -0.096 NA 
HETATM   27  H   UNL     1      -7.076   8.041  66.536  1.00  0.00     0.000 HD 
BRANCH  26  28
HETATM   28  C   UNL     1      -7.121   9.506  68.107  1.00  0.00    -0.079 A  
HETATM   29  N   UNL     1      -6.146  10.324  67.641  1.00  0.00    -0.056 NA 
HETATM   30  C   UNL     1      -5.734  11.297  68.496  1.00  0.00    -0.042 A  
HETATM   31  C   UNL     1      -6.254  11.453  69.772  1.00  0.00    -0.135 A  
HETATM   32  N   UNL     1      -7.215  10.644  70.259  1.00  0.00    -0.166 NA 
HETATM   33  C   UNL     1      -7.623   9.672  69.405  1.00  0.00    -0.097 A  
ENDBRANCH  26  28
ENDBRANCH  23  26
ENDBRANCH  21  22
ENDBRANCH  17  20
ENDBRANCH  10  15
TORSDOF 5
ENDMDL
MODEL      232
REMARK 921   NORMALIZED FREE ENERGY PREDICTED BY IDOCK:   -5.11 KCAL/MOL
REMARK 922        TOTAL FREE ENERGY PREDICTED BY IDOCK:   -7.87 KCAL/MOL
REMARK 923 INTER-LIGAND FREE ENERGY PREDICTED BY IDOCK:   -7.32 KCAL/MOL
REMARK 924 INTRA-LIGAND FREE ENERGY PREDICTED BY IDOCK:   -0.56 KCAL/MOL
REMARK 927      BINDING AFFINITY PREDICTED BY RF-SCORE:    0.00 PKD
ROOT
HETATM    1  F   UNL     1     -10.660   4.898  70.492  1.00  0.00    -0.306 F  
HETATM    2  C   UNL     1     -10.997   5.965  69.714  1.00  0.00    -0.382 C  
HETATM    3  F   UNL     1     -11.164   5.471  68.458  1.00  0.00    -0.204 F  
HETATM    4  F   UNL     1     -12.232   6.355  70.134  1.00  0.00    -0.444 F  
HETATM    5  C   UNL     1      -9.989   7.088  69.766  1.00  0.00    -0.179 A  
HETATM    6  C   UNL     1      -8.834   7.007  70.557  1.00  0.00    -0.154 A  
HETATM    7  C   UNL     1      -7.901   8.058  70.585  1.00  0.00    -0.091 A  
HETATM    8  C   UNL     1      -6.652   7.959  71.429  1.00  0.00    -0.042 C  
HETATM    9  C   UNL     1      -8.141   9.210  69.810  1.00  0.00    -0.111 A  
HETATM   10  C   UNL     1      -9.293   9.318  69.020  1.00  0.00    -0.151 A  
HETATM   11  F   UNL     1      -6.562   8.959  72.350  1.00  0.00    -0.092 F  
HETATM   12  F   UNL     1      -6.564   6.797  72.133  1.00  0.00    -0.054 F  
HETATM   13  F   UNL     1      -5.513   8.028  70.686  1.00  0.00    -0.026 F  
HETATM   14  C   UNL     1     -10.202   8.247  69.005  1.00  0.00    -0.226 A  
ENDROOT
BRANCH  10  15
HETATM   15  C   UNL     1      -9.568  10.498  68.201  1.00  0.00    -0.154 A  
HETATM   16  N   UNL     1     -10.766  10.837  67.703  1.00  0.00    -0.238 NA 
HETATM   17  N   UNL     1     -10.546  12.071  67.151  1.00  0.00    -0.219 NA 
HETATM   18  N   UNL     1      -8.563  11.360  67.862  1.00  0.00    -0.135 NA 
HETATM   19  C   UNL     1      -9.184  12.299  67.197  1.00  0.00    -0.196 A  
BRANCH  17  20
HETATM   20  C   UNL     1     -11.549  12.862  66.570  1.00  0.00    -0.371 C  
HETATM   21  C   UNL     1     -11.861  14.165  66.715  1.00  0.00    -0.449 C  
BRANCH  21  22
HETATM   22  C   UNL     1     -11.298  15.094  67.724  1.00  0.00    -0.328 C  
HETATM   23  N   UNL     1     -11.234  16.415  67.350  1.00  0.00    -0.054 N  
HETATM   24  O   UNL     1     -10.948  14.732  68.844  1.00  0.00    -0.235 OA 
HETATM   25  H   UNL     1     -11.604  16.748  66.459  1.00  0.00     0.000 HD 
BRANCH  23  26
HETATM   26  N   UNL     1     -10.620  17.282  68.285  1.00  0.00    -0.383 NA 
HETATM   27  H   UNL     1     -10.719  17.168  69.293  1.00  0.00     0.000 HD 
BRANCH  26  28
HETATM   28  C   UNL     1      -9.857  18.322  67.699  1.00  0.00    -0.320 A  
HETATM   29  N   UNL     1     -10.070  19.620  68.028  1.00  0.00    -0.412 NA 
HETATM   30  C   UNL     1      -9.332  20.531  67.340  1.00  0.00    -0.375 A  
HETATM   31  C   UNL     1      -8.425  20.180  66.352  1.00  0.00    -0.239 A  
HETATM   32  N   UNL     1      -8.207  18.897  66.001  1.00  0.00    -0.472 NA 
HETATM   33  C   UNL     1      -8.946  17.989  66.687  1.00  0.00    -0.273 A  
ENDBRANCH  26  28
ENDBRANCH  23  26
ENDBRANCH  21  22
ENDBRANCH  17  20
ENDBRANCH  10  15
TORSDOF 5
ENDMDL
MODEL      233
REMARK 921   NORMALIZED FREE ENERGY PREDICTED BY IDOCK:   -5.03 KCAL/MOL
REMARK 922        TOTAL FREE ENERGY PREDICTED BY IDOCK:   -7.76 KCAL/MOL
REMARK 923 INTER-LIGAND FREE ENERGY PREDICTED BY IDOCK:   -6.86 KCAL/MOL
REMARK 924 INTRA-LIGAND FREE ENERGY PREDICTED BY IDOCK:   -0.90 KCAL/MOL
REMARK 927      BINDING AFFINITY PREDICTED BY RF-SCORE:    0.00 PKD
ROOT
HETATM    1  F   UNL     1     -12.416  15.419  64.036  1.00  0.00    -0.474 F  
HETATM    2  C   UNL     1     -12.246  14.261  64.734  1.00  0.00    -0.443 C  
HETATM    3  F   UNL     1     -13.396  14.078  65.438  1.00  0.00    -0.478 F  
HETATM    4  F   UNL     1     -12.211  13.269  63.803  1.00  0.00    -0.460 F  
HETATM    5  C   UNL     1     -11.021  14.267  65.617  1.00  0.00    -0.309 A  
HETATM    6  C   UNL     1     -10.161  15.374  65.679  1.00  0.00    -0.403 A  
HETATM    7  C   UNL     1      -9.032  15.366  66.515  1.00  0.00    -0.344 A  
HETATM    8  C   UNL     1      -8.117  16.566  66.587  1.00  0.00    -0.278 C  
HETATM    9  C   UNL     1      -8.761  14.222  67.292  1.00  0.00    -0.230 A  
HETATM   10  C   UNL     1      -9.599  13.101  67.239  1.00  0.00    -0.233 A  
HETATM   11  F   UNL     1      -6.834  16.268  66.238  1.00  0.00    -0.126 F  
HETATM   12  F   UNL     1      -8.497  17.587  65.770  1.00  0.00    -0.185 F  
HETATM   13  F   UNL     1      -8.053  17.098  67.839  1.00  0.00    -0.186 F  
HETATM   14  C   UNL     1     -10.726  13.142  66.402  1.00  0.00    -0.293 A  
ENDROOT
BRANCH  10  15
HETATM   15  C   UNL     1      -9.347  11.902  68.038  1.00  0.00    -0.193 A  
HETATM   16  N   UNL     1     -10.282  11.181  68.673  1.00  0.00    -0.198 NA 
HETATM   17  N   UNL     1      -9.587  10.097  69.140  1.00  0.00    -0.201 NA 
HETATM   18  N   UNL     1      -8.075  11.433  68.207  1.00  0.00    -0.136 NA 
HETATM   19  C   UNL     1      -8.248  10.342  68.908  1.00  0.00    -0.130 A  
BRANCH  17  20
HETATM   20  C   UNL     1     -10.177   9.017  69.815  1.00  0.00    -0.205 C  
HETATM   21  C   UNL     1     -10.424   7.748  69.433  1.00  0.00    -0.221 C  
BRANCH  21  22
HETATM   22  C   UNL     1     -10.286   7.202  68.062  1.00  0.00    -0.194 C  
HETATM   23  N   UNL     1      -9.547   6.049  67.948  1.00  0.00    -0.115 N  
HETATM   24  O   UNL     1     -10.830   7.709  67.084  1.00  0.00    -0.317 OA 
HETATM   25  H   UNL     1      -9.165   5.564  68.761  1.00  0.00     0.000 HD 
BRANCH  23  26
HETATM   26  N   UNL     1      -9.351   5.581  66.628  1.00  0.00    -0.136 NA 
HETATM   27  H   UNL     1     -10.010   4.961  66.157  1.00  0.00     0.000 HD 
BRANCH  26  28
HETATM   28  C   UNL     1      -8.162   6.047  66.016  1.00  0.00    -0.125 A  
HETATM   29  N   UNL     1      -6.961   5.931  66.636  1.00  0.00    -0.063 NA 
HETATM   30  C   UNL     1      -5.906   6.488  65.986  1.00  0.00    -0.022 A  
HETATM   31  C   UNL     1      -6.026   7.148  64.773  1.00  0.00    -0.037 A  
HETATM   32  N   UNL     1      -7.211   7.284  64.145  1.00  0.00    -0.070 NA 
HETATM   33  C   UNL     1      -8.265   6.730  64.797  1.00  0.00    -0.052 A  
ENDBRANCH  26  28
ENDBRANCH  23  26
ENDBRANCH  21  22
ENDBRANCH  17  20
ENDBRANCH  10  15
TORSDOF 5
ENDMDL
MODEL      234
REMARK 921   NORMALIZED FREE ENERGY PREDICTED BY IDOCK:   -5.01 KCAL/MOL
REMARK 922        TOTAL FREE ENERGY PREDICTED BY IDOCK:   -7.74 KCAL/MOL
REMARK 923 INTER-LIGAND FREE ENERGY PREDICTED BY IDOCK:   -6.25 KCAL/MOL
REMARK 924 INTRA-LIGAND FREE ENERGY PREDICTED BY IDOCK:   -1.49 KCAL/MOL
REMARK 927      BINDING AFFINITY PREDICTED BY RF-SCORE:    0.00 PKD
ROOT
HETATM    1  F   UNL     1     -12.265   8.328  73.268  1.00  0.00    -0.194 F  
HETATM    2  C   UNL     1     -11.420   7.614  72.473  1.00  0.00    -0.352 C  
HETATM    3  F   UNL     1     -10.360   7.283  73.259  1.00  0.00    -0.238 F  
HETATM    4  F   UNL     1     -12.065   6.448  72.197  1.00  0.00    -0.341 F  
HETATM    5  C   UNL     1     -11.005   8.354  71.223  1.00  0.00    -0.305 A  
HETATM    6  C   UNL     1     -11.472   9.646  70.940  1.00  0.00    -0.427 A  
HETATM    7  C   UNL     1     -11.067  10.323  69.777  1.00  0.00    -0.340 A  
HETATM    8  C   UNL     1     -11.564  11.719  69.485  1.00  0.00    -0.332 C  
HETATM    9  C   UNL     1     -10.184   9.685  68.884  1.00  0.00    -0.214 A  
HETATM   10  C   UNL     1      -9.711   8.391  69.140  1.00  0.00    -0.171 A  
HETATM   11  F   UNL     1     -12.233  11.799  68.300  1.00  0.00    -0.361 F  
HETATM   12  F   UNL     1     -12.421  12.198  70.428  1.00  0.00    -0.353 F  
HETATM   13  F   UNL     1     -10.553  12.627  69.408  1.00  0.00    -0.116 F  
HETATM   14  C   UNL     1     -10.126   7.743  70.315  1.00  0.00    -0.195 A  
ENDROOT
BRANCH  10  15
HETATM   15  C   UNL     1      -8.790   7.704  68.234  1.00  0.00    -0.125 A  
HETATM   16  N   UNL     1      -8.955   7.575  66.910  1.00  0.00    -0.129 NA 
HETATM   17  N   UNL     1      -7.781   7.004  66.496  1.00  0.00    -0.102 NA 
HETATM   18  N   UNL     1      -7.658   7.108  68.713  1.00  0.00    -0.105 NA 
HETATM   19  C   UNL     1      -7.072   6.663  67.631  1.00  0.00    -0.085 A  
BRANCH  17  20
HETATM   20  C   UNL     1      -7.464   6.746  65.154  1.00  0.00    -0.087 C  
HETATM   21  C   UNL     1      -7.822   5.747  64.323  1.00  0.00    -0.114 C  
BRANCH  21  22
HETATM   22  C   UNL     1      -8.536   4.505  64.703  1.00  0.00    -0.130 C  
HETATM   23  N   UNL     1      -8.970   4.439  66.006  1.00  0.00    -0.118 N  
HETATM   24  O   UNL     1      -8.773   3.602  63.906  1.00  0.00    -0.093 OA 
HETATM   25  H   UNL     1      -8.862   5.218  66.656  1.00  0.00     0.000 HD 
BRANCH  23  26
HETATM   26  N   UNL     1      -9.577   3.218  66.383  1.00  0.00    -0.400 NA 
HETATM   27  H   UNL     1     -10.052   2.608  65.719  1.00  0.00     0.000 HD 
BRANCH  26  28
HETATM   28  C   UNL     1      -9.467   2.917  67.763  1.00  0.00    -0.135 A  
HETATM   29  N   UNL     1      -9.331   1.638  68.193  1.00  0.00    -0.180 NA 
HETATM   30  C   UNL     1      -9.318   1.469  69.542  1.00  0.00    -0.095 A  
HETATM   31  C   UNL     1      -9.448   2.518  70.438  1.00  0.00    -0.108 A  
HETATM   32  N   UNL     1      -9.597   3.795  70.032  1.00  0.00    -0.197 NA 
HETATM   33  C   UNL     1      -9.612   3.962  68.685  1.00  0.00    -0.111 A  
ENDBRANCH  26  28
ENDBRANCH  23  26
ENDBRANCH  21  22
ENDBRANCH  17  20
ENDBRANCH  10  15
TORSDOF 5
ENDMDL
MODEL      235
REMARK 921   NORMALIZED FREE ENERGY PREDICTED BY IDOCK:   -5.01 KCAL/MOL
REMARK 922        TOTAL FREE ENERGY PREDICTED BY IDOCK:   -7.74 KCAL/MOL
REMARK 923 INTER-LIGAND FREE ENERGY PREDICTED BY IDOCK:   -7.50 KCAL/MOL
REMARK 924 INTRA-LIGAND FREE ENERGY PREDICTED BY IDOCK:   -0.24 KCAL/MOL
REMARK 927      BINDING AFFINITY PREDICTED BY RF-SCORE:    0.00 PKD
ROOT
HETATM    1  F   UNL     1     -12.517  16.065  71.596  1.00  0.00    -0.447 F  
HETATM    2  C   UNL     1     -12.402  15.074  70.667  1.00  0.00    -0.348 C  
HETATM    3  F   UNL     1     -11.747  14.056  71.288  1.00  0.00    -0.347 F  
HETATM    4  F   UNL     1     -13.669  14.628  70.443  1.00  0.00    -0.183 F  
HETATM    5  C   UNL     1     -11.714  15.518  69.399  1.00  0.00    -0.382 A  
HETATM    6  C   UNL     1     -11.257  16.834  69.228  1.00  0.00    -0.009 A  
HETATM    7  C   UNL     1     -10.609  17.226  68.044  1.00  0.00    -0.394 A  
HETATM    8  C   UNL     1     -10.108  18.641  67.871  1.00  0.00    -0.369 C  
HETATM    9  C   UNL     1     -10.426  16.280  67.016  1.00  0.00    -0.306 A  
HETATM   10  C   UNL     1     -10.882  14.964  67.160  1.00  0.00    -0.311 A  
HETATM   11  F   UNL     1     -10.663  19.264  66.794  1.00  0.00    -0.468 F  
HETATM   12  F   UNL     1     -10.371  19.443  68.940  1.00  0.00    -0.455 F  
HETATM   13  F   UNL     1      -8.761  18.698  67.688  1.00  0.00    -0.265 F  
HETATM   14  C   UNL     1     -11.517  14.598  68.357  1.00  0.00    -0.335 A  
ENDROOT
BRANCH  10  15
HETATM   15  C   UNL     1     -10.701  13.958  66.112  1.00  0.00    -0.283 A  
HETATM   16  N   UNL     1     -10.563  12.640  66.316  1.00  0.00    -0.250 NA 
HETATM   17  N   UNL     1     -10.579  12.118  65.050  1.00  0.00    -0.280 NA 
HETATM   18  N   UNL     1     -10.642  14.326  64.798  1.00  0.00    -0.431 NA 
HETATM   19  C   UNL     1     -10.540  13.182  64.171  1.00  0.00    -0.361 A  
BRANCH  17  20
HETATM   20  C   UNL     1     -10.536  10.744  64.767  1.00  0.00    -0.194 C  
HETATM   21  C   UNL     1      -9.748   9.756  65.234  1.00  0.00    -0.371 C  
BRANCH  21  22
HETATM   22  C   UNL     1      -8.540   9.923  66.077  1.00  0.00    -0.136 C  
HETATM   23  N   UNL     1      -7.607   8.916  65.992  1.00  0.00    -0.093 N  
HETATM   24  O   UNL     1      -8.346  10.912  66.778  1.00  0.00    -0.129 OA 
HETATM   25  H   UNL     1      -7.709   8.132  65.346  1.00  0.00     0.000 HD 
BRANCH  23  26
HETATM   26  N   UNL     1      -6.497   9.041  66.860  1.00  0.00    -0.063 NA 
HETATM   27  H   UNL     1      -5.748   9.715  66.707  1.00  0.00     0.000 HD 
BRANCH  26  28
HETATM   28  C   UNL     1      -6.517   8.149  67.960  1.00  0.00    -0.056 A  
HETATM   29  N   UNL     1      -6.518   6.805  67.774  1.00  0.00    -0.047 NA 
HETATM   30  C   UNL     1      -6.620   6.055  68.903  1.00  0.00    -0.051 A  
HETATM   31  C   UNL     1      -6.730   6.604  70.170  1.00  0.00    -0.052 A  
HETATM   32  N   UNL     1      -6.742   7.936  70.376  1.00  0.00    -0.038 NA 
HETATM   33  C   UNL     1      -6.643   8.685  69.249  1.00  0.00    -0.049 A  
ENDBRANCH  26  28
ENDBRANCH  23  26
ENDBRANCH  21  22
ENDBRANCH  17  20
ENDBRANCH  10  15
TORSDOF 5
ENDMDL
MODEL      236
REMARK 921   NORMALIZED FREE ENERGY PREDICTED BY IDOCK:   -4.99 KCAL/MOL
REMARK 922        TOTAL FREE ENERGY PREDICTED BY IDOCK:   -7.71 KCAL/MOL
REMARK 923 INTER-LIGAND FREE ENERGY PREDICTED BY IDOCK:   -6.58 KCAL/MOL
REMARK 924 INTRA-LIGAND FREE ENERGY PREDICTED BY IDOCK:   -1.12 KCAL/MOL
REMARK 927      BINDING AFFINITY PREDICTED BY RF-SCORE:    0.00 PKD
ROOT
HETATM    1  F   UNL     1     -11.163   5.525  69.622  1.00  0.00    -0.403 F  
HETATM    2  C   UNL     1     -10.670   6.624  68.984  1.00  0.00    -0.259 C  
HETATM    3  F   UNL     1     -10.094   6.163  67.841  1.00  0.00    -0.125 F  
HETATM    4  F   UNL     1     -11.756   7.346  68.596  1.00  0.00     0.363 F  
HETATM    5  C   UNL     1      -9.713   7.429  69.830  1.00  0.00    -0.171 A  
HETATM    6  C   UNL     1      -9.395   7.055  71.144  1.00  0.00    -0.158 A  
HETATM    7  C   UNL     1      -8.494   7.812  71.913  1.00  0.00    -0.140 A  
HETATM    8  C   UNL     1      -8.145   7.396  73.323  1.00  0.00    -0.114 C  
HETATM    9  C   UNL     1      -7.913   8.966  71.352  1.00  0.00    -0.150 A  
HETATM   10  C   UNL     1      -8.223   9.365  70.045  1.00  0.00    -0.171 A  
HETATM   11  F   UNL     1      -8.448   8.356  74.242  1.00  0.00    -0.309 F  
HETATM   12  F   UNL     1      -8.795   6.272  73.733  1.00  0.00    -0.123 F  
HETATM   13  F   UNL     1      -6.818   7.133  73.476  1.00  0.00    -0.069 F  
HETATM   14  C   UNL     1      -9.119   8.584  69.297  1.00  0.00    -0.153 A  
ENDROOT
BRANCH  10  15
HETATM   15  C   UNL     1      -7.632  10.555  69.433  1.00  0.00    -0.145 A  
HETATM   16  N   UNL     1      -8.308  11.507  68.775  1.00  0.00    -0.114 NA 
HETATM   17  N   UNL     1      -7.359  12.464  68.532  1.00  0.00    -0.101 NA 
HETATM   18  N   UNL     1      -6.283  10.767  69.484  1.00  0.00    -0.054 NA 
HETATM   19  C   UNL     1      -6.140  11.929  68.901  1.00  0.00    -0.062 A  
BRANCH  17  20
HETATM   20  C   UNL     1      -7.626  13.699  67.921  1.00  0.00    -0.156 C  
HETATM   21  C   UNL     1      -8.778  14.370  67.723  1.00  0.00    -0.180 C  
BRANCH  21  22
HETATM   22  C   UNL     1     -10.147  13.851  67.954  1.00  0.00    -0.242 C  
HETATM   23  N   UNL     1     -10.437  13.484  69.247  1.00  0.00    -0.434 N  
HETATM   24  O   UNL     1     -10.995  13.788  67.069  1.00  0.00    -0.285 OA 
HETATM   25  H   UNL     1      -9.774  13.615  70.012  1.00  0.00     0.000 HD 
BRANCH  23  26
HETATM   26  N   UNL     1     -11.716  12.913  69.444  1.00  0.00    -0.309 NA 
HETATM   27  H   UNL     1     -12.054  12.114  68.908  1.00  0.00     0.000 HD 
BRANCH  26  28
HETATM   28  C   UNL     1     -12.486  13.546  70.450  1.00  0.00    -0.275 A  
HETATM   29  N   UNL     1     -12.751  14.875  70.400  1.00  0.00    -0.342 NA 
HETATM   30  C   UNL     1     -13.430  15.381  71.463  1.00  0.00    -0.513 A  
HETATM   31  C   UNL     1     -13.823  14.611  72.547  1.00  0.00    -0.458 A  
HETATM   32  N   UNL     1     -13.559  13.292  72.623  1.00  0.00    -0.662 NA 
HETATM   33  C   UNL     1     -12.880  12.788  71.562  1.00  0.00    -0.270 A  
ENDBRANCH  26  28
ENDBRANCH  23  26
ENDBRANCH  21  22
ENDBRANCH  17  20
ENDBRANCH  10  15
TORSDOF 5
ENDMDL
MODEL      237
REMARK 921   NORMALIZED FREE ENERGY PREDICTED BY IDOCK:   -4.96 KCAL/MOL
REMARK 922        TOTAL FREE ENERGY PREDICTED BY IDOCK:   -7.67 KCAL/MOL
REMARK 923 INTER-LIGAND FREE ENERGY PREDICTED BY IDOCK:   -6.06 KCAL/MOL
REMARK 924 INTRA-LIGAND FREE ENERGY PREDICTED BY IDOCK:   -1.62 KCAL/MOL
REMARK 927      BINDING AFFINITY PREDICTED BY RF-SCORE:    0.00 PKD
ROOT
HETATM    1  F   UNL     1     -11.679  11.586  66.489  1.00  0.00    -0.353 F  
HETATM    2  C   UNL     1     -10.413  11.259  66.872  1.00  0.00    -0.245 C  
HETATM    3  F   UNL     1      -9.948  10.400  65.925  1.00  0.00    -0.253 F  
HETATM    4  F   UNL     1      -9.680  12.399  66.742  1.00  0.00    -0.203 F  
HETATM    5  C   UNL     1     -10.338  10.681  68.265  1.00  0.00    -0.201 A  
HETATM    6  C   UNL     1     -11.482  10.520  69.061  1.00  0.00    -0.304 A  
HETATM    7  C   UNL     1     -11.394   9.971  70.351  1.00  0.00    -0.392 A  
HETATM    8  C   UNL     1     -12.632   9.787  71.197  1.00  0.00    -0.345 C  
HETATM    9  C   UNL     1     -10.133   9.586  70.849  1.00  0.00    -0.330 A  
HETATM   10  C   UNL     1      -8.976   9.747  70.077  1.00  0.00    -0.255 A  
HETATM   11  F   UNL     1     -12.563  10.463  72.380  1.00  0.00    -0.353 F  
HETATM   12  F   UNL     1     -13.772  10.218  70.590  1.00  0.00    -0.329 F  
HETATM   13  F   UNL     1     -12.855   8.484  71.521  1.00  0.00    -0.310 F  
HETATM   14  C   UNL     1      -9.096  10.289  68.788  1.00  0.00    -0.159 A  
ENDROOT
BRANCH  10  15
HETATM   15  C   UNL     1      -7.654   9.352  70.565  1.00  0.00    -0.150 A  
HETATM   16  N   UNL     1      -7.351   9.060  71.837  1.00  0.00    -0.332 NA 
HETATM   17  N   UNL     1      -6.058   8.611  71.763  1.00  0.00    -0.058 NA 
HETATM   18  N   UNL     1      -6.591   9.275  69.709  1.00  0.00    -0.042 NA 
HETATM   19  C   UNL     1      -5.621   8.844  70.474  1.00  0.00    -0.027 A  
BRANCH  17  20
HETATM   20  C   UNL     1      -5.336   8.114  72.859  1.00  0.00    -0.042 C  
HETATM   21  C   UNL     1      -5.229   6.873  73.374  1.00  0.00    -0.041 C  
BRANCH  21  22
HETATM   22  C   UNL     1      -6.042   5.693  72.994  1.00  0.00    -0.044 C  
HETATM   23  N   UNL     1      -6.737   5.801  71.813  1.00  0.00    -0.057 N  
HETATM   24  O   UNL     1      -6.068   4.659  73.656  1.00  0.00    -0.027 OA 
HETATM   25  H   UNL     1      -6.655   6.616  71.204  1.00  0.00     0.000 HD 
BRANCH  23  26
HETATM   26  N   UNL     1      -7.574   4.705  71.498  1.00  0.00    -0.079 NA 
HETATM   27  H   UNL     1      -7.251   3.895  70.971  1.00  0.00     0.000 HD 
BRANCH  26  28
HETATM   28  C   UNL     1      -8.901   4.830  71.979  1.00  0.00    -0.124 A  
HETATM   29  N   UNL     1      -9.539   6.027  71.974  1.00  0.00    -0.153 NA 
HETATM   30  C   UNL     1     -10.777   6.037  72.535  1.00  0.00    -0.227 A  
HETATM   31  C   UNL     1     -11.364   4.912  73.095  1.00  0.00    -0.315 A  
HETATM   32  N   UNL     1     -10.743   3.717  73.120  1.00  0.00    -0.182 NA 
HETATM   33  C   UNL     1      -9.506   3.709  72.563  1.00  0.00    -0.124 A  
ENDBRANCH  26  28
ENDBRANCH  23  26
ENDBRANCH  21  22
ENDBRANCH  17  20
ENDBRANCH  10  15
TORSDOF 5
ENDMDL
MODEL      238
REMARK 921   NORMALIZED FREE ENERGY PREDICTED BY IDOCK:   -4.93 KCAL/MOL
REMARK 922        TOTAL FREE ENERGY PREDICTED BY IDOCK:   -7.64 KCAL/MOL
REMARK 923 INTER-LIGAND FREE ENERGY PREDICTED BY IDOCK:   -5.96 KCAL/MOL
REMARK 924 INTRA-LIGAND FREE ENERGY PREDICTED BY IDOCK:   -1.68 KCAL/MOL
REMARK 927      BINDING AFFINITY PREDICTED BY RF-SCORE:    0.00 PKD
ROOT
HETATM    1  F   UNL     1      -9.492   4.020  67.374  1.00  0.00    -0.161 F  
HETATM    2  C   UNL     1      -9.559   5.288  66.878  1.00  0.00    -0.145 C  
HETATM    3  F   UNL     1      -8.307   5.578  66.429  1.00  0.00    -0.107 F  
HETATM    4  F   UNL     1     -10.349   5.213  65.773  1.00  0.00    -0.204 F  
HETATM    5  C   UNL     1     -10.063   6.298  67.881  1.00  0.00    -0.169 A  
HETATM    6  C   UNL     1     -10.426   5.927  69.184  1.00  0.00    -0.338 A  
HETATM    7  C   UNL     1     -10.884   6.882  70.107  1.00  0.00    -0.300 A  
HETATM    8  C   UNL     1     -11.260   6.478  71.514  1.00  0.00    -0.276 C  
HETATM    9  C   UNL     1     -10.985   8.230  69.708  1.00  0.00    -0.132 A  
HETATM   10  C   UNL     1     -10.638   8.623  68.409  1.00  0.00    -0.169 A  
HETATM   11  F   UNL     1     -12.555   6.780  71.816  1.00  0.00    -0.364 F  
HETATM   12  F   UNL     1     -11.126   5.144  71.748  1.00  0.00    -0.254 F  
HETATM   13  F   UNL     1     -10.499   7.098  72.456  1.00  0.00    -0.206 F  
HETATM   14  C   UNL     1     -10.174   7.647  67.511  1.00  0.00    -0.294 A  
ENDROOT
BRANCH  10  15
HETATM   15  C   UNL     1     -10.727  10.014  67.966  1.00  0.00    -0.256 A  
HETATM   16  N   UNL     1     -10.607  11.090  68.756  1.00  0.00    -0.191 NA 
HETATM   17  N   UNL     1     -10.611  12.138  67.874  1.00  0.00    -0.201 NA 
HETATM   18  N   UNL     1     -10.969  10.313  66.655  1.00  0.00    -0.043 NA 
HETATM   19  C   UNL     1     -10.920  11.621  66.631  1.00  0.00    -0.299 A  
BRANCH  17  20
HETATM   20  C   UNL     1     -10.430  13.479  68.246  1.00  0.00    -0.253 C  
HETATM   21  C   UNL     1      -9.380  14.313  68.111  1.00  0.00    -0.206 C  
BRANCH  21  22
HETATM   22  C   UNL     1      -8.014  13.940  67.672  1.00  0.00    -0.175 C  
HETATM   23  N   UNL     1      -7.699  12.605  67.767  1.00  0.00    -0.131 N  
HETATM   24  O   UNL     1      -7.217  14.750  67.208  1.00  0.00    -0.192 OA 
HETATM   25  H   UNL     1      -8.379  11.904  68.064  1.00  0.00     0.000 HD 
BRANCH  23  26
HETATM   26  N   UNL     1      -6.369  12.269  67.425  1.00  0.00    -0.140 NA 
HETATM   27  H   UNL     1      -5.559  12.753  67.811  1.00  0.00     0.000 HD 
BRANCH  26  28
HETATM   28  C   UNL     1      -6.258  11.202  66.499  1.00  0.00    -0.139 A  
HETATM   29  N   UNL     1      -5.253  11.163  65.590  1.00  0.00    -0.247 NA 
HETATM   30  C   UNL     1      -5.300  10.133  64.704  1.00  0.00    -0.106 A  
HETATM   31  C   UNL     1      -6.308   9.182  64.700  1.00  0.00    -0.071 A  
HETATM   32  N   UNL     1      -7.323   9.210  65.587  1.00  0.00    -0.085 NA 
HETATM   33  C   UNL     1      -7.276  10.239  66.470  1.00  0.00    -0.109 A  
ENDBRANCH  26  28
ENDBRANCH  23  26
ENDBRANCH  21  22
ENDBRANCH  17  20
ENDBRANCH  10  15
TORSDOF 5
ENDMDL
MODEL      239
REMARK 921   NORMALIZED FREE ENERGY PREDICTED BY IDOCK:   -4.92 KCAL/MOL
REMARK 922        TOTAL FREE ENERGY PREDICTED BY IDOCK:   -7.62 KCAL/MOL
REMARK 923 INTER-LIGAND FREE ENERGY PREDICTED BY IDOCK:   -5.79 KCAL/MOL
REMARK 924 INTRA-LIGAND FREE ENERGY PREDICTED BY IDOCK:   -1.83 KCAL/MOL
REMARK 927      BINDING AFFINITY PREDICTED BY RF-SCORE:    0.00 PKD
ROOT
HETATM    1  F   UNL     1     -10.643   5.919  73.959  1.00  0.00    -0.242 F  
HETATM    2  C   UNL     1     -10.086   5.788  72.723  1.00  0.00    -0.179 C  
HETATM    3  F   UNL     1      -8.740   5.832  72.915  1.00  0.00    -0.124 F  
HETATM    4  F   UNL     1     -10.369   4.518  72.321  1.00  0.00    -0.231 F  
HETATM    5  C   UNL     1     -10.565   6.825  71.736  1.00  0.00    -0.237 A  
HETATM    6  C   UNL     1     -11.499   7.808  72.093  1.00  0.00    -0.361 A  
HETATM    7  C   UNL     1     -11.925   8.773  71.164  1.00  0.00    -0.331 A  
HETATM    8  C   UNL     1     -12.923   9.837  71.559  1.00  0.00    -0.407 C  
HETATM    9  C   UNL     1     -11.407   8.741  69.854  1.00  0.00     0.030 A  
HETATM   10  C   UNL     1     -10.480   7.763  69.472  1.00  0.00    -0.225 A  
HETATM   11  F   UNL     1     -14.051   9.806  70.795  1.00  0.00    -0.290 F  
HETATM   12  F   UNL     1     -13.345   9.731  72.849  1.00  0.00    -0.282 F  
HETATM   13  F   UNL     1     -12.419  11.095  71.436  1.00  0.00    -0.434 F  
HETATM   14  C   UNL     1     -10.065   6.818  70.424  1.00  0.00    -0.200 A  
ENDROOT
BRANCH  10  15
HETATM   15  C   UNL     1      -9.920   7.706  68.121  1.00  0.00    -0.175 A  
HETATM   16  N   UNL     1      -9.962   8.699  67.221  1.00  0.00    -0.198 NA 
HETATM   17  N   UNL     1      -9.188   8.230  66.192  1.00  0.00    -0.197 NA 
HETATM   18  N   UNL     1      -9.306   6.573  67.669  1.00  0.00    -0.119 NA 
HETATM   19  C   UNL     1      -8.891   6.912  66.475  1.00  0.00    -0.140 A  
BRANCH  17  20
HETATM   20  C   UNL     1      -8.879   8.972  65.042  1.00  0.00    -0.170 C  
HETATM   21  C   UNL     1      -7.953   9.923  64.810  1.00  0.00    -0.143 C  
BRANCH  21  22
HETATM   22  C   UNL     1      -7.104  10.587  65.829  1.00  0.00    -0.124 C  
HETATM   23  N   UNL     1      -7.699  10.815  67.047  1.00  0.00    -0.116 N  
HETATM   24  O   UNL     1      -5.928  10.879  65.630  1.00  0.00    -0.133 OA 
HETATM   25  H   UNL     1      -8.645  10.496  67.259  1.00  0.00     0.000 HD 
BRANCH  23  26
HETATM   26  N   UNL     1      -6.911  11.522  67.985  1.00  0.00    -0.073 NA 
HETATM   27  H   UNL     1      -6.624  12.490  67.849  1.00  0.00     0.000 HD 
BRANCH  26  28
HETATM   28  C   UNL     1      -6.555  10.767  69.130  1.00  0.00    -0.065 A  
HETATM   29  N   UNL     1      -6.866   9.451  69.228  1.00  0.00    -0.049 NA 
HETATM   30  C   UNL     1      -6.544   8.856  70.407  1.00  0.00    -0.045 A  
HETATM   31  C   UNL     1      -5.949   9.533  71.459  1.00  0.00    -0.030 A  
HETATM   32  N   UNL     1      -5.642  10.844  71.387  1.00  0.00    -0.337 NA 
HETATM   33  C   UNL     1      -5.966  11.437  70.211  1.00  0.00    -0.159 A  
ENDBRANCH  26  28
ENDBRANCH  23  26
ENDBRANCH  21  22
ENDBRANCH  17  20
ENDBRANCH  10  15
TORSDOF 5
ENDMDL
MODEL      240
REMARK 921   NORMALIZED FREE ENERGY PREDICTED BY IDOCK:   -4.87 KCAL/MOL
REMARK 922        TOTAL FREE ENERGY PREDICTED BY IDOCK:   -7.56 KCAL/MOL
REMARK 923 INTER-LIGAND FREE ENERGY PREDICTED BY IDOCK:   -6.85 KCAL/MOL
REMARK 924 INTRA-LIGAND FREE ENERGY PREDICTED BY IDOCK:   -0.70 KCAL/MOL
REMARK 927      BINDING AFFINITY PREDICTED BY RF-SCORE:    0.00 PKD
ROOT
HETATM    1  F   UNL     1      -9.254  17.750  67.609  1.00  0.00    -0.242 F  
HETATM    2  C   UNL     1      -9.250  16.469  67.146  1.00  0.00    -0.214 C  
HETATM    3  F   UNL     1      -9.743  16.529  65.879  1.00  0.00    -0.303 F  
HETATM    4  F   UNL     1      -7.939  16.122  67.026  1.00  0.00    -0.169 F  
HETATM    5  C   UNL     1     -10.022  15.512  68.023  1.00  0.00    -0.214 A  
HETATM    6  C   UNL     1     -10.661  15.938  69.197  1.00  0.00    -0.259 A  
HETATM    7  C   UNL     1     -11.384  15.035  69.995  1.00  0.00    -0.305 A  
HETATM    8  C   UNL     1     -12.081  15.503  71.251  1.00  0.00    -0.386 C  
HETATM    9  C   UNL     1     -11.457  13.682  69.608  1.00  0.00    -0.286 A  
HETATM   10  C   UNL     1     -10.819  13.232  68.445  1.00  0.00    -0.279 A  
HETATM   11  F   UNL     1     -11.643  14.852  72.366  1.00  0.00    -0.431 F  
HETATM   12  F   UNL     1     -11.909  16.829  71.504  1.00  0.00    -0.361 F  
HETATM   13  F   UNL     1     -13.427  15.306  71.205  1.00  0.00    -0.426 F  
HETATM   14  C   UNL     1     -10.112  14.159  67.662  1.00  0.00    -0.236 A  
ENDROOT
BRANCH  10  15
HETATM   15  C   UNL     1     -10.881  11.835  68.014  1.00  0.00    -0.213 A  
HETATM   16  N   UNL     1     -10.095  11.273  67.084  1.00  0.00    -0.189 NA 
HETATM   17  N   UNL     1     -10.426   9.945  67.145  1.00  0.00    -0.243 NA 
HETATM   18  N   UNL     1     -11.804  10.981  68.549  1.00  0.00    -0.520 NA 
HETATM   19  C   UNL     1     -11.521   9.838  67.980  1.00  0.00     0.409 A  
BRANCH  17  20
HETATM   20  C   UNL     1      -9.796   8.943  66.392  1.00  0.00    -0.283 C  
HETATM   21  C   UNL     1      -9.260   7.758  66.746  1.00  0.00    -0.202 C  
BRANCH  21  22
HETATM   22  C   UNL     1      -9.032   7.277  68.130  1.00  0.00    -0.132 C  
HETATM   23  N   UNL     1      -9.966   6.393  68.617  1.00  0.00    -0.141 N  
HETATM   24  O   UNL     1      -8.054   7.601  68.796  1.00  0.00    -0.123 OA 
HETATM   25  H   UNL     1     -10.735   6.042  68.045  1.00  0.00     0.000 HD 
BRANCH  23  26
HETATM   26  N   UNL     1      -9.787   6.003  69.964  1.00  0.00    -0.167 NA 
HETATM   27  H   UNL     1      -9.686   6.673  70.726  1.00  0.00     0.000 HD 
BRANCH  26  28
HETATM   28  C   UNL     1      -9.761   4.601  70.165  1.00  0.00    -0.215 A  
HETATM   29  N   UNL     1      -9.855   4.067  71.408  1.00  0.00    -0.188 NA 
HETATM   30  C   UNL     1      -9.736   2.715  71.479  1.00  0.00    -0.152 A  
HETATM   31  C   UNL     1      -9.517   1.914  70.369  1.00  0.00    -0.084 A  
HETATM   32  N   UNL     1      -9.408   2.425  69.127  1.00  0.00    -0.139 NA 
HETATM   33  C   UNL     1      -9.525   3.775  69.057  1.00  0.00    -0.163 A  
ENDBRANCH  26  28
ENDBRANCH  23  26
ENDBRANCH  21  22
ENDBRANCH  17  20
ENDBRANCH  10  15
TORSDOF 5
ENDMDL
MODEL      241
REMARK 921   NORMALIZED FREE ENERGY PREDICTED BY IDOCK:   -4.87 KCAL/MOL
REMARK 922        TOTAL FREE ENERGY PREDICTED BY IDOCK:   -7.55 KCAL/MOL
REMARK 923 INTER-LIGAND FREE ENERGY PREDICTED BY IDOCK:   -6.55 KCAL/MOL
REMARK 924 INTRA-LIGAND FREE ENERGY PREDICTED BY IDOCK:   -1.01 KCAL/MOL
REMARK 927      BINDING AFFINITY PREDICTED BY RF-SCORE:    0.00 PKD
ROOT
HETATM    1  F   UNL     1     -12.017  15.287  64.274  1.00  0.00    -0.435 F  
HETATM    2  C   UNL     1     -12.317  14.139  64.945  1.00  0.00    -0.430 C  
HETATM    3  F   UNL     1     -13.527  14.356  65.529  1.00  0.00    -0.428 F  
HETATM    4  F   UNL     1     -12.523  13.193  63.989  1.00  0.00    -0.428 F  
HETATM    5  C   UNL     1     -11.258  13.732  65.941  1.00  0.00    -0.305 A  
HETATM    6  C   UNL     1     -10.088  14.484  66.124  1.00  0.00    -0.319 A  
HETATM    7  C   UNL     1      -9.118  14.095  67.063  1.00  0.00    -0.255 A  
HETATM    8  C   UNL     1      -7.866  14.916  67.264  1.00  0.00    -0.206 C  
HETATM    9  C   UNL     1      -9.327  12.927  67.824  1.00  0.00    -0.203 A  
HETATM   10  C   UNL     1     -10.483  12.155  67.652  1.00  0.00    -0.225 A  
HETATM   11  F   UNL     1      -6.728  14.202  67.029  1.00  0.00    -0.055 F  
HETATM   12  F   UNL     1      -7.795  16.005  66.449  1.00  0.00    -0.285 F  
HETATM   13  F   UNL     1      -7.754  15.396  68.533  1.00  0.00    -0.118 F  
HETATM   14  C   UNL     1     -11.440  12.574  66.713  1.00  0.00    -0.422 A  
ENDROOT
BRANCH  10  15
HETATM   15  C   UNL     1     -10.732  10.941  68.430  1.00  0.00    -0.203 A  
HETATM   16  N   UNL     1     -11.037  10.903  69.735  1.00  0.00    -0.269 NA 
HETATM   17  N   UNL     1     -11.320   9.582  69.959  1.00  0.00    -0.208 NA 
HETATM   18  N   UNL     1     -10.643   9.709  67.845  1.00  0.00    -0.247 NA 
HETATM   19  C   UNL     1     -10.982   8.894  68.810  1.00  0.00     0.100 A  
BRANCH  17  20
HETATM   20  C   UNL     1     -11.769   9.072  71.187  1.00  0.00    -0.302 C  
HETATM   21  C   UNL     1     -11.116   8.474  72.202  1.00  0.00    -0.436 C  
BRANCH  21  22
HETATM   22  C   UNL     1      -9.706   8.017  72.190  1.00  0.00    -0.221 C  
HETATM   23  N   UNL     1      -8.973   8.368  71.080  1.00  0.00    -0.153 N  
HETATM   24  O   UNL     1      -9.194   7.403  73.122  1.00  0.00    -0.146 OA 
HETATM   25  H   UNL     1      -9.355   8.955  70.339  1.00  0.00     0.000 HD 
BRANCH  23  26
HETATM   26  N   UNL     1      -7.654   7.859  71.037  1.00  0.00    -0.080 NA 
HETATM   27  H   UNL     1      -7.234   7.345  71.811  1.00  0.00     0.000 HD 
BRANCH  26  28
HETATM   28  C   UNL     1      -6.968   8.124  69.827  1.00  0.00    -0.052 A  
HETATM   29  N   UNL     1      -7.116   9.308  69.181  1.00  0.00    -0.061 NA 
HETATM   30  C   UNL     1      -6.471   9.413  67.989  1.00  0.00    -0.062 A  
HETATM   31  C   UNL     1      -5.717   8.386  67.443  1.00  0.00    -0.039 A  
HETATM   32  N   UNL     1      -5.567   7.198  68.062  1.00  0.00    -0.020 NA 
HETATM   33  C   UNL     1      -6.213   7.093  69.250  1.00  0.00    -0.035 A  
ENDBRANCH  26  28
ENDBRANCH  23  26
ENDBRANCH  21  22
ENDBRANCH  17  20
ENDBRANCH  10  15
TORSDOF 5
ENDMDL
MODEL      242
REMARK 921   NORMALIZED FREE ENERGY PREDICTED BY IDOCK:   -4.87 KCAL/MOL
REMARK 922        TOTAL FREE ENERGY PREDICTED BY IDOCK:   -7.55 KCAL/MOL
REMARK 923 INTER-LIGAND FREE ENERGY PREDICTED BY IDOCK:   -6.80 KCAL/MOL
REMARK 924 INTRA-LIGAND FREE ENERGY PREDICTED BY IDOCK:   -0.75 KCAL/MOL
REMARK 927      BINDING AFFINITY PREDICTED BY RF-SCORE:    0.00 PKD
ROOT
HETATM    1  F   UNL     1     -12.016  15.287  64.273  1.00  0.00    -0.435 F  
HETATM    2  C   UNL     1     -12.315  14.136  64.939  1.00  0.00    -0.430 C  
HETATM    3  F   UNL     1     -13.517  14.355  65.537  1.00  0.00    -0.428 F  
HETATM    4  F   UNL     1     -12.536  13.199  63.977  1.00  0.00    -0.428 F  
HETATM    5  C   UNL     1     -11.247  13.716  65.920  1.00  0.00    -0.311 A  
HETATM    6  C   UNL     1     -10.071  14.459  66.095  1.00  0.00    -0.323 A  
HETATM    7  C   UNL     1      -9.093  14.058  67.020  1.00  0.00    -0.256 A  
HETATM    8  C   UNL     1      -7.834  14.871  67.214  1.00  0.00    -0.206 C  
HETATM    9  C   UNL     1      -9.300  12.886  67.774  1.00  0.00    -0.203 A  
HETATM   10  C   UNL     1     -10.462  12.121  67.609  1.00  0.00    -0.225 A  
HETATM   11  F   UNL     1      -6.703  14.153  66.961  1.00  0.00    -0.055 F  
HETATM   12  F   UNL     1      -7.767  15.965  66.407  1.00  0.00    -0.272 F  
HETATM   13  F   UNL     1      -7.706  15.340  68.486  1.00  0.00    -0.115 F  
HETATM   14  C   UNL     1     -11.426  12.552  66.684  1.00  0.00    -0.417 A  
ENDROOT
BRANCH  10  15
HETATM   15  C   UNL     1     -10.708  10.902  68.380  1.00  0.00    -0.203 A  
HETATM   16  N   UNL     1     -10.997  10.856  69.688  1.00  0.00    -0.260 NA 
HETATM   17  N   UNL     1     -11.286   9.534  69.906  1.00  0.00    -0.214 NA 
HETATM   18  N   UNL     1     -10.635   9.675  67.784  1.00  0.00    -0.254 NA 
HETATM   19  C   UNL     1     -10.967   8.853  68.747  1.00  0.00     0.100 A  
BRANCH  17  20
HETATM   20  C   UNL     1     -11.723   9.017  71.135  1.00  0.00    -0.302 C  
HETATM   21  C   UNL     1     -11.062   8.402  72.135  1.00  0.00    -0.415 C  
BRANCH  21  22
HETATM   22  C   UNL     1      -9.656   7.932  72.098  1.00  0.00    -0.197 C  
HETATM   23  N   UNL     1      -9.466   6.653  71.630  1.00  0.00    -0.160 N  
HETATM   24  O   UNL     1      -8.706   8.640  72.417  1.00  0.00    -0.336 OA 
HETATM   25  H   UNL     1     -10.234   6.083  71.275  1.00  0.00     0.000 HD 
BRANCH  23  26
HETATM   26  N   UNL     1      -8.133   6.182  71.675  1.00  0.00    -0.110 NA 
HETATM   27  H   UNL     1      -7.347   6.771  71.946  1.00  0.00     0.000 HD 
BRANCH  26  28
HETATM   28  C   UNL     1      -7.986   4.820  71.311  1.00  0.00    -0.096 A  
HETATM   29  N   UNL     1      -8.720   4.278  70.309  1.00  0.00    -0.076 NA 
HETATM   30  C   UNL     1      -8.548   2.945  70.108  1.00  0.00    -0.061 A  
HETATM   31  C   UNL     1      -7.694   2.167  70.874  1.00  0.00    -0.035 A  
HETATM   32  N   UNL     1      -6.964   2.684  71.882  1.00  0.00    -0.029 NA 
HETATM   33  C   UNL     1      -7.138   4.014  72.084  1.00  0.00    -0.051 A  
ENDBRANCH  26  28
ENDBRANCH  23  26
ENDBRANCH  21  22
ENDBRANCH  17  20
ENDBRANCH  10  15
TORSDOF 5
ENDMDL
MODEL      243
REMARK 921   NORMALIZED FREE ENERGY PREDICTED BY IDOCK:   -4.85 KCAL/MOL
REMARK 922        TOTAL FREE ENERGY PREDICTED BY IDOCK:   -7.53 KCAL/MOL
REMARK 923 INTER-LIGAND FREE ENERGY PREDICTED BY IDOCK:   -6.80 KCAL/MOL
REMARK 924 INTRA-LIGAND FREE ENERGY PREDICTED BY IDOCK:   -0.73 KCAL/MOL
REMARK 927      BINDING AFFINITY PREDICTED BY RF-SCORE:    0.00 PKD
ROOT
HETATM    1  F   UNL     1     -11.951  15.224  66.221  1.00  0.00    -0.129 F  
HETATM    2  C   UNL     1     -11.556  13.934  66.409  1.00  0.00    -0.367 C  
HETATM    3  F   UNL     1     -12.238  13.199  65.489  1.00  0.00    -0.389 F  
HETATM    4  F   UNL     1     -10.248  13.888  66.035  1.00  0.00    -0.275 F  
HETATM    5  C   UNL     1     -11.771  13.440  67.819  1.00  0.00    -0.394 A  
HETATM    6  C   UNL     1     -12.319  14.263  68.814  1.00  0.00    -0.086 A  
HETATM    7  C   UNL     1     -12.522  13.782  70.119  1.00  0.00    -0.332 A  
HETATM    8  C   UNL     1     -13.125  14.670  71.183  1.00  0.00    -0.366 C  
HETATM    9  C   UNL     1     -12.159  12.456  70.427  1.00  0.00    -0.381 A  
HETATM   10  C   UNL     1     -11.601  11.619  69.453  1.00  0.00    -0.392 A  
HETATM   11  F   UNL     1     -12.303  14.830  72.259  1.00  0.00    -0.358 F  
HETATM   12  F   UNL     1     -13.409  15.926  70.743  1.00  0.00    -0.503 F  
HETATM   13  F   UNL     1     -14.295  14.175  71.673  1.00  0.00    -0.461 F  
HETATM   14  C   UNL     1     -11.419  12.123  68.155  1.00  0.00    -0.375 A  
ENDROOT
BRANCH  10  15
HETATM   15  C   UNL     1     -11.218  10.236  69.740  1.00  0.00    -0.282 A  
HETATM   16  N   UNL     1     -10.015   9.697  69.500  1.00  0.00    -0.195 NA 
HETATM   17  N   UNL     1     -10.102   8.454  70.070  1.00  0.00    -0.189 NA 
HETATM   18  N   UNL     1     -12.120   9.363  70.281  1.00  0.00     0.032 NA 
HETATM   19  C   UNL     1     -11.417   8.272  70.448  1.00  0.00    -0.122 A  
BRANCH  17  20
HETATM   20  C   UNL     1      -9.036   7.543  70.132  1.00  0.00    -0.147 C  
HETATM   21  C   UNL     1      -8.443   6.791  69.185  1.00  0.00    -0.128 C  
BRANCH  21  22
HETATM   22  C   UNL     1      -8.918   6.597  67.794  1.00  0.00    -0.112 C  
HETATM   23  N   UNL     1      -7.938   6.454  66.841  1.00  0.00    -0.108 N  
HETATM   24  O   UNL     1     -10.108   6.520  67.500  1.00  0.00    -0.133 OA 
HETATM   25  H   UNL     1      -6.946   6.423  67.080  1.00  0.00     0.000 HD 
BRANCH  23  26
HETATM   26  N   UNL     1      -8.398   6.351  65.507  1.00  0.00    -0.145 NA 
HETATM   27  H   UNL     1      -8.928   7.090  65.046  1.00  0.00     0.000 HD 
BRANCH  26  28
HETATM   28  C   UNL     1      -8.058   5.134  64.867  1.00  0.00    -0.119 A  
HETATM   29  N   UNL     1      -7.891   3.990  65.576  1.00  0.00    -0.089 NA 
HETATM   30  C   UNL     1      -7.487   2.908  64.862  1.00  0.00    -0.075 A  
HETATM   31  C   UNL     1      -7.240   2.949  63.498  1.00  0.00    -0.049 A  
HETATM   32  N   UNL     1      -7.388   4.077  62.777  1.00  0.00    -0.048 NA 
HETATM   33  C   UNL     1      -7.789   5.159  63.492  1.00  0.00    -0.084 A  
ENDBRANCH  26  28
ENDBRANCH  23  26
ENDBRANCH  21  22
ENDBRANCH  17  20
ENDBRANCH  10  15
TORSDOF 5
ENDMDL
MODEL      244
REMARK 921   NORMALIZED FREE ENERGY PREDICTED BY IDOCK:   -4.84 KCAL/MOL
REMARK 922        TOTAL FREE ENERGY PREDICTED BY IDOCK:   -7.52 KCAL/MOL
REMARK 923 INTER-LIGAND FREE ENERGY PREDICTED BY IDOCK:   -6.93 KCAL/MOL
REMARK 924 INTRA-LIGAND FREE ENERGY PREDICTED BY IDOCK:   -0.59 KCAL/MOL
REMARK 927      BINDING AFFINITY PREDICTED BY RF-SCORE:    0.00 PKD
ROOT
HETATM    1  F   UNL     1      -8.174   5.394  66.866  1.00  0.00    -0.104 F  
HETATM    2  C   UNL     1      -8.925   6.393  66.322  1.00  0.00    -0.156 C  
HETATM    3  F   UNL     1      -8.484   6.534  65.043  1.00  0.00    -0.139 F  
HETATM    4  F   UNL     1     -10.191   5.899  66.234  1.00  0.00    -0.207 F  
HETATM    5  C   UNL     1      -8.863   7.684  67.103  1.00  0.00    -0.129 A  
HETATM    6  C   UNL     1      -8.101   7.802  68.275  1.00  0.00    -0.124 A  
HETATM    7  C   UNL     1      -8.046   9.015  68.982  1.00  0.00    -0.107 A  
HETATM    8  C   UNL     1      -7.213   9.139  70.237  1.00  0.00    -0.075 C  
HETATM    9  C   UNL     1      -8.777  10.122  68.506  1.00  0.00    -0.123 A  
HETATM   10  C   UNL     1      -9.552  10.025  67.343  1.00  0.00    -0.182 A  
HETATM   11  F   UNL     1      -7.954   9.495  71.324  1.00  0.00    -0.130 F  
HETATM   12  F   UNL     1      -6.578   7.986  70.582  1.00  0.00    -0.037 F  
HETATM   13  F   UNL     1      -6.236  10.080  70.123  1.00  0.00    -0.044 F  
HETATM   14  C   UNL     1      -9.580   8.803  66.652  1.00  0.00    -0.283 A  
ENDROOT
BRANCH  10  15
HETATM   15  C   UNL     1     -10.317  11.157  66.821  1.00  0.00    -0.241 A  
HETATM   16  N   UNL     1      -9.834  12.119  66.022  1.00  0.00    -0.240 NA 
HETATM   17  N   UNL     1     -10.945  12.847  65.690  1.00  0.00    -0.268 NA 
HETATM   18  N   UNL     1     -11.634  11.319  67.151  1.00  0.00    -0.513 NA 
HETATM   19  C   UNL     1     -11.986  12.377  66.466  1.00  0.00    -0.252 A  
BRANCH  17  20
HETATM   20  C   UNL     1     -10.937  13.928  64.795  1.00  0.00    -0.401 C  
HETATM   21  C   UNL     1     -10.716  15.244  64.980  1.00  0.00    -0.461 C  
BRANCH  21  22
HETATM   22  C   UNL     1     -10.599  15.938  66.285  1.00  0.00    -0.298 C  
HETATM   23  N   UNL     1      -9.800  17.057  66.298  1.00  0.00    -0.289 N  
HETATM   24  O   UNL     1     -11.205  15.578  67.290  1.00  0.00    -0.308 OA 
HETATM   25  H   UNL     1      -9.362  17.424  65.452  1.00  0.00     0.000 HD 
BRANCH  23  26
HETATM   26  N   UNL     1      -9.627  17.666  67.563  1.00  0.00    -0.263 NA 
HETATM   27  H   UNL     1     -10.316  17.594  68.310  1.00  0.00     0.000 HD 
BRANCH  26  28
HETATM   28  C   UNL     1      -8.413  18.383  67.702  1.00  0.00    -0.255 A  
HETATM   29  N   UNL     1      -7.390  17.895  68.447  1.00  0.00    -0.249 NA 
HETATM   30  C   UNL     1      -6.310  18.710  68.571  1.00  0.00    -0.217 A  
HETATM   31  C   UNL     1      -6.241  19.968  67.993  1.00  0.00    -0.239 A  
HETATM   32  N   UNL     1      -7.249  20.477  67.259  1.00  0.00    -0.300 NA 
HETATM   33  C   UNL     1      -8.329  19.663  67.138  1.00  0.00    -0.298 A  
ENDBRANCH  26  28
ENDBRANCH  23  26
ENDBRANCH  21  22
ENDBRANCH  17  20
ENDBRANCH  10  15
TORSDOF 5
ENDMDL
MODEL      245
REMARK 921   NORMALIZED FREE ENERGY PREDICTED BY IDOCK:   -4.84 KCAL/MOL
REMARK 922        TOTAL FREE ENERGY PREDICTED BY IDOCK:   -7.52 KCAL/MOL
REMARK 923 INTER-LIGAND FREE ENERGY PREDICTED BY IDOCK:   -6.47 KCAL/MOL
REMARK 924 INTRA-LIGAND FREE ENERGY PREDICTED BY IDOCK:   -1.04 KCAL/MOL
REMARK 927      BINDING AFFINITY PREDICTED BY RF-SCORE:    0.00 PKD
ROOT
HETATM    1  F   UNL     1     -12.120  15.053  65.856  1.00  0.00    -0.225 F  
HETATM    2  C   UNL     1     -11.598  13.824  66.131  1.00  0.00    -0.352 C  
HETATM    3  F   UNL     1     -12.479  13.227  66.978  1.00  0.00    -0.359 F  
HETATM    4  F   UNL     1     -11.661  13.125  64.964  1.00  0.00    -0.325 F  
HETATM    5  C   UNL     1     -10.198  13.880  66.694  1.00  0.00    -0.276 A  
HETATM    6  C   UNL     1      -9.531  15.097  66.894  1.00  0.00    -0.253 A  
HETATM    7  C   UNL     1      -8.232  15.130  67.430  1.00  0.00    -0.215 A  
HETATM    8  C   UNL     1      -7.523  16.446  67.655  1.00  0.00    -0.133 C  
HETATM    9  C   UNL     1      -7.595  13.918  67.762  1.00  0.00    -0.175 A  
HETATM   10  C   UNL     1      -8.238  12.690  67.562  1.00  0.00    -0.178 A  
HETATM   11  F   UNL     1      -6.349  16.531  66.969  1.00  0.00    -0.167 F  
HETATM   12  F   UNL     1      -8.256  17.528  67.274  1.00  0.00    -0.197 F  
HETATM   13  F   UNL     1      -7.211  16.653  68.964  1.00  0.00    -0.175 F  
HETATM   14  C   UNL     1      -9.539  12.689  67.034  1.00  0.00    -0.219 A  
ENDROOT
BRANCH  10  15
HETATM   15  C   UNL     1      -7.605  11.415  67.901  1.00  0.00    -0.108 A  
HETATM   16  N   UNL     1      -7.063  11.108  69.088  1.00  0.00    -0.106 NA 
HETATM   17  N   UNL     1      -6.746   9.782  68.962  1.00  0.00    -0.049 NA 
HETATM   18  N   UNL     1      -7.507  10.418  66.972  1.00  0.00    -0.095 NA 
HETATM   19  C   UNL     1      -6.953   9.439  67.640  1.00  0.00    -0.081 A  
BRANCH  17  20
HETATM   20  C   UNL     1      -6.215   8.999  69.999  1.00  0.00    -0.037 C  
HETATM   21  C   UNL     1      -6.634   7.847  70.558  1.00  0.00    -0.037 C  
BRANCH  21  22
HETATM   22  C   UNL     1      -7.936   7.180  70.320  1.00  0.00    -0.116 C  
HETATM   23  N   UNL     1      -9.051   7.898  70.685  1.00  0.00    -0.152 N  
HETATM   24  O   UNL     1      -8.035   6.077  69.790  1.00  0.00    -0.102 OA 
HETATM   25  H   UNL     1      -8.992   8.852  71.042  1.00  0.00     0.000 HD 
BRANCH  23  26
HETATM   26  N   UNL     1     -10.284   7.223  70.532  1.00  0.00    -0.196 NA 
HETATM   27  H   UNL     1     -10.358   6.289  70.131  1.00  0.00     0.000 HD 
BRANCH  26  28
HETATM   28  C   UNL     1     -11.408   7.957  70.984  1.00  0.00    -0.274 A  
HETATM   29  N   UNL     1     -11.366   9.308  71.095  1.00  0.00    -0.311 NA 
HETATM   30  C   UNL     1     -12.477   9.891  71.616  1.00  0.00    -0.415 A  
HETATM   31  C   UNL     1     -13.588   9.172  72.027  1.00  0.00    -0.459 A  
HETATM   32  N   UNL     1     -13.647   7.829  71.937  1.00  0.00    -0.304 NA 
HETATM   33  C   UNL     1     -12.536   7.247  71.419  1.00  0.00    -0.383 A  
ENDBRANCH  26  28
ENDBRANCH  23  26
ENDBRANCH  21  22
ENDBRANCH  17  20
ENDBRANCH  10  15
TORSDOF 5
ENDMDL
MODEL      246
REMARK 921   NORMALIZED FREE ENERGY PREDICTED BY IDOCK:   -4.81 KCAL/MOL
REMARK 922        TOTAL FREE ENERGY PREDICTED BY IDOCK:   -7.48 KCAL/MOL
REMARK 923 INTER-LIGAND FREE ENERGY PREDICTED BY IDOCK:   -6.04 KCAL/MOL
REMARK 924 INTRA-LIGAND FREE ENERGY PREDICTED BY IDOCK:   -1.44 KCAL/MOL
REMARK 927      BINDING AFFINITY PREDICTED BY RF-SCORE:    0.00 PKD
ROOT
HETATM    1  F   UNL     1     -10.565   4.165  74.380  1.00  0.00    -0.231 F  
HETATM    2  C   UNL     1     -10.191   3.632  73.183  1.00  0.00    -0.155 C  
HETATM    3  F   UNL     1      -8.968   3.072  73.392  1.00  0.00    -0.083 F  
HETATM    4  F   UNL     1     -11.046   2.598  72.954  1.00  0.00    -0.229 F  
HETATM    5  C   UNL     1     -10.184   4.635  72.055  1.00  0.00    -0.258 A  
HETATM    6  C   UNL     1     -10.542   5.976  72.257  1.00  0.00    -0.256 A  
HETATM    7  C   UNL     1     -10.520   6.899  71.197  1.00  0.00    -0.234 A  
HETATM    8  C   UNL     1     -10.894   8.345  71.425  1.00  0.00    -0.244 C  
HETATM    9  C   UNL     1     -10.138   6.461  69.914  1.00  0.00    -0.206 A  
HETATM   10  C   UNL     1      -9.785   5.125  69.685  1.00  0.00    -0.255 A  
HETATM   11  F   UNL     1     -11.945   8.741  70.652  1.00  0.00    -0.277 F  
HETATM   12  F   UNL     1     -11.255   8.615  72.710  1.00  0.00    -0.390 F  
HETATM   13  F   UNL     1      -9.874   9.199  71.140  1.00  0.00    -0.277 F  
HETATM   14  C   UNL     1      -9.808   4.228  70.766  1.00  0.00    -0.265 A  
ENDROOT
BRANCH  10  15
HETATM   15  C   UNL     1      -9.379   4.641  68.365  1.00  0.00    -0.137 A  
HETATM   16  N   UNL     1      -9.510   5.318  67.216  1.00  0.00    -0.122 NA 
HETATM   17  N   UNL     1      -8.861   4.529  66.304  1.00  0.00    -0.112 NA 
HETATM   18  N   UNL     1      -8.833   3.397  68.217  1.00  0.00    -0.108 NA 
HETATM   19  C   UNL     1      -8.549   3.344  66.941  1.00  0.00    -0.114 A  
BRANCH  17  20
HETATM   20  C   UNL     1      -8.672   4.877  64.958  1.00  0.00    -0.149 C  
HETATM   21  C   UNL     1      -8.091   5.947  64.381  1.00  0.00    -0.128 C  
BRANCH  21  22
HETATM   22  C   UNL     1      -7.641   7.179  65.071  1.00  0.00    -0.104 C  
HETATM   23  N   UNL     1      -8.591   7.817  65.834  1.00  0.00    -0.148 N  
HETATM   24  O   UNL     1      -6.487   7.593  65.015  1.00  0.00    -0.038 OA 
HETATM   25  H   UNL     1      -9.529   7.438  65.966  1.00  0.00     0.000 HD 
BRANCH  23  26
HETATM   26  N   UNL     1      -8.179   9.036  66.422  1.00  0.00    -0.110 NA 
HETATM   27  H   UNL     1      -7.222   9.205  66.731  1.00  0.00     0.000 HD 
BRANCH  26  28
HETATM   28  C   UNL     1      -9.210   9.999  66.546  1.00  0.00    -0.150 A  
HETATM   29  N   UNL     1      -9.771  10.277  67.749  1.00  0.00    -0.155 NA 
HETATM   30  C   UNL     1     -10.804  11.159  67.728  1.00  0.00    -0.239 A  
HETATM   31  C   UNL     1     -11.281  11.739  66.563  1.00  0.00    -0.321 A  
HETATM   32  N   UNL     1     -10.746  11.468  65.356  1.00  0.00    -0.285 NA 
HETATM   33  C   UNL     1      -9.716  10.586  65.378  1.00  0.00    -0.257 A  
ENDBRANCH  26  28
ENDBRANCH  23  26
ENDBRANCH  21  22
ENDBRANCH  17  20
ENDBRANCH  10  15
TORSDOF 5
ENDMDL
MODEL      247
REMARK 921   NORMALIZED FREE ENERGY PREDICTED BY IDOCK:   -4.76 KCAL/MOL
REMARK 922        TOTAL FREE ENERGY PREDICTED BY IDOCK:   -7.41 KCAL/MOL
REMARK 923 INTER-LIGAND FREE ENERGY PREDICTED BY IDOCK:   -6.73 KCAL/MOL
REMARK 924 INTRA-LIGAND FREE ENERGY PREDICTED BY IDOCK:   -0.68 KCAL/MOL
REMARK 927      BINDING AFFINITY PREDICTED BY RF-SCORE:    0.00 PKD
ROOT
HETATM    1  F   UNL     1      -9.555  17.234  66.901  1.00  0.00    -0.240 F  
HETATM    2  C   UNL     1      -8.873  16.139  67.340  1.00  0.00    -0.187 C  
HETATM    3  F   UNL     1      -7.566  16.373  67.046  1.00  0.00    -0.158 F  
HETATM    4  F   UNL     1      -8.967  16.163  68.697  1.00  0.00    -0.184 F  
HETATM    5  C   UNL     1      -9.377  14.843  66.750  1.00  0.00    -0.270 A  
HETATM    6  C   UNL     1     -10.450  14.810  65.848  1.00  0.00    -0.324 A  
HETATM    7  C   UNL     1     -10.898  13.595  65.301  1.00  0.00    -0.324 A  
HETATM    8  C   UNL     1     -12.046  13.568  64.319  1.00  0.00    -0.431 C  
HETATM    9  C   UNL     1     -10.259  12.396  65.676  1.00  0.00    -0.285 A  
HETATM   10  C   UNL     1      -9.192  12.403  66.583  1.00  0.00    -0.218 A  
HETATM   11  F   UNL     1     -13.086  12.801  64.752  1.00  0.00    -0.478 F  
HETATM   12  F   UNL     1     -12.571  14.798  64.065  1.00  0.00    -0.489 F  
HETATM   13  F   UNL     1     -11.684  13.063  63.108  1.00  0.00    -0.548 F  
HETATM   14  C   UNL     1      -8.760  13.633  67.106  1.00  0.00    -0.224 A  
ENDROOT
BRANCH  10  15
HETATM   15  C   UNL     1      -8.506  11.176  66.988  1.00  0.00    -0.146 A  
HETATM   16  N   UNL     1      -7.233  11.098  67.401  1.00  0.00    -0.100 NA 
HETATM   17  N   UNL     1      -7.106   9.795  67.803  1.00  0.00    -0.086 NA 
HETATM   18  N   UNL     1      -9.151   9.973  66.949  1.00  0.00    -0.138 NA 
HETATM   19  C   UNL     1      -8.263   9.140  67.428  1.00  0.00    -0.107 A  
BRANCH  17  20
HETATM   20  C   UNL     1      -5.948   9.263  68.389  1.00  0.00    -0.045 C  
HETATM   21  C   UNL     1      -5.659   8.928  69.662  1.00  0.00    -0.033 C  
BRANCH  21  22
HETATM   22  C   UNL     1      -6.485   9.228  70.857  1.00  0.00    -0.080 C  
HETATM   23  N   UNL     1      -6.074   8.643  72.031  1.00  0.00    -0.066 N  
HETATM   24  O   UNL     1      -7.451   9.985  70.827  1.00  0.00    -0.298 OA 
HETATM   25  H   UNL     1      -5.221   8.086  72.093  1.00  0.00     0.000 HD 
BRANCH  23  26
HETATM   26  N   UNL     1      -6.913   8.867  73.147  1.00  0.00    -0.329 NA 
HETATM   27  H   UNL     1      -6.970   9.766  73.625  1.00  0.00     0.000 HD 
BRANCH  26  28
HETATM   28  C   UNL     1      -7.665   7.735  73.545  1.00  0.00    -0.140 A  
HETATM   29  N   UNL     1      -8.950   7.857  73.961  1.00  0.00    -0.237 NA 
HETATM   30  C   UNL     1      -9.541   6.712  74.394  1.00  0.00    -0.278 A  
HETATM   31  C   UNL     1      -8.888   5.490  74.430  1.00  0.00    -0.117 A  
HETATM   32  N   UNL     1      -7.608   5.349  74.032  1.00  0.00    -0.093 NA 
HETATM   33  C   UNL     1      -7.018   6.493  73.603  1.00  0.00    -0.077 A  
ENDBRANCH  26  28
ENDBRANCH  23  26
ENDBRANCH  21  22
ENDBRANCH  17  20
ENDBRANCH  10  15
TORSDOF 5
ENDMDL
MODEL      248
REMARK 921   NORMALIZED FREE ENERGY PREDICTED BY IDOCK:   -4.75 KCAL/MOL
REMARK 922        TOTAL FREE ENERGY PREDICTED BY IDOCK:   -7.41 KCAL/MOL
REMARK 923 INTER-LIGAND FREE ENERGY PREDICTED BY IDOCK:   -6.16 KCAL/MOL
REMARK 924 INTRA-LIGAND FREE ENERGY PREDICTED BY IDOCK:   -1.25 KCAL/MOL
REMARK 927      BINDING AFFINITY PREDICTED BY RF-SCORE:    0.00 PKD
ROOT
HETATM    1  F   UNL     1      -8.801   4.427  63.941  1.00  0.00    -0.117 F  
HETATM    2  C   UNL     1      -8.724   3.883  65.188  1.00  0.00    -0.116 C  
HETATM    3  F   UNL     1      -9.613   2.853  65.200  1.00  0.00    -0.154 F  
HETATM    4  F   UNL     1      -7.489   3.318  65.271  1.00  0.00    -0.070 F  
HETATM    5  C   UNL     1      -8.977   4.880  66.294  1.00  0.00    -0.121 A  
HETATM    6  C   UNL     1      -9.254   6.229  66.024  1.00  0.00    -0.103 A  
HETATM    7  C   UNL     1      -9.497   7.140  67.065  1.00  0.00    -0.192 A  
HETATM    8  C   UNL     1      -9.807   8.588  66.767  1.00  0.00    -0.257 C  
HETATM    9  C   UNL     1      -9.453   6.686  68.399  1.00  0.00    -0.125 A  
HETATM   10  C   UNL     1      -9.170   5.347  68.694  1.00  0.00    -0.139 A  
HETATM   11  F   UNL     1      -8.914   9.444  67.341  1.00  0.00    -0.123 F  
HETATM   12  F   UNL     1      -9.799   8.881  65.437  1.00  0.00    -0.255 F  
HETATM   13  F   UNL     1     -11.034   8.963  67.221  1.00  0.00    -0.335 F  
HETATM   14  C   UNL     1      -8.940   4.457  67.632  1.00  0.00    -0.134 A  
ENDROOT
BRANCH  10  15
HETATM   15  C   UNL     1      -9.122   4.845  70.067  1.00  0.00    -0.109 A  
HETATM   16  N   UNL     1      -8.532   5.463  71.100  1.00  0.00    -0.123 NA 
HETATM   17  N   UNL     1      -8.883   4.693  72.177  1.00  0.00    -0.122 NA 
HETATM   18  N   UNL     1      -9.690   3.644  70.390  1.00  0.00    -0.179 NA 
HETATM   19  C   UNL     1      -9.505   3.563  71.683  1.00  0.00    -0.147 A  
BRANCH  17  20
HETATM   20  C   UNL     1      -8.550   5.000  73.505  1.00  0.00    -0.108 C  
HETATM   21  C   UNL     1      -8.550   6.165  74.183  1.00  0.00    -0.117 C  
BRANCH  21  22
HETATM   22  C   UNL     1      -8.742   7.516  73.604  1.00  0.00    -0.207 C  
HETATM   23  N   UNL     1      -9.555   7.583  72.497  1.00  0.00    -0.156 N  
HETATM   24  O   UNL     1      -8.252   8.529  74.096  1.00  0.00    -0.334 OA 
HETATM   25  H   UNL     1     -10.044   6.766  72.130  1.00  0.00     0.000 HD 
BRANCH  23  26
HETATM   26  N   UNL     1      -9.667   8.861  71.902  1.00  0.00    -0.313 NA 
HETATM   27  H   UNL     1      -8.858   9.433  71.662  1.00  0.00     0.000 HD 
BRANCH  26  28
HETATM   28  C   UNL     1     -11.001   9.279  71.669  1.00  0.00    -0.363 A  
HETATM   29  N   UNL     1     -12.038   8.730  72.350  1.00  0.00    -0.345 NA 
HETATM   30  C   UNL     1     -13.275   9.154  71.981  1.00  0.00    -0.441 A  
HETATM   31  C   UNL     1     -13.489  10.076  70.968  1.00  0.00    -0.189 A  
HETATM   32  N   UNL     1     -12.474  10.625  70.272  1.00  0.00    -0.326 NA 
HETATM   33  C   UNL     1     -11.239  10.199  70.639  1.00  0.00    -0.340 A  
ENDBRANCH  26  28
ENDBRANCH  23  26
ENDBRANCH  21  22
ENDBRANCH  17  20
ENDBRANCH  10  15
TORSDOF 5
ENDMDL
MODEL      249
REMARK 921   NORMALIZED FREE ENERGY PREDICTED BY IDOCK:   -4.75 KCAL/MOL
REMARK 922        TOTAL FREE ENERGY PREDICTED BY IDOCK:   -7.40 KCAL/MOL
REMARK 923 INTER-LIGAND FREE ENERGY PREDICTED BY IDOCK:   -6.60 KCAL/MOL
REMARK 924 INTRA-LIGAND FREE ENERGY PREDICTED BY IDOCK:   -0.80 KCAL/MOL
REMARK 927      BINDING AFFINITY PREDICTED BY RF-SCORE:    0.00 PKD
ROOT
HETATM    1  F   UNL     1      -8.530  15.873  67.148  1.00  0.00    -0.170 F  
HETATM    2  C   UNL     1      -8.261  14.570  67.442  1.00  0.00    -0.202 C  
HETATM    3  F   UNL     1      -6.963  14.369  67.087  1.00  0.00    -0.194 F  
HETATM    4  F   UNL     1      -8.300  14.480  68.800  1.00  0.00    -0.148 F  
HETATM    5  C   UNL     1      -9.202  13.597  66.772  1.00  0.00    -0.251 A  
HETATM    6  C   UNL     1     -10.245  14.032  65.941  1.00  0.00    -0.332 A  
HETATM    7  C   UNL     1     -11.105  13.112  65.318  1.00  0.00    -0.304 A  
HETATM    8  C   UNL     1     -12.218  13.586  64.414  1.00  0.00    -0.390 C  
HETATM    9  C   UNL     1     -10.915  11.734  65.542  1.00  0.00    -0.344 A  
HETATM   10  C   UNL     1      -9.886  11.276  66.376  1.00  0.00    -0.243 A  
HETATM   11  F   UNL     1     -13.448  13.184  64.843  1.00  0.00    -0.190 F  
HETATM   12  F   UNL     1     -12.288  14.942  64.306  1.00  0.00    -0.489 F  
HETATM   13  F   UNL     1     -12.092  13.119  63.141  1.00  0.00    -0.598 F  
HETATM   14  C   UNL     1      -9.037  12.219  66.977  1.00  0.00    -0.201 A  
ENDROOT
BRANCH  10  15
HETATM   15  C   UNL     1      -9.660   9.852  66.624  1.00  0.00    -0.184 A  
HETATM   16  N   UNL     1      -8.486   9.218  66.500  1.00  0.00    -0.125 NA 
HETATM   17  N   UNL     1      -8.747   7.962  66.979  1.00  0.00    -0.126 NA 
HETATM   18  N   UNL     1     -10.692   9.039  66.999  1.00  0.00    -0.196 NA 
HETATM   19  C   UNL     1     -10.111   7.881  67.184  1.00  0.00    -0.258 A  
BRANCH  17  20
HETATM   20  C   UNL     1      -7.779   6.956  67.115  1.00  0.00    -0.108 C  
HETATM   21  C   UNL     1      -7.205   6.404  68.203  1.00  0.00    -0.085 C  
BRANCH  21  22
HETATM   22  C   UNL     1      -7.334   6.883  69.600  1.00  0.00    -0.086 C  
HETATM   23  N   UNL     1      -7.287   5.911  70.571  1.00  0.00    -0.082 N  
HETATM   24  O   UNL     1      -7.431   8.071  69.892  1.00  0.00    -0.075 OA 
HETATM   25  H   UNL     1      -7.115   4.929  70.353  1.00  0.00     0.000 HD 
BRANCH  23  26
HETATM   26  N   UNL     1      -7.493   6.365  71.895  1.00  0.00    -0.092 NA 
HETATM   27  H   UNL     1      -6.767   6.826  72.442  1.00  0.00     0.000 HD 
BRANCH  26  28
HETATM   28  C   UNL     1      -8.797   6.124  72.395  1.00  0.00    -0.136 A  
HETATM   29  N   UNL     1      -9.445   7.053  73.141  1.00  0.00    -0.148 NA 
HETATM   30  C   UNL     1     -10.655   6.674  73.631  1.00  0.00    -0.300 A  
HETATM   31  C   UNL     1     -11.204   5.421  73.409  1.00  0.00    -0.211 A  
HETATM   32  N   UNL     1     -10.571   4.480  72.681  1.00  0.00    -0.195 NA 
HETATM   33  C   UNL     1      -9.363   4.858  72.194  1.00  0.00    -0.136 A  
ENDBRANCH  26  28
ENDBRANCH  23  26
ENDBRANCH  21  22
ENDBRANCH  17  20
ENDBRANCH  10  15
TORSDOF 5
ENDMDL
MODEL      250
REMARK 921   NORMALIZED FREE ENERGY PREDICTED BY IDOCK:   -4.69 KCAL/MOL
REMARK 922        TOTAL FREE ENERGY PREDICTED BY IDOCK:   -7.33 KCAL/MOL
REMARK 923 INTER-LIGAND FREE ENERGY PREDICTED BY IDOCK:   -6.10 KCAL/MOL
REMARK 924 INTRA-LIGAND FREE ENERGY PREDICTED BY IDOCK:   -1.23 KCAL/MOL
REMARK 927      BINDING AFFINITY PREDICTED BY RF-SCORE:    0.00 PKD
ROOT
HETATM    1  F   UNL     1      -6.170  12.406  66.727  1.00  0.00    -0.138 F  
HETATM    2  C   UNL     1      -6.444  11.111  67.051  1.00  0.00    -0.107 C  
HETATM    3  F   UNL     1      -5.406  10.379  66.563  1.00  0.00    -0.038 F  
HETATM    4  F   UNL     1      -6.351  11.041  68.407  1.00  0.00    -0.052 F  
HETATM    5  C   UNL     1      -7.782  10.635  66.538  1.00  0.00    -0.137 A  
HETATM    6  C   UNL     1      -8.636  11.475  65.810  1.00  0.00     0.059 A  
HETATM    7  C   UNL     1      -9.873  11.011  65.332  1.00  0.00    -0.301 A  
HETATM    8  C   UNL     1     -10.782  11.918  64.536  1.00  0.00    -0.312 C  
HETATM    9  C   UNL     1     -10.257   9.682  65.599  1.00  0.00    -0.104 A  
HETATM   10  C   UNL     1      -9.425   8.826  66.333  1.00  0.00    -0.291 A  
HETATM   11  F   UNL     1     -12.005  12.075  65.119  1.00  0.00    -0.407 F  
HETATM   12  F   UNL     1     -10.285  13.174  64.372  1.00  0.00    -0.371 F  
HETATM   13  F   UNL     1     -11.021  11.447  63.281  1.00  0.00    -0.430 F  
HETATM   14  C   UNL     1      -8.191   9.316  66.790  1.00  0.00    -0.115 A  
ENDROOT
BRANCH  10  15
HETATM   15  C   UNL     1      -9.794   7.440  66.622  1.00  0.00    -0.193 A  
HETATM   16  N   UNL     1      -9.037   6.365  66.365  1.00  0.00    -0.152 NA 
HETATM   17  N   UNL     1      -9.733   5.337  66.943  1.00  0.00    -0.143 NA 
HETATM   18  N   UNL     1     -11.004   7.145  67.184  1.00  0.00    -0.332 NA 
HETATM   19  C   UNL     1     -10.952   5.848  67.345  1.00  0.00    -0.157 A  
BRANCH  17  20
HETATM   20  C   UNL     1      -9.279   4.010  66.993  1.00  0.00    -0.168 C  
HETATM   21  C   UNL     1      -8.929   3.220  68.027  1.00  0.00    -0.188 C  
BRANCH  21  22
HETATM   22  C   UNL     1      -8.756   3.646  69.437  1.00  0.00    -0.082 C  
HETATM   23  N   UNL     1      -9.886   4.121  70.061  1.00  0.00    -0.216 N  
HETATM   24  O   UNL     1      -7.691   3.546  70.039  1.00  0.00    -0.047 OA 
HETATM   25  H   UNL     1     -10.799   4.125  69.605  1.00  0.00     0.000 HD 
BRANCH  23  26
HETATM   26  N   UNL     1      -9.695   4.601  71.377  1.00  0.00    -0.169 NA 
HETATM   27  H   UNL     1      -9.367   4.011  72.140  1.00  0.00     0.000 HD 
BRANCH  26  28
HETATM   28  C   UNL     1     -10.000   5.975  71.544  1.00  0.00    -0.177 A  
HETATM   29  N   UNL     1      -9.518   6.910  70.689  1.00  0.00    -0.166 NA 
HETATM   30  C   UNL     1      -9.812   8.200  70.999  1.00  0.00    -0.179 A  
HETATM   31  C   UNL     1     -10.544   8.561  72.119  1.00  0.00    -0.349 A  
HETATM   32  N   UNL     1     -11.023   7.649  72.988  1.00  0.00    -0.400 NA 
HETATM   33  C   UNL     1     -10.726   6.362  72.679  1.00  0.00    -0.234 A  
ENDBRANCH  26  28
ENDBRANCH  23  26
ENDBRANCH  21  22
ENDBRANCH  17  20
ENDBRANCH  10  15
TORSDOF 5
ENDMDL
MODEL      251
REMARK 921   NORMALIZED FREE ENERGY PREDICTED BY IDOCK:   -4.68 KCAL/MOL
REMARK 922        TOTAL FREE ENERGY PREDICTED BY IDOCK:   -7.31 KCAL/MOL
REMARK 923 INTER-LIGAND FREE ENERGY PREDICTED BY IDOCK:   -6.00 KCAL/MOL
REMARK 924 INTRA-LIGAND FREE ENERGY PREDICTED BY IDOCK:   -1.31 KCAL/MOL
REMARK 927      BINDING AFFINITY PREDICTED BY RF-SCORE:    0.00 PKD
ROOT
HETATM    1  F   UNL     1      -6.025  12.097  66.739  1.00  0.00    -0.153 F  
HETATM    2  C   UNL     1      -6.163  11.249  67.797  1.00  0.00    -0.052 C  
HETATM    3  F   UNL     1      -5.610  10.070  67.404  1.00  0.00    -0.041 F  
HETATM    4  F   UNL     1      -5.352  11.740  68.774  1.00  0.00    -0.050 F  
HETATM    5  C   UNL     1      -7.593  11.093  68.259  1.00  0.00    -0.111 A  
HETATM    6  C   UNL     1      -8.648  11.778  67.638  1.00  0.00    -0.153 A  
HETATM    7  C   UNL     1      -9.973  11.612  68.074  1.00  0.00    -0.194 A  
HETATM    8  C   UNL     1     -11.107  12.342  67.393  1.00  0.00    -0.282 C  
HETATM    9  C   UNL     1     -10.237  10.750  69.157  1.00  0.00    -0.229 A  
HETATM   10  C   UNL     1      -9.198  10.063  69.799  1.00  0.00    -0.227 A  
HETATM   11  F   UNL     1     -11.801  13.145  68.248  1.00  0.00    -0.327 F  
HETATM   12  F   UNL     1     -10.698  13.149  66.375  1.00  0.00    -0.275 F  
HETATM   13  F   UNL     1     -12.021  11.493  66.847  1.00  0.00    -0.275 F  
HETATM   14  C   UNL     1      -7.885  10.241  69.335  1.00  0.00    -0.157 A  
ENDROOT
BRANCH  10  15
HETATM   15  C   UNL     1      -9.441   9.158  70.923  1.00  0.00    -0.276 A  
HETATM   16  N   UNL     1     -10.538   8.407  71.092  1.00  0.00    -0.208 NA 
HETATM   17  N   UNL     1     -10.234   7.636  72.182  1.00  0.00    -0.198 NA 
HETATM   18  N   UNL     1      -8.523   9.033  71.927  1.00  0.00    -0.346 NA 
HETATM   19  C   UNL     1      -9.046   8.115  72.699  1.00  0.00    -0.250 A  
BRANCH  17  20
HETATM   20  C   UNL     1     -11.068   6.629  72.691  1.00  0.00    -0.257 C  
HETATM   21  C   UNL     1     -10.999   5.285  72.619  1.00  0.00    -0.316 C  
BRANCH  21  22
HETATM   22  C   UNL     1     -10.063   4.499  71.780  1.00  0.00    -0.184 C  
HETATM   23  N   UNL     1      -9.848   4.983  70.511  1.00  0.00    -0.202 N  
HETATM   24  O   UNL     1      -9.474   3.503  72.190  1.00  0.00    -0.112 OA 
HETATM   25  H   UNL     1     -10.257   5.859  70.185  1.00  0.00     0.000 HD 
BRANCH  23  26
HETATM   26  N   UNL     1      -9.019   4.184  69.689  1.00  0.00    -0.092 NA 
HETATM   27  H   UNL     1      -8.262   3.610  70.058  1.00  0.00     0.000 HD 
BRANCH  26  28
HETATM   28  C   UNL     1      -9.333   4.249  68.309  1.00  0.00    -0.152 A  
HETATM   29  N   UNL     1     -10.251   5.129  67.839  1.00  0.00    -0.147 NA 
HETATM   30  C   UNL     1     -10.524   5.042  66.511  1.00  0.00    -0.276 A  
HETATM   31  C   UNL     1      -9.927   4.113  65.674  1.00  0.00    -0.197 A  
HETATM   32  N   UNL     1      -9.021   3.222  66.123  1.00  0.00    -0.140 NA 
HETATM   33  C   UNL     1      -8.750   3.308  67.450  1.00  0.00    -0.119 A  
ENDBRANCH  26  28
ENDBRANCH  23  26
ENDBRANCH  21  22
ENDBRANCH  17  20
ENDBRANCH  10  15
TORSDOF 5
ENDMDL
MODEL      252
REMARK 921   NORMALIZED FREE ENERGY PREDICTED BY IDOCK:   -4.66 KCAL/MOL
REMARK 922        TOTAL FREE ENERGY PREDICTED BY IDOCK:   -7.28 KCAL/MOL
REMARK 923 INTER-LIGAND FREE ENERGY PREDICTED BY IDOCK:   -6.34 KCAL/MOL
REMARK 924 INTRA-LIGAND FREE ENERGY PREDICTED BY IDOCK:   -0.94 KCAL/MOL
REMARK 927      BINDING AFFINITY PREDICTED BY RF-SCORE:    0.00 PKD
ROOT
HETATM    1  F   UNL     1      -5.822  12.675  67.336  1.00  0.00    -0.117 F  
HETATM    2  C   UNL     1      -6.005  11.804  68.368  1.00  0.00    -0.049 C  
HETATM    3  F   UNL     1      -5.126  10.787  68.157  1.00  0.00    -0.038 F  
HETATM    4  F   UNL     1      -5.572  12.454  69.483  1.00  0.00    -0.070 F  
HETATM    5  C   UNL     1      -7.430  11.320  68.499  1.00  0.00    -0.115 A  
HETATM    6  C   UNL     1      -8.440  11.754  67.628  1.00  0.00    -0.149 A  
HETATM    7  C   UNL     1      -9.758  11.284  67.759  1.00  0.00    -0.184 A  
HETATM    8  C   UNL     1     -10.839  11.746  66.809  1.00  0.00    -0.270 C  
HETATM    9  C   UNL     1     -10.063  10.370  68.787  1.00  0.00    -0.198 A  
HETATM   10  C   UNL     1      -9.073   9.930  69.674  1.00  0.00    -0.245 A  
HETATM   11  F   UNL     1     -11.874  12.358  67.452  1.00  0.00    -0.387 F  
HETATM   12  F   UNL     1     -10.399  12.639  65.880  1.00  0.00    -0.259 F  
HETATM   13  F   UNL     1     -11.388  10.719  66.105  1.00  0.00    -0.130 F  
HETATM   14  C   UNL     1      -7.763  10.409  69.513  1.00  0.00    -0.159 A  
ENDROOT
BRANCH  10  15
HETATM   15  C   UNL     1      -9.357   8.978  70.748  1.00  0.00    -0.249 A  
HETATM   16  N   UNL     1     -10.437   8.187  70.820  1.00  0.00    -0.200 NA 
HETATM   17  N   UNL     1     -10.178   7.388  71.902  1.00  0.00    -0.186 NA 
HETATM   18  N   UNL     1      -8.502   8.846  71.806  1.00  0.00    -0.359 NA 
HETATM   19  C   UNL     1      -9.043   7.885  72.511  1.00  0.00    -0.187 A  
BRANCH  17  20
HETATM   20  C   UNL     1     -11.010   6.338  72.320  1.00  0.00    -0.259 C  
HETATM   21  C   UNL     1     -12.348   6.185  72.283  1.00  0.00    -0.106 C  
BRANCH  21  22
HETATM   22  C   UNL     1     -13.341   7.231  71.936  1.00  0.00    -0.223 C  
HETATM   23  N   UNL     1     -13.066   8.495  72.401  1.00  0.00    -0.555 N  
HETATM   24  O   UNL     1     -14.328   7.009  71.240  1.00  0.00    -0.300 OA 
HETATM   25  H   UNL     1     -12.205   8.716  72.902  1.00  0.00     0.000 HD 
BRANCH  23  26
HETATM   26  N   UNL     1     -14.057   9.468  72.136  1.00  0.00    -0.306 NA 
HETATM   27  H   UNL     1     -15.053   9.293  72.264  1.00  0.00     0.000 HD 
BRANCH  26  28
HETATM   28  C   UNL     1     -13.547  10.708  71.678  1.00  0.00    -0.031 A  
HETATM   29  N   UNL     1     -12.588  10.762  70.721  1.00  0.00    -0.363 NA 
HETATM   30  C   UNL     1     -12.121  12.004  70.424  1.00  0.00    -0.321 A  
HETATM   31  C   UNL     1     -12.571  13.153  71.055  1.00  0.00    -0.312 A  
HETATM   32  N   UNL     1     -13.514  13.120  72.017  1.00  0.00    -0.502 NA 
HETATM   33  C   UNL     1     -13.978  11.880  72.315  1.00  0.00     0.486 A  
ENDBRANCH  26  28
ENDBRANCH  23  26
ENDBRANCH  21  22
ENDBRANCH  17  20
ENDBRANCH  10  15
TORSDOF 5
ENDMDL
MODEL      253
REMARK 921   NORMALIZED FREE ENERGY PREDICTED BY IDOCK:   -4.63 KCAL/MOL
REMARK 922        TOTAL FREE ENERGY PREDICTED BY IDOCK:   -7.24 KCAL/MOL
REMARK 923 INTER-LIGAND FREE ENERGY PREDICTED BY IDOCK:   -6.09 KCAL/MOL
REMARK 924 INTRA-LIGAND FREE ENERGY PREDICTED BY IDOCK:   -1.16 KCAL/MOL
REMARK 927      BINDING AFFINITY PREDICTED BY RF-SCORE:    0.00 PKD
ROOT
HETATM    1  F   UNL     1      -5.252  14.194  69.843  1.00  0.00    -0.091 F  
HETATM    2  C   UNL     1      -6.096  14.064  68.781  1.00  0.00    -0.086 C  
HETATM    3  F   UNL     1      -7.095  14.965  68.988  1.00  0.00    -0.100 F  
HETATM    4  F   UNL     1      -5.402  14.512  67.699  1.00  0.00    -0.113 F  
HETATM    5  C   UNL     1      -6.613  12.658  68.593  1.00  0.00    -0.083 A  
HETATM    6  C   UNL     1      -6.232  11.611  69.445  1.00  0.00    -0.100 A  
HETATM    7  C   UNL     1      -6.732  10.311  69.261  1.00  0.00    -0.063 A  
HETATM    8  C   UNL     1      -6.327   9.190  70.191  1.00  0.00    -0.044 C  
HETATM    9  C   UNL     1      -7.622  10.061  68.198  1.00  0.00    -0.084 A  
HETATM   10  C   UNL     1      -8.009  11.088  67.328  1.00  0.00    -0.126 A  
HETATM   11  F   UNL     1      -5.724   8.159  69.536  1.00  0.00    -0.026 F  
HETATM   12  F   UNL     1      -5.452   9.578  71.158  1.00  0.00    -0.038 F  
HETATM   13  F   UNL     1      -7.389   8.649  70.848  1.00  0.00    -0.049 F  
HETATM   14  C   UNL     1      -7.501  12.380  67.543  1.00  0.00    -0.150 A  
ENDROOT
BRANCH  10  15
HETATM   15  C   UNL     1      -8.935  10.862  66.219  1.00  0.00    -0.176 A  
HETATM   16  N   UNL     1      -9.607  11.816  65.560  1.00  0.00    -0.224 NA 
HETATM   17  N   UNL     1     -10.208  11.135  64.535  1.00  0.00    -0.299 NA 
HETATM   18  N   UNL     1      -9.198   9.595  65.779  1.00  0.00    -0.192 NA 
HETATM   19  C   UNL     1     -10.001   9.789  64.764  1.00  0.00     0.084 A  
BRANCH  17  20
HETATM   20  C   UNL     1     -10.968  11.746  63.525  1.00  0.00    -0.424 C  
HETATM   21  C   UNL     1     -11.742  12.849  63.528  1.00  0.00    -0.576 C  
BRANCH  21  22
HETATM   22  C   UNL     1     -12.147  13.633  64.720  1.00  0.00    -0.402 C  
HETATM   23  N   UNL     1     -11.880  13.051  65.937  1.00  0.00    -0.394 N  
HETATM   24  O   UNL     1     -12.648  14.751  64.645  1.00  0.00    -0.519 OA 
HETATM   25  H   UNL     1     -11.382  12.165  66.020  1.00  0.00     0.000 HD 
BRANCH  23  26
HETATM   26  N   UNL     1     -12.344  13.766  67.066  1.00  0.00    -0.441 NA 
HETATM   27  H   UNL     1     -12.703  14.719  67.009  1.00  0.00     0.000 HD 
BRANCH  26  28
HETATM   28  C   UNL     1     -12.266  13.045  68.282  1.00  0.00     0.009 A  
HETATM   29  N   UNL     1     -12.404  13.668  69.479  1.00  0.00    -0.252 NA 
HETATM   30  C   UNL     1     -12.229  12.885  70.575  1.00  0.00    -0.314 A  
HETATM   31  C   UNL     1     -11.914  11.537  70.501  1.00  0.00    -0.344 A  
HETATM   32  N   UNL     1     -11.761  10.901  69.323  1.00  0.00    -0.306 NA 
HETATM   33  C   UNL     1     -11.933  11.684  68.228  1.00  0.00    -0.166 A  
ENDBRANCH  26  28
ENDBRANCH  23  26
ENDBRANCH  21  22
ENDBRANCH  17  20
ENDBRANCH  10  15
TORSDOF 5
ENDMDL
MODEL      254
REMARK 921   NORMALIZED FREE ENERGY PREDICTED BY IDOCK:   -4.62 KCAL/MOL
REMARK 922        TOTAL FREE ENERGY PREDICTED BY IDOCK:   -7.24 KCAL/MOL
REMARK 923 INTER-LIGAND FREE ENERGY PREDICTED BY IDOCK:   -6.20 KCAL/MOL
REMARK 924 INTRA-LIGAND FREE ENERGY PREDICTED BY IDOCK:   -1.03 KCAL/MOL
REMARK 927      BINDING AFFINITY PREDICTED BY RF-SCORE:    0.00 PKD
ROOT
HETATM    1  F   UNL     1     -10.149   9.922  63.113  1.00  0.00    -0.033 F  
HETATM    2  C   UNL     1      -9.380  10.220  64.198  1.00  0.00    -0.287 C  
HETATM    3  F   UNL     1      -9.526   9.173  65.055  1.00  0.00    -0.289 F  
HETATM    4  F   UNL     1      -8.091  10.175  63.763  1.00  0.00    -0.143 F  
HETATM    5  C   UNL     1      -9.728  11.544  64.835  1.00  0.00    -0.264 A  
HETATM    6  C   UNL     1     -10.746  12.364  64.325  1.00  0.00    -0.390 A  
HETATM    7  C   UNL     1     -11.063  13.588  64.937  1.00  0.00    -0.356 A  
HETATM    8  C   UNL     1     -12.169  14.460  64.391  1.00  0.00    -0.458 C  
HETATM    9  C   UNL     1     -10.338  13.995  66.075  1.00  0.00    -0.312 A  
HETATM   10  C   UNL     1      -9.311  13.197  66.597  1.00  0.00    -0.242 A  
HETATM   11  F   UNL     1     -11.729  15.701  64.034  1.00  0.00    -0.357 F  
HETATM   12  F   UNL     1     -12.767  13.945  63.281  1.00  0.00    -0.346 F  
HETATM   13  F   UNL     1     -13.169  14.660  65.292  1.00  0.00    -0.298 F  
HETATM   14  C   UNL     1      -9.023  11.975  65.969  1.00  0.00    -0.021 A  
ENDROOT
BRANCH  10  15
HETATM   15  C   UNL     1      -8.545  13.590  67.780  1.00  0.00    -0.183 A  
HETATM   16  N   UNL     1      -7.718  12.792  68.470  1.00  0.00    -0.131 NA 
HETATM   17  N   UNL     1      -7.134  13.640  69.373  1.00  0.00     0.010 NA 
HETATM   18  N   UNL     1      -8.647  14.855  68.287  1.00  0.00    -0.154 NA 
HETATM   19  C   UNL     1      -7.793  14.850  69.279  1.00  0.00    -0.158 A  
BRANCH  17  20
HETATM   20  C   UNL     1      -6.127  13.258  70.272  1.00  0.00    -0.086 C  
HETATM   21  C   UNL     1      -5.588  12.056  70.557  1.00  0.00    -0.165 C  
BRANCH  21  22
HETATM   22  C   UNL     1      -6.086  10.739  70.092  1.00  0.00    -0.118 C  
HETATM   23  N   UNL     1      -7.416  10.486  70.328  1.00  0.00    -0.232 N  
HETATM   24  O   UNL     1      -5.381   9.934  69.491  1.00  0.00    -0.035 OA 
HETATM   25  H   UNL     1      -8.038  11.180  70.744  1.00  0.00     0.000 HD 
BRANCH  23  26
HETATM   26  N   UNL     1      -7.864   9.196  69.956  1.00  0.00    -0.086 NA 
HETATM   27  H   UNL     1      -7.879   8.873  68.990  1.00  0.00     0.000 HD 
BRANCH  26  28
HETATM   28  C   UNL     1      -8.291   8.393  71.043  1.00  0.00    -0.134 A  
HETATM   29  N   UNL     1      -7.958   8.706  72.320  1.00  0.00    -0.344 NA 
HETATM   30  C   UNL     1      -8.356   7.816  73.267  1.00  0.00    -0.164 A  
HETATM   31  C   UNL     1      -9.046   6.652  72.969  1.00  0.00    -0.127 A  
HETATM   32  N   UNL     1      -9.377   6.316  71.707  1.00  0.00    -0.151 NA 
HETATM   33  C   UNL     1      -8.976   7.204  70.762  1.00  0.00    -0.152 A  
ENDBRANCH  26  28
ENDBRANCH  23  26
ENDBRANCH  21  22
ENDBRANCH  17  20
ENDBRANCH  10  15
TORSDOF 5
ENDMDL
MODEL      255
REMARK 921   NORMALIZED FREE ENERGY PREDICTED BY IDOCK:   -4.59 KCAL/MOL
REMARK 922        TOTAL FREE ENERGY PREDICTED BY IDOCK:   -7.19 KCAL/MOL
REMARK 923 INTER-LIGAND FREE ENERGY PREDICTED BY IDOCK:   -5.87 KCAL/MOL
REMARK 924 INTRA-LIGAND FREE ENERGY PREDICTED BY IDOCK:   -1.32 KCAL/MOL
REMARK 927      BINDING AFFINITY PREDICTED BY RF-SCORE:    0.00 PKD
ROOT
HETATM    1  F   UNL     1     -10.275  12.355  64.597  1.00  0.00    -0.284 F  
HETATM    2  C   UNL     1     -10.727  12.114  65.860  1.00  0.00    -0.266 C  
HETATM    3  F   UNL     1     -10.257  13.137  66.624  1.00  0.00    -0.243 F  
HETATM    4  F   UNL     1     -12.078  12.271  65.806  1.00  0.00    -0.462 F  
HETATM    5  C   UNL     1     -10.323  10.760  66.393  1.00  0.00    -0.306 A  
HETATM    6  C   UNL     1      -9.564   9.862  65.629  1.00  0.00    -0.320 A  
HETATM    7  C   UNL     1      -9.189   8.610  66.146  1.00  0.00    -0.271 A  
HETATM    8  C   UNL     1      -8.359   7.653  65.322  1.00  0.00    -0.115 C  
HETATM    9  C   UNL     1      -9.592   8.256  67.449  1.00  0.00    -0.205 A  
HETATM   10  C   UNL     1     -10.359   9.133  68.227  1.00  0.00    -0.256 A  
HETATM   11  F   UNL     1      -8.983   6.457  65.124  1.00  0.00    -0.076 F  
HETATM   12  F   UNL     1      -8.060   8.125  64.081  1.00  0.00    -0.141 F  
HETATM   13  F   UNL     1      -7.165   7.362  65.907  1.00  0.00    -0.061 F  
HETATM   14  C   UNL     1     -10.711  10.381  67.687  1.00  0.00    -0.335 A  
ENDROOT
BRANCH  10  15
HETATM   15  C   UNL     1     -10.789   8.796  69.584  1.00  0.00    -0.169 A  
HETATM   16  N   UNL     1     -11.353   7.638  69.956  1.00  0.00    -0.138 NA 
HETATM   17  N   UNL     1     -11.431   7.743  71.319  1.00  0.00    -0.264 NA 
HETATM   18  N   UNL     1     -10.651   9.697  70.602  1.00  0.00    -0.299 NA 
HETATM   19  C   UNL     1     -11.076   9.036  71.648  1.00  0.00    -0.363 A  
BRANCH  17  20
HETATM   20  C   UNL     1     -11.892   6.719  72.161  1.00  0.00    -0.290 C  
HETATM   21  C   UNL     1     -11.262   5.959  73.078  1.00  0.00    -0.258 C  
BRANCH  21  22
HETATM   22  C   UNL     1      -9.799   5.893  73.306  1.00  0.00    -0.170 C  
HETATM   23  N   UNL     1      -9.011   6.318  72.262  1.00  0.00    -0.137 N  
HETATM   24  O   UNL     1      -9.304   5.528  74.368  1.00  0.00    -0.125 OA 
HETATM   25  H   UNL     1      -9.405   6.711  71.406  1.00  0.00     0.000 HD 
BRANCH  23  26
HETATM   26  N   UNL     1      -7.617   6.175  72.455  1.00  0.00    -0.098 NA 
HETATM   27  H   UNL     1      -7.114   6.631  73.216  1.00  0.00     0.000 HD 
BRANCH  26  28
HETATM   28  C   UNL     1      -6.981   5.344  71.501  1.00  0.00    -0.066 A  
HETATM   29  N   UNL     1      -6.299   5.871  70.454  1.00  0.00    -0.031 NA 
HETATM   30  C   UNL     1      -5.802   4.974  69.563  1.00  0.00    -0.020 A  
HETATM   31  C   UNL     1      -5.980   3.605  69.687  1.00  0.00    -0.023 A  
HETATM   32  N   UNL     1      -6.664   3.060  70.713  1.00  0.00    -0.032 NA 
HETATM   33  C   UNL     1      -7.162   3.957  71.601  1.00  0.00    -0.046 A  
ENDBRANCH  26  28
ENDBRANCH  23  26
ENDBRANCH  21  22
ENDBRANCH  17  20
ENDBRANCH  10  15
TORSDOF 5
ENDMDL
MODEL      256
REMARK 921   NORMALIZED FREE ENERGY PREDICTED BY IDOCK:   -4.57 KCAL/MOL
REMARK 922        TOTAL FREE ENERGY PREDICTED BY IDOCK:   -7.17 KCAL/MOL
REMARK 923 INTER-LIGAND FREE ENERGY PREDICTED BY IDOCK:   -5.70 KCAL/MOL
REMARK 924 INTRA-LIGAND FREE ENERGY PREDICTED BY IDOCK:   -1.46 KCAL/MOL
REMARK 927      BINDING AFFINITY PREDICTED BY RF-SCORE:    0.00 PKD
ROOT
HETATM    1  F   UNL     1      -7.110  13.863  67.242  1.00  0.00    -0.185 F  
HETATM    2  C   UNL     1      -6.539  13.019  68.148  1.00  0.00    -0.103 C  
HETATM    3  F   UNL     1      -5.424  12.526  67.545  1.00  0.00    -0.087 F  
HETATM    4  F   UNL     1      -6.102  13.810  69.166  1.00  0.00    -0.079 F  
HETATM    5  C   UNL     1      -7.471  11.930  68.623  1.00  0.00    -0.118 A  
HETATM    6  C   UNL     1      -8.791  11.834  68.160  1.00  0.00    -0.169 A  
HETATM    7  C   UNL     1      -9.641  10.807  68.605  1.00  0.00    -0.187 A  
HETATM    8  C   UNL     1     -11.058  10.701  68.092  1.00  0.00    -0.285 C  
HETATM    9  C   UNL     1      -9.154   9.869  69.537  1.00  0.00    -0.237 A  
HETATM   10  C   UNL     1      -7.842   9.951  70.022  1.00  0.00    -0.192 A  
HETATM   11  F   UNL     1     -11.983  10.769  69.091  1.00  0.00    -0.337 F  
HETATM   12  F   UNL     1     -11.390  11.684  67.211  1.00  0.00    -0.304 F  
HETATM   13  F   UNL     1     -11.291   9.527  67.443  1.00  0.00    -0.222 F  
HETATM   14  C   UNL     1      -7.014  10.982  69.551  1.00  0.00    -0.126 A  
ENDROOT
BRANCH  10  15
HETATM   15  C   UNL     1      -7.307   8.989  70.986  1.00  0.00    -0.112 A  
HETATM   16  N   UNL     1      -7.650   8.913  72.279  1.00  0.00    -0.349 NA 
HETATM   17  N   UNL     1      -7.009   7.783  72.714  1.00  0.00    -0.071 NA 
HETATM   18  N   UNL     1      -6.361   8.078  70.608  1.00  0.00    -0.036 NA 
HETATM   19  C   UNL     1      -6.177   7.369  71.692  1.00  0.00    -0.036 A  
BRANCH  17  20
HETATM   20  C   UNL     1      -7.138   7.256  74.008  1.00  0.00    -0.087 C  
HETATM   21  C   UNL     1      -8.035   6.406  74.545  1.00  0.00    -0.115 C  
BRANCH  21  22
HETATM   22  C   UNL     1      -9.286   5.933  73.906  1.00  0.00    -0.133 C  
HETATM   23  N   UNL     1      -9.261   5.845  72.534  1.00  0.00    -0.139 N  
HETATM   24  O   UNL     1     -10.276   5.594  74.547  1.00  0.00    -0.257 OA 
HETATM   25  H   UNL     1      -8.418   6.036  71.991  1.00  0.00     0.000 HD 
BRANCH  23  26
HETATM   26  N   UNL     1     -10.483   5.473  71.926  1.00  0.00    -0.219 NA 
HETATM   27  H   UNL     1     -11.317   5.235  72.462  1.00  0.00     0.000 HD 
BRANCH  26  28
HETATM   28  C   UNL     1     -10.447   5.460  70.510  1.00  0.00    -0.265 A  
HETATM   29  N   UNL     1      -9.665   4.582  69.836  1.00  0.00    -0.203 NA 
HETATM   30  C   UNL     1      -9.654   4.720  68.484  1.00  0.00    -0.156 A  
HETATM   31  C   UNL     1     -10.376   5.697  67.817  1.00  0.00    -0.206 A  
HETATM   32  N   UNL     1     -11.151   6.586  68.468  1.00  0.00    -0.291 NA 
HETATM   33  C   UNL     1     -11.159   6.449  69.818  1.00  0.00    -0.396 A  
ENDBRANCH  26  28
ENDBRANCH  23  26
ENDBRANCH  21  22
ENDBRANCH  17  20
ENDBRANCH  10  15
TORSDOF 5
ENDMDL
MODEL      257
REMARK 921   NORMALIZED FREE ENERGY PREDICTED BY IDOCK:   -4.56 KCAL/MOL
REMARK 922        TOTAL FREE ENERGY PREDICTED BY IDOCK:   -7.16 KCAL/MOL
REMARK 923 INTER-LIGAND FREE ENERGY PREDICTED BY IDOCK:   -5.87 KCAL/MOL
REMARK 924 INTRA-LIGAND FREE ENERGY PREDICTED BY IDOCK:   -1.29 KCAL/MOL
REMARK 927      BINDING AFFINITY PREDICTED BY RF-SCORE:    0.00 PKD
ROOT
HETATM    1  F   UNL     1      -8.003  10.541  62.783  1.00  0.00    -0.145 F  
HETATM    2  C   UNL     1      -8.119   9.604  63.766  1.00  0.00    -0.148 C  
HETATM    3  F   UNL     1      -8.498   8.456  63.142  1.00  0.00    -0.180 F  
HETATM    4  F   UNL     1      -6.855   9.387  64.222  1.00  0.00    -0.086 F  
HETATM    5  C   UNL     1      -9.069  10.006  64.868  1.00  0.00    -0.265 A  
HETATM    6  C   UNL     1      -9.742  11.236  64.851  1.00  0.00    -0.297 A  
HETATM    7  C   UNL     1     -10.631  11.589  65.881  1.00  0.00    -0.318 A  
HETATM    8  C   UNL     1     -11.364  12.910  65.849  1.00  0.00    -0.312 C  
HETATM    9  C   UNL     1     -10.838  10.691  66.947  1.00  0.00    -0.267 A  
HETATM   10  C   UNL     1     -10.169   9.461  66.990  1.00  0.00    -0.322 A  
HETATM   11  F   UNL     1     -11.098  13.681  66.941  1.00  0.00    -0.288 F  
HETATM   12  F   UNL     1     -11.051  13.677  64.769  1.00  0.00    -0.313 F  
HETATM   13  F   UNL     1     -12.716  12.756  65.816  1.00  0.00    -0.462 F  
HETATM   14  C   UNL     1      -9.294   9.132  65.943  1.00  0.00    -0.306 A  
ENDROOT
BRANCH  10  15
HETATM   15  C   UNL     1     -10.367   8.505  68.081  1.00  0.00    -0.206 A  
HETATM   16  N   UNL     1      -9.912   8.651  69.334  1.00  0.00    -0.192 NA 
HETATM   17  N   UNL     1     -10.471   7.595  70.002  1.00  0.00    -0.224 NA 
HETATM   18  N   UNL     1     -11.046   7.339  67.870  1.00  0.00    -0.015 NA 
HETATM   19  C   UNL     1     -11.072   6.788  69.057  1.00  0.00    -0.197 A  
BRANCH  17  20
HETATM   20  C   UNL     1     -10.333   7.377  71.382  1.00  0.00    -0.194 C  
HETATM   21  C   UNL     1      -9.508   6.578  72.085  1.00  0.00    -0.148 C  
BRANCH  21  22
HETATM   22  C   UNL     1      -8.612   5.535  71.529  1.00  0.00    -0.132 C  
HETATM   23  N   UNL     1      -8.055   5.817  70.305  1.00  0.00    -0.103 N  
HETATM   24  O   UNL     1      -8.338   4.500  72.130  1.00  0.00    -0.105 OA 
HETATM   25  H   UNL     1      -8.198   6.710  69.833  1.00  0.00     0.000 HD 
BRANCH  23  26
HETATM   26  N   UNL     1      -7.268   4.784  69.743  1.00  0.00    -0.054 NA 
HETATM   27  H   UNL     1      -6.391   4.469  70.157  1.00  0.00     0.000 HD 
BRANCH  26  28
HETATM   28  C   UNL     1      -7.805   4.224  68.557  1.00  0.00    -0.074 A  
HETATM   29  N   UNL     1      -9.067   3.729  68.523  1.00  0.00    -0.129 NA 
HETATM   30  C   UNL     1      -9.439   3.146  67.353  1.00  0.00    -0.133 A  
HETATM   31  C   UNL     1      -8.596   3.039  66.258  1.00  0.00    -0.121 A  
HETATM   32  N   UNL     1      -7.335   3.514  66.275  1.00  0.00    -0.074 NA 
HETATM   33  C   UNL     1      -6.963   4.094  67.444  1.00  0.00    -0.059 A  
ENDBRANCH  26  28
ENDBRANCH  23  26
ENDBRANCH  21  22
ENDBRANCH  17  20
ENDBRANCH  10  15
TORSDOF 5
ENDMDL
MODEL      258
REMARK 921   NORMALIZED FREE ENERGY PREDICTED BY IDOCK:   -4.54 KCAL/MOL
REMARK 922        TOTAL FREE ENERGY PREDICTED BY IDOCK:   -7.13 KCAL/MOL
REMARK 923 INTER-LIGAND FREE ENERGY PREDICTED BY IDOCK:   -5.78 KCAL/MOL
REMARK 924 INTRA-LIGAND FREE ENERGY PREDICTED BY IDOCK:   -1.36 KCAL/MOL
REMARK 927      BINDING AFFINITY PREDICTED BY RF-SCORE:    0.00 PKD
ROOT
HETATM    1  F   UNL     1      -6.316  13.448  68.414  1.00  0.00    -0.068 F  
HETATM    2  C   UNL     1      -6.656  12.214  68.883  1.00  0.00    -0.090 C  
HETATM    3  F   UNL     1      -5.747  11.351  68.352  1.00  0.00    -0.046 F  
HETATM    4  F   UNL     1      -6.411  12.245  70.221  1.00  0.00    -0.143 F  
HETATM    5  C   UNL     1      -8.079  11.823  68.566  1.00  0.00    -0.140 A  
HETATM    6  C   UNL     1      -8.941  12.678  67.862  1.00  0.00    -0.189 A  
HETATM    7  C   UNL     1     -10.260  12.293  67.567  1.00  0.00    -0.212 A  
HETATM    8  C   UNL     1     -11.178  13.214  66.798  1.00  0.00    -0.299 C  
HETATM    9  C   UNL     1     -10.719  11.032  67.994  1.00  0.00    -0.260 A  
HETATM   10  C   UNL     1      -9.880  10.165  68.707  1.00  0.00    -0.180 A  
HETATM   11  F   UNL     1     -12.306  13.530  67.494  1.00  0.00    -0.365 F  
HETATM   12  F   UNL     1     -10.601  14.402  66.466  1.00  0.00    -0.282 F  
HETATM   13  F   UNL     1     -11.600  12.668  65.624  1.00  0.00    -0.340 F  
HETATM   14  C   UNL     1      -8.564  10.573  68.979  1.00  0.00    -0.160 A  
ENDROOT
BRANCH  10  15
HETATM   15  C   UNL     1     -10.326   8.847  69.159  1.00  0.00    -0.220 A  
HETATM   16  N   UNL     1      -9.971   7.676  68.612  1.00  0.00    -0.169 NA 
HETATM   17  N   UNL     1     -10.511   6.748  69.462  1.00  0.00    -0.208 NA 
HETATM   18  N   UNL     1     -11.192   8.728  70.210  1.00  0.00    -0.233 NA 
HETATM   19  C   UNL     1     -11.309   7.433  70.357  1.00  0.00    -0.249 A  
BRANCH  17  20
HETATM   20  C   UNL     1     -10.330   5.363  69.330  1.00  0.00    -0.269 C  
HETATM   21  C   UNL     1      -9.981   4.600  68.275  1.00  0.00    -0.130 C  
BRANCH  21  22
HETATM   22  C   UNL     1      -9.874   5.049  66.866  1.00  0.00    -0.188 C  
HETATM   23  N   UNL     1      -8.699   5.678  66.527  1.00  0.00    -0.119 N  
HETATM   24  O   UNL     1     -10.748   4.840  66.031  1.00  0.00    -0.319 OA 
HETATM   25  H   UNL     1      -7.925   5.778  67.185  1.00  0.00     0.000 HD 
BRANCH  23  26
HETATM   26  N   UNL     1      -8.637   6.176  65.205  1.00  0.00    -0.304 NA 
HETATM   27  H   UNL     1      -9.054   5.692  64.411  1.00  0.00     0.000 HD 
BRANCH  26  28
HETATM   28  C   UNL     1      -7.946   7.407  65.079  1.00  0.00    -0.129 A  
HETATM   29  N   UNL     1      -7.565   7.878  63.866  1.00  0.00    -0.114 NA 
HETATM   30  C   UNL     1      -6.838   9.026  63.881  1.00  0.00    -0.088 A  
HETATM   31  C   UNL     1      -6.485   9.683  65.049  1.00  0.00    -0.090 A  
HETATM   32  N   UNL     1      -6.842   9.226  66.266  1.00  0.00    -0.081 NA 
HETATM   33  C   UNL     1      -7.565   8.078  66.250  1.00  0.00    -0.090 A  
ENDBRANCH  26  28
ENDBRANCH  23  26
ENDBRANCH  21  22
ENDBRANCH  17  20
ENDBRANCH  10  15
TORSDOF 5
ENDMDL
MODEL      259
REMARK 921   NORMALIZED FREE ENERGY PREDICTED BY IDOCK:   -4.52 KCAL/MOL
REMARK 922        TOTAL FREE ENERGY PREDICTED BY IDOCK:   -7.11 KCAL/MOL
REMARK 923 INTER-LIGAND FREE ENERGY PREDICTED BY IDOCK:   -6.70 KCAL/MOL
REMARK 924 INTRA-LIGAND FREE ENERGY PREDICTED BY IDOCK:   -0.40 KCAL/MOL
REMARK 927      BINDING AFFINITY PREDICTED BY RF-SCORE:    0.00 PKD
ROOT
HETATM    1  F   UNL     1     -11.384   5.488  73.124  1.00  0.00    -0.300 F  
HETATM    2  C   UNL     1     -11.227   6.530  72.260  1.00  0.00    -0.273 C  
HETATM    3  F   UNL     1     -12.481   6.988  71.997  1.00  0.00    -0.331 F  
HETATM    4  F   UNL     1     -10.607   7.512  72.971  1.00  0.00    -0.273 F  
HETATM    5  C   UNL     1     -10.469   6.161  71.007  1.00  0.00    -0.281 A  
HETATM    6  C   UNL     1      -9.984   4.863  70.792  1.00  0.00    -0.292 A  
HETATM    7  C   UNL     1      -9.291   4.535  69.615  1.00  0.00    -0.221 A  
HETATM    8  C   UNL     1      -8.782   3.131  69.385  1.00  0.00    -0.076 C  
HETATM    9  C   UNL     1      -9.077   5.533  68.643  1.00  0.00    -0.128 A  
HETATM   10  C   UNL     1      -9.544   6.839  68.839  1.00  0.00    -0.137 A  
HETATM   11  F   UNL     1      -7.431   3.087  69.207  1.00  0.00    -0.047 F  
HETATM   12  F   UNL     1      -9.049   2.282  70.415  1.00  0.00    -0.123 F  
HETATM   13  F   UNL     1      -9.326   2.554  68.279  1.00  0.00    -0.189 F  
HETATM   14  C   UNL     1     -10.242   7.135  70.021  1.00  0.00    -0.205 A  
ENDROOT
BRANCH  10  15
HETATM   15  C   UNL     1      -9.342   7.895  67.847  1.00  0.00    -0.141 A  
HETATM   16  N   UNL     1      -9.187   7.704  66.529  1.00  0.00    -0.168 NA 
HETATM   17  N   UNL     1      -9.186   8.975  66.020  1.00  0.00    -0.208 NA 
HETATM   18  N   UNL     1      -9.277   9.206  68.229  1.00  0.00    -0.132 NA 
HETATM   19  C   UNL     1      -9.154   9.843  67.093  1.00  0.00    -0.138 A  
BRANCH  17  20
HETATM   20  C   UNL     1      -9.123   9.272  64.649  1.00  0.00    -0.121 C  
HETATM   21  C   UNL     1      -9.493  10.363  63.950  1.00  0.00    -0.354 C  
BRANCH  21  22
HETATM   22  C   UNL     1     -10.271  11.514  64.467  1.00  0.00    -0.288 C  
HETATM   23  N   UNL     1     -11.265  11.208  65.367  1.00  0.00    -0.003 N  
HETATM   24  O   UNL     1     -10.026  12.677  64.159  1.00  0.00    -0.293 OA 
HETATM   25  H   UNL     1     -11.422  10.258  65.704  1.00  0.00     0.000 HD 
BRANCH  23  26
HETATM   26  N   UNL     1     -12.055  12.301  65.792  1.00  0.00    -0.603 NA 
HETATM   27  H   UNL     1     -12.883  12.616  65.287  1.00  0.00     0.000 HD 
BRANCH  26  28
HETATM   28  C   UNL     1     -11.597  12.921  66.981  1.00  0.00    -0.362 A  
HETATM   29  N   UNL     1     -10.743  13.974  66.940  1.00  0.00    -0.284 NA 
HETATM   30  C   UNL     1     -10.312  14.430  68.145  1.00  0.00    -0.231 A  
HETATM   31  C   UNL     1     -10.696  13.864  69.351  1.00  0.00    -0.015 A  
HETATM   32  N   UNL     1     -11.534  12.811  69.414  1.00  0.00    -0.272 NA 
HETATM   33  C   UNL     1     -11.962  12.354  68.210  1.00  0.00    -0.214 A  
ENDBRANCH  26  28
ENDBRANCH  23  26
ENDBRANCH  21  22
ENDBRANCH  17  20
ENDBRANCH  10  15
TORSDOF 5
ENDMDL
MODEL      260
REMARK 921   NORMALIZED FREE ENERGY PREDICTED BY IDOCK:   -4.48 KCAL/MOL
REMARK 922        TOTAL FREE ENERGY PREDICTED BY IDOCK:   -7.05 KCAL/MOL
REMARK 923 INTER-LIGAND FREE ENERGY PREDICTED BY IDOCK:   -6.26 KCAL/MOL
REMARK 924 INTRA-LIGAND FREE ENERGY PREDICTED BY IDOCK:   -0.79 KCAL/MOL
REMARK 927      BINDING AFFINITY PREDICTED BY RF-SCORE:    0.00 PKD
ROOT
HETATM    1  F   UNL     1     -13.074  15.627  70.297  1.00  0.00    -0.401 F  
HETATM    2  C   UNL     1     -12.061  14.721  70.210  1.00  0.00    -0.322 C  
HETATM    3  F   UNL     1     -11.681  14.464  71.491  1.00  0.00    -0.376 F  
HETATM    4  F   UNL     1     -12.629  13.573  69.746  1.00  0.00    -0.311 F  
HETATM    5  C   UNL     1     -10.913  15.186  69.347  1.00  0.00    -0.268 A  
HETATM    6  C   UNL     1     -10.928  16.433  68.707  1.00  0.00    -0.344 A  
HETATM    7  C   UNL     1      -9.845  16.854  67.916  1.00  0.00    -0.263 A  
HETATM    8  C   UNL     1      -9.862  18.205  67.240  1.00  0.00    -0.314 C  
HETATM    9  C   UNL     1      -8.734  16.000  67.762  1.00  0.00    -0.170 A  
HETATM   10  C   UNL     1      -8.701  14.745  68.384  1.00  0.00    -0.169 A  
HETATM   11  F   UNL     1      -9.744  18.114  65.885  1.00  0.00    -0.263 F  
HETATM   12  F   UNL     1     -11.004  18.910  67.467  1.00  0.00    -0.484 F  
HETATM   13  F   UNL     1      -8.843  19.008  67.653  1.00  0.00    -0.292 F  
HETATM   14  C   UNL     1      -9.793  14.356  69.176  1.00  0.00    -0.040 A  
ENDROOT
BRANCH  10  15
HETATM   15  C   UNL     1      -7.560  13.839  68.247  1.00  0.00    -0.129 A  
HETATM   16  N   UNL     1      -7.453  12.633  68.823  1.00  0.00    -0.083 NA 
HETATM   17  N   UNL     1      -6.303  12.122  68.283  1.00  0.00    -0.051 NA 
HETATM   18  N   UNL     1      -6.473  14.196  67.501  1.00  0.00    -0.310 NA 
HETATM   19  C   UNL     1      -5.707  13.137  67.561  1.00  0.00    -0.050 A  
BRANCH  17  20
HETATM   20  C   UNL     1      -5.822  10.829  68.539  1.00  0.00    -0.043 C  
HETATM   21  C   UNL     1      -6.394   9.616  68.404  1.00  0.00    -0.051 C  
BRANCH  21  22
HETATM   22  C   UNL     1      -7.821   9.348  68.105  1.00  0.00    -0.087 C  
HETATM   23  N   UNL     1      -8.557   8.809  69.134  1.00  0.00    -0.126 N  
HETATM   24  O   UNL     1      -8.341   9.626  67.028  1.00  0.00    -0.116 OA 
HETATM   25  H   UNL     1      -8.164   8.656  70.063  1.00  0.00     0.000 HD 
BRANCH  23  26
HETATM   26  N   UNL     1      -9.895   8.480  68.815  1.00  0.00    -0.168 NA 
HETATM   27  H   UNL     1     -10.659   9.152  68.873  1.00  0.00     0.000 HD 
BRANCH  26  28
HETATM   28  C   UNL     1     -10.082   7.135  68.409  1.00  0.00    -0.168 A  
HETATM   29  N   UNL     1      -9.725   6.103  69.212  1.00  0.00    -0.135 NA 
HETATM   30  C   UNL     1      -9.878   4.862  68.680  1.00  0.00    -0.152 A  
HETATM   31  C   UNL     1     -10.353   4.642  67.397  1.00  0.00     0.039 A  
HETATM   32  N   UNL     1     -10.702   5.653  66.578  1.00  0.00    -0.275 NA 
HETATM   33  C   UNL     1     -10.547   6.892  67.109  1.00  0.00    -0.338 A  
ENDBRANCH  26  28
ENDBRANCH  23  26
ENDBRANCH  21  22
ENDBRANCH  17  20
ENDBRANCH  10  15
TORSDOF 5
ENDMDL
MODEL      261
REMARK 921   NORMALIZED FREE ENERGY PREDICTED BY IDOCK:   -4.41 KCAL/MOL
REMARK 922        TOTAL FREE ENERGY PREDICTED BY IDOCK:   -6.96 KCAL/MOL
REMARK 923 INTER-LIGAND FREE ENERGY PREDICTED BY IDOCK:   -5.32 KCAL/MOL
REMARK 924 INTRA-LIGAND FREE ENERGY PREDICTED BY IDOCK:   -1.64 KCAL/MOL
REMARK 927      BINDING AFFINITY PREDICTED BY RF-SCORE:    0.00 PKD
ROOT
HETATM    1  F   UNL     1      -9.644   2.691  70.503  1.00  0.00    -0.205 F  
HETATM    2  C   UNL     1      -9.227   3.489  69.481  1.00  0.00    -0.154 C  
HETATM    3  F   UNL     1      -7.867   3.444  69.504  1.00  0.00    -0.050 F  
HETATM    4  F   UNL     1      -9.608   2.856  68.337  1.00  0.00    -0.240 F  
HETATM    5  C   UNL     1      -9.762   4.899  69.565  1.00  0.00    -0.266 A  
HETATM    6  C   UNL     1     -10.609   5.307  70.606  1.00  0.00    -0.263 A  
HETATM    7  C   UNL     1     -11.088   6.626  70.674  1.00  0.00    -0.349 A  
HETATM    8  C   UNL     1     -11.989   7.062  71.805  1.00  0.00    -0.326 C  
HETATM    9  C   UNL     1     -10.714   7.545  69.673  1.00  0.00    -0.236 A  
HETATM   10  C   UNL     1      -9.877   7.158  68.618  1.00  0.00    -0.154 A  
HETATM   11  F   UNL     1     -13.193   7.528  71.365  1.00  0.00    -0.352 F  
HETATM   12  F   UNL     1     -12.276   6.064  72.685  1.00  0.00    -0.265 F  
HETATM   13  F   UNL     1     -11.446   8.066  72.547  1.00  0.00    -0.347 F  
HETATM   14  C   UNL     1      -9.406   5.836  68.582  1.00  0.00    -0.136 A  
ENDROOT
BRANCH  10  15
HETATM   15  C   UNL     1      -9.467   8.090  67.567  1.00  0.00    -0.146 A  
HETATM   16  N   UNL     1      -8.257   8.658  67.461  1.00  0.00    -0.110 NA 
HETATM   17  N   UNL     1      -8.315   9.311  66.259  1.00  0.00    -0.120 NA 
HETATM   18  N   UNL     1     -10.346   8.470  66.593  1.00  0.00    -0.284 NA 
HETATM   19  C   UNL     1      -9.622   9.239  65.820  1.00  0.00    -0.271 A  
BRANCH  17  20
HETATM   20  C   UNL     1      -7.233   9.997  65.685  1.00  0.00    -0.120 C  
HETATM   21  C   UNL     1      -6.325   9.626  64.760  1.00  0.00    -0.089 C  
BRANCH  21  22
HETATM   22  C   UNL     1      -6.127   8.257  64.226  1.00  0.00    -0.065 C  
HETATM   23  N   UNL     1      -6.479   7.229  65.068  1.00  0.00    -0.037 N  
HETATM   24  O   UNL     1      -5.720   8.038  63.089  1.00  0.00    -0.061 OA 
HETATM   25  H   UNL     1      -6.905   7.394  65.981  1.00  0.00     0.000 HD 
BRANCH  23  26
HETATM   26  N   UNL     1      -6.211   5.928  64.583  1.00  0.00    -0.029 NA 
HETATM   27  H   UNL     1      -5.265   5.570  64.453  1.00  0.00     0.000 HD 
BRANCH  26  28
HETATM   28  C   UNL     1      -7.369   5.166  64.293  1.00  0.00    -0.056 A  
HETATM   29  N   UNL     1      -8.004   5.280  63.101  1.00  0.00    -0.089 NA 
HETATM   30  C   UNL     1      -9.149   4.558  62.972  1.00  0.00    -0.122 A  
HETATM   31  C   UNL     1      -9.661   3.762  63.984  1.00  0.00    -0.160 A  
HETATM   32  N   UNL     1      -9.052   3.644  65.181  1.00  0.00    -0.136 NA 
HETATM   33  C   UNL     1      -7.910   4.366  65.309  1.00  0.00    -0.086 A  
ENDBRANCH  26  28
ENDBRANCH  23  26
ENDBRANCH  21  22
ENDBRANCH  17  20
ENDBRANCH  10  15
TORSDOF 5
ENDMDL
MODEL      262
REMARK 921   NORMALIZED FREE ENERGY PREDICTED BY IDOCK:   -4.38 KCAL/MOL
REMARK 922        TOTAL FREE ENERGY PREDICTED BY IDOCK:   -6.92 KCAL/MOL
REMARK 923 INTER-LIGAND FREE ENERGY PREDICTED BY IDOCK:   -5.57 KCAL/MOL
REMARK 924 INTRA-LIGAND FREE ENERGY PREDICTED BY IDOCK:   -1.34 KCAL/MOL
REMARK 927      BINDING AFFINITY PREDICTED BY RF-SCORE:    0.00 PKD
ROOT
HETATM    1  F   UNL     1      -7.486   5.191  71.198  1.00  0.00    -0.068 F  
HETATM    2  C   UNL     1      -7.474   6.031  70.124  1.00  0.00    -0.090 C  
HETATM    3  F   UNL     1      -6.402   6.849  70.304  1.00  0.00    -0.034 F  
HETATM    4  F   UNL     1      -7.180   5.252  69.047  1.00  0.00    -0.056 F  
HETATM    5  C   UNL     1      -8.764   6.795  69.947  1.00  0.00    -0.141 A  
HETATM    6  C   UNL     1      -9.850   6.625  70.819  1.00  0.00    -0.198 A  
HETATM    7  C   UNL     1     -11.039   7.354  70.645  1.00  0.00    -0.285 A  
HETATM    8  C   UNL     1     -12.199   7.175  71.595  1.00  0.00    -0.350 C  
HETATM    9  C   UNL     1     -11.137   8.261  69.572  1.00  0.00     0.039 A  
HETATM   10  C   UNL     1     -10.070   8.441  68.682  1.00  0.00    -0.210 A  
HETATM   11  F   UNL     1     -13.335   6.763  70.963  1.00  0.00    -0.346 F  
HETATM   12  F   UNL     1     -11.964   6.255  72.571  1.00  0.00    -0.310 F  
HETATM   13  F   UNL     1     -12.525   8.327  72.243  1.00  0.00    -0.335 F  
HETATM   14  C   UNL     1      -8.891   7.706  68.887  1.00  0.00    -0.135 A  
ENDROOT
BRANCH  10  15
HETATM   15  C   UNL     1     -10.140   9.379  67.561  1.00  0.00    -0.215 A  
HETATM   16  N   UNL     1      -9.411   9.304  66.439  1.00  0.00    -0.198 NA 
HETATM   17  N   UNL     1      -9.935  10.294  65.650  1.00  0.00    -0.269 NA 
HETATM   18  N   UNL     1     -10.982  10.454  67.605  1.00  0.00    -0.307 NA 
HETATM   19  C   UNL     1     -10.817  11.012  66.433  1.00  0.00    -0.191 A  
BRANCH  17  20
HETATM   20  C   UNL     1      -9.530  10.544  64.330  1.00  0.00    -0.281 C  
HETATM   21  C   UNL     1      -8.656   9.909  63.525  1.00  0.00    -0.201 C  
BRANCH  21  22
HETATM   22  C   UNL     1      -7.718   8.833  63.924  1.00  0.00    -0.132 C  
HETATM   23  N   UNL     1      -8.298   7.668  64.370  1.00  0.00    -0.364 N  
HETATM   24  O   UNL     1      -6.499   8.940  63.827  1.00  0.00    -0.087 OA 
HETATM   25  H   UNL     1      -9.309   7.529  64.371  1.00  0.00     0.000 HD 
BRANCH  23  26
HETATM   26  N   UNL     1      -7.398   6.678  64.827  1.00  0.00    -0.078 NA 
HETATM   27  H   UNL     1      -6.385   6.786  64.780  1.00  0.00     0.000 HD 
BRANCH  26  28
HETATM   28  C   UNL     1      -8.025   5.522  65.355  1.00  0.00    -0.109 A  
HETATM   29  N   UNL     1      -7.448   4.299  65.247  1.00  0.00    -0.073 NA 
HETATM   30  C   UNL     1      -8.183   3.258  65.719  1.00  0.00    -0.094 A  
HETATM   31  C   UNL     1      -9.447   3.409  66.266  1.00  0.00    -0.113 A  
HETATM   32  N   UNL     1     -10.043   4.613  66.372  1.00  0.00    -0.243 NA 
HETATM   33  C   UNL     1      -9.310   5.652  65.898  1.00  0.00    -0.103 A  
ENDBRANCH  26  28
ENDBRANCH  23  26
ENDBRANCH  21  22
ENDBRANCH  17  20
ENDBRANCH  10  15
TORSDOF 5
ENDMDL
MODEL      263
REMARK 921   NORMALIZED FREE ENERGY PREDICTED BY IDOCK:   -4.33 KCAL/MOL
REMARK 922        TOTAL FREE ENERGY PREDICTED BY IDOCK:   -6.86 KCAL/MOL
REMARK 923 INTER-LIGAND FREE ENERGY PREDICTED BY IDOCK:   -5.08 KCAL/MOL
REMARK 924 INTRA-LIGAND FREE ENERGY PREDICTED BY IDOCK:   -1.78 KCAL/MOL
REMARK 927      BINDING AFFINITY PREDICTED BY RF-SCORE:    0.00 PKD
ROOT
HETATM    1  F   UNL     1      -7.816  16.332  68.945  1.00  0.00    -0.173 F  
HETATM    2  C   UNL     1      -7.475  15.013  68.916  1.00  0.00    -0.143 C  
HETATM    3  F   UNL     1      -6.168  14.975  68.539  1.00  0.00    -0.083 F  
HETATM    4  F   UNL     1      -7.508  14.593  70.210  1.00  0.00    -0.052 F  
HETATM    5  C   UNL     1      -8.361  14.184  68.017  1.00  0.00    -0.160 A  
HETATM    6  C   UNL     1      -9.427  14.751  67.304  1.00  0.00    -0.217 A  
HETATM    7  C   UNL     1     -10.235  13.966  66.464  1.00  0.00    -0.280 A  
HETATM    8  C   UNL     1     -11.373  14.586  65.688  1.00  0.00    -0.336 C  
HETATM    9  C   UNL     1      -9.968  12.587  66.348  1.00  0.00    -0.262 A  
HETATM   10  C   UNL     1      -8.915  11.996  67.058  1.00  0.00    -0.198 A  
HETATM   11  F   UNL     1     -12.579  14.025  65.990  1.00  0.00    -0.455 F  
HETATM   12  F   UNL     1     -11.518  15.920  65.913  1.00  0.00    -0.112 F  
HETATM   13  F   UNL     1     -11.222  14.451  64.342  1.00  0.00    -0.364 F  
HETATM   14  C   UNL     1      -8.119  12.808  67.882  1.00  0.00    -0.159 A  
ENDROOT
BRANCH  10  15
HETATM   15  C   UNL     1      -8.610  10.569  66.955  1.00  0.00    -0.125 A  
HETATM   16  N   UNL     1      -9.488   9.572  67.135  1.00  0.00    -0.145 NA 
HETATM   17  N   UNL     1      -8.778   8.453  66.788  1.00  0.00    -0.124 NA 
HETATM   18  N   UNL     1      -7.342  10.146  66.672  1.00  0.00    -0.103 NA 
HETATM   19  C   UNL     1      -7.467   8.846  66.603  1.00  0.00    -0.086 A  
BRANCH  17  20
HETATM   20  C   UNL     1      -9.320   7.160  66.748  1.00  0.00    -0.161 C  
HETATM   21  C   UNL     1      -9.659   6.298  67.728  1.00  0.00    -0.118 C  
BRANCH  21  22
HETATM   22  C   UNL     1      -9.352   6.447  69.171  1.00  0.00    -0.132 C  
HETATM   23  N   UNL     1      -9.456   7.722  69.676  1.00  0.00    -0.157 N  
HETATM   24  O   UNL     1      -9.067   5.498  69.894  1.00  0.00    -0.130 OA 
HETATM   25  H   UNL     1      -9.780   8.507  69.111  1.00  0.00     0.000 HD 
BRANCH  23  26
HETATM   26  N   UNL     1      -9.082   7.870  71.032  1.00  0.00    -0.142 NA 
HETATM   27  H   UNL     1      -9.646   7.514  71.803  1.00  0.00     0.000 HD 
BRANCH  26  28
HETATM   28  C   UNL     1      -7.858   8.556  71.226  1.00  0.00    -0.118 A  
HETATM   29  N   UNL     1      -7.049   8.266  72.275  1.00  0.00    -0.091 NA 
HETATM   30  C   UNL     1      -5.943   9.046  72.399  1.00  0.00    -0.027 A  
HETATM   31  C   UNL     1      -5.648  10.086  71.531  1.00  0.00    -0.004 A  
HETATM   32  N   UNL     1      -6.444  10.398  70.490  1.00  0.00    -0.262 NA 
HETATM   33  C   UNL     1      -7.549   9.620  70.368  1.00  0.00    -0.163 A  
ENDBRANCH  26  28
ENDBRANCH  23  26
ENDBRANCH  21  22
ENDBRANCH  17  20
ENDBRANCH  10  15
TORSDOF 5
ENDMDL
MODEL      264
REMARK 921   NORMALIZED FREE ENERGY PREDICTED BY IDOCK:   -4.32 KCAL/MOL
REMARK 922        TOTAL FREE ENERGY PREDICTED BY IDOCK:   -6.84 KCAL/MOL
REMARK 923 INTER-LIGAND FREE ENERGY PREDICTED BY IDOCK:   -5.19 KCAL/MOL
REMARK 924 INTRA-LIGAND FREE ENERGY PREDICTED BY IDOCK:   -1.65 KCAL/MOL
REMARK 927      BINDING AFFINITY PREDICTED BY RF-SCORE:    0.00 PKD
ROOT
HETATM    1  F   UNL     1      -8.765   8.615  71.483  1.00  0.00    -0.172 F  
HETATM    2  C   UNL     1      -8.372   8.286  70.220  1.00  0.00    -0.123 C  
HETATM    3  F   UNL     1      -7.011   8.284  70.243  1.00  0.00    -0.036 F  
HETATM    4  F   UNL     1      -8.749   6.991  70.040  1.00  0.00    -0.136 F  
HETATM    5  C   UNL     1      -8.932   9.203  69.159  1.00  0.00    -0.144 A  
HETATM    6  C   UNL     1      -9.779  10.274  69.481  1.00  0.00    -0.235 A  
HETATM    7  C   UNL     1     -10.282  11.123  68.481  1.00  0.00    -0.209 A  
HETATM    8  C   UNL     1     -11.183  12.283  68.836  1.00  0.00    -0.273 C  
HETATM    9  C   UNL     1      -9.933  10.884  67.137  1.00  0.00    -0.221 A  
HETATM   10  C   UNL     1      -9.098   9.814  66.790  1.00  0.00    -0.169 A  
HETATM   11  F   UNL     1     -12.398  12.208  68.223  1.00  0.00    -0.294 F  
HETATM   12  F   UNL     1     -11.444  12.379  70.168  1.00  0.00    -0.302 F  
HETATM   13  F   UNL     1     -10.653  13.484  68.475  1.00  0.00    -0.223 F  
HETATM   14  C   UNL     1      -8.602   8.988  67.812  1.00  0.00    -0.121 A  
ENDROOT
BRANCH  10  15
HETATM   15  C   UNL     1      -8.714   9.543  65.405  1.00  0.00    -0.164 A  
HETATM   16  N   UNL     1      -7.672   8.793  65.020  1.00  0.00    -0.100 NA 
HETATM   17  N   UNL     1      -7.818   8.716  63.660  1.00  0.00    -0.141 NA 
HETATM   18  N   UNL     1      -9.422  10.083  64.368  1.00  0.00    -0.293 NA 
HETATM   19  C   UNL     1      -8.836   9.582  63.311  1.00  0.00    -0.215 A  
BRANCH  17  20
HETATM   20  C   UNL     1      -6.986   7.957  62.823  1.00  0.00    -0.085 C  
HETATM   21  C   UNL     1      -7.022   6.659  62.460  1.00  0.00    -0.047 C  
BRANCH  21  22
HETATM   22  C   UNL     1      -7.898   5.612  63.037  1.00  0.00    -0.095 C  
HETATM   23  N   UNL     1      -8.725   6.018  64.057  1.00  0.00    -0.332 N  
HETATM   24  O   UNL     1      -7.930   4.460  62.612  1.00  0.00    -0.064 OA 
HETATM   25  H   UNL     1      -8.778   6.991  64.361  1.00  0.00     0.000 HD 
BRANCH  23  26
HETATM   26  N   UNL     1      -9.497   4.996  64.657  1.00  0.00    -0.358 NA 
HETATM   27  H   UNL     1     -10.348   4.626  64.235  1.00  0.00     0.000 HD 
BRANCH  26  28
HETATM   28  C   UNL     1      -8.986   4.532  65.894  1.00  0.00    -0.125 A  
HETATM   29  N   UNL     1      -8.276   5.349  66.711  1.00  0.00    -0.108 NA 
HETATM   30  C   UNL     1      -7.770   4.767  67.830  1.00  0.00    -0.082 A  
HETATM   31  C   UNL     1      -7.943   3.425  68.131  1.00  0.00    -0.074 A  
HETATM   32  N   UNL     1      -8.635   2.593  67.327  1.00  0.00    -0.098 NA 
HETATM   33  C   UNL     1      -9.138   3.175  66.209  1.00  0.00    -0.151 A  
ENDBRANCH  26  28
ENDBRANCH  23  26
ENDBRANCH  21  22
ENDBRANCH  17  20
ENDBRANCH  10  15
TORSDOF 5
ENDMDL
MODEL      265
REMARK 921   NORMALIZED FREE ENERGY PREDICTED BY IDOCK:   -4.31 KCAL/MOL
REMARK 922        TOTAL FREE ENERGY PREDICTED BY IDOCK:   -6.83 KCAL/MOL
REMARK 923 INTER-LIGAND FREE ENERGY PREDICTED BY IDOCK:   -5.84 KCAL/MOL
REMARK 924 INTRA-LIGAND FREE ENERGY PREDICTED BY IDOCK:   -0.99 KCAL/MOL
REMARK 927      BINDING AFFINITY PREDICTED BY RF-SCORE:    0.00 PKD
ROOT
HETATM    1  F   UNL     1     -13.090  12.941  62.594  1.00  0.00     0.240 F  
HETATM    2  C   UNL     1     -12.482  12.067  63.444  1.00  0.00    -0.509 C  
HETATM    3  F   UNL     1     -13.484  11.342  64.012  1.00  0.00    -0.075 F  
HETATM    4  F   UNL     1     -11.791  11.201  62.653  1.00  0.00     0.155 F  
HETATM    5  C   UNL     1     -11.601  12.740  64.469  1.00  0.00    -0.397 A  
HETATM    6  C   UNL     1     -11.443  14.134  64.505  1.00  0.00    -0.380 A  
HETATM    7  C   UNL     1     -10.627  14.744  65.473  1.00  0.00    -0.374 A  
HETATM    8  C   UNL     1     -10.472  16.246  65.515  1.00  0.00    -0.362 C  
HETATM    9  C   UNL     1      -9.955  13.937  66.412  1.00  0.00    -0.303 A  
HETATM   10  C   UNL     1     -10.090  12.542  66.389  1.00  0.00    -0.255 A  
HETATM   11  F   UNL     1      -9.176  16.642  65.372  1.00  0.00    -0.088 F  
HETATM   12  F   UNL     1     -11.167  16.890  64.538  1.00  0.00    -0.464 F  
HETATM   13  F   UNL     1     -10.902  16.782  66.690  1.00  0.00    -0.277 F  
HETATM   14  C   UNL     1     -10.919  11.962  65.417  1.00  0.00    -0.352 A  
ENDROOT
BRANCH  10  15
HETATM   15  C   UNL     1      -9.409  11.678  67.354  1.00  0.00    -0.168 A  
HETATM   16  N   UNL     1      -8.140  11.819  67.762  1.00  0.00    -0.134 NA 
HETATM   17  N   UNL     1      -8.019  10.886  68.757  1.00  0.00    -0.132 NA 
HETATM   18  N   UNL     1     -10.055  10.611  67.910  1.00  0.00    -0.164 NA 
HETATM   19  C   UNL     1      -9.172  10.127  68.745  1.00  0.00    -0.164 A  
BRANCH  17  20
HETATM   20  C   UNL     1      -6.866  10.717  69.540  1.00  0.00    -0.116 C  
HETATM   21  C   UNL     1      -6.065  11.606  70.160  1.00  0.00    -0.155 C  
BRANCH  21  22
HETATM   22  C   UNL     1      -6.106  13.080  70.006  1.00  0.00    -0.112 C  
HETATM   23  N   UNL     1      -7.244  13.589  69.427  1.00  0.00    -0.316 N  
HETATM   24  O   UNL     1      -5.211  13.818  70.406  1.00  0.00    -0.096 OA 
HETATM   25  H   UNL     1      -8.037  12.999  69.172  1.00  0.00     0.000 HD 
BRANCH  23  26
HETATM   26  N   UNL     1      -7.242  14.986  69.208  1.00  0.00    -0.164 NA 
HETATM   27  H   UNL     1      -6.399  15.507  68.969  1.00  0.00     0.000 HD 
BRANCH  26  28
HETATM   28  C   UNL     1      -8.511  15.599  69.351  1.00  0.00    -0.244 A  
HETATM   29  N   UNL     1      -8.690  16.915  69.076  1.00  0.00    -0.205 NA 
HETATM   30  C   UNL     1      -9.932  17.406  69.328  1.00  0.00    -0.116 A  
HETATM   31  C   UNL     1     -10.960  16.634  69.846  1.00  0.00    -0.187 A  
HETATM   32  N   UNL     1     -10.801  15.328  70.137  1.00  0.00    -0.281 NA 
HETATM   33  C   UNL     1      -9.560  14.840  69.887  1.00  0.00     0.358 A  
ENDBRANCH  26  28
ENDBRANCH  23  26
ENDBRANCH  21  22
ENDBRANCH  17  20
ENDBRANCH  10  15
TORSDOF 5
ENDMDL
MODEL      266
REMARK 921   NORMALIZED FREE ENERGY PREDICTED BY IDOCK:   -4.28 KCAL/MOL
REMARK 922        TOTAL FREE ENERGY PREDICTED BY IDOCK:   -6.80 KCAL/MOL
REMARK 923 INTER-LIGAND FREE ENERGY PREDICTED BY IDOCK:   -6.00 KCAL/MOL
REMARK 924 INTRA-LIGAND FREE ENERGY PREDICTED BY IDOCK:   -0.80 KCAL/MOL
REMARK 927      BINDING AFFINITY PREDICTED BY RF-SCORE:    0.00 PKD
ROOT
HETATM    1  F   UNL     1     -12.141  12.191  65.481  1.00  0.00    -0.451 F  
HETATM    2  C   UNL     1     -11.179  11.661  66.288  1.00  0.00    -0.271 C  
HETATM    3  F   UNL     1     -11.841  11.113  67.344  1.00  0.00    -0.314 F  
HETATM    4  F   UNL     1     -10.646  10.618  65.594  1.00  0.00    -0.313 F  
HETATM    5  C   UNL     1     -10.135  12.664  66.716  1.00  0.00    -0.243 A  
HETATM    6  C   UNL     1     -10.180  14.001  66.296  1.00  0.00    -0.300 A  
HETATM    7  C   UNL     1      -9.205  14.923  66.713  1.00  0.00    -0.281 A  
HETATM    8  C   UNL     1      -9.267  16.366  66.267  1.00  0.00    -0.315 C  
HETATM    9  C   UNL     1      -8.166  14.489  67.560  1.00  0.00    -0.201 A  
HETATM   10  C   UNL     1      -8.095  13.156  67.985  1.00  0.00    -0.157 A  
HETATM   11  F   UNL     1      -8.150  16.751  65.587  1.00  0.00    -0.224 F  
HETATM   12  F   UNL     1     -10.315  16.633  65.441  1.00  0.00    -0.339 F  
HETATM   13  F   UNL     1      -9.389  17.230  67.312  1.00  0.00    -0.228 F  
HETATM   14  C   UNL     1      -9.089  12.259  67.560  1.00  0.00    -0.182 A  
ENDROOT
BRANCH  10  15
HETATM   15  C   UNL     1      -7.032  12.675  68.868  1.00  0.00    -0.086 A  
HETATM   16  N   UNL     1      -7.128  11.631  69.703  1.00  0.00     0.044 NA 
HETATM   17  N   UNL     1      -5.854  11.489  70.185  1.00  0.00    -0.134 NA 
HETATM   18  N   UNL     1      -5.821  13.308  68.908  1.00  0.00    -0.073 NA 
HETATM   19  C   UNL     1      -5.128  12.577  69.742  1.00  0.00    -0.075 A  
BRANCH  17  20
HETATM   20  C   UNL     1      -5.452  10.460  71.050  1.00  0.00    -0.087 C  
HETATM   21  C   UNL     1      -5.658   9.128  71.016  1.00  0.00    -0.043 C  
BRANCH  21  22
HETATM   22  C   UNL     1      -6.569   8.405  70.098  1.00  0.00    -0.039 C  
HETATM   23  N   UNL     1      -7.682   9.101  69.689  1.00  0.00    -0.077 N  
HETATM   24  O   UNL     1      -6.338   7.274  69.681  1.00  0.00    -0.034 OA 
HETATM   25  H   UNL     1      -7.844  10.074  69.951  1.00  0.00     0.000 HD 
BRANCH  23  26
HETATM   26  N   UNL     1      -8.588   8.377  68.879  1.00  0.00    -0.134 NA 
HETATM   27  H   UNL     1      -8.552   8.389  67.861  1.00  0.00     0.000 HD 
BRANCH  26  28
HETATM   28  C   UNL     1      -9.550   7.633  69.607  1.00  0.00    -0.160 A  
HETATM   29  N   UNL     1      -9.459   6.285  69.717  1.00  0.00    -0.151 NA 
HETATM   30  C   UNL     1     -10.485   5.676  70.369  1.00  0.00    -0.285 A  
HETATM   31  C   UNL     1     -11.570   6.366  70.884  1.00  0.00    -0.331 A  
HETATM   32  N   UNL     1     -11.687   7.705  70.776  1.00  0.00    -0.272 NA 
HETATM   33  C   UNL     1     -10.664   8.311  70.122  1.00  0.00    -0.239 A  
ENDBRANCH  26  28
ENDBRANCH  23  26
ENDBRANCH  21  22
ENDBRANCH  17  20
ENDBRANCH  10  15
TORSDOF 5
ENDMDL
MODEL      267
REMARK 921   NORMALIZED FREE ENERGY PREDICTED BY IDOCK:   -4.27 KCAL/MOL
REMARK 922        TOTAL FREE ENERGY PREDICTED BY IDOCK:   -6.78 KCAL/MOL
REMARK 923 INTER-LIGAND FREE ENERGY PREDICTED BY IDOCK:   -5.72 KCAL/MOL
REMARK 924 INTRA-LIGAND FREE ENERGY PREDICTED BY IDOCK:   -1.06 KCAL/MOL
REMARK 927      BINDING AFFINITY PREDICTED BY RF-SCORE:    0.00 PKD
ROOT
HETATM    1  F   UNL     1     -10.266  10.309  62.600  1.00  0.00    -0.187 F  
HETATM    2  C   UNL     1      -9.374  10.287  63.630  1.00  0.00    -0.296 C  
HETATM    3  F   UNL     1      -9.528   9.076  64.231  1.00  0.00    -0.049 F  
HETATM    4  F   UNL     1      -8.141  10.269  63.053  1.00  0.00    -0.139 F  
HETATM    5  C   UNL     1      -9.543  11.438  64.594  1.00  0.00    -0.228 A  
HETATM    6  C   UNL     1     -10.529  12.418  64.408  1.00  0.00    -0.371 A  
HETATM    7  C   UNL     1     -10.678  13.476  65.321  1.00  0.00    -0.328 A  
HETATM    8  C   UNL     1     -11.751  14.521  65.122  1.00  0.00    -0.376 C  
HETATM    9  C   UNL     1      -9.816  13.550  66.433  1.00  0.00    -0.299 A  
HETATM   10  C   UNL     1      -8.817  12.588  66.634  1.00  0.00    -0.142 A  
HETATM   11  F   UNL     1     -11.241  15.781  65.017  1.00  0.00    -0.358 F  
HETATM   12  F   UNL     1     -12.494  14.327  63.998  1.00  0.00    -0.476 F  
HETATM   13  F   UNL     1     -12.639  14.559  66.152  1.00  0.00    -0.393 F  
HETATM   14  C   UNL     1      -8.698  11.537  65.710  1.00  0.00    -0.007 A  
ENDROOT
BRANCH  10  15
HETATM   15  C   UNL     1      -7.910  12.636  67.781  1.00  0.00    -0.154 A  
HETATM   16  N   UNL     1      -7.477  11.573  68.473  1.00  0.00    -0.108 NA 
HETATM   17  N   UNL     1      -6.551  12.105  69.331  1.00  0.00    -0.108 NA 
HETATM   18  N   UNL     1      -7.442  13.831  68.250  1.00  0.00    -0.108 NA 
HETATM   19  C   UNL     1      -6.634  13.479  69.216  1.00  0.00    -0.103 A  
BRANCH  17  20
HETATM   20  C   UNL     1      -5.769  11.344  70.213  1.00  0.00    -0.143 C  
HETATM   21  C   UNL     1      -5.919  10.094  70.695  1.00  0.00    -0.104 C  
BRANCH  21  22
HETATM   22  C   UNL     1      -7.116   9.233  70.542  1.00  0.00    -0.100 C  
HETATM   23  N   UNL     1      -7.096   8.365  69.476  1.00  0.00    -0.052 N  
HETATM   24  O   UNL     1      -8.055   9.248  71.333  1.00  0.00    -0.330 OA 
HETATM   25  H   UNL     1      -6.285   8.274  68.862  1.00  0.00     0.000 HD 
BRANCH  23  26
HETATM   26  N   UNL     1      -8.275   7.606  69.289  1.00  0.00    -0.131 NA 
HETATM   27  H   UNL     1      -9.077   7.666  69.915  1.00  0.00     0.000 HD 
BRANCH  26  28
HETATM   28  C   UNL     1      -8.245   6.757  68.155  1.00  0.00    -0.114 A  
HETATM   29  N   UNL     1      -7.320   5.771  68.041  1.00  0.00    -0.073 NA 
HETATM   30  C   UNL     1      -7.341   5.076  66.873  1.00  0.00    -0.086 A  
HETATM   31  C   UNL     1      -8.231   5.348  65.846  1.00  0.00    -0.119 A  
HETATM   32  N   UNL     1      -9.150   6.330  65.934  1.00  0.00    -0.115 NA 
HETATM   33  C   UNL     1      -9.126   7.025  67.100  1.00  0.00    -0.128 A  
ENDBRANCH  26  28
ENDBRANCH  23  26
ENDBRANCH  21  22
ENDBRANCH  17  20
ENDBRANCH  10  15
TORSDOF 5
ENDMDL
MODEL      268
REMARK 921   NORMALIZED FREE ENERGY PREDICTED BY IDOCK:   -4.26 KCAL/MOL
REMARK 922        TOTAL FREE ENERGY PREDICTED BY IDOCK:   -6.77 KCAL/MOL
REMARK 923 INTER-LIGAND FREE ENERGY PREDICTED BY IDOCK:   -5.58 KCAL/MOL
REMARK 924 INTRA-LIGAND FREE ENERGY PREDICTED BY IDOCK:   -1.18 KCAL/MOL
REMARK 927      BINDING AFFINITY PREDICTED BY RF-SCORE:    0.00 PKD
ROOT
HETATM    1  F   UNL     1      -7.732  14.139  67.209  1.00  0.00    -0.176 F  
HETATM    2  C   UNL     1      -7.686  12.797  67.436  1.00  0.00    -0.165 C  
HETATM    3  F   UNL     1      -6.413  12.414  67.144  1.00  0.00    -0.140 F  
HETATM    4  F   UNL     1      -7.828  12.643  68.781  1.00  0.00    -0.121 F  
HETATM    5  C   UNL     1      -8.718  12.020  66.654  1.00  0.00    -0.171 A  
HETATM    6  C   UNL     1      -9.625  12.656  65.794  1.00  0.00    -0.117 A  
HETATM    7  C   UNL     1     -10.572  11.915  65.066  1.00  0.00    -0.335 A  
HETATM    8  C   UNL     1     -11.537  12.605  64.131  1.00  0.00    -0.394 C  
HETATM    9  C   UNL     1     -10.609  10.514  65.214  1.00  0.00    -0.137 A  
HETATM   10  C   UNL     1      -9.720   9.858  66.075  1.00  0.00    -0.310 A  
HETATM   11  F   UNL     1     -12.840  12.378  64.462  1.00  0.00    -0.538 F  
HETATM   12  F   UNL     1     -11.392  13.958  64.104  1.00  0.00    -0.377 F  
HETATM   13  F   UNL     1     -11.399  12.192  62.841  1.00  0.00    -0.332 F  
HETATM   14  C   UNL     1      -8.779  10.623  66.782  1.00  0.00    -0.133 A  
ENDROOT
BRANCH  10  15
HETATM   15  C   UNL     1      -9.732   8.405  66.246  1.00  0.00    -0.207 A  
HETATM   16  N   UNL     1      -8.912   7.544  65.627  1.00  0.00    -0.041 NA 
HETATM   17  N   UNL     1      -9.204   6.343  66.219  1.00  0.00    -0.157 NA 
HETATM   18  N   UNL     1     -10.639   7.809  67.076  1.00  0.00    -0.352 NA 
HETATM   19  C   UNL     1     -10.311   6.544  67.020  1.00  0.00    -0.253 A  
BRANCH  17  20
HETATM   20  C   UNL     1      -8.529   5.145  65.939  1.00  0.00    -0.121 C  
HETATM   21  C   UNL     1      -7.713   4.379  66.689  1.00  0.00    -0.094 C  
BRANCH  21  22
HETATM   22  C   UNL     1      -7.150   4.734  68.014  1.00  0.00    -0.062 C  
HETATM   23  N   UNL     1      -8.055   5.178  68.949  1.00  0.00    -0.085 N  
HETATM   24  O   UNL     1      -5.961   4.603  68.292  1.00  0.00    -0.024 OA 
HETATM   25  H   UNL     1      -9.059   5.207  68.765  1.00  0.00     0.000 HD 
BRANCH  23  26
HETATM   26  N   UNL     1      -7.501   5.593  70.182  1.00  0.00    -0.075 NA 
HETATM   27  H   UNL     1      -7.209   4.937  70.906  1.00  0.00     0.000 HD 
BRANCH  26  28
HETATM   28  C   UNL     1      -7.386   6.998  70.325  1.00  0.00    -0.084 A  
HETATM   29  N   UNL     1      -7.264   7.806  69.243  1.00  0.00    -0.079 NA 
HETATM   30  C   UNL     1      -7.080   9.125  69.511  1.00  0.00    -0.059 A  
HETATM   31  C   UNL     1      -7.005   9.634  70.798  1.00  0.00    -0.079 A  
HETATM   32  N   UNL     1      -7.112   8.847  71.887  1.00  0.00    -0.290 NA 
HETATM   33  C   UNL     1      -7.293   7.529  71.618  1.00  0.00    -0.075 A  
ENDBRANCH  26  28
ENDBRANCH  23  26
ENDBRANCH  21  22
ENDBRANCH  17  20
ENDBRANCH  10  15
TORSDOF 5
ENDMDL
MODEL      269
REMARK 921   NORMALIZED FREE ENERGY PREDICTED BY IDOCK:   -4.22 KCAL/MOL
REMARK 922        TOTAL FREE ENERGY PREDICTED BY IDOCK:   -6.72 KCAL/MOL
REMARK 923 INTER-LIGAND FREE ENERGY PREDICTED BY IDOCK:   -5.49 KCAL/MOL
REMARK 924 INTRA-LIGAND FREE ENERGY PREDICTED BY IDOCK:   -1.23 KCAL/MOL
REMARK 927      BINDING AFFINITY PREDICTED BY RF-SCORE:    0.00 PKD
ROOT
HETATM    1  F   UNL     1     -11.130  13.924  65.888  1.00  0.00    -0.289 F  
HETATM    2  C   UNL     1     -11.432  12.604  66.041  1.00  0.00    -0.368 C  
HETATM    3  F   UNL     1     -12.470  12.559  66.919  1.00  0.00    -0.235 F  
HETATM    4  F   UNL     1     -11.932  12.196  64.842  1.00  0.00    -0.402 F  
HETATM    5  C   UNL     1     -10.257  11.768  66.490  1.00  0.00    -0.240 A  
HETATM    6  C   UNL     1      -8.991  12.330  66.710  1.00  0.00    -0.209 A  
HETATM    7  C   UNL     1      -7.912  11.538  67.138  1.00  0.00    -0.160 A  
HETATM    8  C   UNL     1      -6.555  12.153  67.385  1.00  0.00    -0.147 C  
HETATM    9  C   UNL     1      -8.111  10.158  67.339  1.00  0.00    -0.114 A  
HETATM   10  C   UNL     1      -9.364   9.572  67.116  1.00  0.00    -0.174 A  
HETATM   11  F   UNL     1      -5.579  11.598  66.611  1.00  0.00    -0.109 F  
HETATM   12  F   UNL     1      -6.511  13.490  67.134  1.00  0.00    -0.156 F  
HETATM   13  F   UNL     1      -6.142  12.005  68.674  1.00  0.00    -0.050 F  
HETATM   14  C   UNL     1     -10.425  10.390  66.698  1.00  0.00    -0.279 A  
ENDROOT
BRANCH  10  15
HETATM   15  C   UNL     1      -9.602   8.143  67.321  1.00  0.00    -0.163 A  
HETATM   16  N   UNL     1      -8.666   7.236  67.637  1.00  0.00    -0.125 NA 
HETATM   17  N   UNL     1      -9.390   6.096  67.867  1.00  0.00    -0.115 NA 
HETATM   18  N   UNL     1     -10.856   7.619  67.177  1.00  0.00    -0.277 NA 
HETATM   19  C   UNL     1     -10.692   6.359  67.490  1.00  0.00    -0.319 A  
BRANCH  17  20
HETATM   20  C   UNL     1      -8.831   4.886  68.306  1.00  0.00    -0.103 C  
HETATM   21  C   UNL     1      -8.805   4.298  69.518  1.00  0.00    -0.138 C  
BRANCH  21  22
HETATM   22  C   UNL     1      -9.231   4.910  70.799  1.00  0.00    -0.145 C  
HETATM   23  N   UNL     1      -8.817   6.204  71.010  1.00  0.00    -0.139 N  
HETATM   24  O   UNL     1      -9.946   4.330  71.611  1.00  0.00    -0.182 OA 
HETATM   25  H   UNL     1      -8.301   6.733  70.307  1.00  0.00     0.000 HD 
BRANCH  23  26
HETATM   26  N   UNL     1      -9.157   6.753  72.269  1.00  0.00    -0.133 NA 
HETATM   27  H   UNL     1     -10.121   6.882  72.574  1.00  0.00     0.000 HD 
BRANCH  26  28
HETATM   28  C   UNL     1      -8.043   7.108  73.068  1.00  0.00    -0.105 A  
HETATM   29  N   UNL     1      -7.779   8.403  73.369  1.00  0.00    -0.336 NA 
HETATM   30  C   UNL     1      -6.638   8.624  74.073  1.00  0.00    -0.065 A  
HETATM   31  C   UNL     1      -5.777   7.608  74.458  1.00  0.00    -0.074 A  
HETATM   32  N   UNL     1      -6.015   6.315  74.160  1.00  0.00    -0.062 NA 
HETATM   33  C   UNL     1      -7.153   6.097  73.454  1.00  0.00    -0.084 A  
ENDBRANCH  26  28
ENDBRANCH  23  26
ENDBRANCH  21  22
ENDBRANCH  17  20
ENDBRANCH  10  15
TORSDOF 5
ENDMDL
MODEL      270
REMARK 921   NORMALIZED FREE ENERGY PREDICTED BY IDOCK:   -4.21 KCAL/MOL
REMARK 922        TOTAL FREE ENERGY PREDICTED BY IDOCK:   -6.70 KCAL/MOL
REMARK 923 INTER-LIGAND FREE ENERGY PREDICTED BY IDOCK:   -5.28 KCAL/MOL
REMARK 924 INTRA-LIGAND FREE ENERGY PREDICTED BY IDOCK:   -1.42 KCAL/MOL
REMARK 927      BINDING AFFINITY PREDICTED BY RF-SCORE:    0.00 PKD
ROOT
HETATM    1  F   UNL     1      -7.985  10.023  63.601  1.00  0.00    -0.134 F  
HETATM    2  C   UNL     1      -8.612  10.384  64.756  1.00  0.00    -0.182 C  
HETATM    3  F   UNL     1      -7.800  11.301  65.348  1.00  0.00     0.013 F  
HETATM    4  F   UNL     1      -9.731  11.060  64.374  1.00  0.00    -0.234 F  
HETATM    5  C   UNL     1      -8.923   9.216  65.660  1.00  0.00    -0.249 A  
HETATM    6  C   UNL     1      -8.591   7.900  65.307  1.00  0.00    -0.084 A  
HETATM    7  C   UNL     1      -8.879   6.826  66.167  1.00  0.00    -0.161 A  
HETATM    8  C   UNL     1      -8.507   5.412  65.786  1.00  0.00    -0.131 C  
HETATM    9  C   UNL     1      -9.519   7.083  67.396  1.00  0.00    -0.155 A  
HETATM   10  C   UNL     1      -9.869   8.388  67.766  1.00  0.00    -0.218 A  
HETATM   11  F   UNL     1      -9.587   4.582  65.737  1.00  0.00    -0.140 F  
HETATM   12  F   UNL     1      -7.911   5.318  64.566  1.00  0.00    -0.079 F  
HETATM   13  F   UNL     1      -7.637   4.847  66.668  1.00  0.00    -0.083 F  
HETATM   14  C   UNL     1      -9.560   9.442  66.891  1.00  0.00    -0.217 A  
ENDROOT
BRANCH  10  15
HETATM   15  C   UNL     1     -10.529   8.686  69.037  1.00  0.00    -0.199 A  
HETATM   16  N   UNL     1     -10.936   7.777  69.933  1.00  0.00    -0.228 NA 
HETATM   17  N   UNL     1     -11.343   8.537  70.998  1.00  0.00    -0.265 NA 
HETATM   18  N   UNL     1     -10.800   9.977  69.394  1.00  0.00    -0.228 NA 
HETATM   19  C   UNL     1     -11.323   9.855  70.587  1.00  0.00    -0.339 A  
BRANCH  17  20
HETATM   20  C   UNL     1     -11.786   8.005  72.218  1.00  0.00    -0.369 C  
HETATM   21  C   UNL     1     -11.115   7.513  73.279  1.00  0.00    -0.294 C  
BRANCH  21  22
HETATM   22  C   UNL     1      -9.661   7.229  73.341  1.00  0.00    -0.251 C  
HETATM   23  N   UNL     1      -8.832   8.297  73.092  1.00  0.00    -0.242 N  
HETATM   24  O   UNL     1      -9.208   6.128  73.640  1.00  0.00    -0.127 OA 
HETATM   25  H   UNL     1      -9.190   9.239  72.933  1.00  0.00     0.000 HD 
BRANCH  23  26
HETATM   26  N   UNL     1      -7.450   8.001  73.073  1.00  0.00    -0.120 NA 
HETATM   27  H   UNL     1      -6.989   7.462  73.805  1.00  0.00     0.000 HD 
BRANCH  26  28
HETATM   28  C   UNL     1      -6.760   8.519  71.948  1.00  0.00    -0.081 A  
HETATM   29  N   UNL     1      -6.272   9.784  71.946  1.00  0.00    -0.290 NA 
HETATM   30  C   UNL     1      -5.702  10.193  70.781  1.00  0.00    -0.089 A  
HETATM   31  C   UNL     1      -5.627   9.392  69.653  1.00  0.00    -0.033 A  
HETATM   32  N   UNL     1      -6.116   8.136  69.630  1.00  0.00    -0.029 NA 
HETATM   33  C   UNL     1      -6.687   7.730  70.792  1.00  0.00    -0.038 A  
ENDBRANCH  26  28
ENDBRANCH  23  26
ENDBRANCH  21  22
ENDBRANCH  17  20
ENDBRANCH  10  15
TORSDOF 5
ENDMDL
MODEL      271
REMARK 921   NORMALIZED FREE ENERGY PREDICTED BY IDOCK:   -4.21 KCAL/MOL
REMARK 922        TOTAL FREE ENERGY PREDICTED BY IDOCK:   -6.70 KCAL/MOL
REMARK 923 INTER-LIGAND FREE ENERGY PREDICTED BY IDOCK:   -4.97 KCAL/MOL
REMARK 924 INTRA-LIGAND FREE ENERGY PREDICTED BY IDOCK:   -1.73 KCAL/MOL
REMARK 927      BINDING AFFINITY PREDICTED BY RF-SCORE:    0.00 PKD
ROOT
HETATM    1  F   UNL     1     -11.288  13.564  66.931  1.00  0.00    -0.297 F  
HETATM    2  C   UNL     1     -11.424  12.469  67.732  1.00  0.00    -0.321 C  
HETATM    3  F   UNL     1     -12.281  12.838  68.723  1.00  0.00    -0.321 F  
HETATM    4  F   UNL     1     -12.085  11.543  66.985  1.00  0.00    -0.203 F  
HETATM    5  C   UNL     1     -10.110  11.950  68.265  1.00  0.00    -0.203 A  
HETATM    6  C   UNL     1      -8.888  12.557  67.939  1.00  0.00    -0.185 A  
HETATM    7  C   UNL     1      -7.677  12.066  68.454  1.00  0.00    -0.138 A  
HETATM    8  C   UNL     1      -6.365  12.732  68.109  1.00  0.00    -0.088 C  
HETATM    9  C   UNL     1      -7.696  10.941  69.303  1.00  0.00    -0.100 A  
HETATM   10  C   UNL     1      -8.903  10.312  69.635  1.00  0.00    -0.124 A  
HETATM   11  F   UNL     1      -5.492  11.884  67.496  1.00  0.00    -0.049 F  
HETATM   12  F   UNL     1      -6.502  13.794  67.268  1.00  0.00    -0.178 F  
HETATM   13  F   UNL     1      -5.719  13.211  69.207  1.00  0.00    -0.072 F  
HETATM   14  C   UNL     1     -10.099  10.831  69.113  1.00  0.00    -0.224 A  
ENDROOT
BRANCH  10  15
HETATM   15  C   UNL     1      -8.957   9.147  70.518  1.00  0.00    -0.232 A  
HETATM   16  N   UNL     1      -8.245   8.021  70.362  1.00  0.00    -0.116 NA 
HETATM   17  N   UNL     1      -8.522   7.308  71.499  1.00  0.00    -0.113 NA 
HETATM   18  N   UNL     1      -9.793   9.129  71.598  1.00  0.00    -0.286 NA 
HETATM   19  C   UNL     1      -9.526   7.981  72.166  1.00  0.00    -0.202 A  
BRANCH  17  20
HETATM   20  C   UNL     1      -7.931   6.075  71.815  1.00  0.00    -0.107 C  
HETATM   21  C   UNL     1      -7.777   4.945  71.099  1.00  0.00    -0.083 C  
BRANCH  21  22
HETATM   22  C   UNL     1      -8.392   4.650  69.782  1.00  0.00    -0.074 C  
HETATM   23  N   UNL     1      -8.153   5.572  68.791  1.00  0.00    -0.098 N  
HETATM   24  O   UNL     1      -9.038   3.630  69.561  1.00  0.00    -0.104 OA 
HETATM   25  H   UNL     1      -7.543   6.378  68.931  1.00  0.00     0.000 HD 
BRANCH  23  26
HETATM   26  N   UNL     1      -8.810   5.326  67.563  1.00  0.00    -0.106 NA 
HETATM   27  H   UNL     1      -9.173   4.410  67.302  1.00  0.00     0.000 HD 
BRANCH  26  28
HETATM   28  C   UNL     1      -8.920   6.464  66.725  1.00  0.00    -0.130 A  
HETATM   29  N   UNL     1      -8.077   6.651  65.680  1.00  0.00    -0.119 NA 
HETATM   30  C   UNL     1      -8.230   7.818  65.001  1.00  0.00    -0.120 A  
HETATM   31  C   UNL     1      -9.170   8.776  65.345  1.00  0.00    -0.088 A  
HETATM   32  N   UNL     1     -10.010   8.616  66.387  1.00  0.00    -0.278 NA 
HETATM   33  C   UNL     1      -9.854   7.452  67.065  1.00  0.00    -0.209 A  
ENDBRANCH  26  28
ENDBRANCH  23  26
ENDBRANCH  21  22
ENDBRANCH  17  20
ENDBRANCH  10  15
TORSDOF 5
ENDMDL
MODEL      272
REMARK 921   NORMALIZED FREE ENERGY PREDICTED BY IDOCK:   -4.13 KCAL/MOL
REMARK 922        TOTAL FREE ENERGY PREDICTED BY IDOCK:   -6.60 KCAL/MOL
REMARK 923 INTER-LIGAND FREE ENERGY PREDICTED BY IDOCK:   -5.45 KCAL/MOL
REMARK 924 INTRA-LIGAND FREE ENERGY PREDICTED BY IDOCK:   -1.15 KCAL/MOL
REMARK 927      BINDING AFFINITY PREDICTED BY RF-SCORE:    0.00 PKD
ROOT
HETATM    1  F   UNL     1     -10.171   2.417  71.708  1.00  0.00    -0.236 F  
HETATM    2  C   UNL     1      -9.262   3.078  70.939  1.00  0.00    -0.133 C  
HETATM    3  F   UNL     1      -8.058   2.897  71.547  1.00  0.00    -0.053 F  
HETATM    4  F   UNL     1      -9.200   2.392  69.765  1.00  0.00    -0.141 F  
HETATM    5  C   UNL     1      -9.595   4.537  70.737  1.00  0.00    -0.253 A  
HETATM    6  C   UNL     1     -10.743   5.117  71.297  1.00  0.00    -0.142 A  
HETATM    7  C   UNL     1     -11.031   6.479  71.108  1.00  0.00    -0.314 A  
HETATM    8  C   UNL     1     -12.262   7.100  71.725  1.00  0.00    -0.344 C  
HETATM    9  C   UNL     1     -10.153   7.266  70.336  1.00  0.00    -0.196 A  
HETATM   10  C   UNL     1      -9.006   6.707  69.759  1.00  0.00    -0.143 A  
HETATM   11  F   UNL     1     -13.095   7.646  70.794  1.00  0.00    -0.175 F  
HETATM   12  F   UNL     1     -13.021   6.215  72.428  1.00  0.00    -0.241 F  
HETATM   13  F   UNL     1     -11.961   8.103  72.595  1.00  0.00    -0.396 F  
HETATM   14  C   UNL     1      -8.739   5.345  69.973  1.00  0.00    -0.130 A  
ENDROOT
BRANCH  10  15
HETATM   15  C   UNL     1      -8.073   7.499  68.957  1.00  0.00    -0.127 A  
HETATM   16  N   UNL     1      -7.213   8.408  69.438  1.00  0.00    -0.058 NA 
HETATM   17  N   UNL     1      -6.470   8.757  68.341  1.00  0.00    -0.055 NA 
HETATM   18  N   UNL     1      -8.036   7.365  67.597  1.00  0.00    -0.113 NA 
HETATM   19  C   UNL     1      -7.065   8.166  67.243  1.00  0.00    -0.079 A  
BRANCH  17  20
HETATM   20  C   UNL     1      -5.380   9.640  68.379  1.00  0.00    -0.033 C  
HETATM   21  C   UNL     1      -5.312  10.984  68.315  1.00  0.00    -0.039 C  
BRANCH  21  22
HETATM   22  C   UNL     1      -6.427  11.904  67.986  1.00  0.00    -0.055 C  
HETATM   23  N   UNL     1      -7.205  12.303  69.047  1.00  0.00    -0.262 N  
HETATM   24  O   UNL     1      -6.629  12.329  66.852  1.00  0.00    -0.097 OA 
HETATM   25  H   UNL     1      -6.996  12.033  70.008  1.00  0.00     0.000 HD 
BRANCH  23  26
HETATM   26  N   UNL     1      -8.316  13.114  68.714  1.00  0.00    -0.358 NA 
HETATM   27  H   UNL     1      -8.247  14.123  68.591  1.00  0.00     0.000 HD 
BRANCH  26  28
HETATM   28  C   UNL     1      -9.531  12.401  68.565  1.00  0.00    -0.098 A  
HETATM   29  N   UNL     1      -9.568  11.049  68.657  1.00  0.00    -0.190 NA 
HETATM   30  C   UNL     1     -10.776  10.475  68.415  1.00  0.00    -0.224 A  
HETATM   31  C   UNL     1     -11.907  11.202  68.081  1.00  0.00    -0.164 A  
HETATM   32  N   UNL     1     -11.890  12.546  67.972  1.00  0.00    -0.351 NA 
HETATM   33  C   UNL     1     -10.683  13.118  68.211  1.00  0.00    -0.245 A  
ENDBRANCH  26  28
ENDBRANCH  23  26
ENDBRANCH  21  22
ENDBRANCH  17  20
ENDBRANCH  10  15
TORSDOF 5
ENDMDL
MODEL      273
REMARK 921   NORMALIZED FREE ENERGY PREDICTED BY IDOCK:   -4.08 KCAL/MOL
REMARK 922        TOTAL FREE ENERGY PREDICTED BY IDOCK:   -6.54 KCAL/MOL
REMARK 923 INTER-LIGAND FREE ENERGY PREDICTED BY IDOCK:   -5.99 KCAL/MOL
REMARK 924 INTRA-LIGAND FREE ENERGY PREDICTED BY IDOCK:   -0.55 KCAL/MOL
REMARK 927      BINDING AFFINITY PREDICTED BY RF-SCORE:    0.00 PKD
ROOT
HETATM    1  F   UNL     1      -6.804  16.340  70.386  1.00  0.00     0.114 F  
HETATM    2  C   UNL     1      -7.104  16.088  69.081  1.00  0.00    -0.197 C  
HETATM    3  F   UNL     1      -6.766  17.215  68.398  1.00  0.00    -0.151 F  
HETATM    4  F   UNL     1      -6.230  15.125  68.679  1.00  0.00    -0.084 F  
HETATM    5  C   UNL     1      -8.543  15.687  68.864  1.00  0.00    -0.211 A  
HETATM    6  C   UNL     1      -9.451  15.588  69.928  1.00  0.00    -0.056 A  
HETATM    7  C   UNL     1     -10.790  15.224  69.705  1.00  0.00    -0.294 A  
HETATM    8  C   UNL     1     -11.766  15.131  70.854  1.00  0.00    -0.332 C  
HETATM    9  C   UNL     1     -11.217  14.949  68.390  1.00  0.00    -0.304 A  
HETATM   10  C   UNL     1     -10.326  15.032  67.313  1.00  0.00    -0.249 A  
HETATM   11  F   UNL     1     -12.316  13.889  70.975  1.00  0.00    -0.374 F  
HETATM   12  F   UNL     1     -11.207  15.408  72.064  1.00  0.00    -0.466 F  
HETATM   13  F   UNL     1     -12.811  15.993  70.723  1.00  0.00    -0.460 F  
HETATM   14  C   UNL     1      -8.997  15.408  67.565  1.00  0.00    -0.191 A  
ENDROOT
BRANCH  10  15
HETATM   15  C   UNL     1     -10.741  14.758  65.937  1.00  0.00    -0.316 A  
HETATM   16  N   UNL     1     -10.821  13.542  65.377  1.00  0.00    -0.287 NA 
HETATM   17  N   UNL     1     -11.389  13.789  64.155  1.00  0.00    -0.317 NA 
HETATM   18  N   UNL     1     -11.069  15.780  65.091  1.00  0.00    -0.351 NA 
HETATM   19  C   UNL     1     -11.437  15.161  63.999  1.00  0.00     0.210 A  
BRANCH  17  20
HETATM   20  C   UNL     1     -11.740  12.789  63.236  1.00  0.00    -0.375 C  
HETATM   21  C   UNL     1     -11.116  11.654  62.864  1.00  0.00     0.183 C  
BRANCH  21  22
HETATM   22  C   UNL     1      -9.736  11.252  63.228  1.00  0.00    -0.382 C  
HETATM   23  N   UNL     1      -9.517   9.900  63.342  1.00  0.00    -0.471 N  
HETATM   24  O   UNL     1      -8.823  12.060  63.375  1.00  0.00     0.266 OA 
HETATM   25  H   UNL     1     -10.240   9.211  63.134  1.00  0.00     0.000 HD 
BRANCH  23  26
HETATM   26  N   UNL     1      -8.221   9.529  63.769  1.00  0.00    -0.149 NA 
HETATM   27  H   UNL     1      -7.378  10.015  63.466  1.00  0.00     0.000 HD 
BRANCH  26  28
HETATM   28  C   UNL     1      -8.195   8.423  64.654  1.00  0.00    -0.154 A  
HETATM   29  N   UNL     1      -8.047   7.157  64.192  1.00  0.00    -0.077 NA 
HETATM   30  C   UNL     1      -8.120   6.175  65.129  1.00  0.00    -0.133 A  
HETATM   31  C   UNL     1      -8.343   6.426  66.473  1.00  0.00    -0.115 A  
HETATM   32  N   UNL     1      -8.503   7.675  66.952  1.00  0.00    -0.123 NA 
HETATM   33  C   UNL     1      -8.434   8.655  66.016  1.00  0.00    -0.141 A  
ENDBRANCH  26  28
ENDBRANCH  23  26
ENDBRANCH  21  22
ENDBRANCH  17  20
ENDBRANCH  10  15
TORSDOF 5
ENDMDL
MODEL      274
REMARK 921   NORMALIZED FREE ENERGY PREDICTED BY IDOCK:   -4.07 KCAL/MOL
REMARK 922        TOTAL FREE ENERGY PREDICTED BY IDOCK:   -6.53 KCAL/MOL
REMARK 923 INTER-LIGAND FREE ENERGY PREDICTED BY IDOCK:   -5.72 KCAL/MOL
REMARK 924 INTRA-LIGAND FREE ENERGY PREDICTED BY IDOCK:   -0.81 KCAL/MOL
REMARK 927      BINDING AFFINITY PREDICTED BY RF-SCORE:    0.00 PKD
ROOT
HETATM    1  F   UNL     1     -10.688  16.799  65.954  1.00  0.00    -0.323 F  
HETATM    2  C   UNL     1     -10.887  15.465  65.759  1.00  0.00    -0.343 C  
HETATM    3  F   UNL     1     -12.107  15.189  66.292  1.00  0.00    -0.149 F  
HETATM    4  F   UNL     1     -11.016  15.303  64.413  1.00  0.00    -0.341 F  
HETATM    5  C   UNL     1      -9.791  14.604  66.341  1.00  0.00    -0.302 A  
HETATM    6  C   UNL     1      -8.688  15.160  67.004  1.00  0.00    -0.264 A  
HETATM    7  C   UNL     1      -7.684  14.342  67.549  1.00  0.00    -0.210 A  
HETATM    8  C   UNL     1      -6.505  14.947  68.275  1.00  0.00    -0.118 C  
HETATM    9  C   UNL     1      -7.790  12.943  67.415  1.00  0.00    -0.170 A  
HETATM   10  C   UNL     1      -8.877  12.365  66.748  1.00  0.00    -0.189 A  
HETATM   11  F   UNL     1      -5.312  14.614  67.705  1.00  0.00    -0.116 F  
HETATM   12  F   UNL     1      -6.531  16.308  68.310  1.00  0.00    -0.116 F  
HETATM   13  F   UNL     1      -6.428  14.544  69.572  1.00  0.00    -0.100 F  
HETATM   14  C   UNL     1      -9.870  13.207  66.222  1.00  0.00    -0.284 A  
ENDROOT
BRANCH  10  15
HETATM   15  C   UNL     1      -9.018  10.917  66.597  1.00  0.00    -0.164 A  
HETATM   16  N   UNL     1      -8.190   9.998  67.115  1.00  0.00    -0.117 NA 
HETATM   17  N   UNL     1      -8.814   8.811  66.835  1.00  0.00    -0.125 NA 
HETATM   18  N   UNL     1     -10.044  10.389  65.865  1.00  0.00    -0.260 NA 
HETATM   19  C   UNL     1      -9.880   9.099  66.005  1.00  0.00    -0.272 A  
BRANCH  17  20
HETATM   20  C   UNL     1      -8.345   7.558  67.259  1.00  0.00    -0.118 C  
HETATM   21  C   UNL     1      -8.430   6.922  68.444  1.00  0.00    -0.123 C  
BRANCH  21  22
HETATM   22  C   UNL     1      -8.912   7.506  69.719  1.00  0.00    -0.141 C  
HETATM   23  N   UNL     1      -8.030   7.450  70.773  1.00  0.00    -0.103 N  
HETATM   24  O   UNL     1     -10.006   8.049  69.833  1.00  0.00    -0.185 OA 
HETATM   25  H   UNL     1      -7.083   7.084  70.672  1.00  0.00     0.000 HD 
BRANCH  23  26
HETATM   26  N   UNL     1      -8.527   7.933  72.006  1.00  0.00    -0.122 NA 
HETATM   27  H   UNL     1      -8.569   8.925  72.235  1.00  0.00     0.000 HD 
BRANCH  26  28
HETATM   28  C   UNL     1      -8.961   6.919  72.895  1.00  0.00    -0.126 A  
HETATM   29  N   UNL     1      -8.083   6.043  73.444  1.00  0.00    -0.111 NA 
HETATM   30  C   UNL     1      -8.630   5.066  74.215  1.00  0.00    -0.114 A  
HETATM   31  C   UNL     1      -9.994   4.945  74.430  1.00  0.00    -0.206 A  
HETATM   32  N   UNL     1     -10.884   5.797  73.885  1.00  0.00    -0.162 NA 
HETATM   33  C   UNL     1     -10.338   6.770  73.113  1.00  0.00    -0.247 A  
ENDBRANCH  26  28
ENDBRANCH  23  26
ENDBRANCH  21  22
ENDBRANCH  17  20
ENDBRANCH  10  15
TORSDOF 5
ENDMDL
MODEL      275
REMARK 921   NORMALIZED FREE ENERGY PREDICTED BY IDOCK:   -4.06 KCAL/MOL
REMARK 922        TOTAL FREE ENERGY PREDICTED BY IDOCK:   -6.51 KCAL/MOL
REMARK 923 INTER-LIGAND FREE ENERGY PREDICTED BY IDOCK:   -5.79 KCAL/MOL
REMARK 924 INTRA-LIGAND FREE ENERGY PREDICTED BY IDOCK:   -0.72 KCAL/MOL
REMARK 927      BINDING AFFINITY PREDICTED BY RF-SCORE:    0.00 PKD
ROOT
HETATM    1  F   UNL     1     -12.888  14.661  64.380  1.00  0.00    -0.376 F  
HETATM    2  C   UNL     1     -12.260  13.587  64.936  1.00  0.00    -0.410 C  
HETATM    3  F   UNL     1     -13.235  12.863  65.550  1.00  0.00    -0.270 F  
HETATM    4  F   UNL     1     -11.827  12.829  63.891  1.00  0.00    -0.389 F  
HETATM    5  C   UNL     1     -11.141  13.967  65.875  1.00  0.00    -0.291 A  
HETATM    6  C   UNL     1     -10.805  15.306  66.121  1.00  0.00    -0.320 A  
HETATM    7  C   UNL     1      -9.767  15.641  67.007  1.00  0.00    -0.234 A  
HETATM    8  C   UNL     1      -9.419  17.086  67.277  1.00  0.00    -0.240 C  
HETATM    9  C   UNL     1      -9.052  14.609  67.649  1.00  0.00    -0.193 A  
HETATM   10  C   UNL     1      -9.363  13.264  67.412  1.00  0.00    -0.217 A  
HETATM   11  F   UNL     1      -8.126  17.381  66.961  1.00  0.00    -0.201 F  
HETATM   12  F   UNL     1     -10.182  17.967  66.575  1.00  0.00    -0.310 F  
HETATM   13  F   UNL     1      -9.572  17.424  68.587  1.00  0.00    -0.257 F  
HETATM   14  C   UNL     1     -10.412  12.961  66.529  1.00  0.00    -0.275 A  
ENDROOT
BRANCH  10  15
HETATM   15  C   UNL     1      -8.643  12.172  68.067  1.00  0.00    -0.175 A  
HETATM   16  N   UNL     1      -9.208  11.083  68.607  1.00  0.00    -0.183 NA 
HETATM   17  N   UNL     1      -8.136  10.302  68.949  1.00  0.00    -0.114 NA 
HETATM   18  N   UNL     1      -7.283  12.209  68.188  1.00  0.00    -0.087 NA 
HETATM   19  C   UNL     1      -7.001  11.065  68.756  1.00  0.00    -0.081 A  
BRANCH  17  20
HETATM   20  C   UNL     1      -8.245   9.011  69.488  1.00  0.00    -0.114 C  
HETATM   21  C   UNL     1      -7.784   7.819  69.061  1.00  0.00    -0.109 C  
BRANCH  21  22
HETATM   22  C   UNL     1      -7.166   7.539  67.743  1.00  0.00    -0.094 C  
HETATM   23  N   UNL     1      -7.965   6.883  66.836  1.00  0.00    -0.107 N  
HETATM   24  O   UNL     1      -6.032   7.902  67.446  1.00  0.00    -0.046 OA 
HETATM   25  H   UNL     1      -8.940   6.655  67.033  1.00  0.00     0.000 HD 
BRANCH  23  26
HETATM   26  N   UNL     1      -7.343   6.547  65.611  1.00  0.00    -0.074 NA 
HETATM   27  H   UNL     1      -6.518   7.030  65.258  1.00  0.00     0.000 HD 
BRANCH  26  28
HETATM   28  C   UNL     1      -7.965   5.480  64.917  1.00  0.00    -0.115 A  
HETATM   29  N   UNL     1      -8.660   4.522  65.579  1.00  0.00    -0.120 NA 
HETATM   30  C   UNL     1      -9.141   3.508  64.813  1.00  0.00    -0.135 A  
HETATM   31  C   UNL     1      -8.937   3.429  63.445  1.00  0.00    -0.093 A  
HETATM   32  N   UNL     1      -8.240   4.364  62.769  1.00  0.00    -0.082 NA 
HETATM   33  C   UNL     1      -7.757   5.375  63.535  1.00  0.00    -0.083 A  
ENDBRANCH  26  28
ENDBRANCH  23  26
ENDBRANCH  21  22
ENDBRANCH  17  20
ENDBRANCH  10  15
TORSDOF 5
ENDMDL
MODEL      276
REMARK 921   NORMALIZED FREE ENERGY PREDICTED BY IDOCK:   -3.88 KCAL/MOL
REMARK 922        TOTAL FREE ENERGY PREDICTED BY IDOCK:   -6.27 KCAL/MOL
REMARK 923 INTER-LIGAND FREE ENERGY PREDICTED BY IDOCK:   -4.86 KCAL/MOL
REMARK 924 INTRA-LIGAND FREE ENERGY PREDICTED BY IDOCK:   -1.41 KCAL/MOL
REMARK 927      BINDING AFFINITY PREDICTED BY RF-SCORE:    0.00 PKD
ROOT
HETATM    1  F   UNL     1      -8.229   5.516  63.156  1.00  0.00    -0.091 F  
HETATM    2  C   UNL     1      -8.139   4.572  64.135  1.00  0.00    -0.100 C  
HETATM    3  F   UNL     1      -8.932   3.542  63.732  1.00  0.00    -0.093 F  
HETATM    4  F   UNL     1      -6.861   4.107  64.087  1.00  0.00    -0.040 F  
HETATM    5  C   UNL     1      -8.514   5.090  65.503  1.00  0.00    -0.134 A  
HETATM    6  C   UNL     1      -8.903   6.422  65.708  1.00  0.00    -0.111 A  
HETATM    7  C   UNL     1      -9.258   6.883  66.987  1.00  0.00    -0.160 A  
HETATM    8  C   UNL     1      -9.688   8.316  67.198  1.00  0.00    -0.195 C  
HETATM    9  C   UNL     1      -9.212   5.990  68.076  1.00  0.00    -0.115 A  
HETATM   10  C   UNL     1      -8.817   4.658  67.898  1.00  0.00    -0.117 A  
HETATM   11  F   UNL     1      -8.894   8.975  68.088  1.00  0.00    -0.130 F  
HETATM   12  F   UNL     1      -9.668   9.061  66.059  1.00  0.00    -0.282 F  
HETATM   13  F   UNL     1     -10.957   8.413  67.682  1.00  0.00    -0.262 F  
HETATM   14  C   UNL     1      -8.478   4.223  66.607  1.00  0.00    -0.108 A  
ENDROOT
BRANCH  10  15
HETATM   15  C   UNL     1      -8.765   3.706  69.008  1.00  0.00    -0.092 A  
HETATM   16  N   UNL     1      -7.903   3.756  70.033  1.00  0.00    -0.048 NA 
HETATM   17  N   UNL     1      -8.342   2.763  70.869  1.00  0.00    -0.053 NA 
HETATM   18  N   UNL     1      -9.625   2.646  69.057  1.00  0.00    -0.071 NA 
HETATM   19  C   UNL     1      -9.326   2.069  70.193  1.00  0.00    -0.101 A  
BRANCH  17  20
HETATM   20  C   UNL     1      -7.782   2.490  72.126  1.00  0.00    -0.052 C  
HETATM   21  C   UNL     1      -8.244   2.687  73.376  1.00  0.00    -0.063 C  
BRANCH  21  22
HETATM   22  C   UNL     1      -9.456   3.454  73.752  1.00  0.00    -0.095 C  
HETATM   23  N   UNL     1      -9.621   4.661  73.115  1.00  0.00    -0.130 N  
HETATM   24  O   UNL     1     -10.293   3.034  74.545  1.00  0.00    -0.153 OA 
HETATM   25  H   UNL     1      -8.984   4.984  72.386  1.00  0.00     0.000 HD 
BRANCH  23  26
HETATM   26  N   UNL     1     -10.734   5.424  73.538  1.00  0.00    -0.267 NA 
HETATM   27  H   UNL     1     -11.211   5.263  74.424  1.00  0.00     0.000 HD 
BRANCH  26  28
HETATM   28  C   UNL     1     -11.129   6.432  72.624  1.00  0.00    -0.261 A  
HETATM   29  N   UNL     1     -11.652   6.117  71.413  1.00  0.00    -0.266 NA 
HETATM   30  C   UNL     1     -11.916   7.168  70.593  1.00  0.00    -0.269 A  
HETATM   31  C   UNL     1     -11.663   8.484  70.944  1.00  0.00    -0.245 A  
HETATM   32  N   UNL     1     -11.133   8.819  72.137  1.00  0.00    -0.363 NA 
HETATM   33  C   UNL     1     -10.867   7.769  72.954  1.00  0.00    -0.392 A  
ENDBRANCH  26  28
ENDBRANCH  23  26
ENDBRANCH  21  22
ENDBRANCH  17  20
ENDBRANCH  10  15
TORSDOF 5
ENDMDL
MODEL      277
REMARK 921   NORMALIZED FREE ENERGY PREDICTED BY IDOCK:   -3.81 KCAL/MOL
REMARK 922        TOTAL FREE ENERGY PREDICTED BY IDOCK:   -6.19 KCAL/MOL
REMARK 923 INTER-LIGAND FREE ENERGY PREDICTED BY IDOCK:   -5.26 KCAL/MOL
REMARK 924 INTRA-LIGAND FREE ENERGY PREDICTED BY IDOCK:   -0.93 KCAL/MOL
REMARK 927      BINDING AFFINITY PREDICTED BY RF-SCORE:    0.00 PKD
ROOT
HETATM    1  F   UNL     1      -7.088  15.391  69.547  1.00  0.00    -0.147 F  
HETATM    2  C   UNL     1      -6.870  14.170  68.981  1.00  0.00    -0.110 C  
HETATM    3  F   UNL     1      -5.697  14.280  68.301  1.00  0.00    -0.084 F  
HETATM    4  F   UNL     1      -6.629  13.319  70.015  1.00  0.00    -0.096 F  
HETATM    5  C   UNL     1      -8.007  13.705  68.103  1.00  0.00    -0.148 A  
HETATM    6  C   UNL     1      -9.163  14.478  67.919  1.00  0.00    -0.196 A  
HETATM    7  C   UNL     1     -10.206  14.032  67.090  1.00  0.00    -0.258 A  
HETATM    8  C   UNL     1     -11.443  14.876  66.886  1.00  0.00    -0.313 C  
HETATM    9  C   UNL     1     -10.086  12.787  66.443  1.00  0.00    -0.266 A  
HETATM   10  C   UNL     1      -8.945  11.992  66.619  1.00  0.00    -0.204 A  
HETATM   11  F   UNL     1     -12.583  14.234  67.267  1.00  0.00    -0.351 F  
HETATM   12  F   UNL     1     -11.424  16.044  67.586  1.00  0.00    -0.284 F  
HETATM   13  F   UNL     1     -11.626  15.228  65.584  1.00  0.00    -0.311 F  
HETATM   14  C   UNL     1      -7.914  12.468  67.446  1.00  0.00    -0.180 A  
ENDROOT
BRANCH  10  15
HETATM   15  C   UNL     1      -8.788  10.697  65.957  1.00  0.00    -0.175 A  
HETATM   16  N   UNL     1      -8.365   9.570  66.547  1.00  0.00    -0.118 NA 
HETATM   17  N   UNL     1      -8.531   8.619  65.575  1.00  0.00    -0.156 NA 
HETATM   18  N   UNL     1      -9.061  10.558  64.626  1.00  0.00    -0.204 NA 
HETATM   19  C   UNL     1      -8.870   9.282  64.412  1.00  0.00    -0.159 A  
BRANCH  17  20
HETATM   20  C   UNL     1      -8.286   7.250  65.766  1.00  0.00    -0.139 C  
HETATM   21  C   UNL     1      -8.649   6.402  66.748  1.00  0.00    -0.113 C  
BRANCH  21  22
HETATM   22  C   UNL     1      -9.282   6.772  68.036  1.00  0.00    -0.117 C  
HETATM   23  N   UNL     1      -8.428   7.223  69.015  1.00  0.00    -0.129 N  
HETATM   24  O   UNL     1     -10.495   6.730  68.221  1.00  0.00    -0.177 OA 
HETATM   25  H   UNL     1      -7.429   7.352  68.849  1.00  0.00     0.000 HD 
BRANCH  23  26
HETATM   26  N   UNL     1      -9.028   7.495  70.266  1.00  0.00    -0.146 NA 
HETATM   27  H   UNL     1      -9.681   8.265  70.411  1.00  0.00     0.000 HD 
BRANCH  26  28
HETATM   28  C   UNL     1      -8.643   6.607  71.301  1.00  0.00    -0.126 A  
HETATM   29  N   UNL     1      -7.519   6.822  72.029  1.00  0.00    -0.092 NA 
HETATM   30  C   UNL     1      -7.212   5.859  72.937  1.00  0.00    -0.090 A  
HETATM   31  C   UNL     1      -7.975   4.715  73.115  1.00  0.00    -0.100 A  
HETATM   32  N   UNL     1      -9.088   4.476  72.394  1.00  0.00    -0.123 NA 
HETATM   33  C   UNL     1      -9.393   5.438  71.486  1.00  0.00    -0.147 A  
ENDBRANCH  26  28
ENDBRANCH  23  26
ENDBRANCH  21  22
ENDBRANCH  17  20
ENDBRANCH  10  15
TORSDOF 5
ENDMDL
MODEL      278
REMARK 921   NORMALIZED FREE ENERGY PREDICTED BY IDOCK:   -3.79 KCAL/MOL
REMARK 922        TOTAL FREE ENERGY PREDICTED BY IDOCK:   -6.16 KCAL/MOL
REMARK 923 INTER-LIGAND FREE ENERGY PREDICTED BY IDOCK:   -4.76 KCAL/MOL
REMARK 924 INTRA-LIGAND FREE ENERGY PREDICTED BY IDOCK:   -1.40 KCAL/MOL
REMARK 927      BINDING AFFINITY PREDICTED BY RF-SCORE:    0.00 PKD
ROOT
HETATM    1  F   UNL     1     -11.759  15.067  66.958  1.00  0.00    -0.354 F  
HETATM    2  C   UNL     1     -11.591  13.807  66.467  1.00  0.00    -0.365 C  
HETATM    3  F   UNL     1     -12.631  13.077  66.953  1.00  0.00    -0.274 F  
HETATM    4  F   UNL     1     -11.791  13.902  65.124  1.00  0.00    -0.321 F  
HETATM    5  C   UNL     1     -10.250  13.203  66.809  1.00  0.00    -0.252 A  
HETATM    6  C   UNL     1      -9.292  13.906  67.555  1.00  0.00    -0.217 A  
HETATM    7  C   UNL     1      -8.053  13.324  67.873  1.00  0.00    -0.159 A  
HETATM    8  C   UNL     1      -7.032  14.082  68.688  1.00  0.00    -0.106 C  
HETATM    9  C   UNL     1      -7.773  12.018  67.426  1.00  0.00    -0.162 A  
HETATM   10  C   UNL     1      -8.710  11.300  66.671  1.00  0.00    -0.174 A  
HETATM   11  F   UNL     1      -5.850  14.243  68.028  1.00  0.00    -0.097 F  
HETATM   12  F   UNL     1      -7.436  15.335  69.035  1.00  0.00    -0.118 F  
HETATM   13  F   UNL     1      -6.727  13.455  69.857  1.00  0.00    -0.088 F  
HETATM   14  C   UNL     1      -9.943  11.904  66.377  1.00  0.00    -0.237 A  
ENDROOT
BRANCH  10  15
HETATM   15  C   UNL     1      -8.450   9.941  66.196  1.00  0.00    -0.125 A  
HETATM   16  N   UNL     1      -7.591   9.075  66.752  1.00  0.00    -0.090 NA 
HETATM   17  N   UNL     1      -7.812   7.915  66.058  1.00  0.00    -0.091 NA 
HETATM   18  N   UNL     1      -9.087   9.456  65.089  1.00  0.00    -0.222 NA 
HETATM   19  C   UNL     1      -8.658   8.223  65.011  1.00  0.00    -0.075 A  
BRANCH  17  20
HETATM   20  C   UNL     1      -7.182   6.694  66.347  1.00  0.00    -0.072 C  
HETATM   21  C   UNL     1      -7.356   5.810  67.349  1.00  0.00    -0.077 C  
BRANCH  21  22
HETATM   22  C   UNL     1      -8.180   6.014  68.565  1.00  0.00    -0.110 C  
HETATM   23  N   UNL     1      -7.933   7.168  69.269  1.00  0.00    -0.117 N  
HETATM   24  O   UNL     1      -9.064   5.235  68.910  1.00  0.00    -0.108 OA 
HETATM   25  H   UNL     1      -7.267   7.871  68.947  1.00  0.00     0.000 HD 
BRANCH  23  26
HETATM   26  N   UNL     1      -8.665   7.315  70.470  1.00  0.00    -0.147 NA 
HETATM   27  H   UNL     1      -9.664   7.125  70.537  1.00  0.00     0.000 HD 
BRANCH  26  28
HETATM   28  C   UNL     1      -7.889   7.751  71.573  1.00  0.00    -0.088 A  
HETATM   29  N   UNL     1      -6.642   8.254  71.400  1.00  0.00    -0.046 NA 
HETATM   30  C   UNL     1      -5.967   8.561  72.539  1.00  0.00    -0.073 A  
HETATM   31  C   UNL     1      -6.494   8.369  73.806  1.00  0.00    -0.116 A  
HETATM   32  N   UNL     1      -7.726   7.859  74.001  1.00  0.00    -0.160 NA 
HETATM   33  C   UNL     1      -8.398   7.550  72.864  1.00  0.00    -0.120 A  
ENDBRANCH  26  28
ENDBRANCH  23  26
ENDBRANCH  21  22
ENDBRANCH  17  20
ENDBRANCH  10  15
TORSDOF 5
ENDMDL
MODEL      279
REMARK 921   NORMALIZED FREE ENERGY PREDICTED BY IDOCK:   -3.56 KCAL/MOL
REMARK 922        TOTAL FREE ENERGY PREDICTED BY IDOCK:   -5.87 KCAL/MOL
REMARK 923 INTER-LIGAND FREE ENERGY PREDICTED BY IDOCK:   -4.56 KCAL/MOL
REMARK 924 INTRA-LIGAND FREE ENERGY PREDICTED BY IDOCK:   -1.31 KCAL/MOL
REMARK 927      BINDING AFFINITY PREDICTED BY RF-SCORE:    0.00 PKD
ROOT
HETATM    1  F   UNL     1     -12.032  14.491  69.160  1.00  0.00    -0.313 F  
HETATM    2  C   UNL     1     -11.604  13.197  69.131  1.00  0.00    -0.316 C  
HETATM    3  F   UNL     1     -12.011  12.645  70.306  1.00  0.00    -0.390 F  
HETATM    4  F   UNL     1     -12.333  12.589  68.155  1.00  0.00    -0.299 F  
HETATM    5  C   UNL     1     -10.117  13.062  68.910  1.00  0.00     0.031 A  
HETATM    6  C   UNL     1      -9.289  14.182  68.748  1.00  0.00    -0.092 A  
HETATM    7  C   UNL     1      -7.905  14.037  68.554  1.00  0.00    -0.140 A  
HETATM    8  C   UNL     1      -7.017  15.248  68.393  1.00  0.00    -0.111 C  
HETATM    9  C   UNL     1      -7.349  12.743  68.516  1.00  0.00    -0.115 A  
HETATM   10  C   UNL     1      -8.157  11.608  68.666  1.00  0.00    -0.121 A  
HETATM   11  F   UNL     1      -6.344  15.250  67.207  1.00  0.00    -0.177 F  
HETATM   12  F   UNL     1      -7.696  16.427  68.436  1.00  0.00    -0.152 F  
HETATM   13  F   UNL     1      -6.067  15.332  69.364  1.00  0.00    -0.102 F  
HETATM   14  C   UNL     1      -9.535  11.785  68.868  1.00  0.00     0.055 A  
ENDROOT
BRANCH  10  15
HETATM   15  C   UNL     1      -7.609  10.252  68.636  1.00  0.00    -0.089 A  
HETATM   16  N   UNL     1      -8.243   9.148  69.056  1.00  0.00    -0.112 NA 
HETATM   17  N   UNL     1      -7.399   8.134  68.689  1.00  0.00    -0.087 NA 
HETATM   18  N   UNL     1      -6.345  10.022  68.171  1.00  0.00    -0.054 NA 
HETATM   19  C   UNL     1      -6.232   8.721  68.240  1.00  0.00    -0.054 A  
BRANCH  17  20
HETATM   20  C   UNL     1      -7.686   6.772  68.860  1.00  0.00    -0.110 C  
HETATM   21  C   UNL     1      -8.097   5.826  67.992  1.00  0.00    -0.104 C  
BRANCH  21  22
HETATM   22  C   UNL     1      -8.547   6.051  66.598  1.00  0.00    -0.113 C  
HETATM   23  N   UNL     1      -8.203   7.263  66.046  1.00  0.00    -0.130 N  
HETATM   24  O   UNL     1      -9.150   5.204  65.945  1.00  0.00    -0.145 OA 
HETATM   25  H   UNL     1      -7.623   7.942  66.541  1.00  0.00     0.000 HD 
BRANCH  23  26
HETATM   26  N   UNL     1      -8.705   7.504  64.747  1.00  0.00    -0.350 NA 
HETATM   27  H   UNL     1      -8.915   6.755  64.087  1.00  0.00     0.000 HD 
BRANCH  26  28
HETATM   28  C   UNL     1      -8.891   8.874  64.440  1.00  0.00    -0.005 A  
HETATM   29  N   UNL     1      -9.736   9.648  65.166  1.00  0.00    -0.278 NA 
HETATM   30  C   UNL     1      -9.892  10.924  64.726  1.00  0.00    -0.288 A  
HETATM   31  C   UNL     1      -9.251  11.421  63.603  1.00  0.00    -0.053 A  
HETATM   32  N   UNL     1      -8.416  10.667  62.860  1.00  0.00    -0.183 NA 
HETATM   33  C   UNL     1      -8.264   9.392  63.299  1.00  0.00    -0.166 A  
ENDBRANCH  26  28
ENDBRANCH  23  26
ENDBRANCH  21  22
ENDBRANCH  17  20
ENDBRANCH  10  15
TORSDOF 5
ENDMDL
MODEL      280
REMARK 921   NORMALIZED FREE ENERGY PREDICTED BY IDOCK:   -3.48 KCAL/MOL
REMARK 922        TOTAL FREE ENERGY PREDICTED BY IDOCK:   -5.76 KCAL/MOL
REMARK 923 INTER-LIGAND FREE ENERGY PREDICTED BY IDOCK:   -5.00 KCAL/MOL
REMARK 924 INTRA-LIGAND FREE ENERGY PREDICTED BY IDOCK:   -0.76 KCAL/MOL
REMARK 927      BINDING AFFINITY PREDICTED BY RF-SCORE:    0.00 PKD
ROOT
HETATM    1  F   UNL     1      -6.760   3.865  70.704  1.00  0.00    -0.029 F  
HETATM    2  C   UNL     1      -7.157   4.762  69.757  1.00  0.00    -0.054 C  
HETATM    3  F   UNL     1      -6.013   5.235  69.191  1.00  0.00    -0.019 F  
HETATM    4  F   UNL     1      -7.781   4.031  68.793  1.00  0.00    -0.054 F  
HETATM    5  C   UNL     1      -8.032   5.864  70.303  1.00  0.00    -0.106 A  
HETATM    6  C   UNL     1      -8.388   5.921  71.658  1.00  0.00    -0.127 A  
HETATM    7  C   UNL     1      -9.195   6.960  72.151  1.00  0.00    -0.143 A  
HETATM    8  C   UNL     1      -9.564   7.023  73.615  1.00  0.00    -0.225 C  
HETATM    9  C   UNL     1      -9.657   7.952  71.262  1.00  0.00    -0.186 A  
HETATM   10  C   UNL     1      -9.322   7.910  69.903  1.00  0.00    -0.156 A  
HETATM   11  F   UNL     1     -10.912   6.997  73.817  1.00  0.00    -0.349 F  
HETATM   12  F   UNL     1      -9.059   5.991  74.345  1.00  0.00    -0.123 F  
HETATM   13  F   UNL     1      -9.115   8.158  74.218  1.00  0.00    -0.260 F  
HETATM   14  C   UNL     1      -8.506   6.865  69.441  1.00  0.00    -0.133 A  
ENDROOT
BRANCH  10  15
HETATM   15  C   UNL     1      -9.782   8.927  68.956  1.00  0.00    -0.171 A  
HETATM   16  N   UNL     1      -9.329   9.085  67.704  1.00  0.00    -0.135 NA 
HETATM   17  N   UNL     1     -10.156  10.044  67.183  1.00  0.00    -0.201 NA 
HETATM   18  N   UNL     1     -10.736   9.836  69.320  1.00  0.00    -0.218 NA 
HETATM   19  C   UNL     1     -10.927  10.525  68.224  1.00  0.00    -0.263 A  
BRANCH  17  20
HETATM   20  C   UNL     1     -10.106  10.485  65.852  1.00  0.00    -0.260 C  
HETATM   21  C   UNL     1      -9.425  10.032  64.782  1.00  0.00    -0.366 C  
BRANCH  21  22
HETATM   22  C   UNL     1      -8.356   9.004  64.794  1.00  0.00    -0.173 C  
HETATM   23  N   UNL     1      -8.641   7.838  64.125  1.00  0.00    -0.354 N  
HETATM   24  O   UNL     1      -7.263   9.184  65.324  1.00  0.00    -0.087 OA 
HETATM   25  H   UNL     1      -9.507   7.707  63.602  1.00  0.00     0.000 HD 
BRANCH  23  26
HETATM   26  N   UNL     1      -7.650   6.831  64.211  1.00  0.00    -0.098 NA 
HETATM   27  H   UNL     1      -6.653   7.028  64.130  1.00  0.00     0.000 HD 
BRANCH  26  28
HETATM   28  C   UNL     1      -8.163   5.527  64.419  1.00  0.00    -0.127 A  
HETATM   29  N   UNL     1      -8.825   5.207  65.558  1.00  0.00    -0.146 NA 
HETATM   30  C   UNL     1      -9.198   3.905  65.676  1.00  0.00    -0.152 A  
HETATM   31  C   UNL     1      -8.919   2.947  64.715  1.00  0.00    -0.127 A  
HETATM   32  N   UNL     1      -8.253   3.242  63.581  1.00  0.00    -0.085 NA 
HETATM   33  C   UNL     1      -7.878   4.541  63.465  1.00  0.00    -0.077 A  
ENDBRANCH  26  28
ENDBRANCH  23  26
ENDBRANCH  21  22
ENDBRANCH  17  20
ENDBRANCH  10  15
TORSDOF 5
ENDMDL
MODEL      281
REMARK 921   NORMALIZED FREE ENERGY PREDICTED BY IDOCK:   -3.35 KCAL/MOL
REMARK 922        TOTAL FREE ENERGY PREDICTED BY IDOCK:   -5.60 KCAL/MOL
REMARK 923 INTER-LIGAND FREE ENERGY PREDICTED BY IDOCK:   -4.68 KCAL/MOL
REMARK 924 INTRA-LIGAND FREE ENERGY PREDICTED BY IDOCK:   -0.92 KCAL/MOL
REMARK 927      BINDING AFFINITY PREDICTED BY RF-SCORE:    0.00 PKD
ROOT
HETATM    1  F   UNL     1     -11.175  18.093  65.365  1.00  0.00    -0.153 F  
HETATM    2  C   UNL     1     -10.840  16.834  65.764  1.00  0.00    -0.087 C  
HETATM    3  F   UNL     1     -11.742  16.496  66.725  1.00  0.00     0.429 F  
HETATM    4  F   UNL     1     -11.100  16.026  64.700  1.00  0.00    -0.438 F  
HETATM    5  C   UNL     1      -9.412  16.716  66.242  1.00  0.00    -0.321 A  
HETATM    6  C   UNL     1      -8.543  17.817  66.251  1.00  0.00    -0.217 A  
HETATM    7  C   UNL     1      -7.221  17.692  66.709  1.00  0.00    -0.247 A  
HETATM    8  C   UNL     1      -6.294  18.885  66.728  1.00  0.00    -0.186 C  
HETATM    9  C   UNL     1      -6.766  16.435  67.157  1.00  0.00    -0.239 A  
HETATM   10  C   UNL     1      -7.612  15.319  67.148  1.00  0.00    -0.224 A  
HETATM   11  F   UNL     1      -5.175  18.690  65.976  1.00  0.00    -0.149 F  
HETATM   12  F   UNL     1      -6.868  20.024  66.253  1.00  0.00    -0.200 F  
HETATM   13  F   UNL     1      -5.858  19.186  67.982  1.00  0.00    -0.193 F  
HETATM   14  C   UNL     1      -8.931  15.478  66.694  1.00  0.00    -0.320 A  
ENDROOT
BRANCH  10  15
HETATM   15  C   UNL     1      -7.171  14.003  67.611  1.00  0.00    -0.176 A  
HETATM   16  N   UNL     1      -7.506  13.438  68.780  1.00  0.00    -0.094 NA 
HETATM   17  N   UNL     1      -6.982  12.176  68.686  1.00  0.00    -0.091 NA 
HETATM   18  N   UNL     1      -6.331  13.242  66.847  1.00  0.00     0.224 NA 
HETATM   19  C   UNL     1      -6.211  12.140  67.542  1.00  0.00    -0.130 A  
BRANCH  17  20
HETATM   20  C   UNL     1      -7.152  11.181  69.662  1.00  0.00    -0.048 C  
HETATM   21  C   UNL     1      -7.795   9.997  69.633  1.00  0.00    -0.171 C  
BRANCH  21  22
HETATM   22  C   UNL     1      -8.687   9.510  68.554  1.00  0.00    -0.124 C  
HETATM   23  N   UNL     1      -8.169   8.523  67.750  1.00  0.00    -0.121 N  
HETATM   24  O   UNL     1      -9.835   9.918  68.401  1.00  0.00    -0.147 OA 
HETATM   25  H   UNL     1      -7.252   8.107  67.918  1.00  0.00     0.000 HD 
BRANCH  23  26
HETATM   26  N   UNL     1      -8.994   8.122  66.673  1.00  0.00    -0.144 NA 
HETATM   27  H   UNL     1      -9.704   7.395  66.760  1.00  0.00     0.000 HD 
BRANCH  26  28
HETATM   28  C   UNL     1      -8.747   8.816  65.462  1.00  0.00    -0.185 A  
HETATM   29  N   UNL     1      -9.635   9.720  64.979  1.00  0.00    -0.287 NA 
HETATM   30  C   UNL     1      -9.326  10.260  63.770  1.00  0.00    -0.295 A  
HETATM   31  C   UNL     1      -8.191   9.913  63.054  1.00  0.00    -0.152 A  
HETATM   32  N   UNL     1      -7.303   9.009  63.510  1.00  0.00    -0.096 NA 
HETATM   33  C   UNL     1      -7.613   8.469  64.716  1.00  0.00    -0.100 A  
ENDBRANCH  26  28
ENDBRANCH  23  26
ENDBRANCH  21  22
ENDBRANCH  17  20
ENDBRANCH  10  15
TORSDOF 5
ENDMDL
MODEL      282
REMARK 921   NORMALIZED FREE ENERGY PREDICTED BY IDOCK:   -3.24 KCAL/MOL
REMARK 922        TOTAL FREE ENERGY PREDICTED BY IDOCK:   -5.45 KCAL/MOL
REMARK 923 INTER-LIGAND FREE ENERGY PREDICTED BY IDOCK:   -5.98 KCAL/MOL
REMARK 924 INTRA-LIGAND FREE ENERGY PREDICTED BY IDOCK:    0.53 KCAL/MOL
REMARK 927      BINDING AFFINITY PREDICTED BY RF-SCORE:    0.00 PKD
ROOT
HETATM    1  F   UNL     1     -11.248  15.844  64.850  1.00  0.00    -0.381 F  
HETATM    2  C   UNL     1     -10.393  15.700  65.901  1.00  0.00    -0.350 C  
HETATM    3  F   UNL     1      -9.413  16.625  65.713  1.00  0.00    -0.299 F  
HETATM    4  F   UNL     1     -11.087  16.103  67.001  1.00  0.00    -0.292 F  
HETATM    5  C   UNL     1      -9.848  14.299  66.044  1.00  0.00    -0.336 A  
HETATM    6  C   UNL     1     -10.216  13.270  65.165  1.00  0.00    -0.301 A  
HETATM    7  C   UNL     1      -9.690  11.975  65.307  1.00  0.00    -0.183 A  
HETATM    8  C   UNL     1     -10.081  10.874  64.348  1.00  0.00    -0.339 C  
HETATM    9  C   UNL     1      -8.787  11.711  66.356  1.00  0.00    -0.182 A  
HETATM   10  C   UNL     1      -8.412  12.720  67.253  1.00  0.00    -0.194 A  
HETATM   11  F   UNL     1     -10.659   9.813  64.978  1.00  0.00    -0.127 F  
HETATM   12  F   UNL     1     -10.971  11.273  63.399  1.00  0.00    -0.439 F  
HETATM   13  F   UNL     1      -9.014  10.373  63.668  1.00  0.00    -0.166 F  
HETATM   14  C   UNL     1      -8.947  14.007  67.080  1.00  0.00    -0.248 A  
ENDROOT
BRANCH  10  15
HETATM   15  C   UNL     1      -7.473  12.479  68.348  1.00  0.00    -0.127 A  
HETATM   16  N   UNL     1      -7.367  11.338  69.043  1.00  0.00    -0.116 NA 
HETATM   17  N   UNL     1      -6.270  11.548  69.837  1.00  0.00    -0.137 NA 
HETATM   18  N   UNL     1      -6.618  13.462  68.761  1.00  0.00    -0.096 NA 
HETATM   19  C   UNL     1      -5.911  12.873  69.691  1.00  0.00    -0.120 A  
BRANCH  17  20
HETATM   20  C   UNL     1      -5.725  10.580  70.695  1.00  0.00    -0.101 C  
HETATM   21  C   UNL     1      -6.122   9.330  71.004  1.00  0.00    -0.068 C  
BRANCH  21  22
HETATM   22  C   UNL     1      -7.410   8.700  70.627  1.00  0.00    -0.064 C  
HETATM   23  N   UNL     1      -7.507   7.349  70.861  1.00  0.00    -0.073 N  
HETATM   24  O   UNL     1      -8.358   9.338  70.177  1.00  0.00    -0.138 OA 
HETATM   25  H   UNL     1      -6.763   6.821  71.320  1.00  0.00     0.000 HD 
BRANCH  23  26
HETATM   26  N   UNL     1      -8.706   6.741  70.424  1.00  0.00    -0.150 NA 
HETATM   27  H   UNL     1      -9.126   6.935  69.515  1.00  0.00     0.000 HD 
BRANCH  26  28
HETATM   28  C   UNL     1      -9.275   5.840  71.357  1.00  0.00    -0.143 A  
HETATM   29  N   UNL     1      -9.609   6.242  72.608  1.00  0.00    -0.152 NA 
HETATM   30  C   UNL     1     -10.070   5.268  73.437  1.00  0.00    -0.180 A  
HETATM   31  C   UNL     1     -10.186   3.941  73.055  1.00  0.00    -0.160 A  
HETATM   32  N   UNL     1      -9.848   3.518  71.821  1.00  0.00    -0.167 NA 
HETATM   33  C   UNL     1      -9.386   4.490  70.995  1.00  0.00    -0.150 A  
ENDBRANCH  26  28
ENDBRANCH  23  26
ENDBRANCH  21  22
ENDBRANCH  17  20
ENDBRANCH  10  15
TORSDOF 5
ENDMDL
MODEL      283
REMARK 921   NORMALIZED FREE ENERGY PREDICTED BY IDOCK:   -3.17 KCAL/MOL
REMARK 922        TOTAL FREE ENERGY PREDICTED BY IDOCK:   -5.37 KCAL/MOL
REMARK 923 INTER-LIGAND FREE ENERGY PREDICTED BY IDOCK:   -4.54 KCAL/MOL
REMARK 924 INTRA-LIGAND FREE ENERGY PREDICTED BY IDOCK:   -0.83 KCAL/MOL
REMARK 927      BINDING AFFINITY PREDICTED BY RF-SCORE:    0.00 PKD
ROOT
HETATM    1  F   UNL     1     -12.439  12.284  66.063  1.00  0.00    -0.374 F  
HETATM    2  C   UNL     1     -11.468  11.705  66.824  1.00  0.00    -0.225 C  
HETATM    3  F   UNL     1     -12.095  11.250  67.943  1.00  0.00    -0.293 F  
HETATM    4  F   UNL     1     -11.069  10.600  66.137  1.00  0.00    -0.200 F  
HETATM    5  C   UNL     1     -10.320  12.634  67.140  1.00  0.00    -0.239 A  
HETATM    6  C   UNL     1     -10.289  13.955  66.671  1.00  0.00    -0.278 A  
HETATM    7  C   UNL     1      -9.217  14.808  66.985  1.00  0.00    -0.248 A  
HETATM    8  C   UNL     1      -9.195  16.235  66.487  1.00  0.00    -0.269 C  
HETATM    9  C   UNL     1      -8.158  14.319  67.776  1.00  0.00    -0.176 A  
HETATM   10  C   UNL     1      -8.163  13.000  68.248  1.00  0.00    -0.150 A  
HETATM   11  F   UNL     1      -8.102  16.504  65.718  1.00  0.00    -0.304 F  
HETATM   12  F   UNL     1     -10.275  16.559  65.724  1.00  0.00    -0.316 F  
HETATM   13  F   UNL     1      -9.174  17.141  67.502  1.00  0.00    -0.225 F  
HETATM   14  C   UNL     1      -9.252  12.174  67.926  1.00  0.00    -0.188 A  
ENDROOT
BRANCH  10  15
HETATM   15  C   UNL     1      -7.082  12.465  69.075  1.00  0.00    -0.041 A  
HETATM   16  N   UNL     1      -7.207  11.481  69.977  1.00  0.00     0.271 NA 
HETATM   17  N   UNL     1      -5.917  11.240  70.369  1.00  0.00    -0.187 NA 
HETATM   18  N   UNL     1      -5.818  12.977  68.985  1.00  0.00    -0.075 NA 
HETATM   19  C   UNL     1      -5.131  12.227  69.808  1.00  0.00    -0.074 A  
BRANCH  17  20
HETATM   20  C   UNL     1      -5.545  10.223  71.261  1.00  0.00    -0.027 C  
HETATM   21  C   UNL     1      -5.885   8.921  71.330  1.00  0.00    -0.054 C  
BRANCH  21  22
HETATM   22  C   UNL     1      -6.942   8.248  70.538  1.00  0.00    -0.037 C  
HETATM   23  N   UNL     1      -6.550   7.122  69.852  1.00  0.00    -0.043 N  
HETATM   24  O   UNL     1      -8.109   8.630  70.520  1.00  0.00    -0.094 OA 
HETATM   25  H   UNL     1      -5.608   6.738  69.928  1.00  0.00     0.000 HD 
BRANCH  23  26
HETATM   26  N   UNL     1      -7.542   6.534  69.033  1.00  0.00    -0.098 NA 
HETATM   27  H   UNL     1      -8.199   5.834  69.376  1.00  0.00     0.000 HD 
BRANCH  26  28
HETATM   28  C   UNL     1      -7.545   7.001  67.696  1.00  0.00    -0.110 A  
HETATM   29  N   UNL     1      -6.427   6.943  66.930  1.00  0.00    -0.045 NA 
HETATM   30  C   UNL     1      -6.532   7.496  65.693  1.00  0.00    -0.045 A  
HETATM   31  C   UNL     1      -7.691   8.098  65.228  1.00  0.00    -0.101 A  
HETATM   32  N   UNL     1      -8.808   8.177  65.976  1.00  0.00    -0.165 NA 
HETATM   33  C   UNL     1      -8.702   7.627  67.212  1.00  0.00    -0.124 A  
ENDBRANCH  26  28
ENDBRANCH  23  26
ENDBRANCH  21  22
ENDBRANCH  17  20
ENDBRANCH  10  15
TORSDOF 5
ENDMDL
MODEL      284
REMARK 921   NORMALIZED FREE ENERGY PREDICTED BY IDOCK:   -3.08 KCAL/MOL
REMARK 922        TOTAL FREE ENERGY PREDICTED BY IDOCK:   -5.25 KCAL/MOL
REMARK 923 INTER-LIGAND FREE ENERGY PREDICTED BY IDOCK:   -4.50 KCAL/MOL
REMARK 924 INTRA-LIGAND FREE ENERGY PREDICTED BY IDOCK:   -0.75 KCAL/MOL
REMARK 927      BINDING AFFINITY PREDICTED BY RF-SCORE:    0.00 PKD
ROOT
HETATM    1  F   UNL     1     -11.175  18.093  65.365  1.00  0.00    -0.153 F  
HETATM    2  C   UNL     1     -10.840  16.834  65.764  1.00  0.00    -0.087 C  
HETATM    3  F   UNL     1     -11.742  16.496  66.725  1.00  0.00     0.429 F  
HETATM    4  F   UNL     1     -11.100  16.026  64.700  1.00  0.00    -0.438 F  
HETATM    5  C   UNL     1      -9.412  16.716  66.242  1.00  0.00    -0.321 A  
HETATM    6  C   UNL     1      -8.543  17.817  66.251  1.00  0.00    -0.217 A  
HETATM    7  C   UNL     1      -7.221  17.692  66.709  1.00  0.00    -0.247 A  
HETATM    8  C   UNL     1      -6.294  18.885  66.728  1.00  0.00    -0.186 C  
HETATM    9  C   UNL     1      -6.766  16.435  67.157  1.00  0.00    -0.239 A  
HETATM   10  C   UNL     1      -7.612  15.319  67.148  1.00  0.00    -0.224 A  
HETATM   11  F   UNL     1      -5.175  18.690  65.976  1.00  0.00    -0.149 F  
HETATM   12  F   UNL     1      -6.868  20.024  66.253  1.00  0.00    -0.200 F  
HETATM   13  F   UNL     1      -5.858  19.186  67.982  1.00  0.00    -0.193 F  
HETATM   14  C   UNL     1      -8.931  15.478  66.694  1.00  0.00    -0.320 A  
ENDROOT
BRANCH  10  15
HETATM   15  C   UNL     1      -7.171  14.003  67.611  1.00  0.00    -0.176 A  
HETATM   16  N   UNL     1      -7.506  13.438  68.780  1.00  0.00    -0.094 NA 
HETATM   17  N   UNL     1      -6.982  12.176  68.686  1.00  0.00    -0.091 NA 
HETATM   18  N   UNL     1      -6.331  13.242  66.847  1.00  0.00     0.224 NA 
HETATM   19  C   UNL     1      -6.211  12.140  67.542  1.00  0.00    -0.130 A  
BRANCH  17  20
HETATM   20  C   UNL     1      -7.152  11.181  69.662  1.00  0.00    -0.048 C  
HETATM   21  C   UNL     1      -7.795   9.997  69.633  1.00  0.00    -0.171 C  
BRANCH  21  22
HETATM   22  C   UNL     1      -8.687   9.510  68.554  1.00  0.00    -0.124 C  
HETATM   23  N   UNL     1      -8.169   8.523  67.750  1.00  0.00    -0.121 N  
HETATM   24  O   UNL     1      -9.835   9.918  68.401  1.00  0.00    -0.147 OA 
HETATM   25  H   UNL     1      -7.252   8.107  67.918  1.00  0.00     0.000 HD 
BRANCH  23  26
HETATM   26  N   UNL     1      -8.994   8.122  66.673  1.00  0.00    -0.144 NA 
HETATM   27  H   UNL     1      -9.502   8.784  66.088  1.00  0.00     0.000 HD 
BRANCH  26  28
HETATM   28  C   UNL     1      -9.053   6.720  66.477  1.00  0.00    -0.151 A  
HETATM   29  N   UNL     1      -8.454   6.134  65.411  1.00  0.00    -0.150 NA 
HETATM   30  C   UNL     1      -8.650   4.794  65.288  1.00  0.00    -0.137 A  
HETATM   31  C   UNL     1      -9.418   4.057  66.174  1.00  0.00    -0.186 A  
HETATM   32  N   UNL     1     -10.031   4.621  67.234  1.00  0.00    -0.181 NA 
HETATM   33  C   UNL     1      -9.838   5.959  67.354  1.00  0.00    -0.131 A  
ENDBRANCH  26  28
ENDBRANCH  23  26
ENDBRANCH  21  22
ENDBRANCH  17  20
ENDBRANCH  10  15
TORSDOF 5
ENDMDL
MODEL      285
REMARK 921   NORMALIZED FREE ENERGY PREDICTED BY IDOCK:   -3.05 KCAL/MOL
REMARK 922        TOTAL FREE ENERGY PREDICTED BY IDOCK:   -5.20 KCAL/MOL
REMARK 923 INTER-LIGAND FREE ENERGY PREDICTED BY IDOCK:   -4.45 KCAL/MOL
REMARK 924 INTRA-LIGAND FREE ENERGY PREDICTED BY IDOCK:   -0.76 KCAL/MOL
REMARK 927      BINDING AFFINITY PREDICTED BY RF-SCORE:    0.00 PKD
ROOT
HETATM    1  F   UNL     1      -8.079  20.660  69.595  1.00  0.00     0.632 F  
HETATM    2  C   UNL     1      -9.062  19.758  69.318  1.00  0.00     0.117 C  
HETATM    3  F   UNL     1      -9.264  19.063  70.470  1.00  0.00     1.266 F  
HETATM    4  F   UNL     1     -10.191  20.491  69.115  1.00  0.00    -0.327 F  
HETATM    5  C   UNL     1      -8.740  18.860  68.147  1.00  0.00    -0.342 A  
HETATM    6  C   UNL     1      -7.537  18.979  67.435  1.00  0.00    -0.249 A  
HETATM    7  C   UNL     1      -7.250  18.127  66.355  1.00  0.00    -0.282 A  
HETATM    8  C   UNL     1      -5.947  18.252  65.599  1.00  0.00    -0.230 C  
HETATM    9  C   UNL     1      -8.192  17.147  65.983  1.00  0.00    -0.183 A  
HETATM   10  C   UNL     1      -9.403  17.016  66.674  1.00  0.00    -0.274 A  
HETATM   11  F   UNL     1      -6.133  18.508  64.273  1.00  0.00    -0.226 F  
HETATM   12  F   UNL     1      -5.147  19.251  66.061  1.00  0.00    -0.143 F  
HETATM   13  F   UNL     1      -5.197  17.118  65.662  1.00  0.00    -0.102 F  
HETATM   14  C   UNL     1      -9.659  17.875  67.755  1.00  0.00    -0.277 A  
ENDROOT
BRANCH  10  15
HETATM   15  C   UNL     1     -10.399  16.005  66.315  1.00  0.00    -0.321 A  
HETATM   16  N   UNL     1     -10.454  15.349  65.148  1.00  0.00    -0.410 NA 
HETATM   17  N   UNL     1     -11.442  14.422  65.348  1.00  0.00    -0.335 NA 
HETATM   18  N   UNL     1     -11.394  15.668  67.189  1.00  0.00    -0.163 NA 
HETATM   19  C   UNL     1     -12.034  14.716  66.560  1.00  0.00    -0.268 A  
BRANCH  17  20
HETATM   20  C   UNL     1     -11.805  13.446  64.408  1.00  0.00    -0.408 C  
HETATM   21  C   UNL     1     -11.519  12.132  64.323  1.00  0.00    -0.437 C  
BRANCH  21  22
HETATM   22  C   UNL     1     -10.540  11.392  65.157  1.00  0.00    -0.293 C  
HETATM   23  N   UNL     1      -9.420  10.937  64.502  1.00  0.00    -0.230 N  
HETATM   24  O   UNL     1     -10.683  11.227  66.365  1.00  0.00    -0.262 OA 
HETATM   25  H   UNL     1      -9.242  11.144  63.519  1.00  0.00     0.000 HD 
BRANCH  23  26
HETATM   26  N   UNL     1      -8.532  10.163  65.285  1.00  0.00    -0.151 NA 
HETATM   27  H   UNL     1      -8.447  10.271  66.295  1.00  0.00     0.000 HD 
BRANCH  26  28
HETATM   28  C   UNL     1      -7.773   9.224  64.544  1.00  0.00    -0.114 A  
HETATM   29  N   UNL     1      -8.193   8.779  63.334  1.00  0.00    -0.175 NA 
HETATM   30  C   UNL     1      -7.421   7.820  62.758  1.00  0.00    -0.110 A  
HETATM   31  C   UNL     1      -6.282   7.305  63.356  1.00  0.00    -0.049 A  
HETATM   32  N   UNL     1      -5.853   7.724  64.563  1.00  0.00    -0.041 NA 
HETATM   33  C   UNL     1      -6.626   8.680  65.139  1.00  0.00    -0.064 A  
ENDBRANCH  26  28
ENDBRANCH  23  26
ENDBRANCH  21  22
ENDBRANCH  17  20
ENDBRANCH  10  15
TORSDOF 5
ENDMDL
MODEL      286
REMARK 921   NORMALIZED FREE ENERGY PREDICTED BY IDOCK:   -3.02 KCAL/MOL
REMARK 922        TOTAL FREE ENERGY PREDICTED BY IDOCK:   -5.17 KCAL/MOL
REMARK 923 INTER-LIGAND FREE ENERGY PREDICTED BY IDOCK:   -4.42 KCAL/MOL
REMARK 924 INTRA-LIGAND FREE ENERGY PREDICTED BY IDOCK:   -0.75 KCAL/MOL
REMARK 927      BINDING AFFINITY PREDICTED BY RF-SCORE:    0.00 PKD
ROOT
HETATM    1  F   UNL     1      -6.395   9.512  70.948  1.00  0.00    -0.059 F  
HETATM    2  C   UNL     1      -6.733  10.407  69.977  1.00  0.00    -0.145 C  
HETATM    3  F   UNL     1      -6.290  11.616  70.415  1.00  0.00    -0.161 F  
HETATM    4  F   UNL     1      -5.965  10.091  68.898  1.00  0.00    -0.036 F  
HETATM    5  C   UNL     1      -8.207  10.412  69.653  1.00  0.00    -0.099 A  
HETATM    6  C   UNL     1      -9.110   9.558  70.305  1.00  0.00    -0.296 A  
HETATM    7  C   UNL     1     -10.481   9.585  69.998  1.00  0.00    -0.283 A  
HETATM    8  C   UNL     1     -11.449   8.672  70.713  1.00  0.00    -0.259 C  
HETATM    9  C   UNL     1     -10.947  10.480  69.015  1.00  0.00    -0.289 A  
HETATM   10  C   UNL     1     -10.064  11.335  68.343  1.00  0.00    -0.202 A  
HETATM   11  F   UNL     1     -12.120   7.849  69.859  1.00  0.00     0.211 F  
HETATM   12  F   UNL     1     -10.852   7.855  71.623  1.00  0.00    -0.237 F  
HETATM   13  F   UNL     1     -12.402   9.358  71.401  1.00  0.00    -0.333 F  
HETATM   14  C   UNL     1      -8.701  11.293  68.678  1.00  0.00    -0.136 A  
ENDROOT
BRANCH  10  15
HETATM   15  C   UNL     1     -10.518  12.278  67.321  1.00  0.00    -0.218 A  
HETATM   16  N   UNL     1     -10.635  13.603  67.484  1.00  0.00    -0.240 NA 
HETATM   17  N   UNL     1     -10.941  14.054  66.228  1.00  0.00    -0.298 NA 
HETATM   18  N   UNL     1     -10.888  11.836  66.082  1.00  0.00    -0.281 NA 
HETATM   19  C   UNL     1     -11.168  12.942  65.441  1.00  0.00    -0.283 A  
BRANCH  17  20
HETATM   20  C   UNL     1     -11.085  15.409  65.893  1.00  0.00    -0.247 C  
HETATM   21  C   UNL     1     -10.188  16.411  65.803  1.00  0.00    -0.370 C  
BRANCH  21  22
HETATM   22  C   UNL     1      -8.772  16.361  66.239  1.00  0.00    -0.334 C  
HETATM   23  N   UNL     1      -8.164  15.131  66.158  1.00  0.00    -0.100 N  
HETATM   24  O   UNL     1      -8.152  17.354  66.609  1.00  0.00    -0.222 OA 
HETATM   25  H   UNL     1      -8.635  14.315  65.767  1.00  0.00     0.000 HD 
BRANCH  23  26
HETATM   26  N   UNL     1      -6.840  15.074  66.652  1.00  0.00     0.080 NA 
HETATM   27  H   UNL     1      -6.039  14.845  66.065  1.00  0.00     0.000 HD 
BRANCH  26  28
HETATM   28  C   UNL     1      -6.723  15.362  68.035  1.00  0.00    -0.144 A  
HETATM   29  N   UNL     1      -7.335  14.591  68.967  1.00  0.00    -0.128 NA 
HETATM   30  C   UNL     1      -7.216  15.015  70.252  1.00  0.00     0.239 A  
HETATM   31  C   UNL     1      -6.532  16.165  70.610  1.00  0.00     0.788 A  
HETATM   32  N   UNL     1      -5.926  16.952  69.699  1.00  0.00    -0.211 NA 
HETATM   33  C   UNL     1      -6.048  16.530  68.416  1.00  0.00    -0.127 A  
ENDBRANCH  26  28
ENDBRANCH  23  26
ENDBRANCH  21  22
ENDBRANCH  17  20
ENDBRANCH  10  15
TORSDOF 5
ENDMDL
MODEL      287
REMARK 921   NORMALIZED FREE ENERGY PREDICTED BY IDOCK:   -2.90 KCAL/MOL
REMARK 922        TOTAL FREE ENERGY PREDICTED BY IDOCK:   -5.01 KCAL/MOL
REMARK 923 INTER-LIGAND FREE ENERGY PREDICTED BY IDOCK:   -3.79 KCAL/MOL
REMARK 924 INTRA-LIGAND FREE ENERGY PREDICTED BY IDOCK:   -1.22 KCAL/MOL
REMARK 927      BINDING AFFINITY PREDICTED BY RF-SCORE:    0.00 PKD
ROOT
HETATM    1  F   UNL     1      -5.947   3.571  71.323  1.00  0.00    -0.012 F  
HETATM    2  C   UNL     1      -6.710   4.160  70.360  1.00  0.00    -0.033 C  
HETATM    3  F   UNL     1      -5.918   4.244  69.257  1.00  0.00    -0.019 F  
HETATM    4  F   UNL     1      -7.686   3.260  70.058  1.00  0.00    -0.044 F  
HETATM    5  C   UNL     1      -7.270   5.500  70.775  1.00  0.00    -0.074 A  
HETATM    6  C   UNL     1      -7.013   6.048  72.040  1.00  0.00    -0.078 A  
HETATM    7  C   UNL     1      -7.533   7.301  72.405  1.00  0.00    -0.084 A  
HETATM    8  C   UNL     1      -7.241   7.891  73.765  1.00  0.00    -0.134 C  
HETATM    9  C   UNL     1      -8.330   8.008  71.484  1.00  0.00    -0.139 A  
HETATM   10  C   UNL     1      -8.609   7.477  70.218  1.00  0.00    -0.144 A  
HETATM   11  F   UNL     1      -8.374   8.138  74.482  1.00  0.00    -0.277 F  
HETATM   12  F   UNL     1      -6.472   7.088  74.551  1.00  0.00    -0.080 F  
HETATM   13  F   UNL     1      -6.579   9.078  73.688  1.00  0.00    -0.078 F  
HETATM   14  C   UNL     1      -8.067   6.227  69.878  1.00  0.00    -0.120 A  
ENDROOT
BRANCH  10  15
HETATM   15  C   UNL     1      -9.429   8.189  69.237  1.00  0.00    -0.159 A  
HETATM   16  N   UNL     1      -9.034   8.548  68.008  1.00  0.00    -0.141 NA 
HETATM   17  N   UNL     1     -10.177   9.039  67.435  1.00  0.00    -0.226 NA 
HETATM   18  N   UNL     1     -10.707   8.567  69.542  1.00  0.00    -0.209 NA 
HETATM   19  C   UNL     1     -11.133   9.109  68.430  1.00  0.00     0.173 A  
BRANCH  17  20
HETATM   20  C   UNL     1     -10.265   9.470  66.102  1.00  0.00    -0.202 C  
HETATM   21  C   UNL     1      -9.570  10.394  65.411  1.00  0.00    -0.303 C  
BRANCH  21  22
HETATM   22  C   UNL     1      -8.604  11.368  65.975  1.00  0.00    -0.094 C  
HETATM   23  N   UNL     1      -7.280  10.999  65.918  1.00  0.00    -0.349 N  
HETATM   24  O   UNL     1      -8.941  12.458  66.427  1.00  0.00    -0.192 OA 
HETATM   25  H   UNL     1      -6.974  10.138  65.464  1.00  0.00     0.000 HD 
BRANCH  23  26
HETATM   26  N   UNL     1      -6.373  11.894  66.532  1.00  0.00    -0.440 NA 
HETATM   27  H   UNL     1      -6.013  12.724  66.063  1.00  0.00     0.000 HD 
BRANCH  26  28
HETATM   28  C   UNL     1      -6.008  11.536  67.853  1.00  0.00    -0.045 A  
HETATM   29  N   UNL     1      -5.892  12.473  68.827  1.00  0.00    -0.062 NA 
HETATM   30  C   UNL     1      -5.457  12.018  70.032  1.00  0.00    -0.109 A  
HETATM   31  C   UNL     1      -5.135  10.692  70.270  1.00  0.00    -0.047 A  
HETATM   32  N   UNL     1      -5.233   9.747  69.313  1.00  0.00    -0.036 NA 
HETATM   33  C   UNL     1      -5.664  10.202  68.110  1.00  0.00    -0.038 A  
ENDBRANCH  26  28
ENDBRANCH  23  26
ENDBRANCH  21  22
ENDBRANCH  17  20
ENDBRANCH  10  15
TORSDOF 5
ENDMDL
MODEL      288
REMARK 921   NORMALIZED FREE ENERGY PREDICTED BY IDOCK:   -2.64 KCAL/MOL
REMARK 922        TOTAL FREE ENERGY PREDICTED BY IDOCK:   -4.67 KCAL/MOL
REMARK 923 INTER-LIGAND FREE ENERGY PREDICTED BY IDOCK:   -3.96 KCAL/MOL
REMARK 924 INTRA-LIGAND FREE ENERGY PREDICTED BY IDOCK:   -0.71 KCAL/MOL
REMARK 927      BINDING AFFINITY PREDICTED BY RF-SCORE:    0.00 PKD
ROOT
HETATM    1  F   UNL     1     -11.987  11.025  65.530  1.00  0.00     0.363 F  
HETATM    2  C   UNL     1     -10.957  10.508  66.258  1.00  0.00     0.101 C  
HETATM    3  F   UNL     1     -11.524   9.637  67.136  1.00  0.00    -0.066 F  
HETATM    4  F   UNL     1     -10.232   9.752  65.389  1.00  0.00    -0.380 F  
HETATM    5  C   UNL     1     -10.120  11.561  66.944  1.00  0.00    -0.241 A  
HETATM    6  C   UNL     1     -10.402  12.929  66.814  1.00  0.00    -0.250 A  
HETATM    7  C   UNL     1      -9.618  13.894  67.468  1.00  0.00    -0.229 A  
HETATM    8  C   UNL     1      -9.935  15.365  67.335  1.00  0.00    -0.229 C  
HETATM    9  C   UNL     1      -8.530  13.474  68.259  1.00  0.00    -0.168 A  
HETATM   10  C   UNL     1      -8.223  12.114  68.396  1.00  0.00    -0.145 A  
HETATM   11  F   UNL     1      -8.897  16.079  66.813  1.00  0.00    -0.205 F  
HETATM   12  F   UNL     1     -11.002  15.619  66.528  1.00  0.00    -0.315 F  
HETATM   13  F   UNL     1     -10.228  15.947  68.530  1.00  0.00    -0.212 F  
HETATM   14  C   UNL     1      -9.030  11.172  67.737  1.00  0.00    -0.139 A  
ENDROOT
BRANCH  10  15
HETATM   15  C   UNL     1      -7.103  11.647  69.213  1.00  0.00    -0.055 A  
HETATM   16  N   UNL     1      -7.161  10.659  70.118  1.00  0.00    -0.206 NA 
HETATM   17  N   UNL     1      -5.855  10.496  70.498  1.00  0.00    -0.096 NA 
HETATM   18  N   UNL     1      -5.874  12.234  69.110  1.00  0.00    -0.069 NA 
HETATM   19  C   UNL     1      -5.135  11.527  69.927  1.00  0.00    -0.061 A  
BRANCH  17  20
HETATM   20  C   UNL     1      -5.414   9.506  71.388  1.00  0.00    -0.070 C  
HETATM   21  C   UNL     1      -5.749   8.208  71.524  1.00  0.00    -0.035 C  
BRANCH  21  22
HETATM   22  C   UNL     1      -6.867   7.515  70.840  1.00  0.00    -0.047 C  
HETATM   23  N   UNL     1      -7.948   7.200  71.629  1.00  0.00    -0.097 N  
HETATM   24  O   UNL     1      -6.865   7.271  69.636  1.00  0.00    -0.047 OA 
HETATM   25  H   UNL     1      -8.006   7.476  72.609  1.00  0.00     0.000 HD 
BRANCH  23  26
HETATM   26  N   UNL     1      -8.974   6.467  70.989  1.00  0.00    -0.146 NA 
HETATM   27  H   UNL     1      -9.146   6.516  69.985  1.00  0.00     0.000 HD 
BRANCH  26  28
HETATM   28  C   UNL     1      -9.742   5.658  71.862  1.00  0.00    -0.160 A  
HETATM   29  N   UNL     1     -10.117   6.106  73.086  1.00  0.00    -0.180 NA 
HETATM   30  C   UNL     1     -10.780   5.210  73.863  1.00  0.00    -0.290 A  
HETATM   31  C   UNL     1     -11.055   3.913  73.459  1.00  0.00    -0.249 A  
HETATM   32  N   UNL     1     -10.681   3.444  72.252  1.00  0.00     0.135 NA 
HETATM   33  C   UNL     1     -10.016   4.338  71.477  1.00  0.00    -0.173 A  
ENDBRANCH  26  28
ENDBRANCH  23  26
ENDBRANCH  21  22
ENDBRANCH  17  20
ENDBRANCH  10  15
TORSDOF 5
ENDMDL
MODEL      289
REMARK 921   NORMALIZED FREE ENERGY PREDICTED BY IDOCK:   -2.60 KCAL/MOL
REMARK 922        TOTAL FREE ENERGY PREDICTED BY IDOCK:   -4.62 KCAL/MOL
REMARK 923 INTER-LIGAND FREE ENERGY PREDICTED BY IDOCK:   -3.56 KCAL/MOL
REMARK 924 INTRA-LIGAND FREE ENERGY PREDICTED BY IDOCK:   -1.06 KCAL/MOL
REMARK 927      BINDING AFFINITY PREDICTED BY RF-SCORE:    0.00 PKD
ROOT
HETATM    1  F   UNL     1      -5.270   2.965  70.507  1.00  0.00    -0.003 F  
HETATM    2  C   UNL     1      -6.116   3.516  69.592  1.00  0.00    -0.024 C  
HETATM    3  F   UNL     1      -5.390   3.649  68.448  1.00  0.00    -0.010 F  
HETATM    4  F   UNL     1      -7.055   2.565  69.335  1.00  0.00    -0.041 F  
HETATM    5  C   UNL     1      -6.725   4.820  70.047  1.00  0.00    -0.037 A  
HETATM    6  C   UNL     1      -6.431   5.375  71.301  1.00  0.00    -0.035 A  
HETATM    7  C   UNL     1      -6.999   6.596  71.703  1.00  0.00    -0.075 A  
HETATM    8  C   UNL     1      -6.667   7.195  73.050  1.00  0.00    -0.065 C  
HETATM    9  C   UNL     1      -7.883   7.262  70.831  1.00  0.00    -0.094 A  
HETATM   10  C   UNL     1      -8.199   6.723  69.577  1.00  0.00    -0.131 A  
HETATM   11  F   UNL     1      -7.772   7.375  73.828  1.00  0.00    -0.110 F  
HETATM   12  F   UNL     1      -5.814   6.432  73.786  1.00  0.00    -0.053 F  
HETATM   13  F   UNL     1      -6.076   8.417  72.946  1.00  0.00    -0.058 F  
HETATM   14  C   UNL     1      -7.609   5.506  69.199  1.00  0.00    -0.086 A  
ENDROOT
BRANCH  10  15
HETATM   15  C   UNL     1      -9.109   7.393  68.648  1.00  0.00    -0.134 A  
HETATM   16  N   UNL     1      -8.737   8.112  67.580  1.00  0.00    -0.128 NA 
HETATM   17  N   UNL     1      -9.924   8.397  66.957  1.00  0.00    -0.226 NA 
HETATM   18  N   UNL     1     -10.461   7.338  68.837  1.00  0.00    -0.205 NA 
HETATM   19  C   UNL     1     -10.935   7.983  67.802  1.00  0.00     0.131 A  
BRANCH  17  20
HETATM   20  C   UNL     1     -10.026   9.079  65.735  1.00  0.00     0.004 C  
HETATM   21  C   UNL     1      -9.703  10.338  65.381  1.00  0.00    -0.340 C  
BRANCH  21  22
HETATM   22  C   UNL     1      -9.306  11.433  66.299  1.00  0.00    -0.212 C  
HETATM   23  N   UNL     1      -9.232  11.099  67.631  1.00  0.00    -0.149 N  
HETATM   24  O   UNL     1      -9.014  12.559  65.908  1.00  0.00     0.044 OA 
HETATM   25  H   UNL     1      -9.381  10.145  67.963  1.00  0.00     0.000 HD 
BRANCH  23  26
HETATM   26  N   UNL     1      -8.933  12.167  68.509  1.00  0.00    -0.338 NA 
HETATM   27  H   UNL     1      -8.008  12.308  68.915  1.00  0.00     0.000 HD 
BRANCH  26  28
HETATM   28  C   UNL     1     -10.029  13.023  68.776  1.00  0.00    -0.010 A  
HETATM   29  N   UNL     1     -11.268  12.525  69.011  1.00  0.00    -0.264 NA 
HETATM   30  C   UNL     1     -12.253  13.447  69.174  1.00  0.00    -0.165 A  
HETATM   31  C   UNL     1     -12.032  14.813  69.095  1.00  0.00    -0.282 A  
HETATM   32  N   UNL     1     -10.811  15.329  68.851  1.00  0.00    -0.236 NA 
HETATM   33  C   UNL     1      -9.829  14.407  68.686  1.00  0.00    -0.231 A  
ENDBRANCH  26  28
ENDBRANCH  23  26
ENDBRANCH  21  22
ENDBRANCH  17  20
ENDBRANCH  10  15
TORSDOF 5
ENDMDL
MODEL      290
REMARK 921   NORMALIZED FREE ENERGY PREDICTED BY IDOCK:   -2.47 KCAL/MOL
REMARK 922        TOTAL FREE ENERGY PREDICTED BY IDOCK:   -4.45 KCAL/MOL
REMARK 923 INTER-LIGAND FREE ENERGY PREDICTED BY IDOCK:   -3.55 KCAL/MOL
REMARK 924 INTRA-LIGAND FREE ENERGY PREDICTED BY IDOCK:   -0.90 KCAL/MOL
REMARK 927      BINDING AFFINITY PREDICTED BY RF-SCORE:    0.00 PKD
ROOT
HETATM    1  F   UNL     1      -6.980   7.930  63.220  1.00  0.00    -0.073 F  
HETATM    2  C   UNL     1      -6.567   7.531  64.456  1.00  0.00    -0.044 C  
HETATM    3  F   UNL     1      -5.222   7.351  64.358  1.00  0.00    -0.027 F  
HETATM    4  F   UNL     1      -6.748   8.605  65.273  1.00  0.00    -0.064 F  
HETATM    5  C   UNL     1      -7.281   6.298  64.958  1.00  0.00    -0.070 A  
HETATM    6  C   UNL     1      -8.274   5.660  64.200  1.00  0.00    -0.111 A  
HETATM    7  C   UNL     1      -8.920   4.507  64.678  1.00  0.00    -0.152 A  
HETATM    8  C   UNL     1      -9.979   3.817  63.851  1.00  0.00    -0.189 C  
HETATM    9  C   UNL     1      -8.566   3.997  65.943  1.00  0.00    -0.110 A  
HETATM   10  C   UNL     1      -7.585   4.623  66.723  1.00  0.00    -0.087 A  
HETATM   11  F   UNL     1     -11.181   3.749  64.490  1.00  0.00    -0.243 F  
HETATM   12  F   UNL     1     -10.224   4.432  62.662  1.00  0.00    -0.162 F  
HETATM   13  F   UNL     1      -9.644   2.534  63.542  1.00  0.00    -0.095 F  
HETATM   14  C   UNL     1      -6.949   5.767  66.214  1.00  0.00    -0.060 A  
ENDROOT
BRANCH  10  15
HETATM   15  C   UNL     1      -7.192   4.114  68.037  1.00  0.00    -0.060 A  
HETATM   16  N   UNL     1      -7.495   4.683  69.212  1.00  0.00    -0.055 NA 
HETATM   17  N   UNL     1      -7.048   3.773  70.133  1.00  0.00    -0.041 NA 
HETATM   18  N   UNL     1      -6.439   2.980  68.147  1.00  0.00    -0.035 NA 
HETATM   19  C   UNL     1      -6.342   2.808  69.441  1.00  0.00    -0.029 A  
BRANCH  17  20
HETATM   20  C   UNL     1      -7.219   3.908  71.519  1.00  0.00    -0.039 C  
HETATM   21  C   UNL     1      -8.162   4.537  72.249  1.00  0.00    -0.109 C  
BRANCH  21  22
HETATM   22  C   UNL     1      -9.211   5.446  71.729  1.00  0.00    -0.142 C  
HETATM   23  N   UNL     1      -8.979   6.790  71.906  1.00  0.00    -0.136 N  
HETATM   24  O   UNL     1     -10.208   5.045  71.136  1.00  0.00    -0.213 OA 
HETATM   25  H   UNL     1      -8.114   7.144  72.315  1.00  0.00     0.000 HD 
BRANCH  23  26
HETATM   26  N   UNL     1     -10.021   7.647  71.482  1.00  0.00    -0.173 NA 
HETATM   27  H   UNL     1     -10.970   7.589  71.851  1.00  0.00     0.000 HD 
BRANCH  26  28
HETATM   28  C   UNL     1      -9.633   8.593  70.502  1.00  0.00    -0.181 A  
HETATM   29  N   UNL     1      -8.334   8.741  70.145  1.00  0.00    -0.121 NA 
HETATM   30  C   UNL     1      -8.077   9.735  69.254  1.00  0.00    -0.115 A  
HETATM   31  C   UNL     1      -9.062  10.565  68.741  1.00  0.00    -0.166 A  
HETATM   32  N   UNL     1     -10.357  10.442  69.091  1.00  0.00    -0.209 NA 
HETATM   33  C   UNL     1     -10.612   9.451  69.982  1.00  0.00    -0.235 A  
ENDBRANCH  26  28
ENDBRANCH  23  26
ENDBRANCH  21  22
ENDBRANCH  17  20
ENDBRANCH  10  15
TORSDOF 5
ENDMDL
MODEL      291
REMARK 921   NORMALIZED FREE ENERGY PREDICTED BY IDOCK:   -2.20 KCAL/MOL
REMARK 922        TOTAL FREE ENERGY PREDICTED BY IDOCK:   -4.10 KCAL/MOL
REMARK 923 INTER-LIGAND FREE ENERGY PREDICTED BY IDOCK:   -3.07 KCAL/MOL
REMARK 924 INTRA-LIGAND FREE ENERGY PREDICTED BY IDOCK:   -1.03 KCAL/MOL
REMARK 927      BINDING AFFINITY PREDICTED BY RF-SCORE:    0.00 PKD
ROOT
HETATM    1  F   UNL     1      -7.589  21.046  68.950  1.00  0.00     0.459 F  
HETATM    2  C   UNL     1      -8.540  20.070  68.924  1.00  0.00     0.149 C  
HETATM    3  F   UNL     1      -8.510  19.489  70.154  1.00  0.00     0.295 F  
HETATM    4  F   UNL     1      -9.734  20.719  68.841  1.00  0.00     0.109 F  
HETATM    5  C   UNL     1      -8.346  19.073  67.807  1.00  0.00    -0.318 A  
HETATM    6  C   UNL     1      -7.282  19.179  66.899  1.00  0.00    -0.218 A  
HETATM    7  C   UNL     1      -7.111  18.235  65.872  1.00  0.00    -0.291 A  
HETATM    8  C   UNL     1      -5.956  18.347  64.906  1.00  0.00    -0.091 C  
HETATM    9  C   UNL     1      -8.031  17.174  65.755  1.00  0.00     0.243 A  
HETATM   10  C   UNL     1      -9.107  17.053  66.644  1.00  0.00    -0.278 A  
HETATM   11  F   UNL     1      -6.366  18.453  63.610  1.00  0.00     0.789 F  
HETATM   12  F   UNL     1      -5.162  19.429  65.134  1.00  0.00    -0.163 F  
HETATM   13  F   UNL     1      -5.130  17.266  64.952  1.00  0.00     0.297 F  
HETATM   14  C   UNL     1      -9.247  18.006  67.666  1.00  0.00    -0.259 A  
ENDROOT
BRANCH  10  15
HETATM   15  C   UNL     1     -10.076  15.961  66.550  1.00  0.00    -0.282 A  
HETATM   16  N   UNL     1     -10.070  14.995  65.620  1.00  0.00    -0.336 NA 
HETATM   17  N   UNL     1     -11.059  14.144  66.037  1.00  0.00    -0.310 NA 
HETATM   18  N   UNL     1     -11.108  15.867  67.441  1.00  0.00    -0.262 NA 
HETATM   19  C   UNL     1     -11.710  14.761  67.088  1.00  0.00    -0.334 A  
BRANCH  17  20
HETATM   20  C   UNL     1     -11.369  12.930  65.404  1.00  0.00    -0.303 C  
HETATM   21  C   UNL     1     -11.493  11.676  65.881  1.00  0.00    -0.189 C  
BRANCH  21  22
HETATM   22  C   UNL     1     -11.131  11.216  67.243  1.00  0.00    -0.302 C  
HETATM   23  N   UNL     1      -9.869  11.554  67.673  1.00  0.00    -0.179 N  
HETATM   24  O   UNL     1     -11.911  10.612  67.973  1.00  0.00    -0.457 OA 
HETATM   25  H   UNL     1      -9.241  12.134  67.116  1.00  0.00     0.000 HD 
BRANCH  23  26
HETATM   26  N   UNL     1      -9.502  11.042  68.939  1.00  0.00    -0.303 NA 
HETATM   27  H   UNL     1     -10.161  10.950  69.711  1.00  0.00     0.000 HD 
BRANCH  26  28
HETATM   28  C   UNL     1      -8.139  10.668  69.042  1.00  0.00    -0.148 A  
HETATM   29  N   UNL     1      -7.709   9.843  70.028  1.00  0.00    -0.167 NA 
HETATM   30  C   UNL     1      -6.369   9.623  70.071  1.00  0.00    -0.059 A  
HETATM   31  C   UNL     1      -5.478  10.205  69.182  1.00  0.00    -0.038 A  
HETATM   32  N   UNL     1      -5.882  11.036  68.202  1.00  0.00    -0.046 NA 
HETATM   33  C   UNL     1      -7.220  11.257  68.162  1.00  0.00    -0.081 A  
ENDBRANCH  26  28
ENDBRANCH  23  26
ENDBRANCH  21  22
ENDBRANCH  17  20
ENDBRANCH  10  15
TORSDOF 5
ENDMDL
MODEL      292
REMARK 921   NORMALIZED FREE ENERGY PREDICTED BY IDOCK:   -2.12 KCAL/MOL
REMARK 922        TOTAL FREE ENERGY PREDICTED BY IDOCK:   -4.01 KCAL/MOL
REMARK 923 INTER-LIGAND FREE ENERGY PREDICTED BY IDOCK:   -2.96 KCAL/MOL
REMARK 924 INTRA-LIGAND FREE ENERGY PREDICTED BY IDOCK:   -1.04 KCAL/MOL
REMARK 927      BINDING AFFINITY PREDICTED BY RF-SCORE:    0.00 PKD
ROOT
HETATM    1  F   UNL     1      -6.741  16.433  71.121  1.00  0.00     1.220 F  
HETATM    2  C   UNL     1      -6.474  15.192  70.627  1.00  0.00     0.176 C  
HETATM    3  F   UNL     1      -5.129  15.155  70.424  1.00  0.00    -0.101 F  
HETATM    4  F   UNL     1      -6.726  14.325  71.646  1.00  0.00     0.158 F  
HETATM    5  C   UNL     1      -7.258  14.861  69.380  1.00  0.00    -0.182 A  
HETATM    6  C   UNL     1      -8.170  15.766  68.819  1.00  0.00    -0.192 A  
HETATM    7  C   UNL     1      -8.883  15.445  67.651  1.00  0.00    -0.179 A  
HETATM    8  C   UNL     1      -9.854  16.430  67.045  1.00  0.00    -0.251 C  
HETATM    9  C   UNL     1      -8.679  14.189  67.046  1.00  0.00    -0.222 A  
HETATM   10  C   UNL     1      -7.780  13.264  67.593  1.00  0.00    -0.171 A  
HETATM   11  F   UNL     1     -11.121  15.933  66.961  1.00  0.00    -0.320 F  
HETATM   12  F   UNL     1      -9.958  17.592  67.747  1.00  0.00    -0.272 F  
HETATM   13  F   UNL     1      -9.508  16.793  65.779  1.00  0.00    -0.284 F  
HETATM   14  C   UNL     1      -7.075  13.617  68.755  1.00  0.00    -0.103 A  
ENDROOT
BRANCH  10  15
HETATM   15  C   UNL     1      -7.543  11.955  66.985  1.00  0.00    -0.134 A  
HETATM   16  N   UNL     1      -8.418  11.282  66.224  1.00  0.00    -0.170 NA 
HETATM   17  N   UNL     1      -7.694  10.209  65.777  1.00  0.00    -0.130 NA 
HETATM   18  N   UNL     1      -6.361  11.298  67.184  1.00  0.00    -0.084 NA 
HETATM   19  C   UNL     1      -6.491  10.220  66.455  1.00  0.00    -0.080 A  
BRANCH  17  20
HETATM   20  C   UNL     1      -8.182   9.253  64.873  1.00  0.00    -0.145 C  
HETATM   21  C   UNL     1      -8.946   8.157  65.052  1.00  0.00     0.188 C  
BRANCH  21  22
HETATM   22  C   UNL     1      -9.327   7.558  66.353  1.00  0.00    -0.157 C  
HETATM   23  N   UNL     1      -8.313   7.429  67.273  1.00  0.00    -0.118 N  
HETATM   24  O   UNL     1     -10.479   7.234  66.627  1.00  0.00    -0.244 OA 
HETATM   25  H   UNL     1      -7.370   7.776  67.096  1.00  0.00     0.000 HD 
BRANCH  23  26
HETATM   26  N   UNL     1      -8.667   6.781  68.480  1.00  0.00    -0.125 NA 
HETATM   27  H   UNL     1      -8.548   5.779  68.626  1.00  0.00     0.000 HD 
BRANCH  26  28
HETATM   28  C   UNL     1      -9.200   7.645  69.468  1.00  0.00    -0.150 A  
HETATM   29  N   UNL     1     -10.466   7.490  69.927  1.00  0.00    -0.224 NA 
HETATM   30  C   UNL     1     -10.891   8.428  70.813  1.00  0.00    -0.224 A  
HETATM   31  C   UNL     1     -10.104   9.492  71.225  1.00  0.00    -0.126 A  
HETATM   32  N   UNL     1      -8.847   9.672  70.773  1.00  0.00    -0.188 NA 
HETATM   33  C   UNL     1      -8.425   8.735  69.886  1.00  0.00    -0.131 A  
ENDBRANCH  26  28
ENDBRANCH  23  26
ENDBRANCH  21  22
ENDBRANCH  17  20
ENDBRANCH  10  15
TORSDOF 5
ENDMDL
MODEL      293
REMARK 921   NORMALIZED FREE ENERGY PREDICTED BY IDOCK:    0.65 KCAL/MOL
REMARK 922        TOTAL FREE ENERGY PREDICTED BY IDOCK:   -0.43 KCAL/MOL
REMARK 923 INTER-LIGAND FREE ENERGY PREDICTED BY IDOCK:   -0.49 KCAL/MOL
REMARK 924 INTRA-LIGAND FREE ENERGY PREDICTED BY IDOCK:    0.06 KCAL/MOL
REMARK 927      BINDING AFFINITY PREDICTED BY RF-SCORE:    0.00 PKD
ROOT
HETATM    1  F   UNL     1      -7.596   7.759  63.154  1.00  0.00    -0.093 F  
HETATM    2  C   UNL     1      -6.824   7.419  64.225  1.00  0.00    -0.051 C  
HETATM    3  F   UNL     1      -5.647   6.974  63.709  1.00  0.00    -0.030 F  
HETATM    4  F   UNL     1      -6.540   8.588  64.863  1.00  0.00    -0.064 F  
HETATM    5  C   UNL     1      -7.477   6.408  65.137  1.00  0.00    -0.083 A  
HETATM    6  C   UNL     1      -8.757   5.897  64.878  1.00  0.00     0.030 A  
HETATM    7  C   UNL     1      -9.344   4.949  65.733  1.00  0.00    -0.165 A  
HETATM    8  C   UNL     1     -10.718   4.393  65.441  1.00  0.00    -0.110 C  
HETATM    9  C   UNL     1      -8.632   4.515  66.869  1.00  0.00    -0.104 A  
HETATM   10  C   UNL     1      -7.356   5.018  67.154  1.00  0.00    -0.082 A  
HETATM   11  F   UNL     1     -11.603   4.627  66.451  1.00  0.00     0.757 F  
HETATM   12  F   UNL     1     -11.287   4.916  64.320  1.00  0.00     0.312 F  
HETATM   13  F   UNL     1     -10.706   3.044  65.255  1.00  0.00     0.525 F  
HETATM   14  C   UNL     1      -6.792   5.958  66.277  1.00  0.00    -0.061 A  
ENDROOT
BRANCH  10  15
HETATM   15  C   UNL     1      -6.591   4.584  68.323  1.00  0.00    -0.046 A  
HETATM   16  N   UNL     1      -6.804   4.986  69.584  1.00  0.00    -0.051 NA 
HETATM   17  N   UNL     1      -5.954   4.203  70.318  1.00  0.00    -0.017 NA 
HETATM   18  N   UNL     1      -5.548   3.713  68.188  1.00  0.00    -0.017 NA 
HETATM   19  C   UNL     1      -5.158   3.517  69.421  1.00  0.00    -0.007 A  
BRANCH  17  20
HETATM   20  C   UNL     1      -5.884   4.218  71.719  1.00  0.00    -0.012 C  
HETATM   21  C   UNL     1      -6.314   5.115  72.629  1.00  0.00    -0.039 C  
BRANCH  21  22
HETATM   22  C   UNL     1      -6.837   6.472  72.343  1.00  0.00    -0.068 C  
HETATM   23  N   UNL     1      -6.004   7.516  72.671  1.00  0.00    -0.040 N  
HETATM   24  O   UNL     1      -7.922   6.669  71.805  1.00  0.00    -0.102 OA 
HETATM   25  H   UNL     1      -5.061   7.367  73.033  1.00  0.00     0.000 HD 
BRANCH  23  26
HETATM   26  N   UNL     1      -6.542   8.808  72.472  1.00  0.00    -0.258 NA 
HETATM   27  H   UNL     1      -6.739   9.450  73.239  1.00  0.00     0.000 HD 
BRANCH  26  28
HETATM   28  C   UNL     1      -6.785   9.134  71.114  1.00  0.00    -0.090 A  
HETATM   29  N   UNL     1      -7.922   9.769  70.737  1.00  0.00    -0.246 NA 
HETATM   30  C   UNL     1      -8.077   9.954  69.400  1.00  0.00    -0.139 A  
HETATM   31  C   UNL     1      -7.154   9.517  68.462  1.00  0.00    -0.070 A  
HETATM   32  N   UNL     1      -6.024   8.874  68.815  1.00  0.00    -0.044 NA 
HETATM   33  C   UNL     1      -5.871   8.687  70.150  1.00  0.00    -0.027 A  
ENDBRANCH  26  28
ENDBRANCH  23  26
ENDBRANCH  21  22
ENDBRANCH  17  20
ENDBRANCH  10  15
TORSDOF 5
ENDMDL
MODEL      294
REMARK 921   NORMALIZED FREE ENERGY PREDICTED BY IDOCK:    1.12 KCAL/MOL
REMARK 922        TOTAL FREE ENERGY PREDICTED BY IDOCK:    0.18 KCAL/MOL
REMARK 923 INTER-LIGAND FREE ENERGY PREDICTED BY IDOCK:    0.97 KCAL/MOL
REMARK 924 INTRA-LIGAND FREE ENERGY PREDICTED BY IDOCK:   -0.79 KCAL/MOL
REMARK 927      BINDING AFFINITY PREDICTED BY RF-SCORE:    0.00 PKD
ROOT
HETATM    1  F   UNL     1      -9.464  17.360  71.074  1.00  0.00     3.266 F  
HETATM    2  C   UNL     1     -10.054  16.375  70.340  1.00  0.00     0.768 C  
HETATM    3  F   UNL     1      -9.851  15.222  71.034  1.00  0.00     0.135 F  
HETATM    4  F   UNL     1     -11.392  16.620  70.397  1.00  0.00    -0.351 F  
HETATM    5  C   UNL     1      -9.542  16.295  68.922  1.00  0.00    -0.243 A  
HETATM    6  C   UNL     1      -8.559  17.173  68.441  1.00  0.00    -0.246 A  
HETATM    7  C   UNL     1      -8.087  17.077  67.121  1.00  0.00    -0.216 A  
HETATM    8  C   UNL     1      -7.019  18.018  66.614  1.00  0.00    -0.210 C  
HETATM    9  C   UNL     1      -8.618  16.087  66.272  1.00  0.00    -0.363 A  
HETATM   10  C   UNL     1      -9.608  15.205  66.726  1.00  0.00    -0.260 A  
HETATM   11  F   UNL     1      -7.429  18.743  65.535  1.00  0.00    -0.248 F  
HETATM   12  F   UNL     1      -6.614  18.929  67.541  1.00  0.00    -0.193 F  
HETATM   13  F   UNL     1      -5.891  17.363  66.221  1.00  0.00    -0.195 F  
HETATM   14  C   UNL     1     -10.053  15.319  68.053  1.00  0.00    -0.229 A  
ENDROOT
BRANCH  10  15
HETATM   15  C   UNL     1     -10.176  14.163  65.870  1.00  0.00    -0.319 A  
HETATM   16  N   UNL     1     -10.411  12.897  66.240  1.00  0.00    -0.266 NA 
HETATM   17  N   UNL     1     -11.073  12.367  65.164  1.00  0.00    -0.300 NA 
HETATM   18  N   UNL     1     -10.498  14.431  64.569  1.00  0.00    -0.244 NA 
HETATM   19  C   UNL     1     -11.020  13.306  64.153  1.00  0.00    -0.354 A  
BRANCH  17  20
HETATM   20  C   UNL     1     -11.594  11.064  65.125  1.00  0.00     0.641 C  
HETATM   21  C   UNL     1     -11.014   9.861  65.304  1.00  0.00     1.539 C  
BRANCH  21  22
HETATM   22  C   UNL     1      -9.559   9.596  65.413  1.00  0.00    -0.291 C  
HETATM   23  N   UNL     1      -9.123   9.148  66.638  1.00  0.00    -0.142 N  
HETATM   24  O   UNL     1      -8.786   9.719  64.468  1.00  0.00    -0.185 OA 
HETATM   25  H   UNL     1      -9.764   8.953  67.407  1.00  0.00     0.000 HD 
BRANCH  23  26
HETATM   26  N   UNL     1      -7.724   8.977  66.758  1.00  0.00    -0.093 NA 
HETATM   27  H   UNL     1      -7.067   9.756  66.739  1.00  0.00     0.000 HD 
BRANCH  26  28
HETATM   28  C   UNL     1      -7.315   7.629  66.907  1.00  0.00    -0.090 A  
HETATM   29  N   UNL     1      -6.547   7.021  65.969  1.00  0.00    -0.051 NA 
HETATM   30  C   UNL     1      -6.288   5.704  66.183  1.00  0.00    -0.039 A  
HETATM   31  C   UNL     1      -6.776   5.004  67.275  1.00  0.00    -0.055 A  
HETATM   32  N   UNL     1      -7.550   5.586  68.212  1.00  0.00    -0.080 NA 
HETATM   33  C   UNL     1      -7.811   6.899  67.996  1.00  0.00    -0.114 A  
ENDBRANCH  26  28
ENDBRANCH  23  26
ENDBRANCH  21  22
ENDBRANCH  17  20
ENDBRANCH  10  15
TORSDOF 5
ENDMDL
MODEL      295
REMARK 921   NORMALIZED FREE ENERGY PREDICTED BY IDOCK:    2.30 KCAL/MOL
REMARK 922        TOTAL FREE ENERGY PREDICTED BY IDOCK:    1.70 KCAL/MOL
REMARK 923 INTER-LIGAND FREE ENERGY PREDICTED BY IDOCK:    2.59 KCAL/MOL
REMARK 924 INTRA-LIGAND FREE ENERGY PREDICTED BY IDOCK:   -0.88 KCAL/MOL
REMARK 927      BINDING AFFINITY PREDICTED BY RF-SCORE:    0.00 PKD
ROOT
HETATM    1  F   UNL     1      -7.135  16.467  71.325  1.00  0.00     2.390 F  
HETATM    2  C   UNL     1      -7.095  15.147  70.989  1.00  0.00     1.270 C  
HETATM    3  F   UNL     1      -5.818  14.742  71.225  1.00  0.00    -0.138 F  
HETATM    4  F   UNL     1      -7.871  14.507  71.905  1.00  0.00     2.211 F  
HETATM    5  C   UNL     1      -7.535  14.877  69.570  1.00  0.00    -0.162 A  
HETATM    6  C   UNL     1      -7.947  15.909  68.714  1.00  0.00    -0.188 A  
HETATM    7  C   UNL     1      -8.343  15.639  67.394  1.00  0.00    -0.198 A  
HETATM    8  C   UNL     1      -8.773  16.758  66.473  1.00  0.00    -0.275 C  
HETATM    9  C   UNL     1      -8.332  14.308  66.932  1.00  0.00    -0.084 A  
HETATM   10  C   UNL     1      -7.935  13.259  67.771  1.00  0.00    -0.166 A  
HETATM   11  F   UNL     1     -10.044  16.595  66.010  1.00  0.00    -0.291 F  
HETATM   12  F   UNL     1      -8.747  17.984  67.063  1.00  0.00    -0.228 F  
HETATM   13  F   UNL     1      -7.980  16.859  65.371  1.00  0.00     0.163 F  
HETATM   14  C   UNL     1      -7.535  13.560  69.083  1.00  0.00     0.125 A  
ENDROOT
BRANCH  10  15
HETATM   15  C   UNL     1      -7.908  11.868  67.319  1.00  0.00    -0.168 A  
HETATM   16  N   UNL     1      -8.862  11.268  66.593  1.00  0.00    -0.169 NA 
HETATM   17  N   UNL     1      -8.320  10.045  66.299  1.00  0.00    -0.125 NA 
HETATM   18  N   UNL     1      -6.863  11.050  67.644  1.00  0.00    -0.079 NA 
HETATM   19  C   UNL     1      -7.153   9.932  67.030  1.00  0.00    -0.089 A  
BRANCH  17  20
HETATM   20  C   UNL     1      -8.938   9.088  65.480  1.00  0.00    -0.204 C  
HETATM   21  C   UNL     1      -9.779   8.073  65.764  1.00  0.00     0.293 C  
BRANCH  21  22
HETATM   22  C   UNL     1     -10.132   7.580  67.117  1.00  0.00    -0.247 C  
HETATM   23  N   UNL     1      -9.098   7.518  68.020  1.00  0.00    -0.132 N  
HETATM   24  O   UNL     1     -11.279   7.285  67.441  1.00  0.00    -0.145 OA 
HETATM   25  H   UNL     1      -8.157   7.845  67.796  1.00  0.00     0.000 HD 
BRANCH  23  26
HETATM   26  N   UNL     1      -9.425   6.969  69.282  1.00  0.00    -0.148 NA 
HETATM   27  H   UNL     1     -10.033   7.442  69.950  1.00  0.00     0.000 HD 
BRANCH  26  28
HETATM   28  C   UNL     1      -8.837   5.706  69.537  1.00  0.00    -0.112 A  
HETATM   29  N   UNL     1      -7.524   5.480  69.286  1.00  0.00    -0.076 NA 
HETATM   30  C   UNL     1      -7.095   4.207  69.494  1.00  0.00    -0.049 A  
HETATM   31  C   UNL     1      -7.930   3.187  69.922  1.00  0.00    -0.045 A  
HETATM   32  N   UNL     1      -9.240   3.387  70.166  1.00  0.00    -0.139 NA 
HETATM   33  C   UNL     1      -9.668   4.658  69.955  1.00  0.00    -0.207 A  
ENDBRANCH  26  28
ENDBRANCH  23  26
ENDBRANCH  21  22
ENDBRANCH  17  20
ENDBRANCH  10  15
TORSDOF 5
ENDMDL
MODEL      296
REMARK 921   NORMALIZED FREE ENERGY PREDICTED BY IDOCK:    4.43 KCAL/MOL
REMARK 922        TOTAL FREE ENERGY PREDICTED BY IDOCK:    4.46 KCAL/MOL
REMARK 923 INTER-LIGAND FREE ENERGY PREDICTED BY IDOCK:    4.48 KCAL/MOL
REMARK 924 INTRA-LIGAND FREE ENERGY PREDICTED BY IDOCK:   -0.02 KCAL/MOL
REMARK 927      BINDING AFFINITY PREDICTED BY RF-SCORE:    0.00 PKD
ROOT
HETATM    1  F   UNL     1      -8.162   9.837  64.094  1.00  0.00    -0.126 F  
HETATM    2  C   UNL     1      -8.139  10.948  64.883  1.00  0.00     0.168 C  
HETATM    3  F   UNL     1      -7.819  10.510  66.131  1.00  0.00    -0.120 F  
HETATM    4  F   UNL     1      -7.076  11.684  64.456  1.00  0.00     1.263 F  
HETATM    5  C   UNL     1      -9.430  11.730  64.857  1.00  0.00    -0.054 A  
HETATM    6  C   UNL     1     -10.523  11.325  64.077  1.00  0.00    -0.440 A  
HETATM    7  C   UNL     1     -11.721  12.060  64.073  1.00  0.00    -0.498 A  
HETATM    8  C   UNL     1     -12.899  11.611  63.240  1.00  0.00     0.064 C  
HETATM    9  C   UNL     1     -11.815  13.224  64.861  1.00  0.00    -0.398 A  
HETATM   10  C   UNL     1     -10.733  13.653  65.641  1.00  0.00    -0.283 A  
HETATM   11  F   UNL     1     -13.288  12.551  62.334  1.00  0.00     0.705 F  
HETATM   12  F   UNL     1     -12.654  10.481  62.521  1.00  0.00     1.520 F  
HETATM   13  F   UNL     1     -13.998  11.338  63.995  1.00  0.00     0.585 F  
HETATM   14  C   UNL     1      -9.553  12.893  65.632  1.00  0.00    -0.036 A  
ENDROOT
BRANCH  10  15
HETATM   15  C   UNL     1     -10.802  14.854  66.474  1.00  0.00    -0.322 A  
HETATM   16  N   UNL     1      -9.993  15.918  66.372  1.00  0.00    -0.270 NA 
HETATM   17  N   UNL     1     -10.540  16.822  67.243  1.00  0.00    -0.306 NA 
HETATM   18  N   UNL     1     -11.733  14.959  67.469  1.00  0.00    -0.350 NA 
HETATM   19  C   UNL     1     -11.533  16.163  67.941  1.00  0.00    -0.103 A  
BRANCH  17  20
HETATM   20  C   UNL     1     -10.065  18.131  67.418  1.00  0.00    -0.351 C  
HETATM   21  C   UNL     1      -9.693  18.809  68.521  1.00  0.00    -0.426 C  
BRANCH  21  22
HETATM   22  C   UNL     1      -9.877  18.370  69.925  1.00  0.00     0.885 C  
HETATM   23  N   UNL     1     -11.008  17.629  70.176  1.00  0.00     0.449 N  
HETATM   24  O   UNL     1      -9.060  18.604  70.810  1.00  0.00     3.274 OA 
HETATM   25  H   UNL     1     -11.650  17.347  69.435  1.00  0.00     0.000 HD 
BRANCH  23  26
HETATM   26  N   UNL     1     -11.219  17.284  71.532  1.00  0.00     0.360 NA 
HETATM   27  H   UNL     1     -11.027  17.924  72.302  1.00  0.00     0.000 HD 
BRANCH  26  28
HETATM   28  C   UNL     1     -11.720  15.973  71.726  1.00  0.00    -0.509 A  
HETATM   29  N   UNL     1     -12.612  15.702  72.710  1.00  0.00    -0.391 NA 
HETATM   30  C   UNL     1     -12.956  14.394  72.849  1.00  0.00    -0.481 A  
HETATM   31  C   UNL     1     -12.431  13.385  72.058  1.00  0.00     0.111 A  
HETATM   32  N   UNL     1     -11.535  13.631  71.082  1.00  0.00     0.717 NA 
HETATM   33  C   UNL     1     -11.190  14.936  70.946  1.00  0.00    -0.162 A  
ENDBRANCH  26  28
ENDBRANCH  23  26
ENDBRANCH  21  22
ENDBRANCH  17  20
ENDBRANCH  10  15
TORSDOF 5
ENDMDL
MODEL      297
REMARK 921   NORMALIZED FREE ENERGY PREDICTED BY IDOCK:    6.68 KCAL/MOL
REMARK 922        TOTAL FREE ENERGY PREDICTED BY IDOCK:    7.36 KCAL/MOL
REMARK 923 INTER-LIGAND FREE ENERGY PREDICTED BY IDOCK:    9.07 KCAL/MOL
REMARK 924 INTRA-LIGAND FREE ENERGY PREDICTED BY IDOCK:   -1.71 KCAL/MOL
REMARK 927      BINDING AFFINITY PREDICTED BY RF-SCORE:    0.00 PKD
ROOT
HETATM    1  F   UNL     1      -7.955  16.246  71.755  1.00  0.00     5.481 F  
HETATM    2  C   UNL     1      -7.760  14.983  71.282  1.00  0.00     2.779 C  
HETATM    3  F   UNL     1      -6.769  14.449  72.047  1.00  0.00     0.330 F  
HETATM    4  F   UNL     1      -8.891  14.292  71.592  1.00  0.00     3.573 F  
HETATM    5  C   UNL     1      -7.442  14.936  69.807  1.00  0.00    -0.067 A  
HETATM    6  C   UNL     1      -7.371  16.102  69.030  1.00  0.00    -0.203 A  
HETATM    7  C   UNL     1      -7.063  16.040  67.660  1.00  0.00    -0.178 A  
HETATM    8  C   UNL     1      -6.976  17.301  66.831  1.00  0.00    -0.194 C  
HETATM    9  C   UNL     1      -6.831  14.785  67.064  1.00  0.00     0.539 A  
HETATM   10  C   UNL     1      -6.906  13.606  67.817  1.00  0.00    -0.175 A  
HETATM   11  F   UNL     1      -7.852  17.303  65.787  1.00  0.00    -0.305 F  
HETATM   12  F   UNL     1      -7.239  18.434  67.539  1.00  0.00    -0.202 F  
HETATM   13  F   UNL     1      -5.741  17.483  66.287  1.00  0.00    -0.183 F  
HETATM   14  C   UNL     1      -7.206  13.700  69.186  1.00  0.00     0.005 A  
ENDROOT
BRANCH  10  15
HETATM   15  C   UNL     1      -6.666  12.289  67.228  1.00  0.00    -0.143 A  
HETATM   16  N   UNL     1      -6.854  11.967  65.941  1.00  0.00     0.985 NA 
HETATM   17  N   UNL     1      -6.356  10.694  65.852  1.00  0.00    -0.128 NA 
HETATM   18  N   UNL     1      -6.230  11.250  68.002  1.00  0.00    -0.049 NA 
HETATM   19  C   UNL     1      -6.074  10.278  67.139  1.00  0.00    -0.055 A  
BRANCH  17  20
HETATM   20  C   UNL     1      -6.271   9.966  64.656  1.00  0.00    -0.112 C  
HETATM   21  C   UNL     1      -7.183   9.702  63.700  1.00  0.00    -0.113 C  
BRANCH  21  22
HETATM   22  C   UNL     1      -8.637   9.984  63.773  1.00  0.00    -0.198 C  
HETATM   23  N   UNL     1      -8.994  11.309  63.687  1.00  0.00    -0.421 N  
HETATM   24  O   UNL     1      -9.485   9.101  63.859  1.00  0.00     0.316 OA 
HETATM   25  H   UNL     1      -8.310  12.049  63.523  1.00  0.00     0.000 HD 
BRANCH  23  26
HETATM   26  N   UNL     1     -10.374  11.577  63.840  1.00  0.00    -0.332 NA 
HETATM   27  H   UNL     1     -11.075  11.276  63.164  1.00  0.00     0.000 HD 
BRANCH  26  28
HETATM   28  C   UNL     1     -10.699  12.300  65.015  1.00  0.00    -0.298 A  
HETATM   29  N   UNL     1     -10.046  13.443  65.339  1.00  0.00    -0.282 NA 
HETATM   30  C   UNL     1     -10.390  14.001  66.529  1.00  0.00    -0.285 A  
HETATM   31  C   UNL     1     -11.334  13.448  67.380  1.00  0.00    -0.309 A  
HETATM   32  N   UNL     1     -11.986  12.307  67.083  1.00  0.00    -0.576 NA 
HETATM   33  C   UNL     1     -11.640  11.749  65.895  1.00  0.00    -0.130 A  
ENDBRANCH  26  28
ENDBRANCH  23  26
ENDBRANCH  21  22
ENDBRANCH  17  20
ENDBRANCH  10  15
TORSDOF 5
ENDMDL
MODEL      298
REMARK 921   NORMALIZED FREE ENERGY PREDICTED BY IDOCK:    8.14 KCAL/MOL
REMARK 922        TOTAL FREE ENERGY PREDICTED BY IDOCK:    9.26 KCAL/MOL
REMARK 923 INTER-LIGAND FREE ENERGY PREDICTED BY IDOCK:    5.99 KCAL/MOL
REMARK 924 INTRA-LIGAND FREE ENERGY PREDICTED BY IDOCK:    3.27 KCAL/MOL
REMARK 927      BINDING AFFINITY PREDICTED BY RF-SCORE:    0.00 PKD
ROOT
HETATM    1  F   UNL     1      -8.549  10.549  63.192  1.00  0.00    -0.158 F  
HETATM    2  C   UNL     1      -9.204  11.718  63.439  1.00  0.00     0.069 C  
HETATM    3  F   UNL     1      -8.521  12.679  62.760  1.00  0.00     1.714 F  
HETATM    4  F   UNL     1     -10.412  11.604  62.820  1.00  0.00    -0.261 F  
HETATM    5  C   UNL     1      -9.338  12.032  64.910  1.00  0.00     0.173 A  
HETATM    6  C   UNL     1      -8.830  11.174  65.897  1.00  0.00    -0.193 A  
HETATM    7  C   UNL     1      -8.953  11.488  67.261  1.00  0.00    -0.162 A  
HETATM    8  C   UNL     1      -8.392  10.567  68.318  1.00  0.00    -0.122 C  
HETATM    9  C   UNL     1      -9.606  12.680  67.635  1.00  0.00    -0.188 A  
HETATM   10  C   UNL     1     -10.130  13.547  66.668  1.00  0.00    -0.277 A  
HETATM   11  F   UNL     1      -9.346  10.122  69.185  1.00  0.00    -0.153 F  
HETATM   12  F   UNL     1      -7.805   9.449  67.808  1.00  0.00    -0.093 F  
HETATM   13  F   UNL     1      -7.440  11.168  69.083  1.00  0.00    -0.105 F  
HETATM   14  C   UNL     1      -9.982  13.212  65.312  1.00  0.00    -0.184 A  
ENDROOT
BRANCH  10  15
HETATM   15  C   UNL     1     -10.808  14.793  67.024  1.00  0.00    -0.315 A  
HETATM   16  N   UNL     1     -10.207  15.975  67.225  1.00  0.00    -0.271 NA 
HETATM   17  N   UNL     1     -11.254  16.844  67.380  1.00  0.00     0.052 NA 
HETATM   18  N   UNL     1     -12.162  14.823  67.202  1.00  0.00    -0.114 NA 
HETATM   19  C   UNL     1     -12.406  16.085  67.445  1.00  0.00     1.616 A  
BRANCH  17  20
HETATM   20  C   UNL     1     -11.106  18.230  67.542  1.00  0.00     0.084 C  
HETATM   21  C   UNL     1     -10.136  19.080  67.152  1.00  0.00    -0.435 C  
BRANCH  21  22
HETATM   22  C   UNL     1      -8.819  18.706  66.582  1.00  0.00    -0.302 C  
HETATM   23  N   UNL     1      -8.211  17.612  67.150  1.00  0.00    -0.209 N  
HETATM   24  O   UNL     1      -8.312  19.296  65.632  1.00  0.00    -0.371 OA 
HETATM   25  H   UNL     1      -8.660  17.055  67.877  1.00  0.00     0.000 HD 
BRANCH  23  26
HETATM   26  N   UNL     1      -6.920  17.311  66.656  1.00  0.00    -0.210 NA 
HETATM   27  H   UNL     1      -6.323  16.595  67.068  1.00  0.00     0.000 HD 
BRANCH  26  28
HETATM   28  C   UNL     1      -6.527  18.093  65.542  1.00  0.00    -0.200 A  
HETATM   29  N   UNL     1      -6.862  17.731  64.278  1.00  0.00     3.465 NA 
HETATM   30  C   UNL     1      -6.359  18.515  63.289  1.00  0.00     3.776 A  
HETATM   31  C   UNL     1      -5.544  19.610  63.530  1.00  0.00    -0.310 A  
HETATM   32  N   UNL     1      -5.190  19.980  64.776  1.00  0.00    -0.159 NA 
HETATM   33  C   UNL     1      -5.690  19.195  65.764  1.00  0.00    -0.163 A  
ENDBRANCH  26  28
ENDBRANCH  23  26
ENDBRANCH  21  22
ENDBRANCH  17  20
ENDBRANCH  10  15
TORSDOF 5
ENDMDL
MODEL      299
REMARK 921   NORMALIZED FREE ENERGY PREDICTED BY IDOCK:   13.46 KCAL/MOL
REMARK 922        TOTAL FREE ENERGY PREDICTED BY IDOCK:   16.13 KCAL/MOL
REMARK 923 INTER-LIGAND FREE ENERGY PREDICTED BY IDOCK:   16.71 KCAL/MOL
REMARK 924 INTRA-LIGAND FREE ENERGY PREDICTED BY IDOCK:   -0.57 KCAL/MOL
REMARK 927      BINDING AFFINITY PREDICTED BY RF-SCORE:    0.00 PKD
ROOT
HETATM    1  F   UNL     1      -8.283  16.196  72.249  1.00  0.00     7.668 F  
HETATM    2  C   UNL     1      -9.020  15.174  71.728  1.00  0.00     4.941 C  
HETATM    3  F   UNL     1      -8.872  14.132  72.589  1.00  0.00     5.216 F  
HETATM    4  F   UNL     1     -10.320  15.566  71.828  1.00  0.00     0.098 F  
HETATM    5  C   UNL     1      -8.632  14.817  70.313  1.00  0.00     1.091 A  
HETATM    6  C   UNL     1      -7.613  15.498  69.631  1.00  0.00    -0.144 A  
HETATM    7  C   UNL     1      -7.259  15.144  68.318  1.00  0.00    -0.112 A  
HETATM    8  C   UNL     1      -6.151  15.873  67.595  1.00  0.00    -0.156 C  
HETATM    9  C   UNL     1      -7.948  14.093  67.681  1.00  0.00    -0.187 A  
HETATM   10  C   UNL     1      -8.976  13.404  68.338  1.00  0.00    -0.136 A  
HETATM   11  F   UNL     1      -6.577  16.457  66.439  1.00  0.00    -0.186 F  
HETATM   12  F   UNL     1      -5.590  16.872  68.330  1.00  0.00    -0.114 F  
HETATM   13  F   UNL     1      -5.126  15.049  67.245  1.00  0.00     0.029 F  
HETATM   14  C   UNL     1      -9.301  13.774  69.653  1.00  0.00     1.228 A  
ENDROOT
BRANCH  10  15
HETATM   15  C   UNL     1      -9.706  12.306  67.705  1.00  0.00    -0.194 A  
HETATM   16  N   UNL     1      -9.432  11.002  67.855  1.00  0.00    -0.162 NA 
HETATM   17  N   UNL     1     -10.464  10.381  67.202  1.00  0.00    -0.242 NA 
HETATM   18  N   UNL     1     -10.753  12.560  66.864  1.00  0.00    -0.239 NA 
HETATM   19  C   UNL     1     -11.182  11.364  66.549  1.00  0.00    -0.209 A  
BRANCH  17  20
HETATM   20  C   UNL     1     -10.642   8.990  67.159  1.00  0.00    -0.220 C  
HETATM   21  C   UNL     1      -9.763   7.977  67.026  1.00  0.00    -0.275 C  
BRANCH  21  22
HETATM   22  C   UNL     1      -8.324   8.103  66.692  1.00  0.00    -0.111 C  
HETATM   23  N   UNL     1      -7.827   9.385  66.663  1.00  0.00    -0.104 N  
HETATM   24  O   UNL     1      -7.597   7.134  66.495  1.00  0.00    -0.088 OA 
HETATM   25  H   UNL     1      -8.394  10.195  66.913  1.00  0.00     0.000 HD 
BRANCH  23  26
HETATM   26  N   UNL     1      -6.475   9.503  66.263  1.00  0.00    -0.069 NA 
HETATM   27  H   UNL     1      -5.694   9.311  66.889  1.00  0.00     0.000 HD 
BRANCH  26  28
HETATM   28  C   UNL     1      -6.301   9.910  64.917  1.00  0.00    -0.110 A  
HETATM   29  N   UNL     1      -5.239  10.666  64.544  1.00  0.00    -0.152 NA 
HETATM   30  C   UNL     1      -5.225  11.062  63.244  1.00  0.00    -0.006 A  
HETATM   31  C   UNL     1      -6.227  10.737  62.343  1.00  0.00    -0.104 A  
HETATM   32  N   UNL     1      -7.296   9.997  62.695  1.00  0.00    -0.124 NA 
HETATM   33  C   UNL     1      -7.311   9.605  63.994  1.00  0.00    -0.121 A  
ENDBRANCH  26  28
ENDBRANCH  23  26
ENDBRANCH  21  22
ENDBRANCH  17  20
ENDBRANCH  10  15
TORSDOF 5
ENDMDL
MODEL      300
REMARK 921   NORMALIZED FREE ENERGY PREDICTED BY IDOCK:   14.07 KCAL/MOL
REMARK 922        TOTAL FREE ENERGY PREDICTED BY IDOCK:   16.92 KCAL/MOL
REMARK 923 INTER-LIGAND FREE ENERGY PREDICTED BY IDOCK:   18.62 KCAL/MOL
REMARK 924 INTRA-LIGAND FREE ENERGY PREDICTED BY IDOCK:   -1.70 KCAL/MOL
REMARK 927      BINDING AFFINITY PREDICTED BY RF-SCORE:    0.00 PKD
ROOT
HETATM    1  F   UNL     1      -8.760   7.697  68.274  1.00  0.00    -0.123 F  
HETATM    2  C   UNL     1      -9.424   8.874  68.096  1.00  0.00    -0.143 C  
HETATM    3  F   UNL     1      -9.319   9.163  66.771  1.00  0.00    -0.160 F  
HETATM    4  F   UNL     1     -10.737   8.597  68.320  1.00  0.00    -0.248 F  
HETATM    5  C   UNL     1      -8.912   9.990  68.975  1.00  0.00    -0.163 A  
HETATM    6  C   UNL     1      -7.859   9.794  69.880  1.00  0.00    -0.168 A  
HETATM    7  C   UNL     1      -7.390  10.848  70.683  1.00  0.00     1.524 A  
HETATM    8  C   UNL     1      -6.246  10.633  71.647  1.00  0.00     0.970 C  
HETATM    9  C   UNL     1      -7.995  12.115  70.576  1.00  0.00     4.807 A  
HETATM   10  C   UNL     1      -9.055  12.333  69.686  1.00  0.00     1.900 A  
HETATM   11  F   UNL     1      -6.591  10.906  72.937  1.00  0.00     2.510 F  
HETATM   12  F   UNL     1      -5.774   9.356  71.651  1.00  0.00    -0.059 F  
HETATM   13  F   UNL     1      -5.174  11.424  71.369  1.00  0.00    -0.107 F  
HETATM   14  C   UNL     1      -9.497  11.264  68.890  1.00  0.00    -0.102 A  
ENDROOT
BRANCH  10  15
HETATM   15  C   UNL     1      -9.701  13.639  69.548  1.00  0.00     0.909 A  
HETATM   16  N   UNL     1      -9.238  14.662  68.817  1.00  0.00    -0.196 NA 
HETATM   17  N   UNL     1     -10.247  15.585  68.882  1.00  0.00    -0.202 NA 
HETATM   18  N   UNL     1     -10.866  13.911  70.208  1.00  0.00     0.458 NA 
HETATM   19  C   UNL     1     -11.164  15.119  69.804  1.00  0.00    -0.279 A  
BRANCH  17  20
HETATM   20  C   UNL     1     -10.239  16.808  68.193  1.00  0.00    -0.301 C  
HETATM   21  C   UNL     1     -10.466  17.109  66.900  1.00  0.00    -0.274 C  
BRANCH  21  22
HETATM   22  C   UNL     1     -10.609  16.142  65.786  1.00  0.00    -0.334 C  
HETATM   23  N   UNL     1      -9.959  14.941  65.949  1.00  0.00    -0.311 N  
HETATM   24  O   UNL     1     -11.298  16.363  64.794  1.00  0.00    -0.361 OA 
HETATM   25  H   UNL     1      -9.458  14.705  66.806  1.00  0.00     0.000 HD 
BRANCH  23  26
HETATM   26  N   UNL     1     -10.032  14.056  64.848  1.00  0.00    -0.599 NA 
HETATM   27  H   UNL     1     -10.761  14.115  64.138  1.00  0.00     0.000 HD 
BRANCH  26  28
HETATM   28  C   UNL     1      -9.005  13.081  64.817  1.00  0.00     1.803 A  
HETATM   29  N   UNL     1      -8.007  13.084  65.735  1.00  0.00     2.136 NA 
HETATM   30  C   UNL     1      -7.037  12.149  65.553  1.00  0.00     2.814 A  
HETATM   31  C   UNL     1      -7.040  11.250  64.498  1.00  0.00     1.385 A  
HETATM   32  N   UNL     1      -8.016  11.238  63.569  1.00  0.00     0.603 NA 
HETATM   33  C   UNL     1      -8.982  12.173  63.750  1.00  0.00     0.935 A  
ENDBRANCH  26  28
ENDBRANCH  23  26
ENDBRANCH  21  22
ENDBRANCH  17  20
ENDBRANCH  10  15
TORSDOF 5
ENDMDL
MODEL      301
REMARK 921   NORMALIZED FREE ENERGY PREDICTED BY IDOCK:   17.12 KCAL/MOL
REMARK 922        TOTAL FREE ENERGY PREDICTED BY IDOCK:   20.86 KCAL/MOL
REMARK 923 INTER-LIGAND FREE ENERGY PREDICTED BY IDOCK:   22.24 KCAL/MOL
REMARK 924 INTRA-LIGAND FREE ENERGY PREDICTED BY IDOCK:   -1.38 KCAL/MOL
REMARK 927      BINDING AFFINITY PREDICTED BY RF-SCORE:    0.00 PKD
ROOT
HETATM    1  F   UNL     1      -8.397  10.902  65.549  1.00  0.00    -0.162 F  
HETATM    2  C   UNL     1      -9.225  11.976  65.417  1.00  0.00     0.107 C  
HETATM    3  F   UNL     1      -9.017  12.455  64.161  1.00  0.00     0.437 F  
HETATM    4  F   UNL     1     -10.490  11.472  65.425  1.00  0.00    -0.284 F  
HETATM    5  C   UNL     1      -9.017  13.028  66.480  1.00  0.00    -0.076 A  
HETATM    6  C   UNL     1      -8.059  12.875  67.494  1.00  0.00    -0.181 A  
HETATM    7  C   UNL     1      -7.872  13.869  68.469  1.00  0.00    -0.139 A  
HETATM    8  C   UNL     1      -6.830  13.703  69.549  1.00  0.00     0.027 C  
HETATM    9  C   UNL     1      -8.668  15.031  68.426  1.00  0.00    -0.175 A  
HETATM   10  C   UNL     1      -9.638  15.202  67.429  1.00  0.00    -0.208 A  
HETATM   11  F   UNL     1      -7.364  13.742  70.803  1.00  0.00     0.850 F  
HETATM   12  F   UNL     1      -6.151  12.526  69.472  1.00  0.00    -0.085 F  
HETATM   13  F   UNL     1      -5.882  14.680  69.514  1.00  0.00    -0.093 F  
HETATM   14  C   UNL     1      -9.795  14.196  66.463  1.00  0.00    -0.298 A  
ENDROOT
BRANCH  10  15
HETATM   15  C   UNL     1     -10.475  16.400  67.356  1.00  0.00    -0.309 A  
HETATM   16  N   UNL     1     -10.054  17.656  67.555  1.00  0.00    -0.323 NA 
HETATM   17  N   UNL     1     -11.147  18.416  67.232  1.00  0.00    -0.093 NA 
HETATM   18  N   UNL     1     -11.811  16.299  67.084  1.00  0.00     0.729 NA 
HETATM   19  C   UNL     1     -12.203  17.546  67.041  1.00  0.00     3.763 A  
BRANCH  17  20
HETATM   20  C   UNL     1     -11.152  19.819  67.217  1.00  0.00    -0.063 C  
HETATM   21  C   UNL     1     -10.763  20.727  68.134  1.00  0.00     0.601 C  
BRANCH  21  22
HETATM   22  C   UNL     1     -10.379  20.446  69.538  1.00  0.00     0.355 C  
HETATM   23  N   UNL     1      -9.381  19.516  69.711  1.00  0.00     0.257 N  
HETATM   24  O   UNL     1     -10.878  21.030  70.496  1.00  0.00     1.610 OA 
HETATM   25  H   UNL     1      -8.892  19.089  68.924  1.00  0.00     0.000 HD 
BRANCH  23  26
HETATM   26  N   UNL     1      -9.078  19.193  71.054  1.00  0.00     3.324 NA 
HETATM   27  H   UNL     1      -9.735  19.337  71.820  1.00  0.00     0.000 HD 
BRANCH  26  28
HETATM   28  C   UNL     1      -7.782  18.652  71.243  1.00  0.00     5.471 A  
HETATM   29  N   UNL     1      -7.055  18.942  72.351  1.00  0.00     3.872 NA 
HETATM   30  C   UNL     1      -5.797  18.430  72.380  1.00  0.00     1.701 A  
HETATM   31  C   UNL     1      -5.264  17.671  71.351  1.00  0.00     0.011 A  
HETATM   32  N   UNL     1      -5.964  17.381  70.237  1.00  0.00    -0.123 NA 
HETATM   33  C   UNL     1      -7.220  17.894  70.207  1.00  0.00     1.740 A  
ENDBRANCH  26  28
ENDBRANCH  23  26
ENDBRANCH  21  22
ENDBRANCH  17  20
ENDBRANCH  10  15
TORSDOF 5
ENDMDL
MODEL      302
REMARK 921   NORMALIZED FREE ENERGY PREDICTED BY IDOCK:   21.23 KCAL/MOL
REMARK 922        TOTAL FREE ENERGY PREDICTED BY IDOCK:   26.17 KCAL/MOL
REMARK 923 INTER-LIGAND FREE ENERGY PREDICTED BY IDOCK:   23.48 KCAL/MOL
REMARK 924 INTRA-LIGAND FREE ENERGY PREDICTED BY IDOCK:    2.69 KCAL/MOL
REMARK 927      BINDING AFFINITY PREDICTED BY RF-SCORE:    0.00 PKD
ROOT
HETATM    1  F   UNL     1      -8.571  10.528  63.193  1.00  0.00    -0.158 F  
HETATM    2  C   UNL     1      -9.350  11.565  63.610  1.00  0.00    -0.093 C  
HETATM    3  F   UNL     1      -8.866  12.670  62.981  1.00  0.00     1.029 F  
HETATM    4  F   UNL     1     -10.583  11.338  63.081  1.00  0.00    -0.374 F  
HETATM    5  C   UNL     1      -9.386  11.722  65.111  1.00  0.00    -0.030 A  
HETATM    6  C   UNL     1      -8.679  10.859  65.961  1.00  0.00    -0.192 A  
HETATM    7  C   UNL     1      -8.716  11.028  67.356  1.00  0.00    -0.132 A  
HETATM    8  C   UNL     1      -7.941  10.103  68.265  1.00  0.00    -0.101 C  
HETATM    9  C   UNL     1      -9.483  12.076  67.901  1.00  0.00    -0.196 A  
HETATM   10  C   UNL     1     -10.206  12.944  67.073  1.00  0.00    -0.243 A  
HETATM   11  F   UNL     1      -8.742   9.451  69.155  1.00  0.00    -0.125 F  
HETATM   12  F   UNL     1      -7.261   9.131  67.597  1.00  0.00    -0.079 F  
HETATM   13  F   UNL     1      -7.010  10.761  69.009  1.00  0.00    -0.059 F  
HETATM   14  C   UNL     1     -10.142  12.758  65.682  1.00  0.00    -0.281 A  
ENDROOT
BRANCH  10  15
HETATM   15  C   UNL     1     -11.007  14.045  67.609  1.00  0.00    -0.269 A  
HETATM   16  N   UNL     1     -10.893  14.561  68.840  1.00  0.00    -0.246 NA 
HETATM   17  N   UNL     1     -11.732  15.644  68.813  1.00  0.00    -0.377 NA 
HETATM   18  N   UNL     1     -11.984  14.628  66.851  1.00  0.00    -0.340 NA 
HETATM   19  C   UNL     1     -12.430  15.586  67.622  1.00  0.00     1.226 A  
BRANCH  17  20
HETATM   20  C   UNL     1     -11.883  16.547  69.875  1.00  0.00     0.465 C  
HETATM   21  C   UNL     1     -11.026  16.962  70.829  1.00  0.00     0.537 C  
BRANCH  21  22
HETATM   22  C   UNL     1      -9.688  16.391  71.114  1.00  0.00     3.412 C  
HETATM   23  N   UNL     1      -9.620  15.018  71.158  1.00  0.00     1.160 N  
HETATM   24  O   UNL     1      -8.684  17.083  71.257  1.00  0.00     6.452 OA 
HETATM   25  H   UNL     1     -10.425  14.426  70.951  1.00  0.00     0.000 HD 
BRANCH  23  26
HETATM   26  N   UNL     1      -8.359  14.484  71.511  1.00  0.00     3.374 NA 
HETATM   27  H   UNL     1      -8.234  13.523  71.829  1.00  0.00     0.000 HD 
BRANCH  26  28
HETATM   28  C   UNL     1      -7.284  15.398  71.384  1.00  0.00     2.594 A  
HETATM   29  N   UNL     1      -6.687  15.617  70.187  1.00  0.00    -0.013 NA 
HETATM   30  C   UNL     1      -5.616  16.454  70.207  1.00  0.00    -0.176 A  
HETATM   31  C   UNL     1      -5.139  17.045  71.367  1.00  0.00     0.043 A  
HETATM   32  N   UNL     1      -5.711  16.832  72.568  1.00  0.00     1.399 NA 
HETATM   33  C   UNL     1      -6.778  15.994  72.547  1.00  0.00     5.276 A  
ENDBRANCH  26  28
ENDBRANCH  23  26
ENDBRANCH  21  22
ENDBRANCH  17  20
ENDBRANCH  10  15
TORSDOF 5
ENDMDL
MODEL      303
REMARK 921   NORMALIZED FREE ENERGY PREDICTED BY IDOCK:   21.23 KCAL/MOL
REMARK 922        TOTAL FREE ENERGY PREDICTED BY IDOCK:   26.18 KCAL/MOL
REMARK 923 INTER-LIGAND FREE ENERGY PREDICTED BY IDOCK:   27.27 KCAL/MOL
REMARK 924 INTRA-LIGAND FREE ENERGY PREDICTED BY IDOCK:   -1.10 KCAL/MOL
REMARK 927      BINDING AFFINITY PREDICTED BY RF-SCORE:    0.00 PKD
ROOT
HETATM    1  F   UNL     1     -10.459   8.519  71.288  1.00  0.00    -0.227 F  
HETATM    2  C   UNL     1     -10.355   9.768  70.752  1.00  0.00    -0.228 C  
HETATM    3  F   UNL     1     -11.599  10.313  70.836  1.00  0.00    -0.352 F  
HETATM    4  F   UNL     1      -9.573  10.476  71.612  1.00  0.00     2.273 F  
HETATM    5  C   UNL     1      -9.814   9.773  69.343  1.00  0.00    -0.217 A  
HETATM    6  C   UNL     1      -9.456   8.587  68.685  1.00  0.00    -0.144 A  
HETATM    7  C   UNL     1      -8.963   8.610  67.369  1.00  0.00    -0.144 A  
HETATM    8  C   UNL     1      -8.592   7.328  66.662  1.00  0.00    -0.128 C  
HETATM    9  C   UNL     1      -8.823   9.848  66.710  1.00  0.00    -0.147 A  
HETATM   10  C   UNL     1      -9.164  11.046  67.350  1.00  0.00    -0.157 A  
HETATM   11  F   UNL     1      -7.287   7.306  66.268  1.00  0.00    -0.071 F  
HETATM   12  F   UNL     1      -8.767   6.216  67.428  1.00  0.00    -0.108 F  
HETATM   13  F   UNL     1      -9.329   7.121  65.536  1.00  0.00    -0.014 F  
HETATM   14  C   UNL     1      -9.663  10.991  68.662  1.00  0.00    -0.198 A  
ENDROOT
BRANCH  10  15
HETATM   15  C   UNL     1      -9.034  12.346  66.691  1.00  0.00    -0.184 A  
HETATM   16  N   UNL     1      -7.882  12.901  66.290  1.00  0.00     0.963 NA 
HETATM   17  N   UNL     1      -8.285  14.018  65.608  1.00  0.00     2.462 NA 
HETATM   18  N   UNL     1     -10.135  13.118  66.450  1.00  0.00    -0.274 NA 
HETATM   19  C   UNL     1      -9.645  14.148  65.810  1.00  0.00    -0.133 A  
BRANCH  17  20
HETATM   20  C   UNL     1      -7.412  14.886  64.934  1.00  0.00    11.805 C  
HETATM   21  C   UNL     1      -6.731  15.972  65.348  1.00  0.00     5.788 C  
BRANCH  21  22
HETATM   22  C   UNL     1      -6.890  16.664  66.650  1.00  0.00    -0.184 C  
HETATM   23  N   UNL     1      -5.962  16.347  67.613  1.00  0.00    -0.132 N  
HETATM   24  O   UNL     1      -7.762  17.503  66.857  1.00  0.00    -0.193 OA 
HETATM   25  H   UNL     1      -5.177  15.721  67.429  1.00  0.00     0.000 HD 
BRANCH  23  26
HETATM   26  N   UNL     1      -6.170  16.947  68.877  1.00  0.00    -0.164 NA 
HETATM   27  H   UNL     1      -6.239  17.956  69.006  1.00  0.00     0.000 HD 
BRANCH  26  28
HETATM   28  C   UNL     1      -6.272  16.026  69.948  1.00  0.00    -0.154 A  
HETATM   29  N   UNL     1      -5.303  15.105  70.177  1.00  0.00    -0.116 NA 
HETATM   30  C   UNL     1      -5.552  14.225  71.182  1.00  0.00    -0.197 A  
HETATM   31  C   UNL     1      -6.719  14.239  71.930  1.00  0.00     1.828 A  
HETATM   32  N   UNL     1      -7.700  15.138  71.711  1.00  0.00     3.558 NA 
HETATM   33  C   UNL     1      -7.451  16.014  70.706  1.00  0.00     2.462 A  
ENDBRANCH  26  28
ENDBRANCH  23  26
ENDBRANCH  21  22
ENDBRANCH  17  20
ENDBRANCH  10  15
TORSDOF 5
ENDMDL
MODEL      304
REMARK 921   NORMALIZED FREE ENERGY PREDICTED BY IDOCK:   45.04 KCAL/MOL
REMARK 922        TOTAL FREE ENERGY PREDICTED BY IDOCK:   56.93 KCAL/MOL
REMARK 923 INTER-LIGAND FREE ENERGY PREDICTED BY IDOCK:   57.11 KCAL/MOL
REMARK 924 INTRA-LIGAND FREE ENERGY PREDICTED BY IDOCK:   -0.17 KCAL/MOL
REMARK 927      BINDING AFFINITY PREDICTED BY RF-SCORE:    0.00 PKD
ROOT
HETATM    1  F   UNL     1      -8.278  12.192  64.120  1.00  0.00     1.399 F  
HETATM    2  C   UNL     1      -8.379  13.248  64.976  1.00  0.00     4.176 C  
HETATM    3  F   UNL     1      -7.817  12.835  66.144  1.00  0.00     0.446 F  
HETATM    4  F   UNL     1      -7.554  14.209  64.478  1.00  0.00     9.121 F  
HETATM    5  C   UNL     1      -9.795  13.740  65.156  1.00  0.00    -0.125 A  
HETATM    6  C   UNL     1     -10.875  13.147  64.485  1.00  0.00    -0.400 A  
HETATM    7  C   UNL     1     -12.187  13.612  64.673  1.00  0.00    -0.448 A  
HETATM    8  C   UNL     1     -13.347  12.960  63.957  1.00  0.00     0.994 C  
HETATM    9  C   UNL     1     -12.414  14.695  65.546  1.00  0.00    -0.142 A  
HETATM   10  C   UNL     1     -11.351  15.310  66.220  1.00  0.00    -0.155 A  
HETATM   11  F   UNL     1     -14.034  13.835  63.170  1.00  0.00     3.419 F  
HETATM   12  F   UNL     1     -12.973  11.939  63.138  1.00  0.00    -0.685 F  
HETATM   13  F   UNL     1     -14.260  12.430  64.817  1.00  0.00     1.332 F  
HETATM   14  C   UNL     1     -10.051  14.817  66.019  1.00  0.00    -0.327 A  
ENDROOT
BRANCH  10  15
HETATM   15  C   UNL     1     -11.554  16.433  67.135  1.00  0.00     0.611 A  
HETATM   16  N   UNL     1     -10.987  17.642  67.020  1.00  0.00    -0.050 NA 
HETATM   17  N   UNL     1     -11.594  18.376  68.005  1.00  0.00     1.099 NA 
HETATM   18  N   UNL     1     -12.362  16.301  68.229  1.00  0.00     0.812 NA 
HETATM   19  C   UNL     1     -12.348  17.498  68.759  1.00  0.00     4.170 A  
BRANCH  17  20
HETATM   20  C   UNL     1     -11.367  19.744  68.217  1.00  0.00     1.325 C  
HETATM   21  C   UNL     1     -11.013  20.434  69.319  1.00  0.00     1.119 C  
BRANCH  21  22
HETATM   22  C   UNL     1     -10.950  19.904  70.703  1.00  0.00     3.353 C  
HETATM   23  N   UNL     1     -11.945  19.022  71.052  1.00  0.00     8.572 N  
HETATM   24  O   UNL     1     -10.047  20.188  71.485  1.00  0.00     1.708 OA 
HETATM   25  H   UNL     1     -12.650  18.704  70.385  1.00  0.00     0.000 HD 
BRANCH  23  26
HETATM   26  N   UNL     1     -11.925  18.585  72.397  1.00  0.00     4.865 NA 
HETATM   27  H   UNL     1     -12.127  19.203  73.182  1.00  0.00     0.000 HD 
BRANCH  26  28
HETATM   28  C   UNL     1     -11.599  17.216  72.558  1.00  0.00     0.856 A  
HETATM   29  N   UNL     1     -12.109  16.271  71.730  1.00  0.00    -0.427 NA 
HETATM   30  C   UNL     1     -11.789  14.986  72.036  1.00  0.00    -0.384 A  
HETATM   31  C   UNL     1     -11.005  14.639  73.125  1.00  0.00     2.064 A  
HETATM   32  N   UNL     1     -10.498  15.561  73.966  1.00  0.00     4.875 NA 
HETATM   33  C   UNL     1     -10.821  16.844  73.662  1.00  0.00     3.933 A  
ENDBRANCH  26  28
ENDBRANCH  23  26
ENDBRANCH  21  22
ENDBRANCH  17  20
ENDBRANCH  10  15
TORSDOF 5
ENDMDL
MODEL      305
REMARK 921   NORMALIZED FREE ENERGY PREDICTED BY IDOCK:   70.95 KCAL/MOL
REMARK 922        TOTAL FREE ENERGY PREDICTED BY IDOCK:   90.42 KCAL/MOL
REMARK 923 INTER-LIGAND FREE ENERGY PREDICTED BY IDOCK:   91.76 KCAL/MOL
REMARK 924 INTRA-LIGAND FREE ENERGY PREDICTED BY IDOCK:   -1.34 KCAL/MOL
REMARK 927      BINDING AFFINITY PREDICTED BY RF-SCORE:    0.00 PKD
ROOT
HETATM    1  F   UNL     1      -8.360  12.360  66.909  1.00  0.00    -0.173 F  
HETATM    2  C   UNL     1      -9.412  13.144  66.541  1.00  0.00    -0.243 C  
HETATM    3  F   UNL     1      -9.024  13.774  65.399  1.00  0.00     0.340 F  
HETATM    4  F   UNL     1     -10.406  12.287  66.181  1.00  0.00    -0.241 F  
HETATM    5  C   UNL     1      -9.845  14.111  67.617  1.00  0.00    -0.229 A  
HETATM    6  C   UNL     1      -9.207  14.160  68.865  1.00  0.00    -0.003 A  
HETATM    7  C   UNL     1      -9.618  15.074  69.851  1.00  0.00     0.103 A  
HETATM    8  C   UNL     1      -8.918  15.131  71.189  1.00  0.00     3.021 C  
HETATM    9  C   UNL     1     -10.692  15.944  69.577  1.00  0.00    -0.288 A  
HETATM   10  C   UNL     1     -11.351  15.906  68.341  1.00  0.00    -0.361 A  
HETATM   11  F   UNL     1      -9.763  14.896  72.232  1.00  0.00     1.656 F  
HETATM   12  F   UNL     1      -7.912  14.222  71.314  1.00  0.00     1.944 F  
HETATM   13  F   UNL     1      -8.352  16.346  71.430  1.00  0.00     4.429 F  
HETATM   14  C   UNL     1     -10.912  14.989  67.372  1.00  0.00    -0.315 A  
ENDROOT
BRANCH  10  15
HETATM   15  C   UNL     1     -12.465  16.799  68.025  1.00  0.00     2.377 A  
HETATM   16  N   UNL     1     -12.449  18.134  68.145  1.00  0.00     3.907 NA 
HETATM   17  N   UNL     1     -13.643  18.519  67.595  1.00  0.00     7.744 NA 
HETATM   18  N   UNL     1     -13.657  16.296  67.585  1.00  0.00     5.579 NA 
HETATM   19  C   UNL     1     -14.369  17.369  67.355  1.00  0.00    10.994 A  
BRANCH  17  20
HETATM   20  C   UNL     1     -14.037  19.856  67.430  1.00  0.00     7.004 C  
HETATM   21  C   UNL     1     -13.888  20.939  68.219  1.00  0.00     6.382 C  
BRANCH  21  22
HETATM   22  C   UNL     1     -13.402  20.943  69.619  1.00  0.00     8.913 C  
HETATM   23  N   UNL     1     -12.122  20.480  69.810  1.00  0.00     4.408 N  
HETATM   24  O   UNL     1     -14.070  21.372  70.556  1.00  0.00     4.723 OA 
HETATM   25  H   UNL     1     -11.520  20.205  69.032  1.00  0.00     0.000 HD 
BRANCH  23  26
HETATM   26  N   UNL     1     -11.695  20.410  71.156  1.00  0.00     7.018 NA 
HETATM   27  H   UNL     1     -12.344  20.361  71.941  1.00  0.00     0.000 HD 
BRANCH  26  28
HETATM   28  C   UNL     1     -10.288  20.414  71.321  1.00  0.00     3.016 A  
HETATM   29  N   UNL     1      -9.722  20.721  72.514  1.00  0.00     2.872 NA 
HETATM   30  C   UNL     1      -8.364  20.771  72.526  1.00  0.00     3.348 A  
HETATM   31  C   UNL     1      -7.587  20.540  71.402  1.00  0.00     1.913 A  
HETATM   32  N   UNL     1      -8.130  20.245  70.204  1.00  0.00     0.967 NA 
HETATM   33  C   UNL     1      -9.486  20.198  70.192  1.00  0.00     0.957 A  
ENDBRANCH  26  28
ENDBRANCH  23  26
ENDBRANCH  21  22
ENDBRANCH  17  20
ENDBRANCH  10  15
TORSDOF 5
ENDMDL
