MODEL        1
REMARK 921   NORMALIZED FREE ENERGY PREDICTED BY IDOCK:   -7.62 KCAL/MOL
REMARK 922        TOTAL FREE ENERGY PREDICTED BY IDOCK:  -11.34 KCAL/MOL
REMARK 923 INTER-LIGAND FREE ENERGY PREDICTED BY IDOCK:  -10.30 KCAL/MOL
REMARK 924 INTRA-LIGAND FREE ENERGY PREDICTED BY IDOCK:   -1.05 KCAL/MOL
REMARK 927      BINDING AFFINITY PREDICTED BY RF-SCORE:    0.00 PKD
ROOT
HETATM    1 CL   UNL     1      -5.992  20.969  66.302  1.00  0.00    -0.292 Cl 
HETATM    2  C   UNL     1      -7.153  19.703  66.370  1.00  0.00    -0.234 A  
HETATM    3  C   UNL     1      -8.474  19.987  66.710  1.00  0.00    -0.380 A  
HETATM    4  C   UNL     1      -9.418  18.957  66.762  1.00  0.00    -0.326 A  
HETATM    5 CL   UNL     1     -11.033  19.378  67.204  1.00  0.00    -0.552 Cl 
HETATM    6  C   UNL     1      -9.053  17.634  66.463  1.00  0.00    -0.284 A  
HETATM    7  C   UNL     1      -7.712  17.377  66.109  1.00  0.00    -0.311 A  
HETATM    8  C   UNL     1      -6.765  18.400  66.079  1.00  0.00    -0.298 A  
ENDROOT
BRANCH   6   9
HETATM    9  C   UNL     1     -10.056  16.484  66.481  1.00  0.00    -0.299 C  
BRANCH   9  10
HETATM   10  C   UNL     1      -9.538  15.363  65.558  1.00  0.00    -0.218 C  
BRANCH  10  11
HETATM   11  N   UNL     1     -10.597  14.652  64.871  1.00  0.00    -0.435 NA 
HETATM   12  C   UNL     1     -10.685  13.301  64.675  1.00  0.00    -0.400 A  
HETATM   13  C   UNL     1     -11.742  15.217  64.377  1.00  0.00    -0.295 A  
HETATM   14  N   UNL     1     -12.528  14.312  63.843  1.00  0.00    -0.804 NA 
HETATM   15  C   UNL     1     -11.882  13.117  64.024  1.00  0.00    -0.453 A  
ENDBRANCH  10  11
ENDBRANCH   9  10
BRANCH   9  16
HETATM   16  O   UNL     1     -10.177  15.960  67.815  1.00  0.00    -0.250 OA 
BRANCH  16  17
HETATM   17  C   UNL     1     -11.535  15.792  68.241  1.00  0.00    -0.337 C  
BRANCH  17  18
HETATM   18  C   UNL     1     -11.717  14.454  68.894  1.00  0.00    -0.357 A  
HETATM   19  C   UNL     1     -11.213  13.282  68.369  1.00  0.00    -0.280 A  
HETATM   20  S   UNL     1     -11.580  11.918  69.310  1.00  0.00    -0.337 SA 
HETATM   21  C   UNL     1     -12.447  12.851  70.476  1.00  0.00    -0.217 A  
HETATM   22  C   UNL     1     -12.435  14.214  70.134  1.00  0.00    -0.391 A  
HETATM   23  C   UNL     1     -13.102  15.118  71.004  1.00  0.00    -0.513 A  
HETATM   24  C   UNL     1     -13.749  14.667  72.160  1.00  0.00    -0.544 A  
HETATM   25  C   UNL     1     -13.752  13.316  72.471  1.00  0.00    -0.613 A  
HETATM   26  C   UNL     1     -13.106  12.399  71.640  1.00  0.00    -0.307 A  
HETATM   27 CL   UNL     1     -13.143  10.728  72.075  1.00  0.00    -0.569 Cl 
ENDBRANCH  17  18
ENDBRANCH  16  17
ENDBRANCH   9  16
ENDBRANCH   6   9
TORSDOF 6
ENDMDL
MODEL        2
REMARK 921   NORMALIZED FREE ENERGY PREDICTED BY IDOCK:   -7.47 KCAL/MOL
REMARK 922        TOTAL FREE ENERGY PREDICTED BY IDOCK:  -11.14 KCAL/MOL
REMARK 923 INTER-LIGAND FREE ENERGY PREDICTED BY IDOCK:  -10.17 KCAL/MOL
REMARK 924 INTRA-LIGAND FREE ENERGY PREDICTED BY IDOCK:   -0.96 KCAL/MOL
REMARK 927      BINDING AFFINITY PREDICTED BY RF-SCORE:    0.00 PKD
ROOT
HETATM    1 CL   UNL     1     -13.390  14.916  73.205  1.00  0.00    -0.543 Cl 
HETATM    2  C   UNL     1     -12.685  14.664  71.657  1.00  0.00    -0.331 A  
HETATM    3  C   UNL     1     -12.578  13.374  71.142  1.00  0.00    -0.430 A  
HETATM    4  C   UNL     1     -12.009  13.170  69.881  1.00  0.00    -0.317 A  
HETATM    5 CL   UNL     1     -11.895  11.545  69.310  1.00  0.00    -0.388 Cl 
HETATM    6  C   UNL     1     -11.551  14.256  69.117  1.00  0.00    -0.346 A  
HETATM    7  C   UNL     1     -11.684  15.553  69.657  1.00  0.00    -0.371 A  
HETATM    8  C   UNL     1     -12.231  15.755  70.924  1.00  0.00    -0.458 A  
ENDROOT
BRANCH   6   9
HETATM    9  C   UNL     1     -10.948  14.084  67.726  1.00  0.00    -0.258 C  
BRANCH   9  10
HETATM   10  C   UNL     1     -11.850  14.804  66.704  1.00  0.00    -0.242 C  
BRANCH  10  11
HETATM   11  N   UNL     1     -12.059  14.042  65.489  1.00  0.00    -0.389 NA 
HETATM   12  C   UNL     1     -12.216  12.688  65.389  1.00  0.00    -0.459 A  
HETATM   13  C   UNL     1     -12.221  14.571  64.237  1.00  0.00    -0.415 A  
HETATM   14  N   UNL     1     -12.430  13.632  63.346  1.00  0.00    -0.800 NA 
HETATM   15  C   UNL     1     -12.431  12.457  64.050  1.00  0.00    -0.459 A  
ENDBRANCH  10  11
ENDBRANCH   9  10
BRANCH   9  16
HETATM   16  O   UNL     1      -9.639  14.679  67.682  1.00  0.00    -0.209 OA 
BRANCH  16  17
HETATM   17  C   UNL     1      -9.304  15.227  66.401  1.00  0.00    -0.296 C  
BRANCH  17  18
HETATM   18  C   UNL     1      -8.482  16.471  66.562  1.00  0.00    -0.328 A  
HETATM   19  C   UNL     1      -7.105  16.483  66.470  1.00  0.00    -0.112 A  
HETATM   20  S   UNL     1      -6.435  18.024  66.707  1.00  0.00    -0.199 SA 
HETATM   21  C   UNL     1      -7.981  18.751  66.953  1.00  0.00    -0.252 A  
HETATM   22  C   UNL     1      -9.006  17.797  66.838  1.00  0.00    -0.265 A  
HETATM   23  C   UNL     1     -10.345  18.244  67.006  1.00  0.00    -0.408 A  
HETATM   24  C   UNL     1     -10.632  19.585  67.278  1.00  0.00    -0.610 A  
HETATM   25  C   UNL     1      -9.602  20.506  67.395  1.00  0.00    -0.578 A  
HETATM   26  C   UNL     1      -8.274  20.104  67.234  1.00  0.00    -0.336 A  
HETATM   27 CL   UNL     1      -7.031  21.292  67.391  1.00  0.00    -0.376 Cl 
ENDBRANCH  17  18
ENDBRANCH  16  17
ENDBRANCH   9  16
ENDBRANCH   6   9
TORSDOF 6
ENDMDL
MODEL        3
REMARK 921   NORMALIZED FREE ENERGY PREDICTED BY IDOCK:   -7.32 KCAL/MOL
REMARK 922        TOTAL FREE ENERGY PREDICTED BY IDOCK:  -10.93 KCAL/MOL
REMARK 923 INTER-LIGAND FREE ENERGY PREDICTED BY IDOCK:   -9.89 KCAL/MOL
REMARK 924 INTRA-LIGAND FREE ENERGY PREDICTED BY IDOCK:   -1.04 KCAL/MOL
REMARK 927      BINDING AFFINITY PREDICTED BY RF-SCORE:    0.00 PKD
ROOT
HETATM    1 CL   UNL     1      -5.913  20.745  65.964  1.00  0.00    -0.253 Cl 
HETATM    2  C   UNL     1      -7.111  19.527  66.161  1.00  0.00    -0.259 A  
HETATM    3  C   UNL     1      -8.413  19.881  66.506  1.00  0.00    -0.379 A  
HETATM    4  C   UNL     1      -9.388  18.890  66.661  1.00  0.00    -0.330 A  
HETATM    5 CL   UNL     1     -10.978  19.398  67.104  1.00  0.00    -0.552 Cl 
HETATM    6  C   UNL     1      -9.072  17.537  66.462  1.00  0.00    -0.284 A  
HETATM    7  C   UNL     1      -7.749  17.208  66.099  1.00  0.00    -0.302 A  
HETATM    8  C   UNL     1      -6.771  18.194  65.966  1.00  0.00    -0.312 A  
ENDROOT
BRANCH   6   9
HETATM    9  C   UNL     1     -10.109  16.425  66.594  1.00  0.00    -0.284 C  
BRANCH   9  10
HETATM   10  C   UNL     1      -9.602  15.183  65.834  1.00  0.00    -0.338 C  
BRANCH  10  11
HETATM   11  N   UNL     1     -10.616  14.571  64.999  1.00  0.00    -0.413 NA 
HETATM   12  C   UNL     1     -10.650  13.273  64.571  1.00  0.00    -0.419 A  
HETATM   13  C   UNL     1     -11.764  15.179  64.569  1.00  0.00    -0.328 A  
HETATM   14  N   UNL     1     -12.502  14.357  63.861  1.00  0.00    -0.808 NA 
HETATM   15  C   UNL     1     -11.821  13.169  63.856  1.00  0.00    -0.472 A  
ENDBRANCH  10  11
ENDBRANCH   9  10
BRANCH   9  16
HETATM   16  O   UNL     1     -10.279  16.077  67.980  1.00  0.00    -0.236 OA 
BRANCH  16  17
HETATM   17  C   UNL     1     -11.612  16.291  68.462  1.00  0.00    -0.188 C  
BRANCH  17  18
HETATM   18  C   UNL     1     -11.970  15.258  69.488  1.00  0.00    -0.356 A  
HETATM   19  C   UNL     1     -12.356  15.573  70.775  1.00  0.00    -0.414 A  
HETATM   20  S   UNL     1     -12.690  14.207  71.724  1.00  0.00    -0.322 SA 
HETATM   21  C   UNL     1     -12.321  13.117  70.436  1.00  0.00    -0.279 A  
HETATM   22  C   UNL     1     -11.954  13.821  69.277  1.00  0.00    -0.399 A  
HETATM   23  C   UNL     1     -11.627  13.062  68.121  1.00  0.00    -0.379 A  
HETATM   24  C   UNL     1     -11.669  11.664  68.136  1.00  0.00    -0.365 A  
HETATM   25  C   UNL     1     -12.027  10.993  69.295  1.00  0.00    -0.410 A  
HETATM   26  C   UNL     1     -12.356  11.706  70.451  1.00  0.00    -0.288 A  
HETATM   27 CL   UNL     1     -12.794  10.819  71.867  1.00  0.00    -0.520 Cl 
ENDBRANCH  17  18
ENDBRANCH  16  17
ENDBRANCH   9  16
ENDBRANCH   6   9
TORSDOF 6
ENDMDL
MODEL        4
REMARK 921   NORMALIZED FREE ENERGY PREDICTED BY IDOCK:   -7.29 KCAL/MOL
REMARK 922        TOTAL FREE ENERGY PREDICTED BY IDOCK:  -10.89 KCAL/MOL
REMARK 923 INTER-LIGAND FREE ENERGY PREDICTED BY IDOCK:  -10.15 KCAL/MOL
REMARK 924 INTRA-LIGAND FREE ENERGY PREDICTED BY IDOCK:   -0.73 KCAL/MOL
REMARK 927      BINDING AFFINITY PREDICTED BY RF-SCORE:    0.00 PKD
ROOT
HETATM    1 CL   UNL     1     -12.599  15.857  74.472  1.00  0.00    -0.691 Cl 
HETATM    2  C   UNL     1     -12.401  15.271  72.867  1.00  0.00    -0.408 A  
HETATM    3  C   UNL     1     -11.434  15.831  72.036  1.00  0.00    -0.459 A  
HETATM    4  C   UNL     1     -11.271  15.352  70.733  1.00  0.00    -0.346 A  
HETATM    5 CL   UNL     1     -10.064  16.102  69.752  1.00  0.00    -0.215 Cl 
HETATM    6  C   UNL     1     -12.066  14.298  70.251  1.00  0.00    -0.403 A  
HETATM    7  C   UNL     1     -13.028  13.740  71.119  1.00  0.00    -0.370 A  
HETATM    8  C   UNL     1     -13.207  14.233  72.411  1.00  0.00    -0.549 A  
ENDROOT
BRANCH   6   9
HETATM    9  C   UNL     1     -11.904  13.725  68.846  1.00  0.00    -0.360 C  
BRANCH   9  10
HETATM   10  C   UNL     1     -11.784  14.893  67.847  1.00  0.00    -0.321 C  
BRANCH  10  11
HETATM   11  N   UNL     1     -11.797  14.464  66.463  1.00  0.00    -0.396 NA 
HETATM   12  C   UNL     1     -10.717  14.333  65.635  1.00  0.00    -0.316 A  
HETATM   13  C   UNL     1     -12.900  14.032  65.776  1.00  0.00    -0.377 A  
HETATM   14  N   UNL     1     -12.589  13.675  64.552  1.00  0.00    -0.643 NA 
HETATM   15  C   UNL     1     -11.234  13.856  64.454  1.00  0.00    -0.329 A  
ENDBRANCH  10  11
ENDBRANCH   9  10
BRANCH   9  16
HETATM   16  O   UNL     1     -10.704  12.936  68.775  1.00  0.00    -0.247 OA 
BRANCH  16  17
HETATM   17  C   UNL     1     -10.931  11.590  68.335  1.00  0.00    -0.221 C  
BRANCH  17  18
HETATM   18  C   UNL     1     -10.543  10.616  69.406  1.00  0.00    -0.270 A  
HETATM   19  C   UNL     1      -9.272  10.092  69.528  1.00  0.00    -0.221 A  
HETATM   20  S   UNL     1      -9.120   9.005  70.821  1.00  0.00    -0.260 SA 
HETATM   21  C   UNL     1     -10.774   9.187  71.280  1.00  0.00    -0.331 A  
HETATM   22  C   UNL     1     -11.429  10.098  70.434  1.00  0.00    -0.400 A  
HETATM   23  C   UNL     1     -12.802  10.364  70.688  1.00  0.00    -0.393 A  
HETATM   24  C   UNL     1     -13.478   9.740  71.742  1.00  0.00    -0.463 A  
HETATM   25  C   UNL     1     -12.811   8.839  72.558  1.00  0.00    -0.380 A  
HETATM   26  C   UNL     1     -11.461   8.554  72.339  1.00  0.00    -0.349 A  
HETATM   27 CL   UNL     1     -10.680   7.423  73.385  1.00  0.00    -0.435 Cl 
ENDBRANCH  17  18
ENDBRANCH  16  17
ENDBRANCH   9  16
ENDBRANCH   6   9
TORSDOF 6
ENDMDL
MODEL        5
REMARK 921   NORMALIZED FREE ENERGY PREDICTED BY IDOCK:   -6.97 KCAL/MOL
REMARK 922        TOTAL FREE ENERGY PREDICTED BY IDOCK:  -10.46 KCAL/MOL
REMARK 923 INTER-LIGAND FREE ENERGY PREDICTED BY IDOCK:   -9.59 KCAL/MOL
REMARK 924 INTRA-LIGAND FREE ENERGY PREDICTED BY IDOCK:   -0.86 KCAL/MOL
REMARK 927      BINDING AFFINITY PREDICTED BY RF-SCORE:    0.00 PKD
ROOT
HETATM    1 CL   UNL     1     -12.443   9.040  72.127  1.00  0.00    -0.449 Cl 
HETATM    2  C   UNL     1     -11.912  10.160  70.935  1.00  0.00    -0.365 A  
HETATM    3  C   UNL     1     -10.971   9.770  69.985  1.00  0.00    -0.319 A  
HETATM    4  C   UNL     1     -10.543  10.680  69.013  1.00  0.00    -0.219 A  
HETATM    5 CL   UNL     1      -9.363  10.136  67.875  1.00  0.00    -0.147 Cl 
HETATM    6  C   UNL     1     -11.061  11.985  68.974  1.00  0.00    -0.291 A  
HETATM    7  C   UNL     1     -12.023  12.348  69.940  1.00  0.00    -0.369 A  
HETATM    8  C   UNL     1     -12.433  11.448  70.924  1.00  0.00    -0.478 A  
ENDROOT
BRANCH   6   9
HETATM    9  C   UNL     1     -10.643  13.002  67.916  1.00  0.00    -0.229 C  
BRANCH   9  10
HETATM   10  C   UNL     1     -11.910  13.655  67.330  1.00  0.00    -0.393 C  
BRANCH  10  11
HETATM   11  N   UNL     1     -12.053  13.448  65.903  1.00  0.00    -0.415 NA 
HETATM   12  C   UNL     1     -12.053  12.249  65.246  1.00  0.00    -0.297 A  
HETATM   13  C   UNL     1     -12.300  14.427  64.979  1.00  0.00    -0.396 A  
HETATM   14  N   UNL     1     -12.416  13.925  63.772  1.00  0.00    -0.768 NA 
HETATM   15  C   UNL     1     -12.266  12.572  63.926  1.00  0.00    -0.503 A  
ENDBRANCH  10  11
ENDBRANCH   9  10
BRANCH   9  16
HETATM   16  O   UNL     1      -9.833  14.029  68.516  1.00  0.00    -0.227 OA 
BRANCH  16  17
HETATM   17  C   UNL     1     -10.436  15.328  68.472  1.00  0.00    -0.235 C  
BRANCH  17  18
HETATM   18  C   UNL     1      -9.382  16.393  68.412  1.00  0.00    -0.217 A  
HETATM   19  C   UNL     1      -8.084  16.197  68.839  1.00  0.00    -0.228 A  
HETATM   20  S   UNL     1      -7.110  17.575  68.666  1.00  0.00    -0.251 SA 
HETATM   21  C   UNL     1      -8.403  18.510  68.006  1.00  0.00    -0.276 A  
HETATM   22  C   UNL     1      -9.577  17.743  67.914  1.00  0.00    -0.280 A  
HETATM   23  C   UNL     1     -10.734  18.372  67.380  1.00  0.00    -0.397 A  
HETATM   24  C   UNL     1     -10.706  19.706  66.962  1.00  0.00    -0.575 A  
HETATM   25  C   UNL     1      -9.537  20.443  67.070  1.00  0.00    -0.571 A  
HETATM   26  C   UNL     1      -8.379  19.859  67.589  1.00  0.00    -0.321 A  
HETATM   27 CL   UNL     1      -6.951  20.823  67.703  1.00  0.00    -0.377 Cl 
ENDBRANCH  17  18
ENDBRANCH  16  17
ENDBRANCH   9  16
ENDBRANCH   6   9
TORSDOF 6
ENDMDL
MODEL        6
REMARK 921   NORMALIZED FREE ENERGY PREDICTED BY IDOCK:   -6.95 KCAL/MOL
REMARK 922        TOTAL FREE ENERGY PREDICTED BY IDOCK:  -10.43 KCAL/MOL
REMARK 923 INTER-LIGAND FREE ENERGY PREDICTED BY IDOCK:   -9.85 KCAL/MOL
REMARK 924 INTRA-LIGAND FREE ENERGY PREDICTED BY IDOCK:   -0.58 KCAL/MOL
REMARK 927      BINDING AFFINITY PREDICTED BY RF-SCORE:    0.00 PKD
ROOT
HETATM    1 CL   UNL     1     -12.446  11.846  63.295  1.00  0.00    -0.632 Cl 
HETATM    2  C   UNL     1     -12.168  12.487  64.866  1.00  0.00    -0.470 A  
HETATM    3  C   UNL     1     -11.471  11.737  65.811  1.00  0.00    -0.258 A  
HETATM    4  C   UNL     1     -11.241  12.261  67.087  1.00  0.00    -0.307 A  
HETATM    5 CL   UNL     1     -10.385  11.271  68.213  1.00  0.00    -0.189 Cl 
HETATM    6  C   UNL     1     -11.697  13.545  67.427  1.00  0.00    -0.419 A  
HETATM    7  C   UNL     1     -12.387  14.288  66.447  1.00  0.00    -0.378 A  
HETATM    8  C   UNL     1     -12.636  13.758  65.182  1.00  0.00    -0.471 A  
ENDROOT
BRANCH   6   9
HETATM    9  C   UNL     1     -11.446  14.167  68.798  1.00  0.00    -0.299 C  
BRANCH   9  10
HETATM   10  C   UNL     1     -11.914  13.178  69.883  1.00  0.00    -0.317 C  
BRANCH  10  11
HETATM   11  N   UNL     1     -12.797  13.780  70.863  1.00  0.00    -0.300 NA 
HETATM   12  C   UNL     1     -13.250  15.070  70.874  1.00  0.00    -0.399 A  
HETATM   13  C   UNL     1     -13.396  13.121  71.902  1.00  0.00    -0.455 A  
HETATM   14  N   UNL     1     -14.169  13.926  72.594  1.00  0.00    -0.635 NA 
HETATM   15  C   UNL     1     -14.087  15.139  71.963  1.00  0.00    -0.559 A  
ENDBRANCH  10  11
ENDBRANCH   9  10
BRANCH   9  16
HETATM   16  O   UNL     1     -10.038  14.409  68.975  1.00  0.00    -0.221 OA 
BRANCH  16  17
HETATM   17  C   UNL     1      -9.748  15.683  69.564  1.00  0.00    -0.287 C  
BRANCH  17  18
HETATM   18  C   UNL     1      -8.870  16.491  68.656  1.00  0.00    -0.237 A  
HETATM   19  C   UNL     1      -7.529  16.226  68.468  1.00  0.00    -0.176 A  
HETATM   20  S   UNL     1      -6.779  17.307  67.397  1.00  0.00    -0.160 SA 
HETATM   21  C   UNL     1      -8.237  18.195  67.138  1.00  0.00    -0.229 A  
HETATM   22  C   UNL     1      -9.297  17.639  67.875  1.00  0.00    -0.268 A  
HETATM   23  C   UNL     1     -10.573  18.255  67.761  1.00  0.00    -0.415 A  
HETATM   24  C   UNL     1     -10.766  19.376  66.946  1.00  0.00    -0.570 A  
HETATM   25  C   UNL     1      -9.702  19.909  66.236  1.00  0.00    -0.551 A  
HETATM   26  C   UNL     1      -8.434  19.330  66.322  1.00  0.00    -0.319 A  
HETATM   27 CL   UNL     1      -7.144  20.036  65.416  1.00  0.00    -0.334 Cl 
ENDBRANCH  17  18
ENDBRANCH  16  17
ENDBRANCH   9  16
ENDBRANCH   6   9
TORSDOF 6
ENDMDL
MODEL        7
REMARK 921   NORMALIZED FREE ENERGY PREDICTED BY IDOCK:   -6.93 KCAL/MOL
REMARK 922        TOTAL FREE ENERGY PREDICTED BY IDOCK:  -10.41 KCAL/MOL
REMARK 923 INTER-LIGAND FREE ENERGY PREDICTED BY IDOCK:   -9.16 KCAL/MOL
REMARK 924 INTRA-LIGAND FREE ENERGY PREDICTED BY IDOCK:   -1.24 KCAL/MOL
REMARK 927      BINDING AFFINITY PREDICTED BY RF-SCORE:    0.00 PKD
ROOT
HETATM    1 CL   UNL     1     -11.694  11.738  63.490  1.00  0.00    -0.539 Cl 
HETATM    2  C   UNL     1     -11.234  12.895  64.676  1.00  0.00    -0.320 A  
HETATM    3  C   UNL     1     -10.051  12.725  65.392  1.00  0.00    -0.274 A  
HETATM    4  C   UNL     1      -9.675  13.669  66.353  1.00  0.00    -0.292 A  
HETATM    5 CL   UNL     1      -8.204  13.389  67.214  1.00  0.00    -0.178 Cl 
HETATM    6  C   UNL     1     -10.473  14.798  66.600  1.00  0.00    -0.286 A  
HETATM    7  C   UNL     1     -11.658  14.952  65.851  1.00  0.00    -0.228 A  
HETATM    8  C   UNL     1     -12.045  14.000  64.908  1.00  0.00    -0.435 A  
ENDROOT
BRANCH   6   9
HETATM    9  C   UNL     1     -10.088  15.866  67.620  1.00  0.00    -0.242 C  
BRANCH   9  10
HETATM   10  C   UNL     1     -10.876  17.154  67.307  1.00  0.00    -0.118 C  
BRANCH  10  11
HETATM   11  N   UNL     1     -10.095  18.361  67.491  1.00  0.00    -0.340 NA 
HETATM   12  C   UNL     1      -8.874  18.462  68.099  1.00  0.00    -0.302 A  
HETATM   13  C   UNL     1     -10.419  19.598  67.003  1.00  0.00    -0.479 A  
HETATM   14  N   UNL     1      -9.497  20.483  67.300  1.00  0.00    -0.428 NA 
HETATM   15  C   UNL     1      -8.531  19.788  67.979  1.00  0.00    -0.296 A  
ENDBRANCH  10  11
ENDBRANCH   9  10
BRANCH   9  16
HETATM   16  O   UNL     1     -10.436  15.426  68.945  1.00  0.00    -0.222 OA 
BRANCH  16  17
HETATM   17  C   UNL     1     -11.797  15.702  69.299  1.00  0.00    -0.363 C  
BRANCH  17  18
HETATM   18  C   UNL     1     -12.320  14.652  70.232  1.00  0.00    -0.406 A  
HETATM   19  C   UNL     1     -13.027  14.944  71.380  1.00  0.00    -0.354 A  
HETATM   20  S   UNL     1     -13.484  13.562  72.252  1.00  0.00    -0.586 SA 
HETATM   21  C   UNL     1     -12.739  12.496  71.117  1.00  0.00    -0.245 A  
HETATM   22  C   UNL     1     -12.152  13.219  70.064  1.00  0.00    -0.385 A  
HETATM   23  C   UNL     1     -11.503  12.479  69.039  1.00  0.00    -0.355 A  
HETATM   24  C   UNL     1     -11.448  11.082  69.076  1.00  0.00    -0.368 A  
HETATM   25  C   UNL     1     -12.029  10.393  70.130  1.00  0.00    -0.357 A  
HETATM   26  C   UNL     1     -12.676  11.086  71.155  1.00  0.00    -0.419 A  
HETATM   27 CL   UNL     1     -13.381  10.177  72.444  1.00  0.00    -0.346 Cl 
ENDBRANCH  17  18
ENDBRANCH  16  17
ENDBRANCH   9  16
ENDBRANCH   6   9
TORSDOF 6
ENDMDL
MODEL        8
REMARK 921   NORMALIZED FREE ENERGY PREDICTED BY IDOCK:   -6.91 KCAL/MOL
REMARK 922        TOTAL FREE ENERGY PREDICTED BY IDOCK:  -10.38 KCAL/MOL
REMARK 923 INTER-LIGAND FREE ENERGY PREDICTED BY IDOCK:   -9.32 KCAL/MOL
REMARK 924 INTRA-LIGAND FREE ENERGY PREDICTED BY IDOCK:   -1.06 KCAL/MOL
REMARK 927      BINDING AFFINITY PREDICTED BY RF-SCORE:    0.00 PKD
ROOT
HETATM    1 CL   UNL     1      -8.274  20.472  67.216  1.00  0.00    -0.387 Cl 
HETATM    2  C   UNL     1      -8.889  18.992  67.839  1.00  0.00    -0.301 A  
HETATM    3  C   UNL     1      -8.021  18.059  68.400  1.00  0.00    -0.306 A  
HETATM    4  C   UNL     1      -8.523  16.857  68.910  1.00  0.00    -0.202 A  
HETATM    5 CL   UNL     1      -7.390  15.739  69.578  1.00  0.00    -0.210 Cl 
HETATM    6  C   UNL     1      -9.900  16.582  68.874  1.00  0.00    -0.260 A  
HETATM    7  C   UNL     1     -10.757  17.551  68.312  1.00  0.00    -0.309 A  
HETATM    8  C   UNL     1     -10.255  18.740  67.783  1.00  0.00    -0.446 A  
ENDROOT
BRANCH   6   9
HETATM    9  C   UNL     1     -10.494  15.297  69.443  1.00  0.00    -0.251 C  
BRANCH   9  10
HETATM   10  C   UNL     1     -12.024  15.463  69.545  1.00  0.00    -0.334 C  
BRANCH  10  11
HETATM   11  N   UNL     1     -12.493  15.604  70.909  1.00  0.00    -0.437 NA 
HETATM   12  C   UNL     1     -11.774  16.058  71.980  1.00  0.00    -0.493 A  
HETATM   13  C   UNL     1     -13.776  15.385  71.334  1.00  0.00    -0.504 A  
HETATM   14  N   UNL     1     -13.902  15.633  72.616  1.00  0.00    -0.581 NA 
HETATM   15  C   UNL     1     -12.665  16.054  73.028  1.00  0.00    -0.493 A  
ENDBRANCH  10  11
ENDBRANCH   9  10
BRANCH   9  16
HETATM   16  O   UNL     1     -10.210  14.195  68.562  1.00  0.00    -0.237 OA 
BRANCH  16  17
HETATM   17  C   UNL     1     -11.358  13.388  68.270  1.00  0.00    -0.295 C  
BRANCH  17  18
HETATM   18  C   UNL     1     -11.154  11.987  68.763  1.00  0.00    -0.298 A  
HETATM   19  C   UNL     1     -10.311  11.084  68.146  1.00  0.00    -0.182 A  
HETATM   20  S   UNL     1     -10.283   9.570  68.910  1.00  0.00    -0.206 SA 
HETATM   21  C   UNL     1     -11.418  10.062  70.115  1.00  0.00    -0.277 A  
HETATM   22  C   UNL     1     -11.801  11.400  69.923  1.00  0.00    -0.435 A  
HETATM   23  C   UNL     1     -12.729  11.958  70.843  1.00  0.00    -0.301 A  
HETATM   24  C   UNL     1     -13.244  11.203  71.902  1.00  0.00    -0.488 A  
HETATM   25  C   UNL     1     -12.855   9.882  72.065  1.00  0.00    -0.488 A  
HETATM   26  C   UNL     1     -11.944   9.299  71.181  1.00  0.00    -0.322 A  
HETATM   27 CL   UNL     1     -11.496   7.651  71.430  1.00  0.00    -0.277 Cl 
ENDBRANCH  17  18
ENDBRANCH  16  17
ENDBRANCH   9  16
ENDBRANCH   6   9
TORSDOF 6
ENDMDL
MODEL        9
REMARK 921   NORMALIZED FREE ENERGY PREDICTED BY IDOCK:   -6.90 KCAL/MOL
REMARK 922        TOTAL FREE ENERGY PREDICTED BY IDOCK:  -10.36 KCAL/MOL
REMARK 923 INTER-LIGAND FREE ENERGY PREDICTED BY IDOCK:   -9.54 KCAL/MOL
REMARK 924 INTRA-LIGAND FREE ENERGY PREDICTED BY IDOCK:   -0.82 KCAL/MOL
REMARK 927      BINDING AFFINITY PREDICTED BY RF-SCORE:    0.00 PKD
ROOT
HETATM    1 CL   UNL     1      -8.455  19.760  67.735  1.00  0.00    -0.350 Cl 
HETATM    2  C   UNL     1      -9.124  18.183  67.589  1.00  0.00    -0.259 A  
HETATM    3  C   UNL     1     -10.103  17.757  68.483  1.00  0.00    -0.377 A  
HETATM    4  C   UNL     1     -10.649  16.475  68.362  1.00  0.00    -0.323 A  
HETATM    5 CL   UNL     1     -11.848  16.006  69.512  1.00  0.00    -0.291 Cl 
HETATM    6  C   UNL     1     -10.229  15.611  67.337  1.00  0.00    -0.264 A  
HETATM    7  C   UNL     1      -9.246  16.074  66.438  1.00  0.00    -0.339 A  
HETATM    8  C   UNL     1      -8.684  17.343  66.572  1.00  0.00    -0.290 A  
ENDROOT
BRANCH   6   9
HETATM    9  C   UNL     1     -10.817  14.215  67.150  1.00  0.00    -0.290 C  
BRANCH   9  10
HETATM   10  C   UNL     1     -10.188  13.578  65.895  1.00  0.00    -0.301 C  
BRANCH  10  11
HETATM   11  N   UNL     1     -11.167  13.004  64.994  1.00  0.00    -0.291 NA 
HETATM   12  C   UNL     1     -10.918  12.378  63.804  1.00  0.00    -0.447 A  
HETATM   13  C   UNL     1     -12.512  12.918  65.233  1.00  0.00    -0.493 A  
HETATM   14  N   UNL     1     -13.134  12.312  64.249  1.00  0.00    -0.778 NA 
HETATM   15  C   UNL     1     -12.152  11.971  63.356  1.00  0.00    -0.493 A  
ENDBRANCH  10  11
ENDBRANCH   9  10
BRANCH   9  16
HETATM   16  O   UNL     1     -10.499  13.394  68.288  1.00  0.00    -0.237 OA 
BRANCH  16  17
HETATM   17  C   UNL     1     -11.553  12.494  68.655  1.00  0.00    -0.314 C  
BRANCH  17  18
HETATM   18  C   UNL     1     -10.991  11.266  69.306  1.00  0.00    -0.297 A  
HETATM   19  C   UNL     1      -9.757  10.737  68.983  1.00  0.00    -0.187 A  
HETATM   20  S   UNL     1      -9.381   9.338  69.866  1.00  0.00    -0.214 SA 
HETATM   21  C   UNL     1     -10.876   9.377  70.728  1.00  0.00    -0.305 A  
HETATM   22  C   UNL     1     -11.651  10.481  70.333  1.00  0.00    -0.430 A  
HETATM   23  C   UNL     1     -12.914  10.658  70.962  1.00  0.00    -0.456 A  
HETATM   24  C   UNL     1     -13.370   9.765  71.937  1.00  0.00    -0.530 A  
HETATM   25  C   UNL     1     -12.589   8.680  72.303  1.00  0.00    -0.457 A  
HETATM   26  C   UNL     1     -11.342   8.474  71.708  1.00  0.00    -0.307 A  
HETATM   27 CL   UNL     1     -10.412   7.105  72.202  1.00  0.00    -0.222 Cl 
ENDBRANCH  17  18
ENDBRANCH  16  17
ENDBRANCH   9  16
ENDBRANCH   6   9
TORSDOF 6
ENDMDL
MODEL       10
REMARK 921   NORMALIZED FREE ENERGY PREDICTED BY IDOCK:   -6.86 KCAL/MOL
REMARK 922        TOTAL FREE ENERGY PREDICTED BY IDOCK:  -10.31 KCAL/MOL
REMARK 923 INTER-LIGAND FREE ENERGY PREDICTED BY IDOCK:   -9.15 KCAL/MOL
REMARK 924 INTRA-LIGAND FREE ENERGY PREDICTED BY IDOCK:   -1.16 KCAL/MOL
REMARK 927      BINDING AFFINITY PREDICTED BY RF-SCORE:    0.00 PKD
ROOT
HETATM    1 CL   UNL     1      -9.323   6.860  72.752  1.00  0.00    -0.150 Cl 
HETATM    2  C   UNL     1     -10.241   8.082  71.964  1.00  0.00    -0.226 A  
HETATM    3  C   UNL     1     -11.581   8.268  72.296  1.00  0.00    -0.449 A  
HETATM    4  C   UNL     1     -12.326   9.264  71.658  1.00  0.00    -0.372 A  
HETATM    5 CL   UNL     1     -13.985   9.431  72.108  1.00  0.00    -0.401 Cl 
HETATM    6  C   UNL     1     -11.736  10.092  70.689  1.00  0.00    -0.421 A  
HETATM    7  C   UNL     1     -10.374   9.890  70.382  1.00  0.00    -0.322 A  
HETATM    8  C   UNL     1      -9.636   8.882  71.002  1.00  0.00    -0.321 A  
ENDROOT
BRANCH   6   9
HETATM    9  C   UNL     1     -12.503  11.209  69.987  1.00  0.00    -0.223 C  
BRANCH   9  10
HETATM   10  C   UNL     1     -11.918  12.564  70.430  1.00  0.00    -0.251 C  
BRANCH  10  11
HETATM   11  N   UNL     1     -12.882  13.412  71.101  1.00  0.00    -0.320 NA 
HETATM   12  C   UNL     1     -13.358  14.617  70.664  1.00  0.00    -0.134 A  
HETATM   13  C   UNL     1     -13.547  13.098  72.256  1.00  0.00    -0.581 A  
HETATM   14  N   UNL     1     -14.385  14.049  72.597  1.00  0.00    -0.517 NA 
HETATM   15  C   UNL     1     -14.277  14.998  71.614  1.00  0.00    -0.555 A  
ENDBRANCH  10  11
ENDBRANCH   9  10
BRANCH   9  16
HETATM   16  O   UNL     1     -12.350  11.087  68.562  1.00  0.00    -0.536 OA 
BRANCH  16  17
HETATM   17  C   UNL     1     -11.651  12.188  67.967  1.00  0.00    -0.348 C  
BRANCH  17  18
HETATM   18  C   UNL     1     -11.303  11.878  66.542  1.00  0.00    -0.403 A  
HETATM   19  C   UNL     1     -11.868  12.533  65.466  1.00  0.00    -0.439 A  
HETATM   20  S   UNL     1     -11.299  11.971  63.970  1.00  0.00    -0.431 SA 
HETATM   21  C   UNL     1     -10.261  10.805  64.707  1.00  0.00    -0.334 A  
HETATM   22  C   UNL     1     -10.354  10.868  66.107  1.00  0.00    -0.305 A  
HETATM   23  C   UNL     1      -9.549   9.973  66.862  1.00  0.00    -0.219 A  
HETATM   24  C   UNL     1      -8.696   9.060  66.234  1.00  0.00    -0.155 A  
HETATM   25  C   UNL     1      -8.628   9.012  64.850  1.00  0.00    -0.206 A  
HETATM   26  C   UNL     1      -9.403   9.877  64.075  1.00  0.00    -0.223 A  
HETATM   27 CL   UNL     1      -9.281   9.774  62.356  1.00  0.00    -0.306 Cl 
ENDBRANCH  17  18
ENDBRANCH  16  17
ENDBRANCH   9  16
ENDBRANCH   6   9
TORSDOF 6
ENDMDL
MODEL       11
REMARK 921   NORMALIZED FREE ENERGY PREDICTED BY IDOCK:   -6.82 KCAL/MOL
REMARK 922        TOTAL FREE ENERGY PREDICTED BY IDOCK:  -10.26 KCAL/MOL
REMARK 923 INTER-LIGAND FREE ENERGY PREDICTED BY IDOCK:   -9.47 KCAL/MOL
REMARK 924 INTRA-LIGAND FREE ENERGY PREDICTED BY IDOCK:   -0.79 KCAL/MOL
REMARK 927      BINDING AFFINITY PREDICTED BY RF-SCORE:    0.00 PKD
ROOT
HETATM    1 CL   UNL     1      -9.591  10.001  64.691  1.00  0.00    -0.369 Cl 
HETATM    2  C   UNL     1     -10.294  11.151  65.760  1.00  0.00    -0.260 A  
HETATM    3  C   UNL     1     -11.254  12.043  65.289  1.00  0.00    -0.374 A  
HETATM    4  C   UNL     1     -11.828  12.974  66.160  1.00  0.00    -0.409 A  
HETATM    5 CL   UNL     1     -13.002  14.060  65.507  1.00  0.00    -0.478 Cl 
HETATM    6  C   UNL     1     -11.455  13.015  67.513  1.00  0.00    -0.375 A  
HETATM    7  C   UNL     1     -10.491  12.091  67.966  1.00  0.00    -0.224 A  
HETATM    8  C   UNL     1      -9.901  11.177  67.093  1.00  0.00    -0.212 A  
ENDROOT
BRANCH   6   9
HETATM    9  C   UNL     1     -12.075  13.996  68.505  1.00  0.00    -0.294 C  
BRANCH   9  10
HETATM   10  C   UNL     1     -11.733  13.535  69.936  1.00  0.00    -0.271 C  
BRANCH  10  11
HETATM   11  N   UNL     1     -12.743  13.898  70.910  1.00  0.00    -0.344 NA 
HETATM   12  C   UNL     1     -13.376  15.104  71.022  1.00  0.00    -0.443 A  
HETATM   13  C   UNL     1     -13.295  13.052  71.833  1.00  0.00    -0.446 A  
HETATM   14  N   UNL     1     -14.211  13.661  72.550  1.00  0.00    -0.726 NA 
HETATM   15  C   UNL     1     -14.271  14.937  72.053  1.00  0.00    -0.546 A  
ENDBRANCH  10  11
ENDBRANCH   9  10
BRANCH   9  16
HETATM   16  O   UNL     1     -11.523  15.309  68.303  1.00  0.00    -0.323 OA 
BRANCH  16  17
HETATM   17  C   UNL     1     -10.331  15.551  69.062  1.00  0.00    -0.235 C  
BRANCH  17  18
HETATM   18  C   UNL     1      -9.338  16.322  68.245  1.00  0.00    -0.204 A  
HETATM   19  C   UNL     1      -8.043  15.895  68.028  1.00  0.00    -0.141 A  
HETATM   20  S   UNL     1      -7.137  16.970  67.079  1.00  0.00    -0.216 SA 
HETATM   21  C   UNL     1      -8.455  18.073  66.919  1.00  0.00    -0.249 A  
HETATM   22  C   UNL     1      -9.592  17.594  67.592  1.00  0.00    -0.268 A  
HETATM   23  C   UNL     1     -10.769  18.389  67.547  1.00  0.00    -0.399 A  
HETATM   24  C   UNL     1     -10.795  19.606  66.857  1.00  0.00    -0.505 A  
HETATM   25  C   UNL     1      -9.658  20.060  66.207  1.00  0.00    -0.516 A  
HETATM   26  C   UNL     1      -8.483  19.305  66.229  1.00  0.00    -0.319 A  
HETATM   27 CL   UNL     1      -7.096  19.918  65.404  1.00  0.00    -0.325 Cl 
ENDBRANCH  17  18
ENDBRANCH  16  17
ENDBRANCH   9  16
ENDBRANCH   6   9
TORSDOF 6
ENDMDL
MODEL       12
REMARK 921   NORMALIZED FREE ENERGY PREDICTED BY IDOCK:   -6.71 KCAL/MOL
REMARK 922        TOTAL FREE ENERGY PREDICTED BY IDOCK:  -10.11 KCAL/MOL
REMARK 923 INTER-LIGAND FREE ENERGY PREDICTED BY IDOCK:   -9.26 KCAL/MOL
REMARK 924 INTRA-LIGAND FREE ENERGY PREDICTED BY IDOCK:   -0.85 KCAL/MOL
REMARK 927      BINDING AFFINITY PREDICTED BY RF-SCORE:    0.00 PKD
ROOT
HETATM    1 CL   UNL     1      -9.679   9.884  64.911  1.00  0.00    -0.370 Cl 
HETATM    2  C   UNL     1     -10.371  11.100  65.911  1.00  0.00    -0.259 A  
HETATM    3  C   UNL     1     -11.285  12.004  65.375  1.00  0.00    -0.374 A  
HETATM    4  C   UNL     1     -11.851  12.990  66.190  1.00  0.00    -0.409 A  
HETATM    5 CL   UNL     1     -12.965  14.088  65.458  1.00  0.00    -0.478 Cl 
HETATM    6  C   UNL     1     -11.516  13.074  67.551  1.00  0.00    -0.375 A  
HETATM    7  C   UNL     1     -10.598  12.137  68.070  1.00  0.00    -0.232 A  
HETATM    8  C   UNL     1     -10.017  11.168  67.254  1.00  0.00    -0.211 A  
ENDROOT
BRANCH   6   9
HETATM    9  C   UNL     1     -12.128  14.116  68.483  1.00  0.00    -0.277 C  
BRANCH   9  10
HETATM   10  C   UNL     1     -11.717  13.787  69.932  1.00  0.00    -0.284 C  
BRANCH  10  11
HETATM   11  N   UNL     1     -12.761  14.059  70.899  1.00  0.00    -0.345 NA 
HETATM   12  C   UNL     1     -13.465  15.223  71.038  1.00  0.00    -0.452 A  
HETATM   13  C   UNL     1     -13.279  13.153  71.784  1.00  0.00    -0.403 A  
HETATM   14  N   UNL     1     -14.239  13.684  72.503  1.00  0.00    -0.726 NA 
HETATM   15  C   UNL     1     -14.365  14.970  72.047  1.00  0.00    -0.573 A  
ENDBRANCH  10  11
ENDBRANCH   9  10
BRANCH   9  16
HETATM   16  O   UNL     1     -11.629  15.424  68.151  1.00  0.00    -0.347 OA 
BRANCH  16  17
HETATM   17  C   UNL     1     -10.292  15.659  68.613  1.00  0.00    -0.216 C  
BRANCH  17  18
HETATM   18  C   UNL     1      -9.825  17.021  68.194  1.00  0.00    -0.273 A  
HETATM   19  C   UNL     1     -10.635  17.932  67.547  1.00  0.00    -0.376 A  
HETATM   20  S   UNL     1      -9.842  19.386  67.182  1.00  0.00    -0.363 SA 
HETATM   21  C   UNL     1      -8.356  18.850  67.879  1.00  0.00    -0.281 A  
HETATM   22  C   UNL     1      -8.490  17.552  68.401  1.00  0.00    -0.275 A  
HETATM   23  C   UNL     1      -7.350  16.971  69.019  1.00  0.00    -0.225 A  
HETATM   24  C   UNL     1      -6.138  17.664  69.105  1.00  0.00    -0.220 A  
HETATM   25  C   UNL     1      -6.031  18.941  68.576  1.00  0.00    -0.224 A  
HETATM   26  C   UNL     1      -7.130  19.546  67.961  1.00  0.00    -0.263 A  
HETATM   27 CL   UNL     1      -6.940  21.137  67.318  1.00  0.00    -0.425 Cl 
ENDBRANCH  17  18
ENDBRANCH  16  17
ENDBRANCH   9  16
ENDBRANCH   6   9
TORSDOF 6
ENDMDL
MODEL       13
REMARK 921   NORMALIZED FREE ENERGY PREDICTED BY IDOCK:   -6.70 KCAL/MOL
REMARK 922        TOTAL FREE ENERGY PREDICTED BY IDOCK:  -10.10 KCAL/MOL
REMARK 923 INTER-LIGAND FREE ENERGY PREDICTED BY IDOCK:   -9.70 KCAL/MOL
REMARK 924 INTRA-LIGAND FREE ENERGY PREDICTED BY IDOCK:   -0.40 KCAL/MOL
REMARK 927      BINDING AFFINITY PREDICTED BY RF-SCORE:    0.00 PKD
ROOT
HETATM    1 CL   UNL     1     -13.038   9.065  72.471  1.00  0.00    -0.487 Cl 
HETATM    2  C   UNL     1     -12.474  10.249  71.358  1.00  0.00    -0.424 A  
HETATM    3  C   UNL     1     -12.834  11.584  71.520  1.00  0.00    -0.485 A  
HETATM    4  C   UNL     1     -12.372  12.547  70.617  1.00  0.00    -0.282 A  
HETATM    5 CL   UNL     1     -12.868  14.181  70.869  1.00  0.00    -0.407 Cl 
HETATM    6  C   UNL     1     -11.535  12.184  69.549  1.00  0.00    -0.334 A  
HETATM    7  C   UNL     1     -11.175  10.827  69.417  1.00  0.00    -0.337 A  
HETATM    8  C   UNL     1     -11.654   9.863  70.304  1.00  0.00    -0.319 A  
ENDROOT
BRANCH   6   9
HETATM    9  C   UNL     1     -10.985  13.204  68.556  1.00  0.00    -0.263 C  
BRANCH   9  10
HETATM   10  C   UNL     1     -12.143  13.710  67.674  1.00  0.00    -0.293 C  
BRANCH  10  11
HETATM   11  N   UNL     1     -12.000  13.348  66.279  1.00  0.00    -0.393 NA 
HETATM   12  C   UNL     1     -11.271  12.308  65.773  1.00  0.00    -0.337 A  
HETATM   13  C   UNL     1     -12.649  13.945  65.232  1.00  0.00    -0.478 A  
HETATM   14  N   UNL     1     -12.344  13.372  64.092  1.00  0.00    -0.621 NA 
HETATM   15  C   UNL     1     -11.489  12.352  64.416  1.00  0.00    -0.347 A  
ENDBRANCH  10  11
ENDBRANCH   9  10
BRANCH   9  16
HETATM   16  O   UNL     1     -10.425  14.325  69.265  1.00  0.00    -0.199 OA 
BRANCH  16  17
HETATM   17  C   UNL     1     -10.797  15.593  68.711  1.00  0.00    -0.262 C  
BRANCH  17  18
HETATM   18  C   UNL     1      -9.602  16.494  68.617  1.00  0.00    -0.241 A  
HETATM   19  C   UNL     1      -8.335  16.112  69.008  1.00  0.00    -0.247 A  
HETATM   20  S   UNL     1      -7.177  17.335  68.803  1.00  0.00    -0.248 SA 
HETATM   21  C   UNL     1      -8.339  18.448  68.177  1.00  0.00    -0.284 A  
HETATM   22  C   UNL     1      -9.614  17.859  68.121  1.00  0.00    -0.306 A  
HETATM   23  C   UNL     1     -10.683  18.649  67.617  1.00  0.00    -0.428 A  
HETATM   24  C   UNL     1     -10.475  19.966  67.194  1.00  0.00    -0.566 A  
HETATM   25  C   UNL     1      -9.208  20.526  67.267  1.00  0.00    -0.500 A  
HETATM   26  C   UNL     1      -8.133  19.780  67.755  1.00  0.00    -0.297 A  
HETATM   27 CL   UNL     1      -6.578  20.527  67.825  1.00  0.00    -0.319 Cl 
ENDBRANCH  17  18
ENDBRANCH  16  17
ENDBRANCH   9  16
ENDBRANCH   6   9
TORSDOF 6
ENDMDL
MODEL       14
REMARK 921   NORMALIZED FREE ENERGY PREDICTED BY IDOCK:   -6.70 KCAL/MOL
REMARK 922        TOTAL FREE ENERGY PREDICTED BY IDOCK:  -10.10 KCAL/MOL
REMARK 923 INTER-LIGAND FREE ENERGY PREDICTED BY IDOCK:   -9.28 KCAL/MOL
REMARK 924 INTRA-LIGAND FREE ENERGY PREDICTED BY IDOCK:   -0.82 KCAL/MOL
REMARK 927      BINDING AFFINITY PREDICTED BY RF-SCORE:    0.00 PKD
ROOT
HETATM    1 CL   UNL     1     -13.151  10.589  72.042  1.00  0.00    -0.569 Cl 
HETATM    2  C   UNL     1     -12.525  11.529  70.745  1.00  0.00    -0.349 A  
HETATM    3  C   UNL     1     -12.025  10.900  69.608  1.00  0.00    -0.414 A  
HETATM    4  C   UNL     1     -11.520  11.666  68.552  1.00  0.00    -0.298 A  
HETATM    5 CL   UNL     1     -10.902  10.821  67.178  1.00  0.00    -0.331 Cl 
HETATM    6  C   UNL     1     -11.521  13.069  68.619  1.00  0.00    -0.344 A  
HETATM    7  C   UNL     1     -12.046  13.679  69.777  1.00  0.00    -0.396 A  
HETATM    8  C   UNL     1     -12.529  12.916  70.839  1.00  0.00    -0.383 A  
ENDROOT
BRANCH   6   9
HETATM    9  C   UNL     1     -11.005  13.944  67.480  1.00  0.00    -0.276 C  
BRANCH   9  10
HETATM   10  C   UNL     1     -12.150  14.172  66.474  1.00  0.00    -0.454 C  
BRANCH  10  11
HETATM   11  N   UNL     1     -11.964  13.461  65.225  1.00  0.00    -0.359 NA 
HETATM   12  C   UNL     1     -10.825  13.417  64.470  1.00  0.00    -0.406 A  
HETATM   13  C   UNL     1     -12.884  12.637  64.635  1.00  0.00    -0.275 A  
HETATM   14  N   UNL     1     -12.411  12.106  63.532  1.00  0.00    -0.664 NA 
HETATM   15  C   UNL     1     -11.131  12.583  63.420  1.00  0.00    -0.361 A  
ENDBRANCH  10  11
ENDBRANCH   9  10
BRANCH   9  16
HETATM   16  O   UNL     1     -10.586  15.220  67.995  1.00  0.00    -0.250 OA 
BRANCH  16  17
HETATM   17  C   UNL     1     -10.647  16.274  67.025  1.00  0.00    -0.284 C  
BRANCH  17  18
HETATM   18  C   UNL     1      -9.866  17.465  67.496  1.00  0.00    -0.277 A  
HETATM   19  C   UNL     1     -10.301  18.765  67.338  1.00  0.00    -0.418 A  
HETATM   20  S   UNL     1      -9.213  19.912  67.953  1.00  0.00    -0.306 SA 
HETATM   21  C   UNL     1      -8.093  18.701  68.461  1.00  0.00    -0.341 A  
HETATM   22  C   UNL     1      -8.576  17.416  68.161  1.00  0.00    -0.248 A  
HETATM   23  C   UNL     1      -7.768  16.306  68.527  1.00  0.00    -0.189 A  
HETATM   24  C   UNL     1      -6.535  16.485  69.162  1.00  0.00    -0.193 A  
HETATM   25  C   UNL     1      -6.077  17.764  69.441  1.00  0.00    -0.241 A  
HETATM   26  C   UNL     1      -6.844  18.879  69.097  1.00  0.00    -0.296 A  
HETATM   27 CL   UNL     1      -6.225  20.448  69.466  1.00  0.00    -0.353 Cl 
ENDBRANCH  17  18
ENDBRANCH  16  17
ENDBRANCH   9  16
ENDBRANCH   6   9
TORSDOF 6
ENDMDL
MODEL       15
REMARK 921   NORMALIZED FREE ENERGY PREDICTED BY IDOCK:   -6.70 KCAL/MOL
REMARK 922        TOTAL FREE ENERGY PREDICTED BY IDOCK:  -10.09 KCAL/MOL
REMARK 923 INTER-LIGAND FREE ENERGY PREDICTED BY IDOCK:   -9.57 KCAL/MOL
REMARK 924 INTRA-LIGAND FREE ENERGY PREDICTED BY IDOCK:   -0.53 KCAL/MOL
REMARK 927      BINDING AFFINITY PREDICTED BY RF-SCORE:    0.00 PKD
ROOT
HETATM    1 CL   UNL     1     -12.586  15.753  74.501  1.00  0.00    -0.708 Cl 
HETATM    2  C   UNL     1     -12.416  15.149  72.900  1.00  0.00    -0.405 A  
HETATM    3  C   UNL     1     -11.388  15.617  72.085  1.00  0.00    -0.368 A  
HETATM    4  C   UNL     1     -11.248  15.123  70.785  1.00  0.00    -0.286 A  
HETATM    5 CL   UNL     1      -9.960  15.757  69.824  1.00  0.00    -0.276 Cl 
HETATM    6  C   UNL     1     -12.128  14.147  70.290  1.00  0.00    -0.412 A  
HETATM    7  C   UNL     1     -13.152  13.681  71.141  1.00  0.00    -0.306 A  
HETATM    8  C   UNL     1     -13.306  14.190  72.430  1.00  0.00    -0.591 A  
ENDROOT
BRANCH   6   9
HETATM    9  C   UNL     1     -11.997  13.559  68.887  1.00  0.00    -0.341 C  
BRANCH   9  10
HETATM   10  C   UNL     1     -11.685  14.702  67.900  1.00  0.00    -0.351 C  
BRANCH  10  11
HETATM   11  N   UNL     1     -11.512  14.246  66.536  1.00  0.00    -0.347 NA 
HETATM   12  C   UNL     1     -12.464  13.679  65.735  1.00  0.00    -0.477 A  
HETATM   13  C   UNL     1     -10.375  14.392  65.787  1.00  0.00    -0.326 A  
HETATM   14  N   UNL     1     -10.537  13.915  64.576  1.00  0.00    -0.411 NA 
HETATM   15  C   UNL     1     -11.832  13.470  64.531  1.00  0.00    -0.405 A  
ENDBRANCH  10  11
ENDBRANCH   9  10
BRANCH   9  16
HETATM   16  O   UNL     1     -10.912  12.614  68.852  1.00  0.00    -0.241 OA 
BRANCH  16  17
HETATM   17  C   UNL     1     -11.322  11.289  68.492  1.00  0.00    -0.276 C  
BRANCH  17  18
HETATM   18  C   UNL     1     -11.456  10.432  69.715  1.00  0.00    -0.348 A  
HETATM   19  C   UNL     1     -12.657  10.221  70.363  1.00  0.00    -0.204 A  
HETATM   20  S   UNL     1     -12.513   9.220  71.724  1.00  0.00    -0.400 SA 
HETATM   21  C   UNL     1     -10.811   9.025  71.507  1.00  0.00    -0.346 A  
HETATM   22  C   UNL     1     -10.369   9.728  70.373  1.00  0.00    -0.354 A  
HETATM   23  C   UNL     1      -8.986   9.660  70.053  1.00  0.00    -0.266 A  
HETATM   24  C   UNL     1      -8.096   8.920  70.838  1.00  0.00    -0.196 A  
HETATM   25  C   UNL     1      -8.556   8.241  71.956  1.00  0.00    -0.238 A  
HETATM   26  C   UNL     1      -9.909   8.285  72.301  1.00  0.00    -0.294 A  
HETATM   27 CL   UNL     1     -10.427   7.421  73.704  1.00  0.00    -0.394 Cl 
ENDBRANCH  17  18
ENDBRANCH  16  17
ENDBRANCH   9  16
ENDBRANCH   6   9
TORSDOF 6
ENDMDL
MODEL       16
REMARK 921   NORMALIZED FREE ENERGY PREDICTED BY IDOCK:   -6.65 KCAL/MOL
REMARK 922        TOTAL FREE ENERGY PREDICTED BY IDOCK:  -10.03 KCAL/MOL
REMARK 923 INTER-LIGAND FREE ENERGY PREDICTED BY IDOCK:   -9.54 KCAL/MOL
REMARK 924 INTRA-LIGAND FREE ENERGY PREDICTED BY IDOCK:   -0.49 KCAL/MOL
REMARK 927      BINDING AFFINITY PREDICTED BY RF-SCORE:    0.00 PKD
ROOT
HETATM    1 CL   UNL     1     -11.418  12.595  63.331  1.00  0.00    -0.549 Cl 
HETATM    2  C   UNL     1     -11.349  12.935  65.015  1.00  0.00    -0.305 A  
HETATM    3  C   UNL     1     -10.190  12.654  65.735  1.00  0.00    -0.288 A  
HETATM    4  C   UNL     1     -10.133  12.935  67.103  1.00  0.00    -0.243 A  
HETATM    5 CL   UNL     1      -8.672  12.548  67.937  1.00  0.00    -0.171 Cl 
HETATM    6  C   UNL     1     -11.232  13.510  67.763  1.00  0.00    -0.308 A  
HETATM    7  C   UNL     1     -12.387  13.797  67.007  1.00  0.00    -0.289 A  
HETATM    8  C   UNL     1     -12.453  13.496  65.647  1.00  0.00    -0.528 A  
ENDROOT
BRANCH   6   9
HETATM    9  C   UNL     1     -11.205  13.858  69.249  1.00  0.00    -0.251 C  
BRANCH   9  10
HETATM   10  C   UNL     1     -11.917  15.210  69.453  1.00  0.00    -0.307 C  
BRANCH  10  11
HETATM   11  N   UNL     1     -12.445  15.382  70.792  1.00  0.00    -0.391 NA 
HETATM   12  C   UNL     1     -11.763  15.828  71.890  1.00  0.00    -0.483 A  
HETATM   13  C   UNL     1     -13.751  15.204  71.159  1.00  0.00    -0.437 A  
HETATM   14  N   UNL     1     -13.929  15.472  72.431  1.00  0.00    -0.556 NA 
HETATM   15  C   UNL     1     -12.701  15.862  72.896  1.00  0.00    -0.484 A  
ENDBRANCH  10  11
ENDBRANCH   9  10
BRANCH   9  16
HETATM   16  O   UNL     1     -11.907  12.852  70.000  1.00  0.00    -0.326 OA 
BRANCH  16  17
HETATM   17  C   UNL     1     -11.800  11.539  69.435  1.00  0.00    -0.350 C  
BRANCH  17  18
HETATM   18  C   UNL     1     -11.860  10.498  70.512  1.00  0.00    -0.442 A  
HETATM   19  C   UNL     1     -12.994  10.246  71.257  1.00  0.00    -0.420 A  
HETATM   20  S   UNL     1     -12.773   9.025  72.414  1.00  0.00    -0.313 SA 
HETATM   21  C   UNL     1     -11.124   8.781  71.966  1.00  0.00    -0.371 A  
HETATM   22  C   UNL     1     -10.761   9.639  70.914  1.00  0.00    -0.402 A  
HETATM   23  C   UNL     1      -9.429   9.553  70.423  1.00  0.00    -0.317 A  
HETATM   24  C   UNL     1      -8.514   8.646  70.968  1.00  0.00    -0.199 A  
HETATM   25  C   UNL     1      -8.895   7.815  72.010  1.00  0.00    -0.169 A  
HETATM   26  C   UNL     1     -10.195   7.872  72.518  1.00  0.00    -0.278 A  
HETATM   27 CL   UNL     1     -10.617   6.815  73.817  1.00  0.00    -0.362 Cl 
ENDBRANCH  17  18
ENDBRANCH  16  17
ENDBRANCH   9  16
ENDBRANCH   6   9
TORSDOF 6
ENDMDL
MODEL       17
REMARK 921   NORMALIZED FREE ENERGY PREDICTED BY IDOCK:   -6.59 KCAL/MOL
REMARK 922        TOTAL FREE ENERGY PREDICTED BY IDOCK:   -9.95 KCAL/MOL
REMARK 923 INTER-LIGAND FREE ENERGY PREDICTED BY IDOCK:   -8.68 KCAL/MOL
REMARK 924 INTRA-LIGAND FREE ENERGY PREDICTED BY IDOCK:   -1.27 KCAL/MOL
REMARK 927      BINDING AFFINITY PREDICTED BY RF-SCORE:    0.00 PKD
ROOT
HETATM    1 CL   UNL     1     -10.194  13.198  64.426  1.00  0.00    -0.375 Cl 
HETATM    2  C   UNL     1     -10.701  13.244  66.069  1.00  0.00    -0.277 A  
HETATM    3  C   UNL     1     -10.217  14.236  66.919  1.00  0.00    -0.266 A  
HETATM    4  C   UNL     1     -10.633  14.275  68.253  1.00  0.00    -0.245 A  
HETATM    5 CL   UNL     1      -9.983  15.522  69.255  1.00  0.00    -0.246 Cl 
HETATM    6  C   UNL     1     -11.545  13.328  68.748  1.00  0.00    -0.350 A  
HETATM    7  C   UNL     1     -12.029  12.343  67.862  1.00  0.00    -0.260 A  
HETATM    8  C   UNL     1     -11.597  12.290  66.537  1.00  0.00    -0.440 A  
ENDROOT
BRANCH   6   9
HETATM    9  C   UNL     1     -12.047  13.349  70.190  1.00  0.00    -0.344 C  
BRANCH   9  10
HETATM   10  C   UNL     1     -12.921  14.603  70.391  1.00  0.00    -0.200 C  
BRANCH  10  11
HETATM   11  N   UNL     1     -12.850  15.139  71.735  1.00  0.00    -0.329 NA 
HETATM   12  C   UNL     1     -11.727  15.282  72.502  1.00  0.00    -0.434 A  
HETATM   13  C   UNL     1     -13.898  15.677  72.432  1.00  0.00    -0.527 A  
HETATM   14  N   UNL     1     -13.515  16.114  73.608  1.00  0.00    -0.563 NA 
HETATM   15  C   UNL     1     -12.167  15.875  73.662  1.00  0.00    -0.528 A  
ENDBRANCH  10  11
ENDBRANCH   9  10
BRANCH   9  16
HETATM   16  O   UNL     1     -12.851  12.184  70.445  1.00  0.00     0.039 OA 
BRANCH  16  17
HETATM   17  C   UNL     1     -12.550  11.544  71.691  1.00  0.00    -0.194 C  
BRANCH  17  18
HETATM   18  C   UNL     1     -12.412  10.063  71.500  1.00  0.00    -0.516 A  
HETATM   19  C   UNL     1     -13.280   9.145  72.056  1.00  0.00    -0.441 A  
HETATM   20  S   UNL     1     -12.878   7.539  71.686  1.00  0.00    -0.349 SA 
HETATM   21  C   UNL     1     -11.500   8.008  70.757  1.00  0.00    -0.263 A  
HETATM   22  C   UNL     1     -11.370   9.407  70.731  1.00  0.00    -0.363 A  
HETATM   23  C   UNL     1     -10.283   9.954  69.995  1.00  0.00    -0.319 A  
HETATM   24  C   UNL     1      -9.375   9.129  69.323  1.00  0.00    -0.157 A  
HETATM   25  C   UNL     1      -9.522   7.751  69.371  1.00  0.00    -0.156 A  
HETATM   26  C   UNL     1     -10.578   7.178  70.083  1.00  0.00    -0.230 A  
HETATM   27 CL   UNL     1     -10.713   5.457  70.111  1.00  0.00    -0.348 Cl 
ENDBRANCH  17  18
ENDBRANCH  16  17
ENDBRANCH   9  16
ENDBRANCH   6   9
TORSDOF 6
ENDMDL
MODEL       18
REMARK 921   NORMALIZED FREE ENERGY PREDICTED BY IDOCK:   -6.55 KCAL/MOL
REMARK 922        TOTAL FREE ENERGY PREDICTED BY IDOCK:   -9.89 KCAL/MOL
REMARK 923 INTER-LIGAND FREE ENERGY PREDICTED BY IDOCK:   -8.47 KCAL/MOL
REMARK 924 INTRA-LIGAND FREE ENERGY PREDICTED BY IDOCK:   -1.42 KCAL/MOL
REMARK 927      BINDING AFFINITY PREDICTED BY RF-SCORE:    0.00 PKD
ROOT
HETATM    1 CL   UNL     1      -7.261   9.023  64.334  1.00  0.00    -0.096 Cl 
HETATM    2  C   UNL     1      -8.387  10.058  65.120  1.00  0.00    -0.153 A  
HETATM    3  C   UNL     1      -7.991  10.803  66.229  1.00  0.00    -0.160 A  
HETATM    4  C   UNL     1      -8.906  11.648  66.864  1.00  0.00    -0.190 A  
HETATM    5 CL   UNL     1      -8.353  12.531  68.241  1.00  0.00    -0.171 Cl 
HETATM    6  C   UNL     1     -10.223  11.765  66.390  1.00  0.00    -0.248 A  
HETATM    7  C   UNL     1     -10.592  11.010  65.258  1.00  0.00    -0.283 A  
HETATM    8  C   UNL     1      -9.687  10.150  64.637  1.00  0.00    -0.377 A  
ENDROOT
BRANCH   6   9
HETATM    9  C   UNL     1     -11.247  12.695  67.036  1.00  0.00    -0.300 C  
BRANCH   9  10
HETATM   10  C   UNL     1     -12.169  13.256  65.935  1.00  0.00    -0.441 C  
BRANCH  10  11
HETATM   11  N   UNL     1     -11.750  14.553  65.445  1.00  0.00    -0.355 NA 
HETATM   12  C   UNL     1     -10.916  15.436  66.073  1.00  0.00    -0.286 A  
HETATM   13  C   UNL     1     -12.056  15.075  64.217  1.00  0.00    -0.306 A  
HETATM   14  N   UNL     1     -11.501  16.252  64.047  1.00  0.00    -0.984 NA 
HETATM   15  C   UNL     1     -10.789  16.486  65.194  1.00  0.00    -0.233 A  
ENDBRANCH  10  11
ENDBRANCH   9  10
BRANCH   9  16
HETATM   16  O   UNL     1     -12.050  11.961  67.977  1.00  0.00    -0.541 OA 
BRANCH  16  17
HETATM   17  C   UNL     1     -11.662  12.166  69.341  1.00  0.00    -0.329 C  
BRANCH  17  18
HETATM   18  C   UNL     1     -11.921  10.931  70.151  1.00  0.00    -0.435 A  
HETATM   19  C   UNL     1     -12.829  10.884  71.189  1.00  0.00    -0.409 A  
HETATM   20  S   UNL     1     -12.908   9.364  71.938  1.00  0.00    -0.433 SA 
HETATM   21  C   UNL     1     -11.708   8.693  70.893  1.00  0.00    -0.252 A  
HETATM   22  C   UNL     1     -11.264   9.649  69.964  1.00  0.00    -0.271 A  
HETATM   23  C   UNL     1     -10.277   9.246  69.024  1.00  0.00    -0.217 A  
HETATM   24  C   UNL     1      -9.765   7.945  69.025  1.00  0.00    -0.162 A  
HETATM   25  C   UNL     1     -10.214   7.022  69.957  1.00  0.00    -0.206 A  
HETATM   26  C   UNL     1     -11.184   7.382  70.895  1.00  0.00    -0.270 A  
HETATM   27 CL   UNL     1     -11.707   6.193  72.034  1.00  0.00    -0.368 Cl 
ENDBRANCH  17  18
ENDBRANCH  16  17
ENDBRANCH   9  16
ENDBRANCH   6   9
TORSDOF 6
ENDMDL
MODEL       19
REMARK 921   NORMALIZED FREE ENERGY PREDICTED BY IDOCK:   -6.53 KCAL/MOL
REMARK 922        TOTAL FREE ENERGY PREDICTED BY IDOCK:   -9.87 KCAL/MOL
REMARK 923 INTER-LIGAND FREE ENERGY PREDICTED BY IDOCK:   -8.87 KCAL/MOL
REMARK 924 INTRA-LIGAND FREE ENERGY PREDICTED BY IDOCK:   -1.00 KCAL/MOL
REMARK 927      BINDING AFFINITY PREDICTED BY RF-SCORE:    0.00 PKD
ROOT
HETATM    1 CL   UNL     1      -7.589  20.338  67.681  1.00  0.00    -0.341 Cl 
HETATM    2  C   UNL     1      -8.440  18.905  68.107  1.00  0.00    -0.309 A  
HETATM    3  C   UNL     1      -7.739  17.779  68.531  1.00  0.00    -0.289 A  
HETATM    4  C   UNL     1      -8.431  16.616  68.881  1.00  0.00    -0.233 A  
HETATM    5 CL   UNL     1      -7.499  15.253  69.384  1.00  0.00    -0.199 Cl 
HETATM    6  C   UNL     1      -9.834  16.571  68.822  1.00  0.00    -0.254 A  
HETATM    7  C   UNL     1     -10.519  17.731  68.402  1.00  0.00    -0.351 A  
HETATM    8  C   UNL     1      -9.828  18.884  68.031  1.00  0.00    -0.404 A  
ENDROOT
BRANCH   6   9
HETATM    9  C   UNL     1     -10.632  15.333  69.220  1.00  0.00    -0.256 C  
BRANCH   9  10
HETATM   10  C   UNL     1     -12.104  15.741  69.431  1.00  0.00    -0.227 C  
BRANCH  10  11
HETATM   11  N   UNL     1     -12.519  15.684  70.819  1.00  0.00    -0.437 NA 
HETATM   12  C   UNL     1     -11.819  16.137  71.902  1.00  0.00    -0.525 A  
HETATM   13  C   UNL     1     -13.733  15.240  71.267  1.00  0.00    -0.490 A  
HETATM   14  N   UNL     1     -13.829  15.346  72.571  1.00  0.00    -0.532 NA 
HETATM   15  C   UNL     1     -12.645  15.904  72.977  1.00  0.00    -0.501 A  
ENDBRANCH  10  11
ENDBRANCH   9  10
BRANCH   9  16
HETATM   16  O   UNL     1     -10.575  14.354  68.167  1.00  0.00    -0.230 OA 
BRANCH  16  17
HETATM   17  C   UNL     1     -11.771  13.573  68.048  1.00  0.00    -0.359 C  
BRANCH  17  18
HETATM   18  C   UNL     1     -11.560  12.202  68.616  1.00  0.00    -0.372 A  
HETATM   19  C   UNL     1     -11.890  11.862  69.913  1.00  0.00    -0.343 A  
HETATM   20  S   UNL     1     -11.530  10.248  70.290  1.00  0.00    -0.337 SA 
HETATM   21  C   UNL     1     -10.903   9.930  68.713  1.00  0.00    -0.208 A  
HETATM   22  C   UNL     1     -10.988  11.074  67.902  1.00  0.00    -0.317 A  
HETATM   23  C   UNL     1     -10.518  10.970  66.565  1.00  0.00    -0.309 A  
HETATM   24  C   UNL     1      -9.988   9.772  66.074  1.00  0.00    -0.342 A  
HETATM   25  C   UNL     1      -9.909   8.659  66.897  1.00  0.00    -0.305 A  
HETATM   26  C   UNL     1     -10.362   8.724  68.217  1.00  0.00    -0.207 A  
HETATM   27 CL   UNL     1     -10.238   7.308  69.198  1.00  0.00    -0.191 Cl 
ENDBRANCH  17  18
ENDBRANCH  16  17
ENDBRANCH   9  16
ENDBRANCH   6   9
TORSDOF 6
ENDMDL
MODEL       20
REMARK 921   NORMALIZED FREE ENERGY PREDICTED BY IDOCK:   -6.51 KCAL/MOL
REMARK 922        TOTAL FREE ENERGY PREDICTED BY IDOCK:   -9.83 KCAL/MOL
REMARK 923 INTER-LIGAND FREE ENERGY PREDICTED BY IDOCK:   -8.90 KCAL/MOL
REMARK 924 INTRA-LIGAND FREE ENERGY PREDICTED BY IDOCK:   -0.93 KCAL/MOL
REMARK 927      BINDING AFFINITY PREDICTED BY RF-SCORE:    0.00 PKD
ROOT
HETATM    1 CL   UNL     1      -7.788  19.821  66.973  1.00  0.00    -0.302 Cl 
HETATM    2  C   UNL     1      -8.576  18.502  67.746  1.00  0.00    -0.271 A  
HETATM    3  C   UNL     1      -7.870  17.333  68.019  1.00  0.00    -0.205 A  
HETATM    4  C   UNL     1      -8.510  16.263  68.652  1.00  0.00    -0.221 A  
HETATM    5 CL   UNL     1      -7.580  14.838  68.947  1.00  0.00    -0.136 Cl 
HETATM    6  C   UNL     1      -9.860  16.356  69.029  1.00  0.00    -0.266 A  
HETATM    7  C   UNL     1     -10.546  17.557  68.753  1.00  0.00    -0.241 A  
HETATM    8  C   UNL     1      -9.915  18.616  68.101  1.00  0.00    -0.397 A  
ENDROOT
BRANCH   6   9
HETATM    9  C   UNL     1     -10.591  15.224  69.745  1.00  0.00    -0.282 C  
BRANCH   9  10
HETATM   10  C   UNL     1     -12.041  15.669  70.021  1.00  0.00    -0.359 C  
BRANCH  10  11
HETATM   11  N   UNL     1     -12.489  15.358  71.364  1.00  0.00    -0.356 NA 
HETATM   12  C   UNL     1     -12.138  16.007  72.515  1.00  0.00    -0.537 A  
HETATM   13  C   UNL     1     -13.415  14.405  71.691  1.00  0.00    -0.372 A  
HETATM   14  N   UNL     1     -13.642  14.384  72.983  1.00  0.00    -0.595 NA 
HETATM   15  C   UNL     1     -12.855  15.377  73.506  1.00  0.00    -0.552 A  
ENDBRANCH  10  11
ENDBRANCH   9  10
BRANCH   9  16
HETATM   16  O   UNL     1     -10.622  14.055  68.909  1.00  0.00    -0.244 OA 
BRANCH  16  17
HETATM   17  C   UNL     1     -11.852  13.899  68.190  1.00  0.00    -0.372 C  
BRANCH  17  18
HETATM   18  C   UNL     1     -11.586  13.444  66.787  1.00  0.00    -0.404 A  
HETATM   19  C   UNL     1     -11.945  14.176  65.674  1.00  0.00    -0.396 A  
HETATM   20  S   UNL     1     -11.533  13.416  64.214  1.00  0.00    -0.388 SA 
HETATM   21  C   UNL     1     -10.851  12.050  65.020  1.00  0.00    -0.304 A  
HETATM   22  C   UNL     1     -10.937  12.199  66.415  1.00  0.00    -0.327 A  
HETATM   23  C   UNL     1     -10.408  11.156  67.223  1.00  0.00    -0.243 A  
HETATM   24  C   UNL     1      -9.824  10.021  66.651  1.00  0.00    -0.259 A  
HETATM   25  C   UNL     1      -9.758   9.895  65.272  1.00  0.00    -0.383 A  
HETATM   26  C   UNL     1     -10.266  10.900  64.446  1.00  0.00    -0.358 A  
HETATM   27 CL   UNL     1     -10.159  10.690  62.735  1.00  0.00    -0.133 Cl 
ENDBRANCH  17  18
ENDBRANCH  16  17
ENDBRANCH   9  16
ENDBRANCH   6   9
TORSDOF 6
ENDMDL
MODEL       21
REMARK 921   NORMALIZED FREE ENERGY PREDICTED BY IDOCK:   -6.40 KCAL/MOL
REMARK 922        TOTAL FREE ENERGY PREDICTED BY IDOCK:   -9.69 KCAL/MOL
REMARK 923 INTER-LIGAND FREE ENERGY PREDICTED BY IDOCK:   -8.81 KCAL/MOL
REMARK 924 INTRA-LIGAND FREE ENERGY PREDICTED BY IDOCK:   -0.88 KCAL/MOL
REMARK 927      BINDING AFFINITY PREDICTED BY RF-SCORE:    0.00 PKD
ROOT
HETATM    1 CL   UNL     1     -13.175  14.385  72.971  1.00  0.00    -0.599 Cl 
HETATM    2  C   UNL     1     -12.637  14.351  71.337  1.00  0.00    -0.354 A  
HETATM    3  C   UNL     1     -12.336  13.135  70.729  1.00  0.00    -0.404 A  
HETATM    4  C   UNL     1     -11.903  13.108  69.400  1.00  0.00    -0.326 A  
HETATM    5 CL   UNL     1     -11.532  11.568  68.712  1.00  0.00    -0.313 Cl 
HETATM    6  C   UNL     1     -11.779  14.296  68.662  1.00  0.00    -0.380 A  
HETATM    7  C   UNL     1     -12.104  15.512  69.299  1.00  0.00    -0.284 A  
HETATM    8  C   UNL     1     -12.514  15.542  70.631  1.00  0.00    -0.483 A  
ENDROOT
BRANCH   6   9
HETATM    9  C   UNL     1     -11.336  14.312  67.201  1.00  0.00    -0.337 C  
BRANCH   9  10
HETATM   10  C   UNL     1     -12.442  13.667  66.343  1.00  0.00    -0.324 C  
BRANCH  10  11
HETATM   11  N   UNL     1     -11.925  12.883  65.240  1.00  0.00    -0.391 NA 
HETATM   12  C   UNL     1     -12.638  12.381  64.186  1.00  0.00    -0.403 A  
HETATM   13  C   UNL     1     -10.606  12.587  65.025  1.00  0.00    -0.300 A  
HETATM   14  N   UNL     1     -10.446  11.894  63.923  1.00  0.00    -0.355 NA 
HETATM   15  C   UNL     1     -11.702  11.761  63.392  1.00  0.00    -0.322 A  
ENDBRANCH  10  11
ENDBRANCH   9  10
BRANCH   9  16
HETATM   16  O   UNL     1     -11.147  15.669  66.762  1.00  0.00    -0.284 OA 
BRANCH  16  17
HETATM   17  C   UNL     1      -9.830  15.929  66.261  1.00  0.00    -0.302 C  
BRANCH  17  18
HETATM   18  C   UNL     1      -9.317  17.235  66.788  1.00  0.00    -0.272 A  
HETATM   19  C   UNL     1     -10.113  18.150  67.447  1.00  0.00    -0.351 A  
HETATM   20  S   UNL     1      -9.274  19.545  67.921  1.00  0.00    -0.337 SA 
HETATM   21  C   UNL     1      -7.786  18.981  67.251  1.00  0.00    -0.245 A  
HETATM   22  C   UNL     1      -7.949  17.710  66.675  1.00  0.00    -0.285 A  
HETATM   23  C   UNL     1      -6.807  17.102  66.085  1.00  0.00    -0.158 A  
HETATM   24  C   UNL     1      -5.566  17.747  66.077  1.00  0.00    -0.241 A  
HETATM   25  C   UNL     1      -5.433  19.005  66.646  1.00  0.00    -0.161 A  
HETATM   26  C   UNL     1      -6.533  19.632  67.235  1.00  0.00    -0.194 A  
HETATM   27 CL   UNL     1      -6.312  21.199  67.927  1.00  0.00    -0.402 Cl 
ENDBRANCH  17  18
ENDBRANCH  16  17
ENDBRANCH   9  16
ENDBRANCH   6   9
TORSDOF 6
ENDMDL
MODEL       22
REMARK 921   NORMALIZED FREE ENERGY PREDICTED BY IDOCK:   -6.38 KCAL/MOL
REMARK 922        TOTAL FREE ENERGY PREDICTED BY IDOCK:   -9.67 KCAL/MOL
REMARK 923 INTER-LIGAND FREE ENERGY PREDICTED BY IDOCK:   -8.08 KCAL/MOL
REMARK 924 INTRA-LIGAND FREE ENERGY PREDICTED BY IDOCK:   -1.59 KCAL/MOL
REMARK 927      BINDING AFFINITY PREDICTED BY RF-SCORE:    0.00 PKD
ROOT
HETATM    1 CL   UNL     1      -8.885  17.620  66.276  1.00  0.00    -0.245 Cl 
HETATM    2  C   UNL     1      -9.202  15.930  66.250  1.00  0.00    -0.337 A  
HETATM    3  C   UNL     1     -10.205  15.423  65.428  1.00  0.00    -0.408 A  
HETATM    4  C   UNL     1     -10.460  14.048  65.405  1.00  0.00    -0.351 A  
HETATM    5 CL   UNL     1     -11.728  13.489  64.374  1.00  0.00    -0.419 Cl 
HETATM    6  C   UNL     1      -9.707  13.166  66.196  1.00  0.00    -0.254 A  
HETATM    7  C   UNL     1      -8.688  13.706  67.009  1.00  0.00    -0.204 A  
HETATM    8  C   UNL     1      -8.448  15.079  67.050  1.00  0.00    -0.258 A  
ENDROOT
BRANCH   6   9
HETATM    9  C   UNL     1      -9.932  11.657  66.183  1.00  0.00    -0.221 C  
BRANCH   9  10
HETATM   10  C   UNL     1      -8.632  10.967  65.725  1.00  0.00    -0.173 C  
BRANCH  10  11
HETATM   11  N   UNL     1      -8.736  10.363  64.412  1.00  0.00    -0.191 NA 
HETATM   12  C   UNL     1      -8.074   9.253  63.966  1.00  0.00    -0.150 A  
HETATM   13  C   UNL     1      -9.592  10.760  63.421  1.00  0.00    -0.338 A  
HETATM   14  N   UNL     1      -9.483   9.995  62.361  1.00  0.00    -0.265 NA 
HETATM   15  C   UNL     1      -8.543   9.053  62.689  1.00  0.00    -0.200 A  
ENDBRANCH  10  11
ENDBRANCH   9  10
BRANCH   9  16
HETATM   16  O   UNL     1     -10.253  11.198  67.508  1.00  0.00    -0.179 OA 
BRANCH  16  17
HETATM   17  C   UNL     1     -11.660  11.047  67.735  1.00  0.00    -0.194 C  
BRANCH  17  18
HETATM   18  C   UNL     1     -12.026  11.542  69.102  1.00  0.00    -0.386 A  
HETATM   19  C   UNL     1     -12.369  10.702  70.143  1.00  0.00    -0.295 A  
HETATM   20  S   UNL     1     -12.748  11.533  71.572  1.00  0.00    -0.270 SA 
HETATM   21  C   UNL     1     -12.471  13.076  70.849  1.00  0.00    -0.310 A  
HETATM   22  C   UNL     1     -12.074  12.935  69.509  1.00  0.00    -0.274 A  
HETATM   23  C   UNL     1     -11.799  14.121  68.775  1.00  0.00    -0.384 A  
HETATM   24  C   UNL     1     -11.919  15.383  69.365  1.00  0.00    -0.351 A  
HETATM   25  C   UNL     1     -12.318  15.495  70.688  1.00  0.00    -0.462 A  
HETATM   26  C   UNL     1     -12.597  14.353  71.441  1.00  0.00    -0.354 A  
HETATM   27 CL   UNL     1     -13.092  14.551  73.083  1.00  0.00    -0.604 Cl 
ENDBRANCH  17  18
ENDBRANCH  16  17
ENDBRANCH   9  16
ENDBRANCH   6   9
TORSDOF 6
ENDMDL
MODEL       23
REMARK 921   NORMALIZED FREE ENERGY PREDICTED BY IDOCK:   -6.38 KCAL/MOL
REMARK 922        TOTAL FREE ENERGY PREDICTED BY IDOCK:   -9.66 KCAL/MOL
REMARK 923 INTER-LIGAND FREE ENERGY PREDICTED BY IDOCK:   -8.90 KCAL/MOL
REMARK 924 INTRA-LIGAND FREE ENERGY PREDICTED BY IDOCK:   -0.76 KCAL/MOL
REMARK 927      BINDING AFFINITY PREDICTED BY RF-SCORE:    0.00 PKD
ROOT
HETATM    1 CL   UNL     1     -11.479  12.628  63.223  1.00  0.00    -0.488 Cl 
HETATM    2  C   UNL     1     -11.372  13.128  64.864  1.00  0.00    -0.309 A  
HETATM    3  C   UNL     1     -10.156  13.045  65.539  1.00  0.00    -0.270 A  
HETATM    4  C   UNL     1     -10.069  13.456  66.873  1.00  0.00    -0.255 A  
HETATM    5 CL   UNL     1      -8.535  13.312  67.654  1.00  0.00    -0.177 Cl 
HETATM    6  C   UNL     1     -11.194  13.965  67.541  1.00  0.00    -0.323 A  
HETATM    7  C   UNL     1     -12.409  14.051  66.829  1.00  0.00    -0.368 A  
HETATM    8  C   UNL     1     -12.502  13.620  65.506  1.00  0.00    -0.544 A  
ENDROOT
BRANCH   6   9
HETATM    9  C   UNL     1     -11.139  14.451  68.987  1.00  0.00    -0.261 C  
BRANCH   9  10
HETATM   10  C   UNL     1     -12.359  15.354  69.252  1.00  0.00    -0.093 C  
BRANCH  10  11
HETATM   11  N   UNL     1     -12.657  15.514  70.662  1.00  0.00    -0.442 NA 
HETATM   12  C   UNL     1     -11.892  16.160  71.592  1.00  0.00    -0.487 A  
HETATM   13  C   UNL     1     -13.810  15.112  71.280  1.00  0.00    -0.472 A  
HETATM   14  N   UNL     1     -13.803  15.429  72.554  1.00  0.00    -0.532 NA 
HETATM   15  C   UNL     1     -12.616  16.082  72.759  1.00  0.00    -0.472 A  
ENDBRANCH  10  11
ENDBRANCH   9  10
BRANCH   9  16
HETATM   16  O   UNL     1     -11.197  13.327  69.883  1.00  0.00    -0.069 OA 
BRANCH  16  17
HETATM   17  C   UNL     1     -12.156  12.335  69.493  1.00  0.00    -0.198 C  
BRANCH  17  18
HETATM   18  C   UNL     1     -11.590  10.959  69.673  1.00  0.00    -0.394 A  
HETATM   19  C   UNL     1     -10.518  10.482  68.947  1.00  0.00    -0.206 A  
HETATM   20  S   UNL     1     -10.097   8.888  69.348  1.00  0.00    -0.208 SA 
HETATM   21  C   UNL     1     -11.353   8.763  70.526  1.00  0.00    -0.227 A  
HETATM   22  C   UNL     1     -12.082   9.962  70.608  1.00  0.00    -0.343 A  
HETATM   23  C   UNL     1     -13.150  10.021  71.543  1.00  0.00    -0.531 A  
HETATM   24  C   UNL     1     -13.466   8.926  72.353  1.00  0.00    -0.499 A  
HETATM   25  C   UNL     1     -12.736   7.751  72.248  1.00  0.00    -0.144 A  
HETATM   26  C   UNL     1     -11.679   7.656  71.341  1.00  0.00    -0.283 A  
HETATM   27 CL   UNL     1     -10.805   6.170  71.250  1.00  0.00    -0.308 Cl 
ENDBRANCH  17  18
ENDBRANCH  16  17
ENDBRANCH   9  16
ENDBRANCH   6   9
TORSDOF 6
ENDMDL
MODEL       24
REMARK 921   NORMALIZED FREE ENERGY PREDICTED BY IDOCK:   -6.35 KCAL/MOL
REMARK 922        TOTAL FREE ENERGY PREDICTED BY IDOCK:   -9.63 KCAL/MOL
REMARK 923 INTER-LIGAND FREE ENERGY PREDICTED BY IDOCK:   -8.81 KCAL/MOL
REMARK 924 INTRA-LIGAND FREE ENERGY PREDICTED BY IDOCK:   -0.82 KCAL/MOL
REMARK 927      BINDING AFFINITY PREDICTED BY RF-SCORE:    0.00 PKD
ROOT
HETATM    1 CL   UNL     1      -8.303  19.214  68.946  1.00  0.00    -0.367 Cl 
HETATM    2  C   UNL     1      -9.087  17.733  68.560  1.00  0.00    -0.282 A  
HETATM    3  C   UNL     1     -10.218  17.338  69.271  1.00  0.00    -0.218 A  
HETATM    4  C   UNL     1     -10.857  16.135  68.954  1.00  0.00    -0.305 A  
HETATM    5 CL   UNL     1     -12.245  15.700  69.885  1.00  0.00    -0.365 Cl 
HETATM    6  C   UNL     1     -10.378  15.321  67.915  1.00  0.00    -0.246 A  
HETATM    7  C   UNL     1      -9.239  15.752  67.203  1.00  0.00    -0.224 A  
HETATM    8  C   UNL     1      -8.588  16.940  67.533  1.00  0.00    -0.211 A  
ENDROOT
BRANCH   6   9
HETATM    9  C   UNL     1     -11.059  14.014  67.517  1.00  0.00    -0.298 C  
BRANCH   9  10
HETATM   10  C   UNL     1     -10.316  13.419  66.305  1.00  0.00    -0.291 C  
BRANCH  10  11
HETATM   11  N   UNL     1     -11.129  13.363  65.107  1.00  0.00    -0.294 NA 
HETATM   12  C   UNL     1     -11.394  12.257  64.347  1.00  0.00    -0.336 A  
HETATM   13  C   UNL     1     -11.845  14.406  64.583  1.00  0.00    -0.451 A  
HETATM   14  N   UNL     1     -12.513  14.037  63.516  1.00  0.00    -0.799 NA 
HETATM   15  C   UNL     1     -12.241  12.703  63.360  1.00  0.00    -0.517 A  
ENDBRANCH  10  11
ENDBRANCH   9  10
BRANCH   9  16
HETATM   16  O   UNL     1     -10.989  13.075  68.604  1.00  0.00    -0.247 OA 
BRANCH  16  17
HETATM   17  C   UNL     1     -11.513  11.782  68.276  1.00  0.00    -0.307 C  
BRANCH  17  18
HETATM   18  C   UNL     1     -11.575  10.916  69.498  1.00  0.00    -0.384 A  
HETATM   19  C   UNL     1     -12.712  10.775  70.268  1.00  0.00    -0.216 A  
HETATM   20  S   UNL     1     -12.492   9.744  71.597  1.00  0.00    -0.422 SA 
HETATM   21  C   UNL     1     -10.841   9.440  71.198  1.00  0.00    -0.357 A  
HETATM   22  C   UNL     1     -10.475  10.131  70.030  1.00  0.00    -0.325 A  
HETATM   23  C   UNL     1      -9.141   9.976  69.563  1.00  0.00    -0.236 A  
HETATM   24  C   UNL     1      -8.225   9.167  70.242  1.00  0.00    -0.170 A  
HETATM   25  C   UNL     1      -8.609   8.501  71.397  1.00  0.00    -0.224 A  
HETATM   26  C   UNL     1      -9.911   8.629  71.885  1.00  0.00    -0.322 A  
HETATM   27 CL   UNL     1     -10.335   7.779  73.327  1.00  0.00    -0.399 Cl 
ENDBRANCH  17  18
ENDBRANCH  16  17
ENDBRANCH   9  16
ENDBRANCH   6   9
TORSDOF 6
ENDMDL
MODEL       25
REMARK 921   NORMALIZED FREE ENERGY PREDICTED BY IDOCK:   -6.35 KCAL/MOL
REMARK 922        TOTAL FREE ENERGY PREDICTED BY IDOCK:   -9.62 KCAL/MOL
REMARK 923 INTER-LIGAND FREE ENERGY PREDICTED BY IDOCK:   -8.83 KCAL/MOL
REMARK 924 INTRA-LIGAND FREE ENERGY PREDICTED BY IDOCK:   -0.79 KCAL/MOL
REMARK 927      BINDING AFFINITY PREDICTED BY RF-SCORE:    0.00 PKD
ROOT
HETATM    1 CL   UNL     1      -7.448  19.372  67.776  1.00  0.00    -0.287 Cl 
HETATM    2  C   UNL     1      -8.372  17.937  67.564  1.00  0.00    -0.228 A  
HETATM    3  C   UNL     1      -9.412  17.643  68.443  1.00  0.00    -0.298 A  
HETATM    4  C   UNL     1     -10.166  16.478  68.267  1.00  0.00    -0.268 A  
HETATM    5 CL   UNL     1     -11.430  16.168  69.402  1.00  0.00    -0.320 Cl 
HETATM    6  C   UNL     1      -9.894  15.602  67.204  1.00  0.00    -0.229 A  
HETATM    7  C   UNL     1      -8.844  15.932  66.322  1.00  0.00    -0.386 A  
HETATM    8  C   UNL     1      -8.077  17.081  66.509  1.00  0.00    -0.320 A  
ENDROOT
BRANCH   6   9
HETATM    9  C   UNL     1     -10.708  14.334  66.959  1.00  0.00    -0.290 C  
BRANCH   9  10
HETATM   10  C   UNL     1     -10.191  13.657  65.674  1.00  0.00    -0.304 C  
BRANCH  10  11
HETATM   11  N   UNL     1     -11.247  13.071  64.873  1.00  0.00    -0.294 NA 
HETATM   12  C   UNL     1     -11.104  12.418  63.680  1.00  0.00    -0.473 A  
HETATM   13  C   UNL     1     -12.567  13.001  65.227  1.00  0.00    -0.457 A  
HETATM   14  N   UNL     1     -13.274  12.379  64.313  1.00  0.00    -0.729 NA 
HETATM   15  C   UNL     1     -12.375  12.011  63.347  1.00  0.00    -0.523 A  
ENDBRANCH  10  11
ENDBRANCH   9  10
BRANCH   9  16
HETATM   16  O   UNL     1     -10.537  13.422  68.058  1.00  0.00    -0.232 OA 
BRANCH  16  17
HETATM   17  C   UNL     1     -11.773  12.918  68.579  1.00  0.00    -0.339 C  
BRANCH  17  18
HETATM   18  C   UNL     1     -11.567  11.573  69.208  1.00  0.00    -0.388 A  
HETATM   19  C   UNL     1     -11.827  11.313  70.539  1.00  0.00    -0.324 A  
HETATM   20  S   UNL     1     -11.491   9.710  70.982  1.00  0.00    -0.401 SA 
HETATM   21  C   UNL     1     -10.970   9.289  69.391  1.00  0.00    -0.120 A  
HETATM   22  C   UNL     1     -11.071  10.391  68.525  1.00  0.00    -0.318 A  
HETATM   23  C   UNL     1     -10.686  10.202  67.170  1.00  0.00    -0.286 A  
HETATM   24  C   UNL     1     -10.221   8.963  66.715  1.00  0.00    -0.348 A  
HETATM   25  C   UNL     1     -10.123   7.894  67.592  1.00  0.00    -0.262 A  
HETATM   26  C   UNL     1     -10.494   8.042  68.930  1.00  0.00    -0.191 A  
HETATM   27 CL   UNL     1     -10.350   6.678  69.979  1.00  0.00    -0.219 Cl 
ENDBRANCH  17  18
ENDBRANCH  16  17
ENDBRANCH   9  16
ENDBRANCH   6   9
TORSDOF 6
ENDMDL
MODEL       26
REMARK 921   NORMALIZED FREE ENERGY PREDICTED BY IDOCK:   -6.33 KCAL/MOL
REMARK 922        TOTAL FREE ENERGY PREDICTED BY IDOCK:   -9.59 KCAL/MOL
REMARK 923 INTER-LIGAND FREE ENERGY PREDICTED BY IDOCK:   -8.71 KCAL/MOL
REMARK 924 INTRA-LIGAND FREE ENERGY PREDICTED BY IDOCK:   -0.89 KCAL/MOL
REMARK 927      BINDING AFFINITY PREDICTED BY RF-SCORE:    0.00 PKD
ROOT
HETATM    1 CL   UNL     1     -11.578   8.702  72.014  1.00  0.00    -0.417 Cl 
HETATM    2  C   UNL     1     -11.233   9.826  70.758  1.00  0.00    -0.348 A  
HETATM    3  C   UNL     1      -9.977   9.831  70.155  1.00  0.00    -0.315 A  
HETATM    4  C   UNL     1      -9.699  10.742  69.131  1.00  0.00    -0.163 A  
HETATM    5 CL   UNL     1      -8.118  10.704  68.438  1.00  0.00    -0.116 Cl 
HETATM    6  C   UNL     1     -10.677  11.649  68.693  1.00  0.00    -0.246 A  
HETATM    7  C   UNL     1     -11.944  11.612  69.312  1.00  0.00    -0.382 A  
HETATM    8  C   UNL     1     -12.215  10.720  70.349  1.00  0.00    -0.437 A  
ENDROOT
BRANCH   6   9
HETATM    9  C   UNL     1     -10.426  12.642  67.562  1.00  0.00    -0.221 C  
BRANCH   9  10
HETATM   10  C   UNL     1     -11.780  13.214  67.096  1.00  0.00    -0.377 C  
BRANCH  10  11
HETATM   11  N   UNL     1     -11.953  13.175  65.658  1.00  0.00    -0.390 NA 
HETATM   12  C   UNL     1     -11.754  12.099  64.838  1.00  0.00    -0.313 A  
HETATM   13  C   UNL     1     -12.433  14.200  64.888  1.00  0.00    -0.401 A  
HETATM   14  N   UNL     1     -12.511  13.851  63.625  1.00  0.00    -0.805 NA 
HETATM   15  C   UNL     1     -12.093  12.547  63.582  1.00  0.00    -0.554 A  
ENDBRANCH  10  11
ENDBRANCH   9  10
BRANCH   9  16
HETATM   16  O   UNL     1      -9.609  13.728  68.035  1.00  0.00    -0.201 OA 
BRANCH  16  17
HETATM   17  C   UNL     1     -10.315  14.647  68.878  1.00  0.00    -0.245 C  
BRANCH  17  18
HETATM   18  C   UNL     1     -10.058  16.059  68.444  1.00  0.00    -0.229 A  
HETATM   19  C   UNL     1     -11.015  16.852  67.845  1.00  0.00    -0.251 A  
HETATM   20  S   UNL     1     -10.446  18.400  67.447  1.00  0.00    -0.411 SA 
HETATM   21  C   UNL     1      -8.867  18.070  68.064  1.00  0.00    -0.275 A  
HETATM   22  C   UNL     1      -8.797  16.766  68.585  1.00  0.00    -0.255 A  
HETATM   23  C   UNL     1      -7.559  16.345  69.141  1.00  0.00    -0.225 A  
HETATM   24  C   UNL     1      -6.449  17.196  69.169  1.00  0.00    -0.223 A  
HETATM   25  C   UNL     1      -6.543  18.475  68.642  1.00  0.00    -0.258 A  
HETATM   26  C   UNL     1      -7.743  18.925  68.088  1.00  0.00    -0.287 A  
HETATM   27 CL   UNL     1      -7.803  20.526  67.444  1.00  0.00    -0.364 Cl 
ENDBRANCH  17  18
ENDBRANCH  16  17
ENDBRANCH   9  16
ENDBRANCH   6   9
TORSDOF 6
ENDMDL
MODEL       27
REMARK 921   NORMALIZED FREE ENERGY PREDICTED BY IDOCK:   -6.31 KCAL/MOL
REMARK 922        TOTAL FREE ENERGY PREDICTED BY IDOCK:   -9.56 KCAL/MOL
REMARK 923 INTER-LIGAND FREE ENERGY PREDICTED BY IDOCK:   -8.82 KCAL/MOL
REMARK 924 INTRA-LIGAND FREE ENERGY PREDICTED BY IDOCK:   -0.75 KCAL/MOL
REMARK 927      BINDING AFFINITY PREDICTED BY RF-SCORE:    0.00 PKD
ROOT
HETATM    1 CL   UNL     1      -9.765  10.286  62.640  1.00  0.00    -0.255 Cl 
HETATM    2  C   UNL     1     -10.221  11.014  64.130  1.00  0.00    -0.357 A  
HETATM    3  C   UNL     1     -11.241  11.962  64.158  1.00  0.00    -0.446 A  
HETATM    4  C   UNL     1     -11.614  12.550  65.371  1.00  0.00    -0.375 A  
HETATM    5 CL   UNL     1     -12.876  13.728  65.331  1.00  0.00    -0.512 Cl 
HETATM    6  C   UNL     1     -10.978  12.187  66.569  1.00  0.00    -0.325 A  
HETATM    7  C   UNL     1      -9.958  11.215  66.513  1.00  0.00    -0.252 A  
HETATM    8  C   UNL     1      -9.570  10.644  65.302  1.00  0.00    -0.293 A  
ENDROOT
BRANCH   6   9
HETATM    9  C   UNL     1     -11.371  12.783  67.919  1.00  0.00    -0.293 C  
BRANCH   9  10
HETATM   10  C   UNL     1     -11.205  11.701  69.004  1.00  0.00    -0.262 C  
BRANCH  10  11
HETATM   11  N   UNL     1     -12.031  11.931  70.172  1.00  0.00    -0.346 NA 
HETATM   12  C   UNL     1     -12.494  10.988  71.047  1.00  0.00    -0.409 A  
HETATM   13  C   UNL     1     -12.415  13.157  70.644  1.00  0.00    -0.286 A  
HETATM   14  N   UNL     1     -13.126  13.044  71.740  1.00  0.00    -0.400 NA 
HETATM   15  C   UNL     1     -13.181  11.700  72.001  1.00  0.00    -0.338 A  
ENDBRANCH  10  11
ENDBRANCH   9  10
BRANCH   9  16
HETATM   16  O   UNL     1     -10.505  13.887  68.236  1.00  0.00    -0.236 OA 
BRANCH  16  17
HETATM   17  C   UNL     1     -11.028  15.158  67.826  1.00  0.00    -0.306 C  
BRANCH  17  18
HETATM   18  C   UNL     1      -9.931  16.024  67.283  1.00  0.00    -0.242 A  
HETATM   19  C   UNL     1      -8.752  15.521  66.773  1.00  0.00    -0.267 A  
HETATM   20  S   UNL     1      -7.686  16.728  66.242  1.00  0.00    -0.182 SA 
HETATM   21  C   UNL     1      -8.770  17.998  66.682  1.00  0.00    -0.259 A  
HETATM   22  C   UNL     1      -9.955  17.475  67.227  1.00  0.00    -0.312 A  
HETATM   23  C   UNL     1     -10.956  18.398  67.633  1.00  0.00    -0.160 A  
HETATM   24  C   UNL     1     -10.769  19.778  67.496  1.00  0.00    -0.494 A  
HETATM   25  C   UNL     1      -9.587  20.268  66.962  1.00  0.00    -0.572 A  
HETATM   26  C   UNL     1      -8.581  19.391  66.552  1.00  0.00    -0.343 A  
HETATM   27 CL   UNL     1      -7.129  20.056  65.895  1.00  0.00    -0.296 Cl 
ENDBRANCH  17  18
ENDBRANCH  16  17
ENDBRANCH   9  16
ENDBRANCH   6   9
TORSDOF 6
ENDMDL
MODEL       28
REMARK 921   NORMALIZED FREE ENERGY PREDICTED BY IDOCK:   -6.30 KCAL/MOL
REMARK 922        TOTAL FREE ENERGY PREDICTED BY IDOCK:   -9.56 KCAL/MOL
REMARK 923 INTER-LIGAND FREE ENERGY PREDICTED BY IDOCK:   -8.93 KCAL/MOL
REMARK 924 INTRA-LIGAND FREE ENERGY PREDICTED BY IDOCK:   -0.63 KCAL/MOL
REMARK 927      BINDING AFFINITY PREDICTED BY RF-SCORE:    0.00 PKD
ROOT
HETATM    1 CL   UNL     1     -11.475  12.565  63.367  1.00  0.00    -0.542 Cl 
HETATM    2  C   UNL     1     -11.364  13.026  65.020  1.00  0.00    -0.296 A  
HETATM    3  C   UNL     1     -10.273  12.618  65.785  1.00  0.00    -0.288 A  
HETATM    4  C   UNL     1     -10.181  12.998  67.127  1.00  0.00    -0.243 A  
HETATM    5 CL   UNL     1      -8.811  12.445  68.021  1.00  0.00    -0.181 Cl 
HETATM    6  C   UNL     1     -11.174  13.799  67.716  1.00  0.00    -0.312 A  
HETATM    7  C   UNL     1     -12.260  14.209  66.914  1.00  0.00    -0.400 A  
HETATM    8  C   UNL     1     -12.364  13.812  65.581  1.00  0.00    -0.517 A  
ENDROOT
BRANCH   6   9
HETATM    9  C   UNL     1     -11.101  14.259  69.169  1.00  0.00    -0.262 C  
BRANCH   9  10
HETATM   10  C   UNL     1     -12.084  15.429  69.367  1.00  0.00    -0.280 C  
BRANCH  10  11
HETATM   11  N   UNL     1     -12.471  15.623  70.750  1.00  0.00    -0.437 NA 
HETATM   12  C   UNL     1     -13.638  15.222  71.338  1.00  0.00    -0.514 A  
HETATM   13  C   UNL     1     -11.683  16.171  71.726  1.00  0.00    -0.488 A  
HETATM   14  N   UNL     1     -12.296  16.178  72.886  1.00  0.00    -0.491 NA 
HETATM   15  C   UNL     1     -13.512  15.589  72.657  1.00  0.00    -0.547 A  
ENDBRANCH  10  11
ENDBRANCH   9  10
BRANCH   9  16
HETATM   16  O   UNL     1     -11.487  13.183  70.043  1.00  0.00    -0.170 OA 
BRANCH  16  17
HETATM   17  C   UNL     1     -12.217  12.143  69.379  1.00  0.00    -0.079 C  
BRANCH  17  18
HETATM   18  C   UNL     1     -12.189  10.883  70.192  1.00  0.00    -0.423 A  
HETATM   19  C   UNL     1     -12.907  10.721  71.360  1.00  0.00    -0.452 A  
HETATM   20  S   UNL     1     -12.678   9.201  72.076  1.00  0.00    -0.409 SA 
HETATM   21  C   UNL     1     -11.588   8.687  70.840  1.00  0.00    -0.269 A  
HETATM   22  C   UNL     1     -11.419   9.694  69.874  1.00  0.00    -0.144 A  
HETATM   23  C   UNL     1     -10.554   9.419  68.780  1.00  0.00    -0.234 A  
HETATM   24  C   UNL     1      -9.893   8.191  68.670  1.00  0.00    -0.191 A  
HETATM   25  C   UNL     1     -10.071   7.217  69.640  1.00  0.00    -0.195 A  
HETATM   26  C   UNL     1     -10.914   7.451  70.729  1.00  0.00    -0.255 A  
HETATM   27 CL   UNL     1     -11.098   6.204  71.909  1.00  0.00    -0.308 Cl 
ENDBRANCH  17  18
ENDBRANCH  16  17
ENDBRANCH   9  16
ENDBRANCH   6   9
TORSDOF 6
ENDMDL
MODEL       29
REMARK 921   NORMALIZED FREE ENERGY PREDICTED BY IDOCK:   -6.29 KCAL/MOL
REMARK 922        TOTAL FREE ENERGY PREDICTED BY IDOCK:   -9.55 KCAL/MOL
REMARK 923 INTER-LIGAND FREE ENERGY PREDICTED BY IDOCK:   -7.90 KCAL/MOL
REMARK 924 INTRA-LIGAND FREE ENERGY PREDICTED BY IDOCK:   -1.65 KCAL/MOL
REMARK 927      BINDING AFFINITY PREDICTED BY RF-SCORE:    0.00 PKD
ROOT
HETATM    1 CL   UNL     1      -7.479   9.235  67.348  1.00  0.00    -0.087 Cl 
HETATM    2  C   UNL     1      -8.565   8.868  68.630  1.00  0.00    -0.133 A  
HETATM    3  C   UNL     1      -9.439   7.789  68.515  1.00  0.00    -0.148 A  
HETATM    4  C   UNL     1     -10.319   7.489  69.559  1.00  0.00    -0.216 A  
HETATM    5 CL   UNL     1     -11.384   6.148  69.344  1.00  0.00    -0.482 Cl 
HETATM    6  C   UNL     1     -10.326   8.259  70.734  1.00  0.00    -0.221 A  
HETATM    7  C   UNL     1      -9.422   9.337  70.829  1.00  0.00    -0.336 A  
HETATM    8  C   UNL     1      -8.559   9.651  69.778  1.00  0.00    -0.211 A  
ENDROOT
BRANCH   6   9
HETATM    9  C   UNL     1     -11.250   7.952  71.909  1.00  0.00    -0.271 C  
BRANCH   9  10
HETATM   10  C   UNL     1     -10.389   7.541  73.120  1.00  0.00    -0.347 C  
BRANCH  10  11
HETATM   11  N   UNL     1     -10.545   6.147  73.485  1.00  0.00    -0.257 NA 
HETATM   12  C   UNL     1      -9.951   5.504  74.536  1.00  0.00    -0.255 A  
HETATM   13  C   UNL     1     -11.392   5.258  72.881  1.00  0.00    -0.301 A  
HETATM   14  N   UNL     1     -11.340   4.081  73.459  1.00  0.00    -0.242 NA 
HETATM   15  C   UNL     1     -10.448   4.223  74.490  1.00  0.00    -0.236 A  
ENDBRANCH  10  11
ENDBRANCH   9  10
BRANCH   9  16
HETATM   16  O   UNL     1     -12.003   9.127  72.260  1.00  0.00    -0.321 OA 
BRANCH  16  17
HETATM   17  C   UNL     1     -12.881   9.574  71.219  1.00  0.00    -0.333 C  
BRANCH  17  18
HETATM   18  C   UNL     1     -12.754  11.055  71.027  1.00  0.00    -0.485 A  
HETATM   19  C   UNL     1     -13.151  11.977  71.974  1.00  0.00    -0.351 A  
HETATM   20  S   UNL     1     -12.903  13.583  71.487  1.00  0.00    -0.313 SA 
HETATM   21  C   UNL     1     -12.250  13.108  69.961  1.00  0.00    -0.253 A  
HETATM   22  C   UNL     1     -12.217  11.708  69.846  1.00  0.00    -0.310 A  
HETATM   23  C   UNL     1     -11.695  11.158  68.644  1.00  0.00    -0.389 A  
HETATM   24  C   UNL     1     -11.232  11.980  67.611  1.00  0.00    -0.343 A  
HETATM   25  C   UNL     1     -11.282  13.359  67.747  1.00  0.00    -0.306 A  
HETATM   26  C   UNL     1     -11.787  13.936  68.914  1.00  0.00    -0.358 A  
HETATM   27 CL   UNL     1     -11.827  15.658  69.029  1.00  0.00    -0.396 Cl 
ENDBRANCH  17  18
ENDBRANCH  16  17
ENDBRANCH   9  16
ENDBRANCH   6   9
TORSDOF 6
ENDMDL
MODEL       30
REMARK 921   NORMALIZED FREE ENERGY PREDICTED BY IDOCK:   -6.27 KCAL/MOL
REMARK 922        TOTAL FREE ENERGY PREDICTED BY IDOCK:   -9.52 KCAL/MOL
REMARK 923 INTER-LIGAND FREE ENERGY PREDICTED BY IDOCK:   -8.52 KCAL/MOL
REMARK 924 INTRA-LIGAND FREE ENERGY PREDICTED BY IDOCK:   -1.00 KCAL/MOL
REMARK 927      BINDING AFFINITY PREDICTED BY RF-SCORE:    0.00 PKD
ROOT
HETATM    1 CL   UNL     1     -13.132  15.278  73.605  1.00  0.00    -0.549 Cl 
HETATM    2  C   UNL     1     -12.526  15.007  72.019  1.00  0.00    -0.336 A  
HETATM    3  C   UNL     1     -11.760  15.985  71.389  1.00  0.00    -0.536 A  
HETATM    4  C   UNL     1     -11.264  15.761  70.101  1.00  0.00    -0.349 A  
HETATM    5 CL   UNL     1     -10.335  17.022  69.374  1.00  0.00    -0.275 Cl 
HETATM    6  C   UNL     1     -11.519  14.552  69.435  1.00  0.00    -0.323 A  
HETATM    7  C   UNL     1     -12.286  13.573  70.101  1.00  0.00    -0.400 A  
HETATM    8  C   UNL     1     -12.800  13.804  71.377  1.00  0.00    -0.449 A  
ENDROOT
BRANCH   6   9
HETATM    9  C   UNL     1     -10.975  14.254  68.040  1.00  0.00    -0.249 C  
BRANCH   9  10
HETATM   10  C   UNL     1     -11.443  12.847  67.617  1.00  0.00    -0.334 C  
BRANCH  10  11
HETATM   11  N   UNL     1     -10.406  12.071  66.968  1.00  0.00    -0.210 NA 
HETATM   12  C   UNL     1      -9.055  12.222  67.118  1.00  0.00    -0.193 A  
HETATM   13  C   UNL     1     -10.613  10.990  66.156  1.00  0.00    -0.228 A  
HETATM   14  N   UNL     1      -9.478  10.473  65.750  1.00  0.00    -0.190 NA 
HETATM   15  C   UNL     1      -8.502  11.230  66.343  1.00  0.00    -0.169 A  
ENDBRANCH  10  11
ENDBRANCH   9  10
BRANCH   9  16
HETATM   16  O   UNL     1     -11.492  15.211  67.098  1.00  0.00    -0.330 OA 
BRANCH  16  17
HETATM   17  C   UNL     1     -10.682  15.352  65.925  1.00  0.00    -0.336 C  
BRANCH  17  18
HETATM   18  C   UNL     1      -9.510  16.246  66.202  1.00  0.00    -0.373 A  
HETATM   19  C   UNL     1      -8.241  15.770  66.461  1.00  0.00    -0.243 A  
HETATM   20  S   UNL     1      -7.113  17.003  66.752  1.00  0.00    -0.263 SA 
HETATM   21  C   UNL     1      -8.292  18.247  66.545  1.00  0.00    -0.266 A  
HETATM   22  C   UNL     1      -9.549  17.697  66.240  1.00  0.00    -0.259 A  
HETATM   23  C   UNL     1     -10.629  18.598  66.031  1.00  0.00    -0.410 A  
HETATM   24  C   UNL     1     -10.448  19.981  66.126  1.00  0.00    -0.526 A  
HETATM   25  C   UNL     1      -9.199  20.498  66.435  1.00  0.00    -0.169 A  
HETATM   26  C   UNL     1      -8.114  19.644  66.646  1.00  0.00    -0.309 A  
HETATM   27 CL   UNL     1      -6.581  20.341  67.029  1.00  0.00    -0.246 Cl 
ENDBRANCH  17  18
ENDBRANCH  16  17
ENDBRANCH   9  16
ENDBRANCH   6   9
TORSDOF 6
ENDMDL
MODEL       31
REMARK 921   NORMALIZED FREE ENERGY PREDICTED BY IDOCK:   -6.22 KCAL/MOL
REMARK 922        TOTAL FREE ENERGY PREDICTED BY IDOCK:   -9.44 KCAL/MOL
REMARK 923 INTER-LIGAND FREE ENERGY PREDICTED BY IDOCK:   -8.50 KCAL/MOL
REMARK 924 INTRA-LIGAND FREE ENERGY PREDICTED BY IDOCK:   -0.94 KCAL/MOL
REMARK 927      BINDING AFFINITY PREDICTED BY RF-SCORE:    0.00 PKD
ROOT
HETATM    1 CL   UNL     1     -12.717  11.913  63.142  1.00  0.00    -0.522 Cl 
HETATM    2  C   UNL     1     -12.087  12.614  64.581  1.00  0.00    -0.420 A  
HETATM    3  C   UNL     1     -10.799  12.297  65.003  1.00  0.00    -0.337 A  
HETATM    4  C   UNL     1     -10.286  12.871  66.171  1.00  0.00    -0.278 A  
HETATM    5 CL   UNL     1      -8.687  12.423  66.645  1.00  0.00    -0.165 Cl 
HETATM    6  C   UNL     1     -11.053  13.777  66.921  1.00  0.00    -0.311 A  
HETATM    7  C   UNL     1     -12.350  14.090  66.462  1.00  0.00    -0.442 A  
HETATM    8  C   UNL     1     -12.870  13.501  65.311  1.00  0.00    -0.410 A  
ENDROOT
BRANCH   6   9
HETATM    9  C   UNL     1     -10.525  14.447  68.186  1.00  0.00    -0.237 C  
BRANCH   9  10
HETATM   10  C   UNL     1     -11.305  15.757  68.414  1.00  0.00    -0.372 C  
BRANCH  10  11
HETATM   11  N   UNL     1     -10.584  16.935  67.977  1.00  0.00    -0.355 NA 
HETATM   12  C   UNL     1     -10.119  17.951  68.766  1.00  0.00    -0.384 A  
HETATM   13  C   UNL     1     -10.169  17.183  66.696  1.00  0.00    -0.319 A  
HETATM   14  N   UNL     1      -9.506  18.313  66.620  1.00  0.00    -0.299 NA 
HETATM   15  C   UNL     1      -9.468  18.799  67.901  1.00  0.00    -0.304 A  
ENDBRANCH  10  11
ENDBRANCH   9  10
BRANCH   9  16
HETATM   16  O   UNL     1     -10.733  13.587  69.320  1.00  0.00    -0.142 OA 
BRANCH  16  17
HETATM   17  C   UNL     1     -12.113  13.281  69.558  1.00  0.00    -0.258 C  
BRANCH  17  18
HETATM   18  C   UNL     1     -12.243  11.975  70.283  1.00  0.00    -0.348 A  
HETATM   19  C   UNL     1     -13.007  11.814  71.421  1.00  0.00    -0.306 A  
HETATM   20  S   UNL     1     -12.961  10.234  72.037  1.00  0.00    -0.320 SA 
HETATM   21  C   UNL     1     -11.897   9.689  70.792  1.00  0.00    -0.300 A  
HETATM   22  C   UNL     1     -11.594  10.733  69.901  1.00  0.00    -0.410 A  
HETATM   23  C   UNL     1     -10.731  10.439  68.811  1.00  0.00    -0.255 A  
HETATM   24  C   UNL     1     -10.201   9.157  68.631  1.00  0.00    -0.225 A  
HETATM   25  C   UNL     1     -10.510   8.146  69.528  1.00  0.00    -0.227 A  
HETATM   26  C   UNL     1     -11.355   8.397  70.611  1.00  0.00    -0.244 A  
HETATM   27 CL   UNL     1     -11.704   7.102  71.699  1.00  0.00    -0.306 Cl 
ENDBRANCH  17  18
ENDBRANCH  16  17
ENDBRANCH   9  16
ENDBRANCH   6   9
TORSDOF 6
ENDMDL
MODEL       32
REMARK 921   NORMALIZED FREE ENERGY PREDICTED BY IDOCK:   -6.21 KCAL/MOL
REMARK 922        TOTAL FREE ENERGY PREDICTED BY IDOCK:   -9.43 KCAL/MOL
REMARK 923 INTER-LIGAND FREE ENERGY PREDICTED BY IDOCK:   -8.19 KCAL/MOL
REMARK 924 INTRA-LIGAND FREE ENERGY PREDICTED BY IDOCK:   -1.24 KCAL/MOL
REMARK 927      BINDING AFFINITY PREDICTED BY RF-SCORE:    0.00 PKD
ROOT
HETATM    1 CL   UNL     1      -9.866  10.442  62.726  1.00  0.00    -0.237 Cl 
HETATM    2  C   UNL     1     -10.245  11.248  64.197  1.00  0.00    -0.335 A  
HETATM    3  C   UNL     1      -9.289  11.340  65.206  1.00  0.00    -0.225 A  
HETATM    4  C   UNL     1      -9.596  11.999  66.400  1.00  0.00    -0.228 A  
HETATM    5 CL   UNL     1      -8.369  12.064  67.614  1.00  0.00    -0.150 Cl 
HETATM    6  C   UNL     1     -10.858  12.583  66.593  1.00  0.00    -0.277 A  
HETATM    7  C   UNL     1     -11.803  12.486  65.549  1.00  0.00    -0.491 A  
HETATM    8  C   UNL     1     -11.505  11.810  64.367  1.00  0.00    -0.349 A  
ENDROOT
BRANCH   6   9
HETATM    9  C   UNL     1     -11.228  13.335  67.868  1.00  0.00    -0.272 C  
BRANCH   9  10
HETATM   10  C   UNL     1     -11.895  14.669  67.480  1.00  0.00    -0.347 C  
BRANCH  10  11
HETATM   11  N   UNL     1     -11.036  15.818  67.685  1.00  0.00    -0.314 NA 
HETATM   12  C   UNL     1     -10.899  16.544  68.836  1.00  0.00    -0.336 A  
HETATM   13  C   UNL     1     -10.146  16.318  66.772  1.00  0.00    -0.278 A  
HETATM   14  N   UNL     1      -9.484  17.340  67.261  1.00  0.00    -0.246 NA 
HETATM   15  C   UNL     1      -9.943  17.489  68.544  1.00  0.00    -0.344 A  
ENDBRANCH  10  11
ENDBRANCH   9  10
BRANCH   9  16
HETATM   16  O   UNL     1     -12.165  12.561  68.639  1.00  0.00    -0.173 OA 
BRANCH  16  17
HETATM   17  C   UNL     1     -11.892  12.571  70.046  1.00  0.00    -0.289 C  
BRANCH  17  18
HETATM   18  C   UNL     1     -12.150  11.218  70.638  1.00  0.00    -0.480 A  
HETATM   19  C   UNL     1     -13.067  10.996  71.646  1.00  0.00    -0.438 A  
HETATM   20  S   UNL     1     -13.143   9.373  72.133  1.00  0.00    -0.444 SA 
HETATM   21  C   UNL     1     -11.930   8.889  71.004  1.00  0.00    -0.261 A  
HETATM   22  C   UNL     1     -11.484   9.988  70.249  1.00  0.00    -0.372 A  
HETATM   23  C   UNL     1     -10.486   9.750  69.266  1.00  0.00    -0.236 A  
HETATM   24  C   UNL     1      -9.965   8.468  69.056  1.00  0.00    -0.197 A  
HETATM   25  C   UNL     1     -10.417   7.402  69.819  1.00  0.00    -0.235 A  
HETATM   26  C   UNL     1     -11.398   7.598  70.795  1.00  0.00    -0.281 A  
HETATM   27 CL   UNL     1     -11.923   6.236  71.717  1.00  0.00    -0.359 Cl 
ENDBRANCH  17  18
ENDBRANCH  16  17
ENDBRANCH   9  16
ENDBRANCH   6   9
TORSDOF 6
ENDMDL
MODEL       33
REMARK 921   NORMALIZED FREE ENERGY PREDICTED BY IDOCK:   -6.21 KCAL/MOL
REMARK 922        TOTAL FREE ENERGY PREDICTED BY IDOCK:   -9.43 KCAL/MOL
REMARK 923 INTER-LIGAND FREE ENERGY PREDICTED BY IDOCK:   -7.71 KCAL/MOL
REMARK 924 INTRA-LIGAND FREE ENERGY PREDICTED BY IDOCK:   -1.72 KCAL/MOL
REMARK 927      BINDING AFFINITY PREDICTED BY RF-SCORE:    0.00 PKD
ROOT
HETATM    1 CL   UNL     1     -11.968  13.149  63.339  1.00  0.00    -0.594 Cl 
HETATM    2  C   UNL     1     -11.400  12.108  64.585  1.00  0.00    -0.326 A  
HETATM    3  C   UNL     1     -11.741  12.361  65.912  1.00  0.00    -0.476 A  
HETATM    4  C   UNL     1     -11.282  11.512  66.923  1.00  0.00    -0.298 A  
HETATM    5 CL   UNL     1     -11.729  11.892  68.547  1.00  0.00    -0.369 Cl 
HETATM    6  C   UNL     1     -10.487  10.395  66.617  1.00  0.00    -0.279 A  
HETATM    7  C   UNL     1     -10.169  10.156  65.264  1.00  0.00    -0.261 A  
HETATM    8  C   UNL     1     -10.607  11.014  64.256  1.00  0.00    -0.402 A  
ENDROOT
BRANCH   6   9
HETATM    9  C   UNL     1      -9.987   9.427  67.686  1.00  0.00    -0.190 C  
BRANCH   9  10
HETATM   10  C   UNL     1     -10.018   7.997  67.111  1.00  0.00    -0.235 C  
BRANCH  10  11
HETATM   11  N   UNL     1     -10.006   6.970  68.133  1.00  0.00    -0.147 NA 
HETATM   12  C   UNL     1      -8.917   6.277  68.585  1.00  0.00    -0.127 A  
HETATM   13  C   UNL     1     -11.083   6.582  68.882  1.00  0.00    -0.301 A  
HETATM   14  N   UNL     1     -10.751   5.658  69.753  1.00  0.00    -0.335 NA 
HETATM   15  C   UNL     1      -9.406   5.461  69.578  1.00  0.00    -0.124 A  
ENDBRANCH  10  11
ENDBRANCH   9  10
BRANCH   9  16
HETATM   16  O   UNL     1      -8.631   9.749  68.041  1.00  0.00    -0.121 OA 
BRANCH  16  17
HETATM   17  C   UNL     1      -8.518  10.447  69.288  1.00  0.00    -0.154 C  
BRANCH  17  18
HETATM   18  C   UNL     1      -8.595   9.485  70.436  1.00  0.00    -0.246 A  
HETATM   19  C   UNL     1      -7.497   8.816  70.938  1.00  0.00    -0.091 A  
HETATM   20  S   UNL     1      -7.878   7.783  72.227  1.00  0.00    -0.116 SA 
HETATM   21  C   UNL     1      -9.556   8.186  72.167  1.00  0.00    -0.242 A  
HETATM   22  C   UNL     1      -9.806   9.129  71.154  1.00  0.00    -0.371 A  
HETATM   23  C   UNL     1     -11.146   9.571  70.983  1.00  0.00    -0.433 A  
HETATM   24  C   UNL     1     -12.179   9.086  71.791  1.00  0.00    -0.434 A  
HETATM   25  C   UNL     1     -11.906   8.150  72.778  1.00  0.00    -0.296 A  
HETATM   26  C   UNL     1     -10.602   7.693  72.977  1.00  0.00    -0.375 A  
HETATM   27 CL   UNL     1     -10.320   6.527  74.219  1.00  0.00    -0.362 Cl 
ENDBRANCH  17  18
ENDBRANCH  16  17
ENDBRANCH   9  16
ENDBRANCH   6   9
TORSDOF 6
ENDMDL
MODEL       34
REMARK 921   NORMALIZED FREE ENERGY PREDICTED BY IDOCK:   -6.16 KCAL/MOL
REMARK 922        TOTAL FREE ENERGY PREDICTED BY IDOCK:   -9.37 KCAL/MOL
REMARK 923 INTER-LIGAND FREE ENERGY PREDICTED BY IDOCK:   -8.70 KCAL/MOL
REMARK 924 INTRA-LIGAND FREE ENERGY PREDICTED BY IDOCK:   -0.67 KCAL/MOL
REMARK 927      BINDING AFFINITY PREDICTED BY RF-SCORE:    0.00 PKD
ROOT
HETATM    1 CL   UNL     1     -12.819  11.865  63.130  1.00  0.00    -0.446 Cl 
HETATM    2  C   UNL     1     -11.887  12.958  64.075  1.00  0.00    -0.443 A  
HETATM    3  C   UNL     1     -10.728  12.516  64.710  1.00  0.00    -0.333 A  
HETATM    4  C   UNL     1      -9.968  13.407  65.474  1.00  0.00    -0.210 A  
HETATM    5 CL   UNL     1      -8.552  12.789  66.245  1.00  0.00     0.193 Cl 
HETATM    6  C   UNL     1     -10.353  14.751  65.602  1.00  0.00    -0.369 A  
HETATM    7  C   UNL     1     -11.523  15.174  64.937  1.00  0.00    -0.374 A  
HETATM    8  C   UNL     1     -12.294  14.282  64.193  1.00  0.00    -0.361 A  
ENDROOT
BRANCH   6   9
HETATM    9  C   UNL     1      -9.540  15.764  66.404  1.00  0.00    -0.285 C  
BRANCH   9  10
HETATM   10  C   UNL     1     -10.142  17.166  66.184  1.00  0.00    -0.305 C  
BRANCH  10  11
HETATM   11  N   UNL     1      -9.402  18.217  66.852  1.00  0.00    -0.277 NA 
HETATM   12  C   UNL     1      -8.171  18.702  66.503  1.00  0.00    -0.286 A  
HETATM   13  C   UNL     1      -9.858  18.965  67.904  1.00  0.00    -0.345 A  
HETATM   14  N   UNL     1      -8.976  19.865  68.267  1.00  0.00    -0.278 NA 
HETATM   15  C   UNL     1      -7.924  19.712  67.403  1.00  0.00    -0.278 A  
ENDBRANCH  10  11
ENDBRANCH   9  10
BRANCH   9  16
HETATM   16  O   UNL     1      -9.612  15.449  67.806  1.00  0.00    -0.209 OA 
BRANCH  16  17
HETATM   17  C   UNL     1     -10.920  15.626  68.364  1.00  0.00    -0.308 C  
BRANCH  17  18
HETATM   18  C   UNL     1     -11.369  14.373  69.053  1.00  0.00    -0.297 A  
HETATM   19  C   UNL     1     -11.003  13.109  68.638  1.00  0.00    -0.265 A  
HETATM   20  S   UNL     1     -11.666  11.874  69.594  1.00  0.00    -0.334 SA 
HETATM   21  C   UNL     1     -12.490  12.994  70.618  1.00  0.00    -0.268 A  
HETATM   22  C   UNL     1     -12.235  14.317  70.218  1.00  0.00    -0.407 A  
HETATM   23  C   UNL     1     -12.838  15.360  70.971  1.00  0.00    -0.525 A  
HETATM   24  C   UNL     1     -13.657  15.081  72.070  1.00  0.00    -0.522 A  
HETATM   25  C   UNL     1     -13.899  13.767  72.439  1.00  0.00    -0.681 A  
HETATM   26  C   UNL     1     -13.323  12.715  71.723  1.00  0.00    -0.310 A  
HETATM   27 CL   UNL     1     -13.659  11.098  72.226  1.00  0.00    -0.176 Cl 
ENDBRANCH  17  18
ENDBRANCH  16  17
ENDBRANCH   9  16
ENDBRANCH   6   9
TORSDOF 6
ENDMDL
MODEL       35
REMARK 921   NORMALIZED FREE ENERGY PREDICTED BY IDOCK:   -6.16 KCAL/MOL
REMARK 922        TOTAL FREE ENERGY PREDICTED BY IDOCK:   -9.37 KCAL/MOL
REMARK 923 INTER-LIGAND FREE ENERGY PREDICTED BY IDOCK:   -8.05 KCAL/MOL
REMARK 924 INTRA-LIGAND FREE ENERGY PREDICTED BY IDOCK:   -1.32 KCAL/MOL
REMARK 927      BINDING AFFINITY PREDICTED BY RF-SCORE:    0.00 PKD
ROOT
HETATM    1 CL   UNL     1      -9.726   4.308  66.561  1.00  0.00    -0.220 Cl 
HETATM    2  C   UNL     1      -9.664   6.022  66.449  1.00  0.00    -0.121 A  
HETATM    3  C   UNL     1      -8.597   6.639  65.801  1.00  0.00    -0.147 A  
HETATM    4  C   UNL     1      -8.549   8.034  65.707  1.00  0.00    -0.153 A  
HETATM    5 CL   UNL     1      -7.190   8.733  64.903  1.00  0.00    -0.083 Cl 
HETATM    6  C   UNL     1      -9.575   8.824  66.251  1.00  0.00    -0.328 A  
HETATM    7  C   UNL     1     -10.650   8.173  66.889  1.00  0.00    -0.311 A  
HETATM    8  C   UNL     1     -10.687   6.783  67.003  1.00  0.00    -0.435 A  
ENDROOT
BRANCH   6   9
HETATM    9  C   UNL     1      -9.578  10.347  66.148  1.00  0.00    -0.196 C  
BRANCH   9  10
HETATM   10  C   UNL     1     -11.022  10.852  66.331  1.00  0.00    -0.088 C  
BRANCH  10  11
HETATM   11  N   UNL     1     -11.447  11.762  65.287  1.00  0.00    -0.242 NA 
HETATM   12  C   UNL     1     -11.178  11.658  63.950  1.00  0.00    -0.397 A  
HETATM   13  C   UNL     1     -12.270  12.842  65.460  1.00  0.00    -0.463 A  
HETATM   14  N   UNL     1     -12.505  13.450  64.321  1.00  0.00    -0.634 NA 
HETATM   15  C   UNL     1     -11.832  12.722  63.375  1.00  0.00    -0.518 A  
ENDBRANCH  10  11
ENDBRANCH   9  10
BRANCH   9  16
HETATM   16  O   UNL     1      -8.759  10.910  67.189  1.00  0.00    -0.131 OA 
BRANCH  16  17
HETATM   17  C   UNL     1      -9.512  11.386  68.312  1.00  0.00    -0.187 C  
BRANCH  17  18
HETATM   18  C   UNL     1      -9.478  10.385  69.427  1.00  0.00    -0.204 A  
HETATM   19  C   UNL     1      -8.351   9.661  69.760  1.00  0.00    -0.174 A  
HETATM   20  S   UNL     1      -8.602   8.593  71.053  1.00  0.00    -0.190 SA 
HETATM   21  C   UNL     1     -10.257   9.055  71.225  1.00  0.00    -0.314 A  
HETATM   22  C   UNL     1     -10.599  10.043  70.286  1.00  0.00    -0.354 A  
HETATM   23  C   UNL     1     -11.931  10.537  70.305  1.00  0.00    -0.411 A  
HETATM   24  C   UNL     1     -12.869  10.056  71.225  1.00  0.00    -0.500 A  
HETATM   25  C   UNL     1     -12.508   9.076  72.136  1.00  0.00    -0.450 A  
HETATM   26  C   UNL     1     -11.208   8.567  72.148  1.00  0.00    -0.362 A  
HETATM   27 CL   UNL     1     -10.813   7.347  73.304  1.00  0.00    -0.437 Cl 
ENDBRANCH  17  18
ENDBRANCH  16  17
ENDBRANCH   9  16
ENDBRANCH   6   9
TORSDOF 6
ENDMDL
MODEL       36
REMARK 921   NORMALIZED FREE ENERGY PREDICTED BY IDOCK:   -6.16 KCAL/MOL
REMARK 922        TOTAL FREE ENERGY PREDICTED BY IDOCK:   -9.36 KCAL/MOL
REMARK 923 INTER-LIGAND FREE ENERGY PREDICTED BY IDOCK:   -8.95 KCAL/MOL
REMARK 924 INTRA-LIGAND FREE ENERGY PREDICTED BY IDOCK:   -0.41 KCAL/MOL
REMARK 927      BINDING AFFINITY PREDICTED BY RF-SCORE:    0.00 PKD
ROOT
HETATM    1 CL   UNL     1      -7.168  17.718  65.865  1.00  0.00    -0.316 Cl 
HETATM    2  C   UNL     1      -8.248  16.847  66.881  1.00  0.00    -0.213 A  
HETATM    3  C   UNL     1      -9.329  16.167  66.326  1.00  0.00    -0.351 A  
HETATM    4  C   UNL     1     -10.204  15.455  67.152  1.00  0.00    -0.251 A  
HETATM    5 CL   UNL     1     -11.531  14.646  66.400  1.00  0.00    -0.354 Cl 
HETATM    6  C   UNL     1     -10.000  15.408  68.541  1.00  0.00    -0.213 A  
HETATM    7  C   UNL     1      -8.890  16.095  69.074  1.00  0.00    -0.251 A  
HETATM    8  C   UNL     1      -8.029  16.824  68.254  1.00  0.00    -0.200 A  
ENDROOT
BRANCH   6   9
HETATM    9  C   UNL     1     -10.914  14.622  69.477  1.00  0.00    -0.245 C  
BRANCH   9  10
HETATM   10  C   UNL     1     -12.237  15.397  69.642  1.00  0.00    -0.282 C  
BRANCH  10  11
HETATM   11  N   UNL     1     -12.600  15.619  71.027  1.00  0.00    -0.452 NA 
HETATM   12  C   UNL     1     -13.843  15.481  71.580  1.00  0.00    -0.456 A  
HETATM   13  C   UNL     1     -11.729  15.924  72.037  1.00  0.00    -0.492 A  
HETATM   14  N   UNL     1     -12.350  16.028  73.188  1.00  0.00    -0.483 NA 
HETATM   15  C   UNL     1     -13.665  15.753  72.917  1.00  0.00    -0.551 A  
ENDBRANCH  10  11
ENDBRANCH   9  10
BRANCH   9  16
HETATM   16  O   UNL     1     -11.205  13.333  68.909  1.00  0.00    -0.253 OA 
BRANCH  16  17
HETATM   17  C   UNL     1     -11.997  12.498  69.763  1.00  0.00    -0.289 C  
BRANCH  17  18
HETATM   18  C   UNL     1     -11.457  11.100  69.776  1.00  0.00    -0.388 A  
HETATM   19  C   UNL     1     -10.374  10.700  69.019  1.00  0.00    -0.218 A  
HETATM   20  S   UNL     1      -9.989   9.061  69.220  1.00  0.00    -0.194 SA 
HETATM   21  C   UNL     1     -11.277   8.808  70.342  1.00  0.00    -0.223 A  
HETATM   22  C   UNL     1     -11.988  10.000  70.561  1.00  0.00    -0.357 A  
HETATM   23  C   UNL     1     -13.079   9.957  71.471  1.00  0.00    -0.516 A  
HETATM   24  C   UNL     1     -13.433   8.772  72.124  1.00  0.00    -0.469 A  
HETATM   25  C   UNL     1     -12.719   7.608  71.885  1.00  0.00    -0.320 A  
HETATM   26  C   UNL     1     -11.640   7.611  70.997  1.00  0.00    -0.282 A  
HETATM   27 CL   UNL     1     -10.787   6.133  70.735  1.00  0.00    -0.329 Cl 
ENDBRANCH  17  18
ENDBRANCH  16  17
ENDBRANCH   9  16
ENDBRANCH   6   9
TORSDOF 6
ENDMDL
MODEL       37
REMARK 921   NORMALIZED FREE ENERGY PREDICTED BY IDOCK:   -6.15 KCAL/MOL
REMARK 922        TOTAL FREE ENERGY PREDICTED BY IDOCK:   -9.36 KCAL/MOL
REMARK 923 INTER-LIGAND FREE ENERGY PREDICTED BY IDOCK:   -8.82 KCAL/MOL
REMARK 924 INTRA-LIGAND FREE ENERGY PREDICTED BY IDOCK:   -0.53 KCAL/MOL
REMARK 927      BINDING AFFINITY PREDICTED BY RF-SCORE:    0.00 PKD
ROOT
HETATM    1 CL   UNL     1      -5.360  17.791  68.472  1.00  0.00    -0.150 Cl 
HETATM    2  C   UNL     1      -6.900  17.089  68.772  1.00  0.00    -0.199 A  
HETATM    3  C   UNL     1      -8.056  17.739  68.348  1.00  0.00    -0.297 A  
HETATM    4  C   UNL     1      -9.308  17.165  68.589  1.00  0.00    -0.269 A  
HETATM    5 CL   UNL     1     -10.701  18.031  68.049  1.00  0.00    -0.357 Cl 
HETATM    6  C   UNL     1      -9.416  15.929  69.247  1.00  0.00    -0.260 A  
HETATM    7  C   UNL     1      -8.227  15.286  69.654  1.00  0.00    -0.115 A  
HETATM    8  C   UNL     1      -6.980  15.869  69.434  1.00  0.00    -0.211 A  
ENDROOT
BRANCH   6   9
HETATM    9  C   UNL     1     -10.759  15.252  69.508  1.00  0.00    -0.265 C  
BRANCH   9  10
HETATM   10  C   UNL     1     -11.635  16.200  70.350  1.00  0.00    -0.277 C  
BRANCH  10  11
HETATM   11  N   UNL     1     -12.190  15.568  71.530  1.00  0.00    -0.358 NA 
HETATM   12  C   UNL     1     -11.787  15.752  72.824  1.00  0.00    -0.478 A  
HETATM   13  C   UNL     1     -13.278  14.739  71.549  1.00  0.00    -0.356 A  
HETATM   14  N   UNL     1     -13.564  14.355  72.771  1.00  0.00    -0.594 NA 
HETATM   15  C   UNL     1     -12.645  14.979  73.572  1.00  0.00    -0.535 A  
ENDBRANCH  10  11
ENDBRANCH   9  10
BRANCH   9  16
HETATM   16  O   UNL     1     -11.428  14.998  68.260  1.00  0.00    -0.305 OA 
BRANCH  16  17
HETATM   17  C   UNL     1     -12.093  13.729  68.218  1.00  0.00    -0.279 C  
BRANCH  17  18
HETATM   18  C   UNL     1     -11.282  12.738  67.438  1.00  0.00    -0.337 A  
HETATM   19  C   UNL     1     -10.310  11.941  68.008  1.00  0.00    -0.196 A  
HETATM   20  S   UNL     1      -9.542  10.923  66.890  1.00  0.00    -0.181 SA 
HETATM   21  C   UNL     1     -10.486  11.517  65.572  1.00  0.00    -0.275 A  
HETATM   22  C   UNL     1     -11.398  12.491  66.011  1.00  0.00    -0.386 A  
HETATM   23  C   UNL     1     -12.258  13.074  65.041  1.00  0.00    -0.501 A  
HETATM   24  C   UNL     1     -12.198  12.692  63.697  1.00  0.00    -0.624 A  
HETATM   25  C   UNL     1     -11.284  11.733  63.288  1.00  0.00    -0.357 A  
HETATM   26  C   UNL     1     -10.423  11.138  64.213  1.00  0.00    -0.362 A  
HETATM   27 CL   UNL     1      -9.303   9.951  63.649  1.00  0.00    -0.296 Cl 
ENDBRANCH  17  18
ENDBRANCH  16  17
ENDBRANCH   9  16
ENDBRANCH   6   9
TORSDOF 6
ENDMDL
MODEL       38
REMARK 921   NORMALIZED FREE ENERGY PREDICTED BY IDOCK:   -6.14 KCAL/MOL
REMARK 922        TOTAL FREE ENERGY PREDICTED BY IDOCK:   -9.34 KCAL/MOL
REMARK 923 INTER-LIGAND FREE ENERGY PREDICTED BY IDOCK:   -8.21 KCAL/MOL
REMARK 924 INTRA-LIGAND FREE ENERGY PREDICTED BY IDOCK:   -1.12 KCAL/MOL
REMARK 927      BINDING AFFINITY PREDICTED BY RF-SCORE:    0.00 PKD
ROOT
HETATM    1 CL   UNL     1      -6.890   8.550  67.671  1.00  0.00    -0.070 Cl 
HETATM    2  C   UNL     1      -8.126   8.424  68.859  1.00  0.00    -0.114 A  
HETATM    3  C   UNL     1      -9.146   7.488  68.706  1.00  0.00    -0.135 A  
HETATM    4  C   UNL     1     -10.148   7.383  69.675  1.00  0.00    -0.186 A  
HETATM    5 CL   UNL     1     -11.390   6.212  69.415  1.00  0.00    -0.482 Cl 
HETATM    6  C   UNL     1     -10.134   8.206  70.813  1.00  0.00    -0.211 A  
HETATM    7  C   UNL     1      -9.082   9.135  70.949  1.00  0.00    -0.316 A  
HETATM    8  C   UNL     1      -8.094   9.256  69.972  1.00  0.00    -0.140 A  
ENDROOT
BRANCH   6   9
HETATM    9  C   UNL     1     -11.192   8.107  71.909  1.00  0.00    -0.290 C  
BRANCH   9  10
HETATM   10  C   UNL     1     -10.507   7.672  73.219  1.00  0.00    -0.355 C  
BRANCH  10  11
HETATM   11  N   UNL     1     -10.666   6.260  73.505  1.00  0.00    -0.264 NA 
HETATM   12  C   UNL     1     -10.074   5.558  74.519  1.00  0.00    -0.274 A  
HETATM   13  C   UNL     1     -11.512   5.407  72.850  1.00  0.00    -0.275 A  
HETATM   14  N   UNL     1     -11.462   4.200  73.361  1.00  0.00    -0.213 NA 
HETATM   15  C   UNL     1     -10.572   4.282  74.400  1.00  0.00    -0.218 A  
ENDBRANCH  10  11
ENDBRANCH   9  10
BRANCH   9  16
HETATM   16  O   UNL     1     -11.803   9.393  72.116  1.00  0.00    -0.310 OA 
BRANCH  16  17
HETATM   17  C   UNL     1     -12.760   9.740  71.106  1.00  0.00    -0.340 C  
BRANCH  17  18
HETATM   18  C   UNL     1     -12.364  11.016  70.426  1.00  0.00    -0.442 A  
HETATM   19  C   UNL     1     -11.602  11.055  69.276  1.00  0.00    -0.314 A  
HETATM   20  S   UNL     1     -11.295  12.632  68.732  1.00  0.00    -0.310 SA 
HETATM   21  C   UNL     1     -12.177  13.343  70.035  1.00  0.00    -0.298 A  
HETATM   22  C   UNL     1     -12.713  12.352  70.875  1.00  0.00    -0.273 A  
HETATM   23  C   UNL     1     -13.477  12.780  71.994  1.00  0.00    -0.540 A  
HETATM   24  C   UNL     1     -13.688  14.138  72.252  1.00  0.00    -0.623 A  
HETATM   25  C   UNL     1     -13.142  15.097  71.412  1.00  0.00    -0.499 A  
HETATM   26  C   UNL     1     -12.386  14.714  70.301  1.00  0.00    -0.349 A  
HETATM   27 CL   UNL     1     -11.728  15.950  69.289  1.00  0.00    -0.373 Cl 
ENDBRANCH  17  18
ENDBRANCH  16  17
ENDBRANCH   9  16
ENDBRANCH   6   9
TORSDOF 6
ENDMDL
MODEL       39
REMARK 921   NORMALIZED FREE ENERGY PREDICTED BY IDOCK:   -6.06 KCAL/MOL
REMARK 922        TOTAL FREE ENERGY PREDICTED BY IDOCK:   -9.23 KCAL/MOL
REMARK 923 INTER-LIGAND FREE ENERGY PREDICTED BY IDOCK:   -8.36 KCAL/MOL
REMARK 924 INTRA-LIGAND FREE ENERGY PREDICTED BY IDOCK:   -0.87 KCAL/MOL
REMARK 927      BINDING AFFINITY PREDICTED BY RF-SCORE:    0.00 PKD
ROOT
HETATM    1 CL   UNL     1     -12.249  13.466  63.232  1.00  0.00    -0.485 Cl 
HETATM    2  C   UNL     1     -11.927  13.364  64.918  1.00  0.00    -0.378 A  
HETATM    3  C   UNL     1     -11.765  14.527  65.668  1.00  0.00    -0.335 A  
HETATM    4  C   UNL     1     -11.507  14.443  67.039  1.00  0.00    -0.361 A  
HETATM    5 CL   UNL     1     -11.303  15.923  67.905  1.00  0.00    -0.300 Cl 
HETATM    6  C   UNL     1     -11.419  13.195  67.677  1.00  0.00    -0.366 A  
HETATM    7  C   UNL     1     -11.600  12.034  66.896  1.00  0.00    -0.389 A  
HETATM    8  C   UNL     1     -11.835  12.116  65.524  1.00  0.00    -0.350 A  
ENDROOT
BRANCH   6   9
HETATM    9  C   UNL     1     -11.166  13.056  69.176  1.00  0.00    -0.241 C  
BRANCH   9  10
HETATM   10  C   UNL     1     -12.517  13.129  69.914  1.00  0.00    -0.027 C  
BRANCH  10  11
HETATM   11  N   UNL     1     -12.573  14.188  70.901  1.00  0.00    -0.342 NA 
HETATM   12  C   UNL     1     -11.536  14.979  71.313  1.00  0.00    -0.335 A  
HETATM   13  C   UNL     1     -13.707  14.633  71.526  1.00  0.00    -0.419 A  
HETATM   14  N   UNL     1     -13.444  15.629  72.339  1.00  0.00    -0.492 NA 
HETATM   15  C   UNL     1     -12.098  15.854  72.214  1.00  0.00    -0.503 A  
ENDBRANCH  10  11
ENDBRANCH   9  10
BRANCH   9  16
HETATM   16  O   UNL     1     -10.560  11.781  69.454  1.00  0.00    -0.085 OA 
BRANCH  16  17
HETATM   17  C   UNL     1     -11.450  10.852  70.087  1.00  0.00    -0.319 C  
BRANCH  17  18
HETATM   18  C   UNL     1     -11.015   9.443  69.817  1.00  0.00    -0.234 A  
HETATM   19  C   UNL     1     -10.595   9.006  68.577  1.00  0.00    -0.155 A  
HETATM   20  S   UNL     1     -10.175   7.363  68.557  1.00  0.00    -0.186 SA 
HETATM   21  C   UNL     1     -10.546   7.160  70.231  1.00  0.00    -0.227 A  
HETATM   22  C   UNL     1     -10.982   8.370  70.795  1.00  0.00    -0.276 A  
HETATM   23  C   UNL     1     -11.320   8.370  72.176  1.00  0.00    -0.437 A  
HETATM   24  C   UNL     1     -11.223   7.205  72.945  1.00  0.00    -0.302 A  
HETATM   25  C   UNL     1     -10.797   6.022  72.362  1.00  0.00    -0.288 A  
HETATM   26  C   UNL     1     -10.456   5.984  71.008  1.00  0.00    -0.229 A  
HETATM   27 CL   UNL     1      -9.932   4.483  70.333  1.00  0.00    -0.298 Cl 
ENDBRANCH  17  18
ENDBRANCH  16  17
ENDBRANCH   9  16
ENDBRANCH   6   9
TORSDOF 6
ENDMDL
MODEL       40
REMARK 921   NORMALIZED FREE ENERGY PREDICTED BY IDOCK:   -6.05 KCAL/MOL
REMARK 922        TOTAL FREE ENERGY PREDICTED BY IDOCK:   -9.22 KCAL/MOL
REMARK 923 INTER-LIGAND FREE ENERGY PREDICTED BY IDOCK:   -8.52 KCAL/MOL
REMARK 924 INTRA-LIGAND FREE ENERGY PREDICTED BY IDOCK:   -0.71 KCAL/MOL
REMARK 927      BINDING AFFINITY PREDICTED BY RF-SCORE:    0.00 PKD
ROOT
HETATM    1 CL   UNL     1      -7.243  16.485  69.350  1.00  0.00    -0.210 Cl 
HETATM    2  C   UNL     1      -8.519  15.382  69.012  1.00  0.00    -0.229 A  
HETATM    3  C   UNL     1      -9.776  15.577  69.579  1.00  0.00    -0.282 A  
HETATM    4  C   UNL     1     -10.814  14.682  69.300  1.00  0.00    -0.258 A  
HETATM    5 CL   UNL     1     -12.342  14.975  70.048  1.00  0.00    -0.363 Cl 
HETATM    6  C   UNL     1     -10.607  13.590  68.442  1.00  0.00    -0.258 A  
HETATM    7  C   UNL     1      -9.328  13.424  67.871  1.00  0.00    -0.216 A  
HETATM    8  C   UNL     1      -8.287  14.303  68.167  1.00  0.00    -0.162 A  
ENDROOT
BRANCH   6   9
HETATM    9  C   UNL     1     -11.718  12.604  68.088  1.00  0.00    -0.347 C  
BRANCH   9  10
HETATM   10  C   UNL     1     -11.324  11.858  66.799  1.00  0.00    -0.330 C  
BRANCH  10  11
HETATM   11  N   UNL     1     -11.737  12.544  65.592  1.00  0.00    -0.403 NA 
HETATM   12  C   UNL     1     -11.484  12.161  64.304  1.00  0.00    -0.367 A  
HETATM   13  C   UNL     1     -12.534  13.656  65.544  1.00  0.00    -0.503 A  
HETATM   14  N   UNL     1     -12.766  14.023  64.306  1.00  0.00    -0.638 NA 
HETATM   15  C   UNL     1     -12.120  13.101  63.526  1.00  0.00    -0.514 A  
ENDBRANCH  10  11
ENDBRANCH   9  10
BRANCH   9  16
HETATM   16  O   UNL     1     -11.873  11.641  69.146  1.00  0.00    -0.292 OA 
BRANCH  16  17
HETATM   17  C   UNL     1     -11.025  10.494  69.002  1.00  0.00    -0.243 C  
BRANCH  17  18
HETATM   18  C   UNL     1     -11.276   9.516  70.110  1.00  0.00    -0.275 A  
HETATM   19  C   UNL     1     -11.834   9.871  71.321  1.00  0.00    -0.395 A  
HETATM   20  S   UNL     1     -11.991   8.564  72.392  1.00  0.00    -0.320 SA 
HETATM   21  C   UNL     1     -11.304   7.450  71.266  1.00  0.00    -0.265 A  
HETATM   22  C   UNL     1     -10.969   8.097  70.065  1.00  0.00    -0.199 A  
HETATM   23  C   UNL     1     -10.398   7.308  69.029  1.00  0.00    -0.208 A  
HETATM   24  C   UNL     1     -10.176   5.938  69.200  1.00  0.00    -0.275 A  
HETATM   25  C   UNL     1     -10.508   5.325  70.398  1.00  0.00    -0.322 A  
HETATM   26  C   UNL     1     -11.072   6.067  71.438  1.00  0.00    -0.274 A  
HETATM   27 CL   UNL     1     -11.466   5.254  72.910  1.00  0.00    -0.370 Cl 
ENDBRANCH  17  18
ENDBRANCH  16  17
ENDBRANCH   9  16
ENDBRANCH   6   9
TORSDOF 6
ENDMDL
MODEL       41
REMARK 921   NORMALIZED FREE ENERGY PREDICTED BY IDOCK:   -6.05 KCAL/MOL
REMARK 922        TOTAL FREE ENERGY PREDICTED BY IDOCK:   -9.22 KCAL/MOL
REMARK 923 INTER-LIGAND FREE ENERGY PREDICTED BY IDOCK:   -8.37 KCAL/MOL
REMARK 924 INTRA-LIGAND FREE ENERGY PREDICTED BY IDOCK:   -0.85 KCAL/MOL
REMARK 927      BINDING AFFINITY PREDICTED BY RF-SCORE:    0.00 PKD
ROOT
HETATM    1 CL   UNL     1     -12.885  15.396  73.479  1.00  0.00    -0.626 Cl 
HETATM    2  C   UNL     1     -12.380  14.981  71.888  1.00  0.00    -0.342 A  
HETATM    3  C   UNL     1     -11.783  15.941  71.075  1.00  0.00    -0.473 A  
HETATM    4  C   UNL     1     -11.369  15.601  69.783  1.00  0.00    -0.327 A  
HETATM    5 CL   UNL     1     -10.650  16.844  68.823  1.00  0.00    -0.343 Cl 
HETATM    6  C   UNL     1     -11.536  14.294  69.297  1.00  0.00    -0.350 A  
HETATM    7  C   UNL     1     -12.131  13.339  70.147  1.00  0.00    -0.403 A  
HETATM    8  C   UNL     1     -12.565  13.682  71.427  1.00  0.00    -0.415 A  
ENDROOT
BRANCH   6   9
HETATM    9  C   UNL     1     -11.075  13.872  67.905  1.00  0.00    -0.258 C  
BRANCH   9  10
HETATM   10  C   UNL     1     -11.832  14.712  66.857  1.00  0.00    -0.326 C  
BRANCH  10  11
HETATM   11  N   UNL     1     -12.054  14.007  65.611  1.00  0.00    -0.394 NA 
HETATM   12  C   UNL     1     -12.182  12.655  65.447  1.00  0.00    -0.459 A  
HETATM   13  C   UNL     1     -12.262  14.594  64.392  1.00  0.00    -0.452 A  
HETATM   14  N   UNL     1     -12.473  13.695  63.460  1.00  0.00    -0.791 NA 
HETATM   15  C   UNL     1     -12.427  12.486  64.104  1.00  0.00    -0.430 A  
ENDBRANCH  10  11
ENDBRANCH   9  10
BRANCH   9  16
HETATM   16  O   UNL     1      -9.665  14.121  67.760  1.00  0.00    -0.215 OA 
BRANCH  16  17
HETATM   17  C   UNL     1      -8.978  13.101  67.025  1.00  0.00    -0.228 C  
BRANCH  17  18
HETATM   18  C   UNL     1      -8.037  12.353  67.921  1.00  0.00    -0.161 A  
HETATM   19  C   UNL     1      -6.686  12.629  67.997  1.00  0.00    -0.095 A  
HETATM   20  S   UNL     1      -5.860  11.620  69.083  1.00  0.00    -0.065 SA 
HETATM   21  C   UNL     1      -7.294  10.754  69.501  1.00  0.00    -0.124 A  
HETATM   22  C   UNL     1      -8.404  11.261  68.805  1.00  0.00    -0.120 A  
HETATM   23  C   UNL     1      -9.667  10.656  69.048  1.00  0.00    -0.214 A  
HETATM   24  C   UNL     1      -9.800   9.593  69.948  1.00  0.00    -0.271 A  
HETATM   25  C   UNL     1      -8.688   9.106  70.616  1.00  0.00    -0.272 A  
HETATM   26  C   UNL     1      -7.431   9.676  70.403  1.00  0.00    -0.158 A  
HETATM   27 CL   UNL     1      -6.079   9.030  71.262  1.00  0.00    -0.056 Cl 
ENDBRANCH  17  18
ENDBRANCH  16  17
ENDBRANCH   9  16
ENDBRANCH   6   9
TORSDOF 6
ENDMDL
MODEL       42
REMARK 921   NORMALIZED FREE ENERGY PREDICTED BY IDOCK:   -6.03 KCAL/MOL
REMARK 922        TOTAL FREE ENERGY PREDICTED BY IDOCK:   -9.19 KCAL/MOL
REMARK 923 INTER-LIGAND FREE ENERGY PREDICTED BY IDOCK:   -8.55 KCAL/MOL
REMARK 924 INTRA-LIGAND FREE ENERGY PREDICTED BY IDOCK:   -0.64 KCAL/MOL
REMARK 927      BINDING AFFINITY PREDICTED BY RF-SCORE:    0.00 PKD
ROOT
HETATM    1 CL   UNL     1     -13.631  13.243  72.516  1.00  0.00    -0.683 Cl 
HETATM    2  C   UNL     1     -12.749  13.041  71.054  1.00  0.00    -0.262 A  
HETATM    3  C   UNL     1     -12.171  14.146  70.432  1.00  0.00    -0.427 A  
HETATM    4  C   UNL     1     -11.450  13.981  69.246  1.00  0.00    -0.295 A  
HETATM    5 CL   UNL     1     -10.773  15.394  68.520  1.00  0.00    -0.248 Cl 
HETATM    6  C   UNL     1     -11.291  12.707  68.675  1.00  0.00    -0.331 A  
HETATM    7  C   UNL     1     -11.875  11.605  69.333  1.00  0.00    -0.408 A  
HETATM    8  C   UNL     1     -12.613  11.772  70.505  1.00  0.00    -0.234 A  
ENDROOT
BRANCH   6   9
HETATM    9  C   UNL     1     -10.490  12.476  67.396  1.00  0.00    -0.219 C  
BRANCH   9  10
HETATM   10  C   UNL     1     -10.688  13.687  66.463  1.00  0.00    -0.284 C  
BRANCH  10  11
HETATM   11  N   UNL     1     -11.378  13.354  65.233  1.00  0.00    -0.293 NA 
HETATM   12  C   UNL     1     -11.493  12.114  64.669  1.00  0.00    -0.328 A  
HETATM   13  C   UNL     1     -12.109  14.225  64.471  1.00  0.00    -0.480 A  
HETATM   14  N   UNL     1     -12.646  13.620  63.438  1.00  0.00    -0.781 NA 
HETATM   15  C   UNL     1     -12.270  12.307  63.551  1.00  0.00    -0.568 A  
ENDBRANCH  10  11
ENDBRANCH   9  10
BRANCH   9  16
HETATM   16  O   UNL     1      -9.090  12.364  67.709  1.00  0.00    -0.177 OA 
BRANCH  16  17
HETATM   17  C   UNL     1      -8.440  11.280  67.033  1.00  0.00    -0.150 C  
BRANCH  17  18
HETATM   18  C   UNL     1      -9.137   9.986  67.326  1.00  0.00    -0.152 A  
HETATM   19  C   UNL     1      -9.832   9.268  66.374  1.00  0.00    -0.277 A  
HETATM   20  S   UNL     1     -10.531   7.850  66.986  1.00  0.00    -0.305 SA 
HETATM   21  C   UNL     1      -9.931   8.140  68.579  1.00  0.00    -0.190 A  
HETATM   22  C   UNL     1      -9.183   9.328  68.621  1.00  0.00    -0.135 A  
HETATM   23  C   UNL     1      -8.611   9.703  69.867  1.00  0.00    -0.218 A  
HETATM   24  C   UNL     1      -8.788   8.918  71.011  1.00  0.00    -0.285 A  
HETATM   25  C   UNL     1      -9.537   7.753  70.944  1.00  0.00    -0.173 A  
HETATM   26  C   UNL     1     -10.113   7.353  69.737  1.00  0.00    -0.193 A  
HETATM   27 CL   UNL     1     -11.038   5.894  69.711  1.00  0.00    -0.459 Cl 
ENDBRANCH  17  18
ENDBRANCH  16  17
ENDBRANCH   9  16
ENDBRANCH   6   9
TORSDOF 6
ENDMDL
MODEL       43
REMARK 921   NORMALIZED FREE ENERGY PREDICTED BY IDOCK:   -5.99 KCAL/MOL
REMARK 922        TOTAL FREE ENERGY PREDICTED BY IDOCK:   -9.14 KCAL/MOL
REMARK 923 INTER-LIGAND FREE ENERGY PREDICTED BY IDOCK:   -7.75 KCAL/MOL
REMARK 924 INTRA-LIGAND FREE ENERGY PREDICTED BY IDOCK:   -1.38 KCAL/MOL
REMARK 927      BINDING AFFINITY PREDICTED BY RF-SCORE:    0.00 PKD
ROOT
HETATM    1 CL   UNL     1      -6.821   9.164  64.295  1.00  0.00    -0.083 Cl 
HETATM    2  C   UNL     1      -7.954   9.343  65.577  1.00  0.00    -0.111 A  
HETATM    3  C   UNL     1      -8.876   8.332  65.836  1.00  0.00    -0.197 A  
HETATM    4  C   UNL     1      -9.794   8.476  66.881  1.00  0.00    -0.242 A  
HETATM    5 CL   UNL     1     -10.919   7.191  67.138  1.00  0.00    -0.402 Cl 
HETATM    6  C   UNL     1      -9.792   9.628  67.684  1.00  0.00    -0.202 A  
HETATM    7  C   UNL     1      -8.838  10.630  67.407  1.00  0.00    -0.132 A  
HETATM    8  C   UNL     1      -7.937  10.497  66.351  1.00  0.00    -0.137 A  
ENDROOT
BRANCH   6   9
HETATM    9  C   UNL     1     -10.757   9.816  68.851  1.00  0.00    -0.217 C  
BRANCH   9  10
HETATM   10  C   UNL     1     -10.350   8.859  69.988  1.00  0.00    -0.204 C  
BRANCH  10  11
HETATM   11  N   UNL     1     -11.464   8.452  70.820  1.00  0.00    -0.272 NA 
HETATM   12  C   UNL     1     -12.178   9.243  71.677  1.00  0.00    -0.370 A  
HETATM   13  C   UNL     1     -12.047   7.214  70.817  1.00  0.00    -0.288 A  
HETATM   14  N   UNL     1     -13.059   7.161  71.650  1.00  0.00    -0.382 NA 
HETATM   15  C   UNL     1     -13.152   8.417  72.189  1.00  0.00    -0.328 A  
ENDBRANCH  10  11
ENDBRANCH   9  10
BRANCH   9  16
HETATM   16  O   UNL     1     -10.678  11.168  69.338  1.00  0.00    -0.224 OA 
BRANCH  16  17
HETATM   17  C   UNL     1     -11.909  11.891  69.214  1.00  0.00    -0.318 C  
BRANCH  17  18
HETATM   18  C   UNL     1     -11.702  13.146  68.420  1.00  0.00    -0.386 A  
HETATM   19  C   UNL     1     -11.461  14.376  68.998  1.00  0.00    -0.283 A  
HETATM   20  S   UNL     1     -11.277  15.622  67.862  1.00  0.00    -0.296 SA 
HETATM   21  C   UNL     1     -11.521  14.556  66.527  1.00  0.00    -0.362 A  
HETATM   22  C   UNL     1     -11.731  13.239  66.971  1.00  0.00    -0.439 A  
HETATM   23  C   UNL     1     -11.939  12.237  65.985  1.00  0.00    -0.342 A  
HETATM   24  C   UNL     1     -11.937  12.549  64.622  1.00  0.00    -0.468 A  
HETATM   25  C   UNL     1     -11.735  13.857  64.210  1.00  0.00    -0.406 A  
HETATM   26  C   UNL     1     -11.526  14.869  65.150  1.00  0.00    -0.357 A  
HETATM   27 CL   UNL     1     -11.280  16.481  64.581  1.00  0.00    -0.306 Cl 
ENDBRANCH  17  18
ENDBRANCH  16  17
ENDBRANCH   9  16
ENDBRANCH   6   9
TORSDOF 6
ENDMDL
MODEL       44
REMARK 921   NORMALIZED FREE ENERGY PREDICTED BY IDOCK:   -5.98 KCAL/MOL
REMARK 922        TOTAL FREE ENERGY PREDICTED BY IDOCK:   -9.12 KCAL/MOL
REMARK 923 INTER-LIGAND FREE ENERGY PREDICTED BY IDOCK:   -7.60 KCAL/MOL
REMARK 924 INTRA-LIGAND FREE ENERGY PREDICTED BY IDOCK:   -1.52 KCAL/MOL
REMARK 927      BINDING AFFINITY PREDICTED BY RF-SCORE:    0.00 PKD
ROOT
HETATM    1 CL   UNL     1     -10.750   7.356  73.684  1.00  0.00    -0.364 Cl 
HETATM    2  C   UNL     1     -10.374   7.844  72.079  1.00  0.00    -0.225 A  
HETATM    3  C   UNL     1      -9.260   8.645  71.837  1.00  0.00    -0.345 A  
HETATM    4  C   UNL     1      -8.952   9.037  70.531  1.00  0.00    -0.213 A  
HETATM    5 CL   UNL     1      -7.566  10.042  70.305  1.00  0.00    -0.176 Cl 
HETATM    6  C   UNL     1      -9.749   8.622  69.451  1.00  0.00    -0.176 A  
HETATM    7  C   UNL     1     -10.863   7.800  69.723  1.00  0.00    -0.211 A  
HETATM    8  C   UNL     1     -11.184   7.427  71.028  1.00  0.00    -0.285 A  
ENDROOT
BRANCH   6   9
HETATM    9  C   UNL     1      -9.436   9.004  68.007  1.00  0.00    -0.142 C  
BRANCH   9  10
HETATM   10  C   UNL     1     -10.417   8.265  67.076  1.00  0.00    -0.314 C  
BRANCH  10  11
HETATM   11  N   UNL     1      -9.881   7.028  66.546  1.00  0.00    -0.149 NA 
HETATM   12  C   UNL     1     -10.472   5.795  66.586  1.00  0.00    -0.268 A  
HETATM   13  C   UNL     1      -8.719   6.907  65.832  1.00  0.00    -0.134 A  
HETATM   14  N   UNL     1      -8.519   5.667  65.454  1.00  0.00    -0.144 NA 
HETATM   15  C   UNL     1      -9.602   4.967  65.915  1.00  0.00    -0.164 A  
ENDBRANCH  10  11
ENDBRANCH   9  10
BRANCH   9  16
HETATM   16  O   UNL     1      -9.610  10.420  67.826  1.00  0.00    -0.150 OA 
BRANCH  16  17
HETATM   17  C   UNL     1     -10.957  10.793  67.507  1.00  0.00    -0.312 C  
BRANCH  17  18
HETATM   18  C   UNL     1     -11.344  12.039  68.245  1.00  0.00    -0.342 A  
HETATM   19  C   UNL     1     -11.086  13.310  67.772  1.00  0.00    -0.265 A  
HETATM   20  S   UNL     1     -11.623  14.533  68.818  1.00  0.00    -0.330 SA 
HETATM   21  C   UNL     1     -12.229  13.399  69.970  1.00  0.00    -0.298 A  
HETATM   22  C   UNL     1     -12.021  12.081  69.530  1.00  0.00    -0.346 A  
HETATM   23  C   UNL     1     -12.474  11.027  70.369  1.00  0.00    -0.397 A  
HETATM   24  C   UNL     1     -13.104  11.291  71.589  1.00  0.00    -0.513 A  
HETATM   25  C   UNL     1     -13.290  12.601  72.004  1.00  0.00    -0.555 A  
HETATM   26  C   UNL     1     -12.858  13.663  71.206  1.00  0.00    -0.344 A  
HETATM   27 CL   UNL     1     -13.115  15.274  71.772  1.00  0.00    -0.441 Cl 
ENDBRANCH  17  18
ENDBRANCH  16  17
ENDBRANCH   9  16
ENDBRANCH   6   9
TORSDOF 6
ENDMDL
MODEL       45
REMARK 921   NORMALIZED FREE ENERGY PREDICTED BY IDOCK:   -5.98 KCAL/MOL
REMARK 922        TOTAL FREE ENERGY PREDICTED BY IDOCK:   -9.12 KCAL/MOL
REMARK 923 INTER-LIGAND FREE ENERGY PREDICTED BY IDOCK:   -7.75 KCAL/MOL
REMARK 924 INTRA-LIGAND FREE ENERGY PREDICTED BY IDOCK:   -1.37 KCAL/MOL
REMARK 927      BINDING AFFINITY PREDICTED BY RF-SCORE:    0.00 PKD
ROOT
HETATM    1 CL   UNL     1     -11.679   7.663  72.514  1.00  0.00    -0.360 Cl 
HETATM    2  C   UNL     1     -11.565   9.024  71.469  1.00  0.00    -0.343 A  
HETATM    3  C   UNL     1     -10.506   9.123  70.569  1.00  0.00    -0.289 A  
HETATM    4  C   UNL     1     -10.416  10.228  69.716  1.00  0.00    -0.259 A  
HETATM    5 CL   UNL     1      -9.071  10.295  68.636  1.00  0.00    -0.144 Cl 
HETATM    6  C   UNL     1     -11.391  11.239  69.748  1.00  0.00    -0.348 A  
HETATM    7  C   UNL     1     -12.459  11.106  70.660  1.00  0.00    -0.448 A  
HETATM    8  C   UNL     1     -12.537  10.016  71.526  1.00  0.00    -0.525 A  
ENDROOT
BRANCH   6   9
HETATM    9  C   UNL     1     -11.347  12.448  68.818  1.00  0.00    -0.293 C  
BRANCH   9  10
HETATM   10  C   UNL     1     -11.982  12.058  67.469  1.00  0.00    -0.074 C  
BRANCH  10  11
HETATM   11  N   UNL     1     -11.718  13.015  66.414  1.00  0.00    -0.370 NA 
HETATM   12  C   UNL     1     -10.496  13.498  66.033  1.00  0.00    -0.299 A  
HETATM   13  C   UNL     1     -12.652  13.534  65.560  1.00  0.00    -0.481 A  
HETATM   14  N   UNL     1     -12.103  14.346  64.688  1.00  0.00    -0.453 NA 
HETATM   15  C   UNL     1     -10.763  14.331  64.971  1.00  0.00    -0.420 A  
ENDBRANCH  10  11
ENDBRANCH   9  10
BRANCH   9  16
HETATM   16  O   UNL     1     -12.107  13.530  69.386  1.00  0.00    -0.316 OA 
BRANCH  16  17
HETATM   17  C   UNL     1     -11.303  14.485  70.090  1.00  0.00    -0.197 C  
BRANCH  17  18
HETATM   18  C   UNL     1     -10.656  15.436  69.129  1.00  0.00    -0.248 A  
HETATM   19  C   UNL     1     -11.327  16.489  68.541  1.00  0.00    -0.231 A  
HETATM   20  S   UNL     1     -10.354  17.393  67.486  1.00  0.00    -0.353 SA 
HETATM   21  C   UNL     1      -8.973  16.397  67.770  1.00  0.00    -0.198 A  
HETATM   22  C   UNL     1      -9.273  15.378  68.689  1.00  0.00    -0.199 A  
HETATM   23  C   UNL     1      -8.232  14.474  69.035  1.00  0.00    -0.076 A  
HETATM   24  C   UNL     1      -6.954  14.594  68.480  1.00  0.00    -0.110 A  
HETATM   25  C   UNL     1      -6.685  15.605  67.569  1.00  0.00    -0.221 A  
HETATM   26  C   UNL     1      -7.683  16.511  67.205  1.00  0.00    -0.164 A  
HETATM   27 CL   UNL     1      -7.294  17.749  66.066  1.00  0.00    -0.329 Cl 
ENDBRANCH  17  18
ENDBRANCH  16  17
ENDBRANCH   9  16
ENDBRANCH   6   9
TORSDOF 6
ENDMDL
MODEL       46
REMARK 921   NORMALIZED FREE ENERGY PREDICTED BY IDOCK:   -5.97 KCAL/MOL
REMARK 922        TOTAL FREE ENERGY PREDICTED BY IDOCK:   -9.11 KCAL/MOL
REMARK 923 INTER-LIGAND FREE ENERGY PREDICTED BY IDOCK:   -8.31 KCAL/MOL
REMARK 924 INTRA-LIGAND FREE ENERGY PREDICTED BY IDOCK:   -0.81 KCAL/MOL
REMARK 927      BINDING AFFINITY PREDICTED BY RF-SCORE:    0.00 PKD
ROOT
HETATM    1 CL   UNL     1      -8.623  20.082  66.272  1.00  0.00    -0.362 Cl 
HETATM    2  C   UNL     1      -9.112  18.717  67.196  1.00  0.00    -0.288 A  
HETATM    3  C   UNL     1      -8.160  17.956  67.871  1.00  0.00    -0.244 A  
HETATM    4  C   UNL     1      -8.559  16.849  68.625  1.00  0.00    -0.267 A  
HETATM    5 CL   UNL     1      -7.325  15.942  69.424  1.00  0.00    -0.224 Cl 
HETATM    6  C   UNL     1      -9.915  16.497  68.722  1.00  0.00    -0.255 A  
HETATM    7  C   UNL     1     -10.859  17.293  68.039  1.00  0.00    -0.297 A  
HETATM    8  C   UNL     1     -10.460  18.385  67.268  1.00  0.00    -0.434 A  
ENDROOT
BRANCH   6   9
HETATM    9  C   UNL     1     -10.398  15.314  69.556  1.00  0.00    -0.262 C  
BRANCH   9  10
HETATM   10  C   UNL     1     -11.939  15.283  69.524  1.00  0.00    -0.330 C  
BRANCH  10  11
HETATM   11  N   UNL     1     -12.540  15.433  70.834  1.00  0.00    -0.406 NA 
HETATM   12  C   UNL     1     -11.921  15.862  71.975  1.00  0.00    -0.513 A  
HETATM   13  C   UNL     1     -13.865  15.249  71.125  1.00  0.00    -0.417 A  
HETATM   14  N   UNL     1     -14.114  15.497  72.390  1.00  0.00    -0.558 NA 
HETATM   15  C   UNL     1     -12.913  15.880  72.928  1.00  0.00    -0.499 A  
ENDBRANCH  10  11
ENDBRANCH   9  10
BRANCH   9  16
HETATM   16  O   UNL     1      -9.903  14.085  68.993  1.00  0.00    -0.128 OA 
BRANCH  16  17
HETATM   17  C   UNL     1     -10.343  13.855  67.649  1.00  0.00    -0.242 C  
BRANCH  17  18
HETATM   18  C   UNL     1      -9.649  12.660  67.068  1.00  0.00    -0.219 A  
HETATM   19  C   UNL     1      -8.708  11.923  67.758  1.00  0.00    -0.158 A  
HETATM   20  S   UNL     1      -8.076  10.635  66.853  1.00  0.00    -0.128 SA 
HETATM   21  C   UNL     1      -9.045  11.016  65.475  1.00  0.00    -0.207 A  
HETATM   22  C   UNL     1      -9.859  12.132  65.731  1.00  0.00    -0.264 A  
HETATM   23  C   UNL     1     -10.726  12.567  64.692  1.00  0.00    -0.341 A  
HETATM   24  C   UNL     1     -10.766  11.910  63.459  1.00  0.00    -0.504 A  
HETATM   25  C   UNL     1      -9.946  10.815  63.228  1.00  0.00    -0.369 A  
HETATM   26  C   UNL     1      -9.083  10.358  64.226  1.00  0.00    -0.238 A  
HETATM   27 CL   UNL     1      -8.083   8.992  63.885  1.00  0.00    -0.151 Cl 
ENDBRANCH  17  18
ENDBRANCH  16  17
ENDBRANCH   9  16
ENDBRANCH   6   9
TORSDOF 6
ENDMDL
MODEL       47
REMARK 921   NORMALIZED FREE ENERGY PREDICTED BY IDOCK:   -5.97 KCAL/MOL
REMARK 922        TOTAL FREE ENERGY PREDICTED BY IDOCK:   -9.11 KCAL/MOL
REMARK 923 INTER-LIGAND FREE ENERGY PREDICTED BY IDOCK:   -8.22 KCAL/MOL
REMARK 924 INTRA-LIGAND FREE ENERGY PREDICTED BY IDOCK:   -0.89 KCAL/MOL
REMARK 927      BINDING AFFINITY PREDICTED BY RF-SCORE:    0.00 PKD
ROOT
HETATM    1 CL   UNL     1     -10.207  19.301  68.526  1.00  0.00    -0.491 Cl 
HETATM    2  C   UNL     1     -10.348  17.615  68.217  1.00  0.00    -0.384 A  
HETATM    3  C   UNL     1     -10.408  17.151  66.905  1.00  0.00    -0.308 A  
HETATM    4  C   UNL     1     -10.518  15.780  66.654  1.00  0.00    -0.302 A  
HETATM    5 CL   UNL     1     -10.603  15.274  65.005  1.00  0.00    -0.447 Cl 
HETATM    6  C   UNL     1     -10.557  14.858  67.713  1.00  0.00    -0.262 A  
HETATM    7  C   UNL     1     -10.480  15.355  69.031  1.00  0.00    -0.249 A  
HETATM    8  C   UNL     1     -10.393  16.724  69.283  1.00  0.00    -0.309 A  
ENDROOT
BRANCH   6   9
HETATM    9  C   UNL     1     -10.649  13.351  67.486  1.00  0.00    -0.250 C  
BRANCH   9  10
HETATM   10  C   UNL     1      -9.302  12.853  66.925  1.00  0.00    -0.240 C  
BRANCH  10  11
HETATM   11  N   UNL     1      -9.438  11.713  66.041  1.00  0.00    -0.226 NA 
HETATM   12  C   UNL     1      -8.813  10.503  66.164  1.00  0.00    -0.159 A  
HETATM   13  C   UNL     1     -10.292  11.631  64.975  1.00  0.00    -0.281 A  
HETATM   14  N   UNL     1     -10.216  10.459  64.391  1.00  0.00    -0.286 NA 
HETATM   15  C   UNL     1      -9.301   9.748  65.122  1.00  0.00    -0.260 A  
ENDBRANCH  10  11
ENDBRANCH   9  10
BRANCH   9  16
HETATM   16  O   UNL     1     -10.901  12.683  68.735  1.00  0.00    -0.237 OA 
BRANCH  16  17
HETATM   17  C   UNL     1     -11.894  11.654  68.640  1.00  0.00    -0.308 C  
BRANCH  17  18
HETATM   18  C   UNL     1     -11.841  10.762  69.844  1.00  0.00    -0.413 A  
HETATM   19  C   UNL     1     -12.929  10.526  70.660  1.00  0.00    -0.285 A  
HETATM   20  S   UNL     1     -12.579   9.488  71.955  1.00  0.00    -0.393 SA 
HETATM   21  C   UNL     1     -10.930   9.310  71.477  1.00  0.00    -0.375 A  
HETATM   22  C   UNL     1     -10.666  10.047  70.311  1.00  0.00    -0.367 A  
HETATM   23  C   UNL     1      -9.347   9.996  69.783  1.00  0.00    -0.233 A  
HETATM   24  C   UNL     1      -8.347   9.240  70.404  1.00  0.00    -0.224 A  
HETATM   25  C   UNL     1      -8.631   8.528  71.559  1.00  0.00    -0.236 A  
HETATM   26  C   UNL     1      -9.916   8.553  72.105  1.00  0.00    -0.317 A  
HETATM   27 CL   UNL     1     -10.215   7.648  73.546  1.00  0.00    -0.380 Cl 
ENDBRANCH  17  18
ENDBRANCH  16  17
ENDBRANCH   9  16
ENDBRANCH   6   9
TORSDOF 6
ENDMDL
MODEL       48
REMARK 921   NORMALIZED FREE ENERGY PREDICTED BY IDOCK:   -5.92 KCAL/MOL
REMARK 922        TOTAL FREE ENERGY PREDICTED BY IDOCK:   -9.05 KCAL/MOL
REMARK 923 INTER-LIGAND FREE ENERGY PREDICTED BY IDOCK:   -7.95 KCAL/MOL
REMARK 924 INTRA-LIGAND FREE ENERGY PREDICTED BY IDOCK:   -1.09 KCAL/MOL
REMARK 927      BINDING AFFINITY PREDICTED BY RF-SCORE:    0.00 PKD
ROOT
HETATM    1 CL   UNL     1      -9.399   2.533  69.865  1.00  0.00    -0.199 Cl 
HETATM    2  C   UNL     1      -9.608   4.236  69.748  1.00  0.00    -0.209 A  
HETATM    3  C   UNL     1     -10.166   4.791  68.598  1.00  0.00    -0.060 A  
HETATM    4  C   UNL     1     -10.340   6.175  68.505  1.00  0.00    -0.207 A  
HETATM    5 CL   UNL     1     -11.024   6.797  67.047  1.00  0.00    -0.471 Cl 
HETATM    6  C   UNL     1      -9.967   7.018  69.565  1.00  0.00    -0.166 A  
HETATM    7  C   UNL     1      -9.417   6.427  70.722  1.00  0.00    -0.179 A  
HETATM    8  C   UNL     1      -9.223   5.049  70.807  1.00  0.00    -0.192 A  
ENDROOT
BRANCH   6   9
HETATM    9  C   UNL     1     -10.163   8.531  69.518  1.00  0.00    -0.206 C  
BRANCH   9  10
HETATM   10  C   UNL     1     -10.130   9.079  70.958  1.00  0.00    -0.282 C  
BRANCH  10  11
HETATM   11  N   UNL     1     -11.445   9.386  71.483  1.00  0.00    -0.376 NA 
HETATM   12  C   UNL     1     -12.210  10.480  71.188  1.00  0.00    -0.391 A  
HETATM   13  C   UNL     1     -12.182   8.575  72.304  1.00  0.00    -0.389 A  
HETATM   14  N   UNL     1     -13.349   9.109  72.579  1.00  0.00    -0.460 NA 
HETATM   15  C   UNL     1     -13.378  10.293  71.889  1.00  0.00    -0.383 A  
ENDBRANCH  10  11
ENDBRANCH   9  10
BRANCH   9  16
HETATM   16  O   UNL     1      -9.094   9.139  68.772  1.00  0.00    -0.135 OA 
BRANCH  16  17
HETATM   17  C   UNL     1      -9.260  10.550  68.584  1.00  0.00    -0.172 C  
BRANCH  17  18
HETATM   18  C   UNL     1      -9.813  10.836  67.220  1.00  0.00    -0.208 A  
HETATM   19  C   UNL     1      -9.520  10.070  66.109  1.00  0.00    -0.190 A  
HETATM   20  S   UNL     1     -10.272  10.629  64.696  1.00  0.00    -0.278 SA 
HETATM   21  C   UNL     1     -11.031  11.944  65.518  1.00  0.00    -0.297 A  
HETATM   22  C   UNL     1     -10.705  11.932  66.885  1.00  0.00    -0.285 A  
HETATM   23  C   UNL     1     -11.262  12.952  67.704  1.00  0.00    -0.317 A  
HETATM   24  C   UNL     1     -12.103  13.932  67.169  1.00  0.00    -0.422 A  
HETATM   25  C   UNL     1     -12.404  13.926  65.815  1.00  0.00    -0.518 A  
HETATM   26  C   UNL     1     -11.876  12.939  64.980  1.00  0.00    -0.372 A  
HETATM   27 CL   UNL     1     -12.281  12.979  63.302  1.00  0.00    -0.589 Cl 
ENDBRANCH  17  18
ENDBRANCH  16  17
ENDBRANCH   9  16
ENDBRANCH   6   9
TORSDOF 6
ENDMDL
MODEL       49
REMARK 921   NORMALIZED FREE ENERGY PREDICTED BY IDOCK:   -5.92 KCAL/MOL
REMARK 922        TOTAL FREE ENERGY PREDICTED BY IDOCK:   -9.04 KCAL/MOL
REMARK 923 INTER-LIGAND FREE ENERGY PREDICTED BY IDOCK:   -8.10 KCAL/MOL
REMARK 924 INTRA-LIGAND FREE ENERGY PREDICTED BY IDOCK:   -0.94 KCAL/MOL
REMARK 927      BINDING AFFINITY PREDICTED BY RF-SCORE:    0.00 PKD
ROOT
HETATM    1 CL   UNL     1      -7.928  20.507  66.897  1.00  0.00    -0.329 Cl 
HETATM    2  C   UNL     1      -8.553  18.916  66.712  1.00  0.00    -0.299 A  
HETATM    3  C   UNL     1      -7.746  17.815  66.989  1.00  0.00    -0.233 A  
HETATM    4  C   UNL     1      -8.257  16.521  66.842  1.00  0.00    -0.215 A  
HETATM    5 CL   UNL     1      -7.198  15.202  67.187  1.00  0.00    -0.186 Cl 
HETATM    6  C   UNL     1      -9.583  16.317  66.428  1.00  0.00    -0.316 A  
HETATM    7  C   UNL     1     -10.381  17.450  66.168  1.00  0.00    -0.329 A  
HETATM    8  C   UNL     1      -9.866  18.740  66.292  1.00  0.00    -0.382 A  
ENDROOT
BRANCH   6   9
HETATM    9  C   UNL     1     -10.190  14.924  66.280  1.00  0.00    -0.294 C  
BRANCH   9  10
HETATM   10  C   UNL     1     -11.643  14.961  66.794  1.00  0.00    -0.269 C  
BRANCH  10  11
HETATM   11  N   UNL     1     -11.752  14.716  68.218  1.00  0.00    -0.328 NA 
HETATM   12  C   UNL     1     -11.866  15.656  69.204  1.00  0.00    -0.362 A  
HETATM   13  C   UNL     1     -11.847  13.484  68.806  1.00  0.00    -0.355 A  
HETATM   14  N   UNL     1     -11.973  13.586  70.108  1.00  0.00    -0.333 NA 
HETATM   15  C   UNL     1     -11.988  14.932  70.367  1.00  0.00    -0.314 A  
ENDBRANCH  10  11
ENDBRANCH   9  10
BRANCH   9  16
HETATM   16  O   UNL     1     -10.204  14.541  64.893  1.00  0.00    -0.405 OA 
BRANCH  16  17
HETATM   17  C   UNL     1     -11.149  13.505  64.597  1.00  0.00    -0.374 C  
BRANCH  17  18
HETATM   18  C   UNL     1     -10.447  12.195  64.403  1.00  0.00    -0.352 A  
HETATM   19  C   UNL     1      -9.894  11.804  63.200  1.00  0.00    -0.336 A  
HETATM   20  S   UNL     1      -9.174  10.269  63.265  1.00  0.00    -0.314 SA 
HETATM   21  C   UNL     1      -9.582  10.054  64.928  1.00  0.00    -0.310 A  
HETATM   22  C   UNL     1     -10.263  11.179  65.425  1.00  0.00    -0.327 A  
HETATM   23  C   UNL     1     -10.661  11.159  66.789  1.00  0.00    -0.311 A  
HETATM   24  C   UNL     1     -10.386  10.060  67.608  1.00  0.00    -0.272 A  
HETATM   25  C   UNL     1      -9.720   8.959  67.092  1.00  0.00    -0.241 A  
HETATM   26  C   UNL     1      -9.312   8.943  65.756  1.00  0.00    -0.219 A  
HETATM   27 CL   UNL     1      -8.487   7.545  65.165  1.00  0.00    -0.091 Cl 
ENDBRANCH  17  18
ENDBRANCH  16  17
ENDBRANCH   9  16
ENDBRANCH   6   9
TORSDOF 6
ENDMDL
MODEL       50
REMARK 921   NORMALIZED FREE ENERGY PREDICTED BY IDOCK:   -5.90 KCAL/MOL
REMARK 922        TOTAL FREE ENERGY PREDICTED BY IDOCK:   -9.02 KCAL/MOL
REMARK 923 INTER-LIGAND FREE ENERGY PREDICTED BY IDOCK:   -7.99 KCAL/MOL
REMARK 924 INTRA-LIGAND FREE ENERGY PREDICTED BY IDOCK:   -1.03 KCAL/MOL
REMARK 927      BINDING AFFINITY PREDICTED BY RF-SCORE:    0.00 PKD
ROOT
HETATM    1 CL   UNL     1      -9.911  20.926  67.374  1.00  0.00    -0.417 Cl 
HETATM    2  C   UNL     1     -10.109  19.218  67.338  1.00  0.00    -0.389 A  
HETATM    3  C   UNL     1     -10.422  18.579  66.140  1.00  0.00    -0.447 A  
HETATM    4  C   UNL     1     -10.578  17.190  66.110  1.00  0.00    -0.201 A  
HETATM    5 CL   UNL     1     -10.980  16.464  64.596  1.00  0.00    -0.324 Cl 
HETATM    6  C   UNL     1     -10.411  16.424  67.276  1.00  0.00    -0.303 A  
HETATM    7  C   UNL     1     -10.081  17.096  68.472  1.00  0.00    -0.329 A  
HETATM    8  C   UNL     1      -9.948  18.483  68.507  1.00  0.00    -0.419 A  
ENDROOT
BRANCH   6   9
HETATM    9  C   UNL     1     -10.546  14.904  67.285  1.00  0.00    -0.272 C  
BRANCH   9  10
HETATM   10  C   UNL     1      -9.757  14.345  68.486  1.00  0.00    -0.225 C  
BRANCH  10  11
HETATM   11  N   UNL     1      -8.462  13.810  68.119  1.00  0.00    -0.165 NA 
HETATM   12  C   UNL     1      -8.104  12.491  68.071  1.00  0.00    -0.164 A  
HETATM   13  C   UNL     1      -7.396  14.544  67.673  1.00  0.00    -0.183 A  
HETATM   14  N   UNL     1      -6.374  13.774  67.384  1.00  0.00    -0.309 NA 
HETATM   15  C   UNL     1      -6.803  12.495  67.626  1.00  0.00    -0.136 A  
ENDBRANCH  10  11
ENDBRANCH   9  10
BRANCH   9  16
HETATM   16  O   UNL     1     -11.929  14.536  67.433  1.00  0.00    -0.394 OA 
BRANCH  16  17
HETATM   17  C   UNL     1     -12.490  13.940  66.256  1.00  0.00    -0.409 C  
BRANCH  17  18
HETATM   18  C   UNL     1     -11.708  12.723  65.861  1.00  0.00    -0.464 A  
HETATM   19  C   UNL     1     -11.208  12.525  64.590  1.00  0.00    -0.312 A  
HETATM   20  S   UNL     1     -10.376  11.056  64.423  1.00  0.00    -0.358 SA 
HETATM   21  C   UNL     1     -10.657  10.612  66.067  1.00  0.00    -0.125 A  
HETATM   22  C   UNL     1     -11.384  11.611  66.737  1.00  0.00    -0.354 A  
HETATM   23  C   UNL     1     -11.689  11.396  68.108  1.00  0.00    -0.355 A  
HETATM   24  C   UNL     1     -11.283  10.231  68.768  1.00  0.00    -0.260 A  
HETATM   25  C   UNL     1     -10.573   9.257  68.082  1.00  0.00    -0.248 A  
HETATM   26  C   UNL     1     -10.254   9.434  66.734  1.00  0.00    -0.250 A  
HETATM   27 CL   UNL     1      -9.369   8.189  65.928  1.00  0.00    -0.177 Cl 
ENDBRANCH  17  18
ENDBRANCH  16  17
ENDBRANCH   9  16
ENDBRANCH   6   9
TORSDOF 6
ENDMDL
MODEL       51
REMARK 921   NORMALIZED FREE ENERGY PREDICTED BY IDOCK:   -5.89 KCAL/MOL
REMARK 922        TOTAL FREE ENERGY PREDICTED BY IDOCK:   -9.01 KCAL/MOL
REMARK 923 INTER-LIGAND FREE ENERGY PREDICTED BY IDOCK:   -8.49 KCAL/MOL
REMARK 924 INTRA-LIGAND FREE ENERGY PREDICTED BY IDOCK:   -0.52 KCAL/MOL
REMARK 927      BINDING AFFINITY PREDICTED BY RF-SCORE:    0.00 PKD
ROOT
HETATM    1 CL   UNL     1     -12.725   9.048  72.544  1.00  0.00    -0.423 Cl 
HETATM    2  C   UNL     1     -12.171   9.982  71.211  1.00  0.00    -0.402 A  
HETATM    3  C   UNL     1     -12.494  11.334  71.126  1.00  0.00    -0.479 A  
HETATM    4  C   UNL     1     -12.040  12.093  70.043  1.00  0.00    -0.277 A  
HETATM    5 CL   UNL     1     -12.490  13.759  69.992  1.00  0.00    -0.344 Cl 
HETATM    6  C   UNL     1     -11.247  11.510  69.041  1.00  0.00    -0.324 A  
HETATM    7  C   UNL     1     -10.923  10.142  69.160  1.00  0.00    -0.270 A  
HETATM    8  C   UNL     1     -11.395   9.379  70.227  1.00  0.00    -0.261 A  
ENDROOT
BRANCH   6   9
HETATM    9  C   UNL     1     -10.707  12.307  67.856  1.00  0.00    -0.215 C  
BRANCH   9  10
HETATM   10  C   UNL     1     -11.897  12.843  67.037  1.00  0.00    -0.374 C  
BRANCH  10  11
HETATM   11  N   UNL     1     -11.788  12.563  65.620  1.00  0.00    -0.424 NA 
HETATM   12  C   UNL     1     -12.531  13.119  64.615  1.00  0.00    -0.373 A  
HETATM   13  C   UNL     1     -10.853  11.748  65.041  1.00  0.00    -0.295 A  
HETATM   14  N   UNL     1     -10.984  11.723  63.735  1.00  0.00    -0.394 NA 
HETATM   15  C   UNL     1     -12.023  12.573  63.459  1.00  0.00    -0.543 A  
ENDBRANCH  10  11
ENDBRANCH   9  10
BRANCH   9  16
HETATM   16  O   UNL     1      -9.935  13.425  68.330  1.00  0.00    -0.231 OA 
BRANCH  16  17
HETATM   17  C   UNL     1      -8.919  13.846  67.411  1.00  0.00    -0.210 C  
BRANCH  17  18
HETATM   18  C   UNL     1      -8.233  15.079  67.919  1.00  0.00    -0.146 A  
HETATM   19  C   UNL     1      -6.961  15.071  68.454  1.00  0.00    -0.109 A  
HETATM   20  S   UNL     1      -6.440  16.604  68.959  1.00  0.00    -0.203 SA 
HETATM   21  C   UNL     1      -7.919  17.357  68.481  1.00  0.00    -0.266 A  
HETATM   22  C   UNL     1      -8.800  16.416  67.923  1.00  0.00    -0.184 A  
HETATM   23  C   UNL     1     -10.064  16.885  67.471  1.00  0.00    -0.282 A  
HETATM   24  C   UNL     1     -10.418  18.233  67.579  1.00  0.00    -0.431 A  
HETATM   25  C   UNL     1      -9.533  19.141  68.141  1.00  0.00    -0.400 A  
HETATM   26  C   UNL     1      -8.282  18.717  68.595  1.00  0.00    -0.329 A  
HETATM   27 CL   UNL     1      -7.219  19.889  69.288  1.00  0.00    -0.302 Cl 
ENDBRANCH  17  18
ENDBRANCH  16  17
ENDBRANCH   9  16
ENDBRANCH   6   9
TORSDOF 6
ENDMDL
MODEL       52
REMARK 921   NORMALIZED FREE ENERGY PREDICTED BY IDOCK:   -5.86 KCAL/MOL
REMARK 922        TOTAL FREE ENERGY PREDICTED BY IDOCK:   -8.96 KCAL/MOL
REMARK 923 INTER-LIGAND FREE ENERGY PREDICTED BY IDOCK:   -7.95 KCAL/MOL
REMARK 924 INTRA-LIGAND FREE ENERGY PREDICTED BY IDOCK:   -1.01 KCAL/MOL
REMARK 927      BINDING AFFINITY PREDICTED BY RF-SCORE:    0.00 PKD
ROOT
HETATM    1 CL   UNL     1     -12.717  12.104  63.224  1.00  0.00    -0.558 Cl 
HETATM    2  C   UNL     1     -11.870  12.044  64.719  1.00  0.00    -0.254 A  
HETATM    3  C   UNL     1     -12.230  12.899  65.758  1.00  0.00    -0.498 A  
HETATM    4  C   UNL     1     -11.543  12.846  66.975  1.00  0.00    -0.362 A  
HETATM    5 CL   UNL     1     -12.032  13.944  68.215  1.00  0.00    -0.407 Cl 
HETATM    6  C   UNL     1     -10.497  11.930  67.169  1.00  0.00    -0.249 A  
HETATM    7  C   UNL     1     -10.162  11.067  66.104  1.00  0.00    -0.298 A  
HETATM    8  C   UNL     1     -10.831  11.134  64.883  1.00  0.00    -0.261 A  
ENDROOT
BRANCH   6   9
HETATM    9  C   UNL     1      -9.738  11.819  68.489  1.00  0.00    -0.178 C  
BRANCH   9  10
HETATM   10  C   UNL     1      -9.826  10.364  68.989  1.00  0.00    -0.212 C  
BRANCH  10  11
HETATM   11  N   UNL     1     -10.780  10.186  70.064  1.00  0.00    -0.288 NA 
HETATM   12  C   UNL     1     -12.036  10.722  70.143  1.00  0.00    -0.349 A  
HETATM   13  C   UNL     1     -10.610   9.370  71.150  1.00  0.00    -0.333 A  
HETATM   14  N   UNL     1     -11.664   9.390  71.931  1.00  0.00    -0.363 NA 
HETATM   15  C   UNL     1     -12.558  10.226  71.315  1.00  0.00    -0.418 A  
ENDBRANCH  10  11
ENDBRANCH   9  10
BRANCH   9  16
HETATM   16  O   UNL     1      -8.353  12.152  68.286  1.00  0.00    -0.163 OA 
BRANCH  16  17
HETATM   17  C   UNL     1      -8.139  13.076  67.212  1.00  0.00    -0.161 C  
BRANCH  17  18
HETATM   18  C   UNL     1      -8.132  14.484  67.726  1.00  0.00    -0.166 A  
HETATM   19  C   UNL     1      -7.412  14.881  68.835  1.00  0.00    -0.137 A  
HETATM   20  S   UNL     1      -7.598  16.527  69.196  1.00  0.00    -0.161 SA 
HETATM   21  C   UNL     1      -8.670  16.785  67.868  1.00  0.00    -0.203 A  
HETATM   22  C   UNL     1      -8.866  15.595  67.147  1.00  0.00    -0.228 A  
HETATM   23  C   UNL     1      -9.722  15.645  66.013  1.00  0.00    -0.378 A  
HETATM   24  C   UNL     1     -10.346  16.836  65.628  1.00  0.00    -0.284 A  
HETATM   25  C   UNL     1     -10.142  17.995  66.361  1.00  0.00    -0.384 A  
HETATM   26  C   UNL     1      -9.308  17.984  67.481  1.00  0.00    -0.257 A  
HETATM   27 CL   UNL     1      -9.090  19.456  68.358  1.00  0.00    -0.396 Cl 
ENDBRANCH  17  18
ENDBRANCH  16  17
ENDBRANCH   9  16
ENDBRANCH   6   9
TORSDOF 6
ENDMDL
MODEL       53
REMARK 921   NORMALIZED FREE ENERGY PREDICTED BY IDOCK:   -5.85 KCAL/MOL
REMARK 922        TOTAL FREE ENERGY PREDICTED BY IDOCK:   -8.95 KCAL/MOL
REMARK 923 INTER-LIGAND FREE ENERGY PREDICTED BY IDOCK:   -7.73 KCAL/MOL
REMARK 924 INTRA-LIGAND FREE ENERGY PREDICTED BY IDOCK:   -1.22 KCAL/MOL
REMARK 927      BINDING AFFINITY PREDICTED BY RF-SCORE:    0.00 PKD
ROOT
HETATM    1 CL   UNL     1      -9.808  20.684  66.957  1.00  0.00    -0.548 Cl 
HETATM    2  C   UNL     1      -9.890  18.984  67.203  1.00  0.00    -0.324 A  
HETATM    3  C   UNL     1     -10.206  18.142  66.140  1.00  0.00    -0.372 A  
HETATM    4  C   UNL     1     -10.268  16.759  66.341  1.00  0.00    -0.323 A  
HETATM    5 CL   UNL     1     -10.679  15.774  64.983  1.00  0.00    -0.458 Cl 
HETATM    6  C   UNL     1     -10.005  16.205  67.604  1.00  0.00    -0.241 A  
HETATM    7  C   UNL     1      -9.675  17.081  68.659  1.00  0.00    -0.282 A  
HETATM    8  C   UNL     1      -9.634  18.461  68.466  1.00  0.00    -0.368 A  
ENDROOT
BRANCH   6   9
HETATM    9  C   UNL     1     -10.036  14.701  67.862  1.00  0.00    -0.221 C  
BRANCH   9  10
HETATM   10  C   UNL     1      -8.983  14.362  68.935  1.00  0.00    -0.067 C  
BRANCH  10  11
HETATM   11  N   UNL     1      -7.930  13.493  68.449  1.00  0.00    -0.142 NA 
HETATM   12  C   UNL     1      -7.853  12.136  68.600  1.00  0.00    -0.078 A  
HETATM   13  C   UNL     1      -6.871  13.884  67.675  1.00  0.00    -0.179 A  
HETATM   14  N   UNL     1      -6.108  12.864  67.361  1.00  0.00    -0.273 NA 
HETATM   15  C   UNL     1      -6.709  11.772  67.929  1.00  0.00    -0.072 A  
ENDBRANCH  10  11
ENDBRANCH   9  10
BRANCH   9  16
HETATM   16  O   UNL     1     -11.332  14.315  68.353  1.00  0.00    -0.256 OA 
BRANCH  16  17
HETATM   17  C   UNL     1     -12.007  13.376  67.506  1.00  0.00    -0.339 C  
BRANCH  17  18
HETATM   18  C   UNL     1     -11.524  11.983  67.778  1.00  0.00    -0.394 A  
HETATM   19  C   UNL     1     -10.869  11.213  66.839  1.00  0.00    -0.279 A  
HETATM   20  S   UNL     1     -10.448   9.674  67.415  1.00  0.00    -0.253 SA 
HETATM   21  C   UNL     1     -11.140   9.973  68.968  1.00  0.00    -0.180 A  
HETATM   22  C   UNL     1     -11.681  11.269  69.032  1.00  0.00    -0.410 A  
HETATM   23  C   UNL     1     -12.282  11.672  70.256  1.00  0.00    -0.401 A  
HETATM   24  C   UNL     1     -12.335  10.810  71.356  1.00  0.00    -0.433 A  
HETATM   25  C   UNL     1     -11.800   9.534  71.264  1.00  0.00    -0.450 A  
HETATM   26  C   UNL     1     -11.200   9.103  70.079  1.00  0.00    -0.150 A  
HETATM   27 CL   UNL     1     -10.552   7.504  70.019  1.00  0.00    -0.235 Cl 
ENDBRANCH  17  18
ENDBRANCH  16  17
ENDBRANCH   9  16
ENDBRANCH   6   9
TORSDOF 6
ENDMDL
MODEL       54
REMARK 921   NORMALIZED FREE ENERGY PREDICTED BY IDOCK:   -5.85 KCAL/MOL
REMARK 922        TOTAL FREE ENERGY PREDICTED BY IDOCK:   -8.94 KCAL/MOL
REMARK 923 INTER-LIGAND FREE ENERGY PREDICTED BY IDOCK:   -8.04 KCAL/MOL
REMARK 924 INTRA-LIGAND FREE ENERGY PREDICTED BY IDOCK:   -0.91 KCAL/MOL
REMARK 927      BINDING AFFINITY PREDICTED BY RF-SCORE:    0.00 PKD
ROOT
HETATM    1 CL   UNL     1     -12.757  11.850  63.096  1.00  0.00    -0.522 Cl 
HETATM    2  C   UNL     1     -11.875  12.137  64.544  1.00  0.00    -0.343 A  
HETATM    3  C   UNL     1     -12.347  13.062  65.473  1.00  0.00    -0.527 A  
HETATM    4  C   UNL     1     -11.632  13.292  66.653  1.00  0.00    -0.365 A  
HETATM    5 CL   UNL     1     -12.265  14.462  67.754  1.00  0.00    -0.290 Cl 
HETATM    6  C   UNL     1     -10.444  12.592  66.920  1.00  0.00    -0.246 A  
HETATM    7  C   UNL     1      -9.997  11.652  65.968  1.00  0.00    -0.260 A  
HETATM    8  C   UNL     1     -10.698  11.438  64.781  1.00  0.00    -0.362 A  
ENDROOT
BRANCH   6   9
HETATM    9  C   UNL     1      -9.646  12.792  68.205  1.00  0.00    -0.211 C  
BRANCH   9  10
HETATM   10  C   UNL     1      -8.781  11.539  68.450  1.00  0.00    -0.160 C  
BRANCH  10  11
HETATM   11  N   UNL     1      -9.385  10.599  69.372  1.00  0.00    -0.121 NA 
HETATM   12  C   UNL     1      -8.739   9.646  70.110  1.00  0.00    -0.231 A  
HETATM   13  C   UNL     1     -10.707  10.569  69.724  1.00  0.00    -0.264 A  
HETATM   14  N   UNL     1     -10.944   9.629  70.608  1.00  0.00    -0.293 NA 
HETATM   15  C   UNL     1      -9.728   9.049  70.857  1.00  0.00    -0.264 A  
ENDBRANCH  10  11
ENDBRANCH   9  10
BRANCH   9  16
HETATM   16  O   UNL     1      -8.777  13.930  68.070  1.00  0.00    -0.164 OA 
BRANCH  16  17
HETATM   17  C   UNL     1      -9.001  14.941  69.061  1.00  0.00    -0.174 C  
BRANCH  17  18
HETATM   18  C   UNL     1      -8.304  16.212  68.680  1.00  0.00    -0.211 A  
HETATM   19  C   UNL     1      -6.934  16.369  68.737  1.00  0.00    -0.172 A  
HETATM   20  S   UNL     1      -6.420  17.914  68.261  1.00  0.00    -0.197 SA 
HETATM   21  C   UNL     1      -8.032  18.450  67.958  1.00  0.00    -0.276 A  
HETATM   22  C   UNL     1      -8.957  17.424  68.217  1.00  0.00    -0.268 A  
HETATM   23  C   UNL     1     -10.333  17.708  68.006  1.00  0.00    -0.375 A  
HETATM   24  C   UNL     1     -10.754  18.964  67.558  1.00  0.00    -0.509 A  
HETATM   25  C   UNL     1      -9.822  19.963  67.317  1.00  0.00    -0.536 A  
HETATM   26  C   UNL     1      -8.461  19.720  67.512  1.00  0.00    -0.322 A  
HETATM   27 CL   UNL     1      -7.344  21.000  67.198  1.00  0.00    -0.374 Cl 
ENDBRANCH  17  18
ENDBRANCH  16  17
ENDBRANCH   9  16
ENDBRANCH   6   9
TORSDOF 6
ENDMDL
MODEL       55
REMARK 921   NORMALIZED FREE ENERGY PREDICTED BY IDOCK:   -5.85 KCAL/MOL
REMARK 922        TOTAL FREE ENERGY PREDICTED BY IDOCK:   -8.94 KCAL/MOL
REMARK 923 INTER-LIGAND FREE ENERGY PREDICTED BY IDOCK:   -8.04 KCAL/MOL
REMARK 924 INTRA-LIGAND FREE ENERGY PREDICTED BY IDOCK:   -0.90 KCAL/MOL
REMARK 927      BINDING AFFINITY PREDICTED BY RF-SCORE:    0.00 PKD
ROOT
HETATM    1 CL   UNL     1     -12.711  10.688  70.754  1.00  0.00    -0.457 Cl 
HETATM    2  C   UNL     1     -11.989  12.107  70.104  1.00  0.00    -0.314 A  
HETATM    3  C   UNL     1     -12.222  13.342  70.703  1.00  0.00    -0.427 A  
HETATM    4  C   UNL     1     -11.630  14.495  70.177  1.00  0.00    -0.276 A  
HETATM    5 CL   UNL     1     -11.973  15.996  70.960  1.00  0.00    -0.437 Cl 
HETATM    6  C   UNL     1     -10.792  14.422  69.053  1.00  0.00    -0.267 A  
HETATM    7  C   UNL     1     -10.563  13.155  68.475  1.00  0.00    -0.274 A  
HETATM    8  C   UNL     1     -11.170  12.008  68.985  1.00  0.00    -0.313 A  
ENDROOT
BRANCH   6   9
HETATM    9  C   UNL     1     -10.105  15.649  68.461  1.00  0.00    -0.211 C  
BRANCH   9  10
HETATM   10  C   UNL     1     -11.150  16.770  68.299  1.00  0.00    -0.259 C  
BRANCH  10  11
HETATM   11  N   UNL     1     -10.627  17.948  67.635  1.00  0.00    -0.401 NA 
HETATM   12  C   UNL     1     -10.481  18.132  66.288  1.00  0.00    -0.361 A  
HETATM   13  C   UNL     1     -10.269  19.115  68.253  1.00  0.00    -0.401 A  
HETATM   14  N   UNL     1      -9.868  20.012  67.384  1.00  0.00    -0.395 NA 
HETATM   15  C   UNL     1      -9.996  19.412  66.158  1.00  0.00    -0.425 A  
ENDBRANCH  10  11
ENDBRANCH   9  10
BRANCH   9  16
HETATM   16  O   UNL     1      -9.073  16.110  69.352  1.00  0.00    -0.240 OA 
BRANCH  16  17
HETATM   17  C   UNL     1      -7.749  15.791  68.905  1.00  0.00    -0.186 C  
BRANCH  17  18
HETATM   18  C   UNL     1      -7.236  16.858  67.986  1.00  0.00    -0.168 A  
HETATM   19  C   UNL     1      -7.173  16.708  66.615  1.00  0.00    -0.241 A  
HETATM   20  S   UNL     1      -6.539  18.068  65.824  1.00  0.00    -0.213 SA 
HETATM   21  C   UNL     1      -6.312  18.928  67.304  1.00  0.00    -0.187 A  
HETATM   22  C   UNL     1      -6.740  18.159  68.399  1.00  0.00    -0.219 A  
HETATM   23  C   UNL     1      -6.626  18.734  69.694  1.00  0.00    -0.171 A  
HETATM   24  C   UNL     1      -6.105  20.020  69.872  1.00  0.00    -0.390 A  
HETATM   25  C   UNL     1      -5.682  20.755  68.776  1.00  0.00    -0.398 A  
HETATM   26  C   UNL     1      -5.779  20.223  67.488  1.00  0.00    -0.180 A  
HETATM   27 CL   UNL     1      -5.236  21.182  66.159  1.00  0.00    -0.235 Cl 
ENDBRANCH  17  18
ENDBRANCH  16  17
ENDBRANCH   9  16
ENDBRANCH   6   9
TORSDOF 6
ENDMDL
MODEL       56
REMARK 921   NORMALIZED FREE ENERGY PREDICTED BY IDOCK:   -5.84 KCAL/MOL
REMARK 922        TOTAL FREE ENERGY PREDICTED BY IDOCK:   -8.94 KCAL/MOL
REMARK 923 INTER-LIGAND FREE ENERGY PREDICTED BY IDOCK:   -7.73 KCAL/MOL
REMARK 924 INTRA-LIGAND FREE ENERGY PREDICTED BY IDOCK:   -1.21 KCAL/MOL
REMARK 927      BINDING AFFINITY PREDICTED BY RF-SCORE:    0.00 PKD
ROOT
HETATM    1 CL   UNL     1     -13.907   9.059  72.607  1.00  0.00    -0.475 Cl 
HETATM    2  C   UNL     1     -12.863   9.830  71.479  1.00  0.00    -0.405 A  
HETATM    3  C   UNL     1     -12.907  11.214  71.324  1.00  0.00    -0.515 A  
HETATM    4  C   UNL     1     -12.054  11.841  70.410  1.00  0.00    -0.352 A  
HETATM    5 CL   UNL     1     -12.171  13.557  70.258  1.00  0.00    -0.421 Cl 
HETATM    6  C   UNL     1     -11.141  11.091  69.650  1.00  0.00    -0.320 A  
HETATM    7  C   UNL     1     -11.109   9.694  69.837  1.00  0.00    -0.268 A  
HETATM    8  C   UNL     1     -11.975   9.065  70.732  1.00  0.00    -0.214 A  
ENDROOT
BRANCH   6   9
HETATM    9  C   UNL     1     -10.174  11.736  68.661  1.00  0.00    -0.201 C  
BRANCH   9  10
HETATM   10  C   UNL     1      -9.075  10.715  68.308  1.00  0.00    -0.153 C  
BRANCH  10  11
HETATM   11  N   UNL     1      -7.841  10.928  69.037  1.00  0.00    -0.141 NA 
HETATM   12  C   UNL     1      -6.938  11.936  68.842  1.00  0.00    -0.110 A  
HETATM   13  C   UNL     1      -7.417  10.194  70.112  1.00  0.00    -0.133 A  
HETATM   14  N   UNL     1      -6.280  10.651  70.583  1.00  0.00    -0.292 NA 
HETATM   15  C   UNL     1      -5.974  11.735  69.802  1.00  0.00    -0.126 A  
ENDBRANCH  10  11
ENDBRANCH   9  10
BRANCH   9  16
HETATM   16  O   UNL     1     -10.873  12.093  67.455  1.00  0.00    -0.227 OA 
BRANCH  16  17
HETATM   17  C   UNL     1     -10.008  12.557  66.410  1.00  0.00    -0.252 C  
BRANCH  17  18
HETATM   18  C   UNL     1     -10.310  13.987  66.076  1.00  0.00    -0.312 A  
HETATM   19  C   UNL     1     -10.911  14.377  64.896  1.00  0.00    -0.416 A  
HETATM   20  S   UNL     1     -11.120  16.056  64.779  1.00  0.00    -0.231 SA 
HETATM   21  C   UNL     1     -10.401  16.340  66.322  1.00  0.00    -0.326 A  
HETATM   22  C   UNL     1     -10.014  15.129  66.923  1.00  0.00    -0.243 A  
HETATM   23  C   UNL     1      -9.411  15.194  68.208  1.00  0.00    -0.201 A  
HETATM   24  C   UNL     1      -9.208  16.419  68.852  1.00  0.00    -0.259 A  
HETATM   25  C   UNL     1      -9.592  17.600  68.235  1.00  0.00    -0.306 A  
HETATM   26  C   UNL     1     -10.189  17.575  66.973  1.00  0.00    -0.327 A  
HETATM   27 CL   UNL     1     -10.646  19.075  66.250  1.00  0.00    -0.504 Cl 
ENDBRANCH  17  18
ENDBRANCH  16  17
ENDBRANCH   9  16
ENDBRANCH   6   9
TORSDOF 6
ENDMDL
MODEL       57
REMARK 921   NORMALIZED FREE ENERGY PREDICTED BY IDOCK:   -5.84 KCAL/MOL
REMARK 922        TOTAL FREE ENERGY PREDICTED BY IDOCK:   -8.93 KCAL/MOL
REMARK 923 INTER-LIGAND FREE ENERGY PREDICTED BY IDOCK:   -7.59 KCAL/MOL
REMARK 924 INTRA-LIGAND FREE ENERGY PREDICTED BY IDOCK:   -1.34 KCAL/MOL
REMARK 927      BINDING AFFINITY PREDICTED BY RF-SCORE:    0.00 PKD
ROOT
HETATM    1 CL   UNL     1     -10.520  20.442  65.796  1.00  0.00    -0.257 Cl 
HETATM    2  C   UNL     1     -10.343  18.920  66.576  1.00  0.00    -0.431 A  
HETATM    3  C   UNL     1      -9.948  17.804  65.841  1.00  0.00    -0.132 A  
HETATM    4  C   UNL     1      -9.800  16.567  66.477  1.00  0.00    -0.278 A  
HETATM    5 CL   UNL     1      -9.322  15.223  65.504  1.00  0.00    -0.155 Cl 
HETATM    6  C   UNL     1     -10.034  16.437  67.855  1.00  0.00    -0.243 A  
HETATM    7  C   UNL     1     -10.419  17.586  68.577  1.00  0.00    -0.361 A  
HETATM    8  C   UNL     1     -10.589  18.815  67.940  1.00  0.00    -0.406 A  
ENDROOT
BRANCH   6   9
HETATM    9  C   UNL     1      -9.858  15.113  68.595  1.00  0.00    -0.218 C  
BRANCH   9  10
HETATM   10  C   UNL     1      -8.574  15.188  69.444  1.00  0.00    -0.172 C  
BRANCH  10  11
HETATM   11  N   UNL     1      -7.444  14.520  68.831  1.00  0.00    -0.128 NA 
HETATM   12  C   UNL     1      -7.057  13.222  69.021  1.00  0.00    -0.044 A  
HETATM   13  C   UNL     1      -6.619  15.063  67.882  1.00  0.00    -0.158 A  
HETATM   14  N   UNL     1      -5.710  14.201  67.491  1.00  0.00    -0.354 NA 
HETATM   15  C   UNL     1      -5.974  13.053  68.191  1.00  0.00    -0.092 A  
ENDBRANCH  10  11
ENDBRANCH   9  10
BRANCH   9  16
HETATM   16  O   UNL     1     -10.976  14.892  69.473  1.00  0.00    -0.256 OA 
BRANCH  16  17
HETATM   17  C   UNL     1     -11.995  14.062  68.901  1.00  0.00    -0.352 C  
BRANCH  17  18
HETATM   18  C   UNL     1     -11.384  13.011  68.024  1.00  0.00    -0.327 A  
HETATM   19  C   UNL     1     -10.551  12.018  68.501  1.00  0.00    -0.231 A  
HETATM   20  S   UNL     1      -9.995  10.974  67.285  1.00  0.00    -0.185 SA 
HETATM   21  C   UNL     1     -10.851  11.820  66.048  1.00  0.00    -0.296 A  
HETATM   22  C   UNL     1     -11.572  12.899  66.588  1.00  0.00    -0.428 A  
HETATM   23  C   UNL     1     -12.340  13.693  65.694  1.00  0.00    -0.518 A  
HETATM   24  C   UNL     1     -12.376  13.411  64.324  1.00  0.00    -0.396 A  
HETATM   25  C   UNL     1     -11.650  12.346  63.815  1.00  0.00    -0.553 A  
HETATM   26  C   UNL     1     -10.885  11.543  64.664  1.00  0.00    -0.310 A  
HETATM   27 CL   UNL     1      -9.999  10.230  63.976  1.00  0.00    -0.308 Cl 
ENDBRANCH  17  18
ENDBRANCH  16  17
ENDBRANCH   9  16
ENDBRANCH   6   9
TORSDOF 6
ENDMDL
MODEL       58
REMARK 921   NORMALIZED FREE ENERGY PREDICTED BY IDOCK:   -5.84 KCAL/MOL
REMARK 922        TOTAL FREE ENERGY PREDICTED BY IDOCK:   -8.93 KCAL/MOL
REMARK 923 INTER-LIGAND FREE ENERGY PREDICTED BY IDOCK:   -7.96 KCAL/MOL
REMARK 924 INTRA-LIGAND FREE ENERGY PREDICTED BY IDOCK:   -0.97 KCAL/MOL
REMARK 927      BINDING AFFINITY PREDICTED BY RF-SCORE:    0.00 PKD
ROOT
HETATM    1 CL   UNL     1     -12.183  15.631  63.857  1.00  0.00     0.031 Cl 
HETATM    2  C   UNL     1     -11.876  14.192  64.747  1.00  0.00    -0.417 A  
HETATM    3  C   UNL     1     -11.204  13.131  64.145  1.00  0.00    -0.433 A  
HETATM    4  C   UNL     1     -10.950  11.963  64.870  1.00  0.00    -0.313 A  
HETATM    5 CL   UNL     1     -10.126  10.682  64.057  1.00  0.00    -0.400 Cl 
HETATM    6  C   UNL     1     -11.357  11.849  66.209  1.00  0.00    -0.394 A  
HETATM    7  C   UNL     1     -12.024  12.944  66.798  1.00  0.00    -0.418 A  
HETATM    8  C   UNL     1     -12.296  14.100  66.069  1.00  0.00    -0.470 A  
ENDROOT
BRANCH   6   9
HETATM    9  C   UNL     1     -11.079  10.604  67.047  1.00  0.00    -0.145 C  
BRANCH   9  10
HETATM   10  C   UNL     1      -9.606  10.633  67.502  1.00  0.00    -0.161 C  
BRANCH  10  11
HETATM   11  N   UNL     1      -8.983   9.325  67.508  1.00  0.00    -0.119 NA 
HETATM   12  C   UNL     1      -7.663   9.048  67.731  1.00  0.00    -0.097 A  
HETATM   13  C   UNL     1      -9.640   8.132  67.373  1.00  0.00    -0.160 A  
HETATM   14  N   UNL     1      -8.810   7.119  67.457  1.00  0.00    -0.120 NA 
HETATM   15  C   UNL     1      -7.579   7.676  67.681  1.00  0.00    -0.109 A  
ENDBRANCH  10  11
ENDBRANCH   9  10
BRANCH   9  16
HETATM   16  O   UNL     1     -11.919  10.601  68.215  1.00  0.00    -0.462 OA 
BRANCH  16  17
HETATM   17  C   UNL     1     -11.198  10.799  69.438  1.00  0.00    -0.276 C  
BRANCH  17  18
HETATM   18  C   UNL     1     -11.987  11.659  70.378  1.00  0.00    -0.448 A  
HETATM   19  C   UNL     1     -12.873  11.150  71.307  1.00  0.00    -0.412 A  
HETATM   20  S   UNL     1     -13.636  12.352  72.229  1.00  0.00    -0.018 SA 
HETATM   21  C   UNL     1     -12.807  13.626  71.410  1.00  0.00    -0.360 A  
HETATM   22  C   UNL     1     -11.936  13.109  70.436  1.00  0.00    -0.343 A  
HETATM   23  C   UNL     1     -11.171  14.037  69.678  1.00  0.00    -0.218 A  
HETATM   24  C   UNL     1     -11.282  15.415  69.893  1.00  0.00    -0.310 A  
HETATM   25  C   UNL     1     -12.154  15.899  70.855  1.00  0.00    -0.414 A  
HETATM   26  C   UNL     1     -12.922  15.018  71.620  1.00  0.00    -0.353 A  
HETATM   27 CL   UNL     1     -13.994  15.675  72.804  1.00  0.00    -0.623 Cl 
ENDBRANCH  17  18
ENDBRANCH  16  17
ENDBRANCH   9  16
ENDBRANCH   6   9
TORSDOF 6
ENDMDL
MODEL       59
REMARK 921   NORMALIZED FREE ENERGY PREDICTED BY IDOCK:   -5.83 KCAL/MOL
REMARK 922        TOTAL FREE ENERGY PREDICTED BY IDOCK:   -8.93 KCAL/MOL
REMARK 923 INTER-LIGAND FREE ENERGY PREDICTED BY IDOCK:   -7.82 KCAL/MOL
REMARK 924 INTRA-LIGAND FREE ENERGY PREDICTED BY IDOCK:   -1.11 KCAL/MOL
REMARK 927      BINDING AFFINITY PREDICTED BY RF-SCORE:    0.00 PKD
ROOT
HETATM    1 CL   UNL     1     -10.621  20.340  65.395  1.00  0.00    -0.252 Cl 
HETATM    2  C   UNL     1     -10.344  18.974  66.403  1.00  0.00    -0.448 A  
HETATM    3  C   UNL     1     -10.481  17.688  65.886  1.00  0.00    -0.247 A  
HETATM    4  C   UNL     1     -10.252  16.579  66.705  1.00  0.00    -0.295 A  
HETATM    5 CL   UNL     1     -10.454  15.014  66.004  1.00  0.00    -0.306 Cl 
HETATM    6  C   UNL     1      -9.872  16.744  68.047  1.00  0.00    -0.265 A  
HETATM    7  C   UNL     1      -9.728  18.058  68.541  1.00  0.00    -0.357 A  
HETATM    8  C   UNL     1      -9.978  19.165  67.731  1.00  0.00    -0.440 A  
ENDROOT
BRANCH   6   9
HETATM    9  C   UNL     1      -9.585  15.563  68.970  1.00  0.00    -0.238 C  
BRANCH   9  10
HETATM   10  C   UNL     1      -8.107  15.622  69.404  1.00  0.00    -0.227 C  
BRANCH  10  11
HETATM   11  N   UNL     1      -7.332  14.485  68.949  1.00  0.00    -0.122 NA 
HETATM   12  C   UNL     1      -6.171  14.014  69.496  1.00  0.00    -0.117 A  
HETATM   13  C   UNL     1      -7.687  13.636  67.936  1.00  0.00    -0.157 A  
HETATM   14  N   UNL     1      -6.802  12.680  67.783  1.00  0.00    -0.111 NA 
HETATM   15  C   UNL     1      -5.855  12.903  68.748  1.00  0.00    -0.069 A  
ENDBRANCH  10  11
ENDBRANCH   9  10
BRANCH   9  16
HETATM   16  O   UNL     1     -10.412  15.647  70.145  1.00  0.00    -0.305 OA 
BRANCH  16  17
HETATM   17  C   UNL     1     -11.812  15.515  69.868  1.00  0.00    -0.362 C  
BRANCH  17  18
HETATM   18  C   UNL     1     -12.387  14.352  70.619  1.00  0.00    -0.422 A  
HETATM   19  C   UNL     1     -13.185  14.494  71.737  1.00  0.00    -0.351 A  
HETATM   20  S   UNL     1     -13.684  13.011  72.392  1.00  0.00    -0.326 SA 
HETATM   21  C   UNL     1     -12.837  12.100  71.195  1.00  0.00    -0.217 A  
HETATM   22  C   UNL     1     -12.184  12.953  70.289  1.00  0.00    -0.362 A  
HETATM   23  C   UNL     1     -11.446  12.352  69.233  1.00  0.00    -0.349 A  
HETATM   24  C   UNL     1     -11.372  10.961  69.101  1.00  0.00    -0.350 A  
HETATM   25  C   UNL     1     -12.020  10.142  70.013  1.00  0.00    -0.210 A  
HETATM   26  C   UNL     1     -12.755  10.697  71.062  1.00  0.00    -0.415 A  
HETATM   27 CL   UNL     1     -13.541   9.630  72.169  1.00  0.00    -0.494 Cl 
ENDBRANCH  17  18
ENDBRANCH  16  17
ENDBRANCH   9  16
ENDBRANCH   6   9
TORSDOF 6
ENDMDL
MODEL       60
REMARK 921   NORMALIZED FREE ENERGY PREDICTED BY IDOCK:   -5.83 KCAL/MOL
REMARK 922        TOTAL FREE ENERGY PREDICTED BY IDOCK:   -8.92 KCAL/MOL
REMARK 923 INTER-LIGAND FREE ENERGY PREDICTED BY IDOCK:   -7.79 KCAL/MOL
REMARK 924 INTRA-LIGAND FREE ENERGY PREDICTED BY IDOCK:   -1.13 KCAL/MOL
REMARK 927      BINDING AFFINITY PREDICTED BY RF-SCORE:    0.00 PKD
ROOT
HETATM    1 CL   UNL     1      -7.704   7.145  64.598  1.00  0.00    -0.107 Cl 
HETATM    2  C   UNL     1      -8.754   7.865  65.754  1.00  0.00    -0.135 A  
HETATM    3  C   UNL     1      -9.379   7.074  66.715  1.00  0.00    -0.191 A  
HETATM    4  C   UNL     1     -10.229   7.662  67.657  1.00  0.00    -0.214 A  
HETATM    5 CL   UNL     1     -10.982   6.621  68.811  1.00  0.00    -0.317 Cl 
HETATM    6  C   UNL     1     -10.455   9.048  67.654  1.00  0.00    -0.324 A  
HETATM    7  C   UNL     1      -9.798   9.826  66.678  1.00  0.00    -0.275 A  
HETATM    8  C   UNL     1      -8.968   9.239  65.724  1.00  0.00    -0.234 A  
ENDROOT
BRANCH   6   9
HETATM    9  C   UNL     1     -11.353   9.735  68.679  1.00  0.00     0.083 C  
BRANCH   9  10
HETATM   10  C   UNL     1     -10.488  10.181  69.874  1.00  0.00    -0.275 C  
BRANCH  10  11
HETATM   11  N   UNL     1     -10.620   9.317  71.030  1.00  0.00    -0.289 NA 
HETATM   12  C   UNL     1      -9.605   8.746  71.747  1.00  0.00    -0.301 A  
HETATM   13  C   UNL     1     -11.797   8.997  71.651  1.00  0.00    -0.360 A  
HETATM   14  N   UNL     1     -11.592   8.226  72.693  1.00  0.00    -0.392 NA 
HETATM   15  C   UNL     1     -10.233   8.065  72.763  1.00  0.00    -0.319 A  
ENDBRANCH  10  11
ENDBRANCH   9  10
BRANCH   9  16
HETATM   16  O   UNL     1     -11.961  10.900  68.093  1.00  0.00    -0.581 OA 
BRANCH  16  17
HETATM   17  C   UNL     1     -11.731  12.101  68.842  1.00  0.00    -0.327 C  
BRANCH  17  18
HETATM   18  C   UNL     1     -11.487  13.255  67.917  1.00  0.00    -0.341 A  
HETATM   19  C   UNL     1     -11.524  13.144  66.542  1.00  0.00    -0.338 A  
HETATM   20  S   UNL     1     -11.197  14.606  65.746  1.00  0.00    -0.340 SA 
HETATM   21  C   UNL     1     -10.982  15.464  67.228  1.00  0.00    -0.317 A  
HETATM   22  C   UNL     1     -11.177  14.613  68.330  1.00  0.00    -0.301 A  
HETATM   23  C   UNL     1     -11.043  15.175  69.628  1.00  0.00    -0.283 A  
HETATM   24  C   UNL     1     -10.727  16.526  69.804  1.00  0.00    -0.298 A  
HETATM   25  C   UNL     1     -10.532  17.343  68.700  1.00  0.00    -0.355 A  
HETATM   26  C   UNL     1     -10.656  16.826  67.409  1.00  0.00    -0.291 A  
HETATM   27 CL   UNL     1     -10.402  17.887  66.070  1.00  0.00    -0.368 Cl 
ENDBRANCH  17  18
ENDBRANCH  16  17
ENDBRANCH   9  16
ENDBRANCH   6   9
TORSDOF 6
ENDMDL
MODEL       61
REMARK 921   NORMALIZED FREE ENERGY PREDICTED BY IDOCK:   -5.82 KCAL/MOL
REMARK 922        TOTAL FREE ENERGY PREDICTED BY IDOCK:   -8.91 KCAL/MOL
REMARK 923 INTER-LIGAND FREE ENERGY PREDICTED BY IDOCK:   -7.62 KCAL/MOL
REMARK 924 INTRA-LIGAND FREE ENERGY PREDICTED BY IDOCK:   -1.29 KCAL/MOL
REMARK 927      BINDING AFFINITY PREDICTED BY RF-SCORE:    0.00 PKD
ROOT
HETATM    1 CL   UNL     1     -12.282  14.016  64.025  1.00  0.00    -0.462 Cl 
HETATM    2  C   UNL     1     -11.423  12.661  64.644  1.00  0.00    -0.330 A  
HETATM    3  C   UNL     1     -10.721  11.827  63.778  1.00  0.00    -0.480 A  
HETATM    4  C   UNL     1     -10.019  10.728  64.283  1.00  0.00    -0.341 A  
HETATM    5 CL   UNL     1      -9.183   9.727  63.152  1.00  0.00    -0.278 Cl 
HETATM    6  C   UNL     1     -10.004  10.459  65.661  1.00  0.00    -0.337 A  
HETATM    7  C   UNL     1     -10.712  11.328  66.517  1.00  0.00    -0.323 A  
HETATM    8  C   UNL     1     -11.431  12.411  66.012  1.00  0.00    -0.431 A  
ENDROOT
BRANCH   6   9
HETATM    9  C   UNL     1      -9.230   9.287  66.259  1.00  0.00    -0.186 C  
BRANCH   9  10
HETATM   10  C   UNL     1      -8.100   9.843  67.148  1.00  0.00    -0.117 C  
BRANCH  10  11
HETATM   11  N   UNL     1      -6.917  10.218  66.401  1.00  0.00    -0.104 NA 
HETATM   12  C   UNL     1      -6.386   9.563  65.325  1.00  0.00    -0.073 A  
HETATM   13  C   UNL     1      -6.178  11.353  66.601  1.00  0.00    -0.137 A  
HETATM   14  N   UNL     1      -5.188  11.434  65.743  1.00  0.00    -0.279 NA 
HETATM   15  C   UNL     1      -5.308  10.328  64.944  1.00  0.00    -0.117 A  
ENDBRANCH  10  11
ENDBRANCH   9  10
BRANCH   9  16
HETATM   16  O   UNL     1     -10.105   8.489  67.076  1.00  0.00    -0.222 OA 
BRANCH  16  17
HETATM   17  C   UNL     1      -9.501   8.050  68.299  1.00  0.00    -0.141 C  
BRANCH  17  18
HETATM   18  C   UNL     1     -10.533   7.930  69.380  1.00  0.00    -0.222 A  
HETATM   19  C   UNL     1     -10.912   6.724  69.933  1.00  0.00    -0.291 A  
HETATM   20  S   UNL     1     -12.108   6.884  71.126  1.00  0.00    -0.378 SA 
HETATM   21  C   UNL     1     -12.177   8.600  70.947  1.00  0.00    -0.100 A  
HETATM   22  C   UNL     1     -11.263   9.037  69.972  1.00  0.00    -0.141 A  
HETATM   23  C   UNL     1     -11.194  10.433  69.714  1.00  0.00    -0.353 A  
HETATM   24  C   UNL     1     -12.006  11.339  70.403  1.00  0.00    -0.471 A  
HETATM   25  C   UNL     1     -12.904  10.882  71.355  1.00  0.00    -0.554 A  
HETATM   26  C   UNL     1     -13.000   9.517  71.636  1.00  0.00    -0.396 A  
HETATM   27 CL   UNL     1     -14.137   9.002  72.830  1.00  0.00    -0.356 Cl 
ENDBRANCH  17  18
ENDBRANCH  16  17
ENDBRANCH   9  16
ENDBRANCH   6   9
TORSDOF 6
ENDMDL
MODEL       62
REMARK 921   NORMALIZED FREE ENERGY PREDICTED BY IDOCK:   -5.79 KCAL/MOL
REMARK 922        TOTAL FREE ENERGY PREDICTED BY IDOCK:   -8.86 KCAL/MOL
REMARK 923 INTER-LIGAND FREE ENERGY PREDICTED BY IDOCK:   -7.37 KCAL/MOL
REMARK 924 INTRA-LIGAND FREE ENERGY PREDICTED BY IDOCK:   -1.49 KCAL/MOL
REMARK 927      BINDING AFFINITY PREDICTED BY RF-SCORE:    0.00 PKD
ROOT
HETATM    1 CL   UNL     1     -10.850  15.928  64.460  1.00  0.00    -0.243 Cl 
HETATM    2  C   UNL     1     -10.860  14.917  65.851  1.00  0.00    -0.334 A  
HETATM    3  C   UNL     1      -9.671  14.355  66.311  1.00  0.00    -0.330 A  
HETATM    4  C   UNL     1      -9.680  13.536  67.444  1.00  0.00    -0.229 A  
HETATM    5 CL   UNL     1      -8.174  12.860  67.951  1.00  0.00    -0.152 Cl 
HETATM    6  C   UNL     1     -10.875  13.281  68.136  1.00  0.00    -0.270 A  
HETATM    7  C   UNL     1     -12.061  13.874  67.656  1.00  0.00    -0.342 A  
HETATM    8  C   UNL     1     -12.058  14.673  66.513  1.00  0.00    -0.230 A  
ENDROOT
BRANCH   6   9
HETATM    9  C   UNL     1     -10.927  12.416  69.393  1.00  0.00    -0.010 C  
BRANCH   9  10
HETATM   10  C   UNL     1     -12.377  12.386  69.913  1.00  0.00    -0.048 C  
BRANCH  10  11
HETATM   11  N   UNL     1     -12.603  13.283  71.029  1.00  0.00    -0.354 NA 
HETATM   12  C   UNL     1     -11.983  14.480  71.256  1.00  0.00    -0.333 A  
HETATM   13  C   UNL     1     -13.548  13.114  72.004  1.00  0.00    -0.465 A  
HETATM   14  N   UNL     1     -13.536  14.112  72.857  1.00  0.00    -0.657 NA 
HETATM   15  C   UNL     1     -12.568  14.968  72.401  1.00  0.00    -0.342 A  
ENDBRANCH  10  11
ENDBRANCH   9  10
BRANCH   9  16
HETATM   16  O   UNL     1     -10.525  11.071  69.078  1.00  0.00    -0.204 OA 
BRANCH  16  17
HETATM   17  C   UNL     1     -11.246  10.503  67.977  1.00  0.00    -0.294 C  
BRANCH  17  18
HETATM   18  C   UNL     1     -10.297   9.995  66.934  1.00  0.00    -0.297 A  
HETATM   19  C   UNL     1      -9.329   9.045  67.191  1.00  0.00    -0.147 A  
HETATM   20  S   UNL     1      -8.388   8.668  65.831  1.00  0.00    -0.144 SA 
HETATM   21  C   UNL     1      -9.244   9.779  64.825  1.00  0.00    -0.261 A  
HETATM   22  C   UNL     1     -10.261  10.426  65.548  1.00  0.00    -0.316 A  
HETATM   23  C   UNL     1     -11.065  11.370  64.853  1.00  0.00    -0.235 A  
HETATM   24  C   UNL     1     -10.852  11.646  63.499  1.00  0.00    -0.497 A  
HETATM   25  C   UNL     1      -9.837  10.999  62.810  1.00  0.00    -0.262 A  
HETATM   26  C   UNL     1      -9.027  10.065  63.459  1.00  0.00    -0.256 A  
HETATM   27 CL   UNL     1      -7.777   9.290  62.553  1.00  0.00    -0.114 Cl 
ENDBRANCH  17  18
ENDBRANCH  16  17
ENDBRANCH   9  16
ENDBRANCH   6   9
TORSDOF 6
ENDMDL
MODEL       63
REMARK 921   NORMALIZED FREE ENERGY PREDICTED BY IDOCK:   -5.75 KCAL/MOL
REMARK 922        TOTAL FREE ENERGY PREDICTED BY IDOCK:   -8.81 KCAL/MOL
REMARK 923 INTER-LIGAND FREE ENERGY PREDICTED BY IDOCK:   -8.30 KCAL/MOL
REMARK 924 INTRA-LIGAND FREE ENERGY PREDICTED BY IDOCK:   -0.51 KCAL/MOL
REMARK 927      BINDING AFFINITY PREDICTED BY RF-SCORE:    0.00 PKD
ROOT
HETATM    1 CL   UNL     1      -9.230  19.526  66.397  1.00  0.00    -0.399 Cl 
HETATM    2  C   UNL     1      -9.576  17.885  66.776  1.00  0.00    -0.305 A  
HETATM    3  C   UNL     1     -10.517  17.580  67.756  1.00  0.00    -0.381 A  
HETATM    4  C   UNL     1     -10.801  16.246  68.061  1.00  0.00    -0.339 A  
HETATM    5 CL   UNL     1     -11.968  15.940  69.297  1.00  0.00    -0.327 Cl 
HETATM    6  C   UNL     1     -10.154  15.201  67.380  1.00  0.00    -0.229 A  
HETATM    7  C   UNL     1      -9.216  15.539  66.382  1.00  0.00    -0.339 A  
HETATM    8  C   UNL     1      -8.915  16.869  66.094  1.00  0.00    -0.271 A  
ENDROOT
BRANCH   6   9
HETATM    9  C   UNL     1     -10.452  13.731  67.661  1.00  0.00    -0.242 C  
BRANCH   9  10
HETATM   10  C   UNL     1     -11.833  13.385  67.069  1.00  0.00    -0.394 C  
BRANCH  10  11
HETATM   11  N   UNL     1     -11.825  13.277  65.624  1.00  0.00    -0.360 NA 
HETATM   12  C   UNL     1     -11.220  12.304  64.879  1.00  0.00    -0.319 A  
HETATM   13  C   UNL     1     -12.504  14.096  64.763  1.00  0.00    -0.373 A  
HETATM   14  N   UNL     1     -12.333  13.724  63.516  1.00  0.00    -0.760 NA 
HETATM   15  C   UNL     1     -11.537  12.610  63.576  1.00  0.00    -0.514 A  
ENDBRANCH  10  11
ENDBRANCH   9  10
BRANCH   9  16
HETATM   16  O   UNL     1      -9.461  12.902  67.028  1.00  0.00    -0.220 OA 
BRANCH  16  17
HETATM   17  C   UNL     1      -8.766  12.045  67.943  1.00  0.00    -0.170 C  
BRANCH  17  18
HETATM   18  C   UNL     1      -9.226  10.627  67.786  1.00  0.00    -0.151 A  
HETATM   19  C   UNL     1      -9.212   9.956  66.580  1.00  0.00    -0.155 A  
HETATM   20  S   UNL     1      -9.801   8.369  66.693  1.00  0.00    -0.279 SA 
HETATM   21  C   UNL     1     -10.110   8.514  68.385  1.00  0.00    -0.194 A  
HETATM   22  C   UNL     1      -9.743   9.787  68.852  1.00  0.00    -0.172 A  
HETATM   23  C   UNL     1      -9.929  10.061  70.235  1.00  0.00    -0.184 A  
HETATM   24  C   UNL     1     -10.458   9.097  71.099  1.00  0.00    -0.385 A  
HETATM   25  C   UNL     1     -10.819   7.851  70.612  1.00  0.00    -0.238 A  
HETATM   26  C   UNL     1     -10.650   7.546  69.259  1.00  0.00    -0.210 A  
HETATM   27 CL   UNL     1     -11.118   5.978  68.706  1.00  0.00    -0.391 Cl 
ENDBRANCH  17  18
ENDBRANCH  16  17
ENDBRANCH   9  16
ENDBRANCH   6   9
TORSDOF 6
ENDMDL
MODEL       64
REMARK 921   NORMALIZED FREE ENERGY PREDICTED BY IDOCK:   -5.73 KCAL/MOL
REMARK 922        TOTAL FREE ENERGY PREDICTED BY IDOCK:   -8.78 KCAL/MOL
REMARK 923 INTER-LIGAND FREE ENERGY PREDICTED BY IDOCK:   -8.07 KCAL/MOL
REMARK 924 INTRA-LIGAND FREE ENERGY PREDICTED BY IDOCK:   -0.71 KCAL/MOL
REMARK 927      BINDING AFFINITY PREDICTED BY RF-SCORE:    0.00 PKD
ROOT
HETATM    1 CL   UNL     1     -11.114   8.245  72.475  1.00  0.00    -0.442 Cl 
HETATM    2  C   UNL     1     -10.969   9.027  70.951  1.00  0.00    -0.268 A  
HETATM    3  C   UNL     1     -10.246   8.424  69.925  1.00  0.00    -0.201 A  
HETATM    4  C   UNL     1     -10.132   9.059  68.684  1.00  0.00    -0.189 A  
HETATM    5 CL   UNL     1      -9.209   8.262  67.462  1.00  0.00    -0.147 Cl 
HETATM    6  C   UNL     1     -10.750  10.299  68.454  1.00  0.00    -0.263 A  
HETATM    7  C   UNL     1     -11.488  10.880  69.507  1.00  0.00    -0.372 A  
HETATM    8  C   UNL     1     -11.583  10.259  70.751  1.00  0.00    -0.446 A  
ENDROOT
BRANCH   6   9
HETATM    9  C   UNL     1     -10.675  11.015  67.108  1.00  0.00    -0.265 C  
BRANCH   9  10
HETATM   10  C   UNL     1     -11.831  12.032  67.024  1.00  0.00    -0.176 C  
BRANCH  10  11
HETATM   11  N   UNL     1     -12.009  12.586  65.698  1.00  0.00    -0.488 NA 
HETATM   12  C   UNL     1     -11.711  11.979  64.509  1.00  0.00    -0.305 A  
HETATM   13  C   UNL     1     -12.593  13.790  65.412  1.00  0.00    -0.497 A  
HETATM   14  N   UNL     1     -12.646  14.000  64.117  1.00  0.00    -0.680 NA 
HETATM   15  C   UNL     1     -12.102  12.880  63.546  1.00  0.00    -0.555 A  
ENDBRANCH  10  11
ENDBRANCH   9  10
BRANCH   9  16
HETATM   16  O   UNL     1      -9.430  11.727  67.002  1.00  0.00    -0.180 OA 
BRANCH  16  17
HETATM   17  C   UNL     1      -8.888  12.122  68.269  1.00  0.00    -0.182 C  
BRANCH  17  18
HETATM   18  C   UNL     1      -8.492  13.568  68.241  1.00  0.00    -0.168 A  
HETATM   19  C   UNL     1      -7.194  13.992  68.037  1.00  0.00    -0.144 A  
HETATM   20  S   UNL     1      -7.032  15.680  68.068  1.00  0.00    -0.142 SA 
HETATM   21  C   UNL     1      -8.716  15.921  68.365  1.00  0.00    -0.183 A  
HETATM   22  C   UNL     1      -9.393  14.691  68.426  1.00  0.00    -0.201 A  
HETATM   23  C   UNL     1     -10.795  14.722  68.657  1.00  0.00    -0.257 A  
HETATM   24  C   UNL     1     -11.477  15.932  68.819  1.00  0.00    -0.393 A  
HETATM   25  C   UNL     1     -10.784  17.132  68.762  1.00  0.00    -0.289 A  
HETATM   26  C   UNL     1      -9.406  17.142  68.535  1.00  0.00    -0.274 A  
HETATM   27 CL   UNL     1      -8.594  18.664  68.474  1.00  0.00    -0.364 Cl 
ENDBRANCH  17  18
ENDBRANCH  16  17
ENDBRANCH   9  16
ENDBRANCH   6   9
TORSDOF 6
ENDMDL
MODEL       65
REMARK 921   NORMALIZED FREE ENERGY PREDICTED BY IDOCK:   -5.70 KCAL/MOL
REMARK 922        TOTAL FREE ENERGY PREDICTED BY IDOCK:   -8.74 KCAL/MOL
REMARK 923 INTER-LIGAND FREE ENERGY PREDICTED BY IDOCK:   -7.95 KCAL/MOL
REMARK 924 INTRA-LIGAND FREE ENERGY PREDICTED BY IDOCK:   -0.79 KCAL/MOL
REMARK 927      BINDING AFFINITY PREDICTED BY RF-SCORE:    0.00 PKD
ROOT
HETATM    1 CL   UNL     1     -14.323  15.180  72.456  1.00  0.00    -0.439 Cl 
HETATM    2  C   UNL     1     -13.210  14.575  71.293  1.00  0.00    -0.357 A  
HETATM    3  C   UNL     1     -12.874  13.224  71.288  1.00  0.00    -0.398 A  
HETATM    4  C   UNL     1     -11.973  12.732  70.339  1.00  0.00    -0.249 A  
HETATM    5 CL   UNL     1     -11.589  11.050  70.399  1.00  0.00    -0.401 Cl 
HETATM    6  C   UNL     1     -11.406  13.586  69.379  1.00  0.00    -0.293 A  
HETATM    7  C   UNL     1     -11.775  14.947  69.398  1.00  0.00    -0.349 A  
HETATM    8  C   UNL     1     -12.656  15.443  70.358  1.00  0.00    -0.433 A  
ENDROOT
BRANCH   6   9
HETATM    9  C   UNL     1     -10.439  13.088  68.308  1.00  0.00    -0.250 C  
BRANCH   9  10
HETATM   10  C   UNL     1     -11.251  12.431  67.175  1.00  0.00    -0.298 C  
BRANCH  10  11
HETATM   11  N   UNL     1     -10.711  11.155  66.750  1.00  0.00    -0.267 NA 
HETATM   12  C   UNL     1     -10.847   9.954  67.390  1.00  0.00    -0.227 A  
HETATM   13  C   UNL     1     -10.041  10.927  65.579  1.00  0.00    -0.267 A  
HETATM   14  N   UNL     1      -9.710   9.663  65.457  1.00  0.00    -0.297 NA 
HETATM   15  C   UNL     1     -10.207   9.048  66.577  1.00  0.00    -0.248 A  
ENDBRANCH  10  11
ENDBRANCH   9  10
BRANCH   9  16
HETATM   16  O   UNL     1      -9.702  14.196  67.761  1.00  0.00    -0.215 OA 
BRANCH  16  17
HETATM   17  C   UNL     1      -8.525  14.525  68.510  1.00  0.00    -0.166 C  
BRANCH  17  18
HETATM   18  C   UNL     1      -7.907  15.787  67.988  1.00  0.00    -0.138 A  
HETATM   19  C   UNL     1      -6.663  15.829  67.390  1.00  0.00    -0.194 A  
HETATM   20  S   UNL     1      -6.209  17.389  66.906  1.00  0.00    -0.196 SA 
HETATM   21  C   UNL     1      -7.676  18.089  67.488  1.00  0.00    -0.213 A  
HETATM   22  C   UNL     1      -8.512  17.106  68.043  1.00  0.00    -0.219 A  
HETATM   23  C   UNL     1      -9.768  17.524  68.561  1.00  0.00    -0.319 A  
HETATM   24  C   UNL     1     -10.157  18.867  68.521  1.00  0.00    -0.460 A  
HETATM   25  C   UNL     1      -9.310  19.820  67.975  1.00  0.00    -0.444 A  
HETATM   26  C   UNL     1      -8.069  19.445  67.456  1.00  0.00    -0.281 A  
HETATM   27 CL   UNL     1      -7.053  20.673  66.789  1.00  0.00    -0.333 Cl 
ENDBRANCH  17  18
ENDBRANCH  16  17
ENDBRANCH   9  16
ENDBRANCH   6   9
TORSDOF 6
ENDMDL
MODEL       66
REMARK 921   NORMALIZED FREE ENERGY PREDICTED BY IDOCK:   -5.69 KCAL/MOL
REMARK 922        TOTAL FREE ENERGY PREDICTED BY IDOCK:   -8.74 KCAL/MOL
REMARK 923 INTER-LIGAND FREE ENERGY PREDICTED BY IDOCK:   -8.45 KCAL/MOL
REMARK 924 INTRA-LIGAND FREE ENERGY PREDICTED BY IDOCK:   -0.28 KCAL/MOL
REMARK 927      BINDING AFFINITY PREDICTED BY RF-SCORE:    0.00 PKD
ROOT
HETATM    1 CL   UNL     1     -11.816  12.219  62.992  1.00  0.00    -0.261 Cl 
HETATM    2  C   UNL     1     -11.557  12.851  64.570  1.00  0.00    -0.350 A  
HETATM    3  C   UNL     1     -10.284  12.816  65.133  1.00  0.00    -0.297 A  
HETATM    4  C   UNL     1     -10.073  13.334  66.415  1.00  0.00    -0.290 A  
HETATM    5 CL   UNL     1      -8.473  13.245  67.058  1.00  0.00    -0.177 Cl 
HETATM    6  C   UNL     1     -11.132  13.902  67.142  1.00  0.00    -0.312 A  
HETATM    7  C   UNL     1     -12.408  13.936  66.542  1.00  0.00    -0.447 A  
HETATM    8  C   UNL     1     -12.624  13.400  65.273  1.00  0.00    -0.518 A  
ENDROOT
BRANCH   6   9
HETATM    9  C   UNL     1     -10.942  14.503  68.532  1.00  0.00    -0.249 C  
BRANCH   9  10
HETATM   10  C   UNL     1     -11.739  15.820  68.614  1.00  0.00    -0.344 C  
BRANCH  10  11
HETATM   11  N   UNL     1     -10.938  16.992  68.322  1.00  0.00    -0.335 NA 
HETATM   12  C   UNL     1     -10.686  17.525  67.088  1.00  0.00    -0.191 A  
HETATM   13  C   UNL     1     -10.367  17.816  69.253  1.00  0.00    -0.065 A  
HETATM   14  N   UNL     1      -9.735  18.815  68.683  1.00  0.00    -0.373 NA 
HETATM   15  C   UNL     1      -9.928  18.645  67.337  1.00  0.00    -0.332 A  
ENDBRANCH  10  11
ENDBRANCH   9  10
BRANCH   9  16
HETATM   16  O   UNL     1     -11.449  13.598  69.529  1.00  0.00    -0.272 OA 
BRANCH  16  17
HETATM   17  C   UNL     1     -11.966  12.378  68.983  1.00  0.00    -0.241 C  
BRANCH  17  18
HETATM   18  C   UNL     1     -11.220  11.200  69.535  1.00  0.00    -0.341 A  
HETATM   19  C   UNL     1      -9.971  10.819  69.088  1.00  0.00    -0.187 A  
HETATM   20  S   UNL     1      -9.371   9.444  69.880  1.00  0.00    -0.231 SA 
HETATM   21  C   UNL     1     -10.780   9.293  70.867  1.00  0.00    -0.301 A  
HETATM   22  C   UNL     1     -11.700  10.317  70.584  1.00  0.00    -0.438 A  
HETATM   23  C   UNL     1     -12.913  10.336  71.323  1.00  0.00    -0.517 A  
HETATM   24  C   UNL     1     -13.183   9.370  72.298  1.00  0.00    -0.528 A  
HETATM   25  C   UNL     1     -12.262   8.366  72.554  1.00  0.00    -0.381 A  
HETATM   26  C   UNL     1     -11.058   8.315  71.847  1.00  0.00    -0.292 A  
HETATM   27 CL   UNL     1      -9.947   7.042  72.205  1.00  0.00    -0.184 Cl 
ENDBRANCH  17  18
ENDBRANCH  16  17
ENDBRANCH   9  16
ENDBRANCH   6   9
TORSDOF 6
ENDMDL
MODEL       67
REMARK 921   NORMALIZED FREE ENERGY PREDICTED BY IDOCK:   -5.69 KCAL/MOL
REMARK 922        TOTAL FREE ENERGY PREDICTED BY IDOCK:   -8.73 KCAL/MOL
REMARK 923 INTER-LIGAND FREE ENERGY PREDICTED BY IDOCK:   -8.25 KCAL/MOL
REMARK 924 INTRA-LIGAND FREE ENERGY PREDICTED BY IDOCK:   -0.48 KCAL/MOL
REMARK 927      BINDING AFFINITY PREDICTED BY RF-SCORE:    0.00 PKD
ROOT
HETATM    1 CL   UNL     1     -10.122   7.044  74.004  1.00  0.00    -0.376 Cl 
HETATM    2  C   UNL     1     -10.297   8.075  72.640  1.00  0.00    -0.329 A  
HETATM    3  C   UNL     1     -11.546   8.606  72.324  1.00  0.00    -0.424 A  
HETATM    4  C   UNL     1     -11.687   9.448  71.217  1.00  0.00    -0.360 A  
HETATM    5 CL   UNL     1     -13.265  10.058  70.874  1.00  0.00    -0.400 Cl 
HETATM    6  C   UNL     1     -10.578   9.777  70.420  1.00  0.00    -0.365 A  
HETATM    7  C   UNL     1      -9.323   9.237  70.771  1.00  0.00    -0.322 A  
HETATM    8  C   UNL     1      -9.186   8.379  71.862  1.00  0.00    -0.306 A  
ENDROOT
BRANCH   6   9
HETATM    9  C   UNL     1     -10.680  10.713  69.219  1.00  0.00    -0.238 C  
BRANCH   9  10
HETATM   10  C   UNL     1     -11.255   9.925  68.026  1.00  0.00    -0.061 C  
BRANCH  10  11
HETATM   11  N   UNL     1     -10.295   9.717  66.962  1.00  0.00    -0.238 NA 
HETATM   12  C   UNL     1     -10.108  10.506  65.860  1.00  0.00    -0.260 A  
HETATM   13  C   UNL     1      -9.346   8.731  66.929  1.00  0.00    -0.167 A  
HETATM   14  N   UNL     1      -8.598   8.824  65.855  1.00  0.00    -0.144 NA 
HETATM   15  C   UNL     1      -9.062   9.925  65.184  1.00  0.00    -0.211 A  
ENDBRANCH  10  11
ENDBRANCH   9  10
BRANCH   9  16
HETATM   16  O   UNL     1     -11.570  11.802  69.522  1.00  0.00    -0.287 OA 
BRANCH  16  17
HETATM   17  C   UNL     1     -11.896  12.607  68.381  1.00  0.00    -0.301 C  
BRANCH  17  18
HETATM   18  C   UNL     1     -11.545  14.042  68.635  1.00  0.00    -0.360 A  
HETATM   19  C   UNL     1     -11.568  14.615  69.891  1.00  0.00    -0.285 A  
HETATM   20  S   UNL     1     -11.139  16.256  69.882  1.00  0.00    -0.305 SA 
HETATM   21  C   UNL     1     -10.905  16.274  68.171  1.00  0.00    -0.342 A  
HETATM   22  C   UNL     1     -11.150  15.004  67.621  1.00  0.00    -0.317 A  
HETATM   23  C   UNL     1     -10.990  14.852  66.217  1.00  0.00    -0.338 A  
HETATM   24  C   UNL     1     -10.605  15.928  65.411  1.00  0.00    -0.439 A  
HETATM   25  C   UNL     1     -10.376  17.173  65.978  1.00  0.00    -0.317 A  
HETATM   26  C   UNL     1     -10.522  17.360  67.354  1.00  0.00    -0.336 A  
HETATM   27 CL   UNL     1     -10.226  18.931  68.006  1.00  0.00    -0.424 Cl 
ENDBRANCH  17  18
ENDBRANCH  16  17
ENDBRANCH   9  16
ENDBRANCH   6   9
TORSDOF 6
ENDMDL
MODEL       68
REMARK 921   NORMALIZED FREE ENERGY PREDICTED BY IDOCK:   -5.68 KCAL/MOL
REMARK 922        TOTAL FREE ENERGY PREDICTED BY IDOCK:   -8.71 KCAL/MOL
REMARK 923 INTER-LIGAND FREE ENERGY PREDICTED BY IDOCK:   -7.30 KCAL/MOL
REMARK 924 INTRA-LIGAND FREE ENERGY PREDICTED BY IDOCK:   -1.42 KCAL/MOL
REMARK 927      BINDING AFFINITY PREDICTED BY RF-SCORE:    0.00 PKD
ROOT
HETATM    1 CL   UNL     1      -8.290   8.743  64.228  1.00  0.00    -0.169 Cl 
HETATM    2  C   UNL     1      -8.943   8.990  65.799  1.00  0.00    -0.197 A  
HETATM    3  C   UNL     1      -8.459  10.021  66.600  1.00  0.00    -0.126 A  
HETATM    4  C   UNL     1      -8.994  10.224  67.876  1.00  0.00    -0.131 A  
HETATM    5 CL   UNL     1      -8.337  11.511  68.822  1.00  0.00    -0.114 Cl 
HETATM    6  C   UNL     1     -10.027   9.403  68.359  1.00  0.00    -0.191 A  
HETATM    7  C   UNL     1     -10.507   8.375  67.521  1.00  0.00    -0.328 A  
HETATM    8  C   UNL     1      -9.959   8.158  66.257  1.00  0.00    -0.148 A  
ENDROOT
BRANCH   6   9
HETATM    9  C   UNL     1     -10.659   9.605  69.734  1.00  0.00    -0.242 C  
BRANCH   9  10
HETATM   10  C   UNL     1      -9.646   9.171  70.812  1.00  0.00    -0.275 C  
BRANCH  10  11
HETATM   11  N   UNL     1     -10.126   8.087  71.644  1.00  0.00    -0.177 NA 
HETATM   12  C   UNL     1     -10.004   7.981  73.002  1.00  0.00    -0.279 A  
HETATM   13  C   UNL     1     -10.867   7.021  71.211  1.00  0.00    -0.235 A  
HETATM   14  N   UNL     1     -11.186   6.226  72.205  1.00  0.00    -0.268 NA 
HETATM   15  C   UNL     1     -10.656   6.813  73.324  1.00  0.00    -0.309 A  
ENDBRANCH  10  11
ENDBRANCH   9  10
BRANCH   9  16
HETATM   16  O   UNL     1     -10.970  10.996  69.930  1.00  0.00    -0.239 OA 
BRANCH  16  17
HETATM   17  C   UNL     1     -12.153  11.419  69.240  1.00  0.00    -0.289 C  
BRANCH  17  18
HETATM   18  C   UNL     1     -11.906  12.711  68.521  1.00  0.00    -0.342 A  
HETATM   19  C   UNL     1     -11.895  13.938  69.153  1.00  0.00    -0.358 A  
HETATM   20  S   UNL     1     -11.604  15.230  68.094  1.00  0.00    -0.279 SA 
HETATM   21  C   UNL     1     -11.483  14.190  66.721  1.00  0.00    -0.369 A  
HETATM   22  C   UNL     1     -11.658  12.847  67.096  1.00  0.00    -0.421 A  
HETATM   23  C   UNL     1     -11.578  11.862  66.075  1.00  0.00    -0.296 A  
HETATM   24  C   UNL     1     -11.335  12.216  64.744  1.00  0.00    -0.378 A  
HETATM   25  C   UNL     1     -11.174  13.549  64.399  1.00  0.00    -0.399 A  
HETATM   26  C   UNL     1     -11.245  14.545  65.375  1.00  0.00    -0.342 A  
HETATM   27 CL   UNL     1     -11.038  16.189  64.890  1.00  0.00    -0.397 Cl 
ENDBRANCH  17  18
ENDBRANCH  16  17
ENDBRANCH   9  16
ENDBRANCH   6   9
TORSDOF 6
ENDMDL
MODEL       69
REMARK 921   NORMALIZED FREE ENERGY PREDICTED BY IDOCK:   -5.67 KCAL/MOL
REMARK 922        TOTAL FREE ENERGY PREDICTED BY IDOCK:   -8.71 KCAL/MOL
REMARK 923 INTER-LIGAND FREE ENERGY PREDICTED BY IDOCK:   -7.77 KCAL/MOL
REMARK 924 INTRA-LIGAND FREE ENERGY PREDICTED BY IDOCK:   -0.94 KCAL/MOL
REMARK 927      BINDING AFFINITY PREDICTED BY RF-SCORE:    0.00 PKD
ROOT
HETATM    1 CL   UNL     1     -13.376   9.228  72.699  1.00  0.00    -0.441 Cl 
HETATM    2  C   UNL     1     -12.328   9.750  71.440  1.00  0.00    -0.388 A  
HETATM    3  C   UNL     1     -11.069   9.171  71.299  1.00  0.00    -0.405 A  
HETATM    4  C   UNL     1     -10.218   9.593  70.272  1.00  0.00    -0.277 A  
HETATM    5 CL   UNL     1      -8.667   8.843  70.163  1.00  0.00    -0.152 Cl 
HETATM    6  C   UNL     1     -10.623  10.590  69.370  1.00  0.00    -0.269 A  
HETATM    7  C   UNL     1     -11.909  11.149  69.528  1.00  0.00    -0.423 A  
HETATM    8  C   UNL     1     -12.749  10.745  70.566  1.00  0.00    -0.388 A  
ENDROOT
BRANCH   6   9
HETATM    9  C   UNL     1      -9.739  11.062  68.218  1.00  0.00    -0.177 C  
BRANCH   9  10
HETATM   10  C   UNL     1     -10.273  10.456  66.905  1.00  0.00    -0.227 C  
BRANCH  10  11
HETATM   11  N   UNL     1      -9.805   9.106  66.667  1.00  0.00    -0.218 NA 
HETATM   12  C   UNL     1      -8.591   8.738  66.155  1.00  0.00    -0.146 A  
HETATM   13  C   UNL     1     -10.477   7.962  67.001  1.00  0.00    -0.349 A  
HETATM   14  N   UNL     1      -9.781   6.892  66.694  1.00  0.00    -0.178 NA 
HETATM   15  C   UNL     1      -8.606   7.362  66.169  1.00  0.00    -0.146 A  
ENDBRANCH  10  11
ENDBRANCH   9  10
BRANCH   9  16
HETATM   16  O   UNL     1      -9.792  12.496  68.117  1.00  0.00    -0.211 OA 
BRANCH  16  17
HETATM   17  C   UNL     1      -8.977  13.024  67.062  1.00  0.00    -0.225 C  
BRANCH  17  18
HETATM   18  C   UNL     1      -9.577  14.286  66.519  1.00  0.00    -0.313 A  
HETATM   19  C   UNL     1     -10.442  14.310  65.443  1.00  0.00    -0.365 A  
HETATM   20  S   UNL     1     -10.955  15.875  65.036  1.00  0.00    -0.344 SA 
HETATM   21  C   UNL     1     -10.024  16.600  66.296  1.00  0.00    -0.320 A  
HETATM   22  C   UNL     1      -9.332  15.623  67.031  1.00  0.00    -0.241 A  
HETATM   23  C   UNL     1      -8.523  16.062  68.114  1.00  0.00    -0.169 A  
HETATM   24  C   UNL     1      -8.419  17.419  68.436  1.00  0.00    -0.263 A  
HETATM   25  C   UNL     1      -9.106  18.365  67.691  1.00  0.00    -0.282 A  
HETATM   26  C   UNL     1      -9.911  17.970  66.620  1.00  0.00    -0.362 A  
HETATM   27 CL   UNL     1     -10.744  19.189  65.725  1.00  0.00    -0.494 Cl 
ENDBRANCH  17  18
ENDBRANCH  16  17
ENDBRANCH   9  16
ENDBRANCH   6   9
TORSDOF 6
ENDMDL
MODEL       70
REMARK 921   NORMALIZED FREE ENERGY PREDICTED BY IDOCK:   -5.67 KCAL/MOL
REMARK 922        TOTAL FREE ENERGY PREDICTED BY IDOCK:   -8.70 KCAL/MOL
REMARK 923 INTER-LIGAND FREE ENERGY PREDICTED BY IDOCK:   -8.26 KCAL/MOL
REMARK 924 INTRA-LIGAND FREE ENERGY PREDICTED BY IDOCK:   -0.44 KCAL/MOL
REMARK 927      BINDING AFFINITY PREDICTED BY RF-SCORE:    0.00 PKD
ROOT
HETATM    1 CL   UNL     1      -8.373   8.165  64.817  1.00  0.00    -0.143 Cl 
HETATM    2  C   UNL     1      -9.156   9.637  65.239  1.00  0.00    -0.218 A  
HETATM    3  C   UNL     1      -9.787  10.396  64.256  1.00  0.00    -0.388 A  
HETATM    4  C   UNL     1     -10.427  11.590  64.601  1.00  0.00    -0.301 A  
HETATM    5 CL   UNL     1     -11.176  12.490  63.331  1.00  0.00    -0.515 Cl 
HETATM    6  C   UNL     1     -10.452  12.031  65.934  1.00  0.00    -0.290 A  
HETATM    7  C   UNL     1      -9.818  11.236  66.911  1.00  0.00    -0.220 A  
HETATM    8  C   UNL     1      -9.160  10.056  66.564  1.00  0.00    -0.172 A  
ENDROOT
BRANCH   6   9
HETATM    9  C   UNL     1     -11.162  13.314  66.360  1.00  0.00    -0.302 C  
BRANCH   9  10
HETATM   10  C   UNL     1     -12.132  12.983  67.512  1.00  0.00    -0.224 C  
BRANCH  10  11
HETATM   11  N   UNL     1     -11.980  13.859  68.656  1.00  0.00    -0.367 NA 
HETATM   12  C   UNL     1     -12.019  15.226  68.653  1.00  0.00    -0.235 A  
HETATM   13  C   UNL     1     -11.857  13.451  69.957  1.00  0.00    -0.294 A  
HETATM   14  N   UNL     1     -11.775  14.476  70.772  1.00  0.00    -0.290 NA 
HETATM   15  C   UNL     1     -11.876  15.585  69.973  1.00  0.00    -0.359 A  
ENDBRANCH  10  11
ENDBRANCH   9  10
BRANCH   9  16
HETATM   16  O   UNL     1     -10.198  14.272  66.833  1.00  0.00    -0.260 OA 
BRANCH  16  17
HETATM   17  C   UNL     1      -9.699  15.136  65.804  1.00  0.00    -0.344 C  
BRANCH  17  18
HETATM   18  C   UNL     1      -8.802  16.184  66.389  1.00  0.00    -0.355 A  
HETATM   19  C   UNL     1      -7.518  15.924  66.823  1.00  0.00    -0.149 A  
HETATM   20  S   UNL     1      -6.736  17.292  67.451  1.00  0.00    -0.160 SA 
HETATM   21  C   UNL     1      -8.104  18.307  67.170  1.00  0.00    -0.225 A  
HETATM   22  C   UNL     1      -9.152  17.580  66.581  1.00  0.00    -0.287 A  
HETATM   23  C   UNL     1     -10.351  18.281  66.278  1.00  0.00    -0.422 A  
HETATM   24  C   UNL     1     -10.484  19.645  66.557  1.00  0.00    -0.612 A  
HETATM   25  C   UNL     1      -9.437  20.338  67.146  1.00  0.00    -0.557 A  
HETATM   26  C   UNL     1      -8.243  19.683  67.458  1.00  0.00    -0.297 A  
HETATM   27 CL   UNL     1      -6.973  20.594  68.191  1.00  0.00    -0.271 Cl 
ENDBRANCH  17  18
ENDBRANCH  16  17
ENDBRANCH   9  16
ENDBRANCH   6   9
TORSDOF 6
ENDMDL
MODEL       71
REMARK 921   NORMALIZED FREE ENERGY PREDICTED BY IDOCK:   -5.66 KCAL/MOL
REMARK 922        TOTAL FREE ENERGY PREDICTED BY IDOCK:   -8.69 KCAL/MOL
REMARK 923 INTER-LIGAND FREE ENERGY PREDICTED BY IDOCK:   -7.62 KCAL/MOL
REMARK 924 INTRA-LIGAND FREE ENERGY PREDICTED BY IDOCK:   -1.07 KCAL/MOL
REMARK 927      BINDING AFFINITY PREDICTED BY RF-SCORE:    0.00 PKD
ROOT
HETATM    1 CL   UNL     1      -5.648   6.680  68.062  1.00  0.00    -0.011 Cl 
HETATM    2  C   UNL     1      -7.113   7.474  68.489  1.00  0.00    -0.081 A  
HETATM    3  C   UNL     1      -8.064   7.754  67.510  1.00  0.00    -0.124 A  
HETATM    4  C   UNL     1      -9.256   8.395  67.859  1.00  0.00    -0.135 A  
HETATM    5 CL   UNL     1     -10.384   8.725  66.594  1.00  0.00    -0.335 Cl 
HETATM    6  C   UNL     1      -9.514   8.755  69.192  1.00  0.00    -0.157 A  
HETATM    7  C   UNL     1      -8.539   8.447  70.164  1.00  0.00    -0.131 A  
HETATM    8  C   UNL     1      -7.340   7.827  69.814  1.00  0.00    -0.080 A  
ENDROOT
BRANCH   6   9
HETATM    9  C   UNL     1     -10.812   9.432  69.622  1.00  0.00    -0.228 C  
BRANCH   9  10
HETATM   10  C   UNL     1     -11.038   9.160  71.122  1.00  0.00    -0.323 C  
BRANCH  10  11
HETATM   11  N   UNL     1     -12.324   8.556  71.407  1.00  0.00    -0.301 NA 
HETATM   12  C   UNL     1     -12.675   7.248  71.215  1.00  0.00    -0.359 A  
HETATM   13  C   UNL     1     -13.383   9.186  72.002  1.00  0.00    -0.445 A  
HETATM   14  N   UNL     1     -14.397   8.367  72.161  1.00  0.00    -0.436 NA 
HETATM   15  C   UNL     1     -13.967   7.160  71.677  1.00  0.00    -0.309 A  
ENDBRANCH  10  11
ENDBRANCH   9  10
BRANCH   9  16
HETATM   16  O   UNL     1     -10.712  10.853  69.423  1.00  0.00    -0.224 OA 
BRANCH  16  17
HETATM   17  C   UNL     1     -11.971  11.483  69.156  1.00  0.00    -0.320 C  
BRANCH  17  18
HETATM   18  C   UNL     1     -11.768  12.760  68.397  1.00  0.00    -0.380 A  
HETATM   19  C   UNL     1     -11.686  13.996  69.006  1.00  0.00    -0.330 A  
HETATM   20  S   UNL     1     -11.467  15.268  67.905  1.00  0.00    -0.278 SA 
HETATM   21  C   UNL     1     -11.478  14.205  66.545  1.00  0.00    -0.358 A  
HETATM   22  C   UNL     1     -11.639  12.871  66.955  1.00  0.00    -0.419 A  
HETATM   23  C   UNL     1     -11.660  11.870  65.947  1.00  0.00    -0.291 A  
HETATM   24  C   UNL     1     -11.526  12.200  64.594  1.00  0.00    -0.388 A  
HETATM   25  C   UNL     1     -11.376  13.525  64.215  1.00  0.00    -0.402 A  
HETATM   26  C   UNL     1     -11.350  14.536  65.178  1.00  0.00    -0.366 A  
HETATM   27 CL   UNL     1     -11.161  16.170  64.650  1.00  0.00    -0.411 Cl 
ENDBRANCH  17  18
ENDBRANCH  16  17
ENDBRANCH   9  16
ENDBRANCH   6   9
TORSDOF 6
ENDMDL
MODEL       72
REMARK 921   NORMALIZED FREE ENERGY PREDICTED BY IDOCK:   -5.65 KCAL/MOL
REMARK 922        TOTAL FREE ENERGY PREDICTED BY IDOCK:   -8.67 KCAL/MOL
REMARK 923 INTER-LIGAND FREE ENERGY PREDICTED BY IDOCK:   -7.36 KCAL/MOL
REMARK 924 INTRA-LIGAND FREE ENERGY PREDICTED BY IDOCK:   -1.32 KCAL/MOL
REMARK 927      BINDING AFFINITY PREDICTED BY RF-SCORE:    0.00 PKD
ROOT
HETATM    1 CL   UNL     1      -8.990   5.545  65.272  1.00  0.00    -0.119 Cl 
HETATM    2  C   UNL     1      -9.418   6.561  66.592  1.00  0.00    -0.159 A  
HETATM    3  C   UNL     1     -10.276   6.089  67.584  1.00  0.00    -0.221 A  
HETATM    4  C   UNL     1     -10.620   6.914  68.659  1.00  0.00    -0.223 A  
HETATM    5 CL   UNL     1     -11.699   6.272  69.844  1.00  0.00    -0.384 Cl 
HETATM    6  C   UNL     1     -10.101   8.215  68.759  1.00  0.00    -0.211 A  
HETATM    7  C   UNL     1      -9.224   8.662  67.748  1.00  0.00    -0.146 A  
HETATM    8  C   UNL     1      -8.898   7.848  66.664  1.00  0.00    -0.166 A  
ENDROOT
BRANCH   6   9
HETATM    9  C   UNL     1     -10.428   9.141  69.928  1.00  0.00    -0.223 C  
BRANCH   9  10
HETATM   10  C   UNL     1      -9.333   8.986  71.001  1.00  0.00    -0.271 C  
BRANCH  10  11
HETATM   11  N   UNL     1      -9.612   7.931  71.955  1.00  0.00    -0.164 NA 
HETATM   12  C   UNL     1      -8.849   6.823  72.196  1.00  0.00    -0.133 A  
HETATM   13  C   UNL     1     -10.654   7.917  72.841  1.00  0.00    -0.368 A  
HETATM   14  N   UNL     1     -10.620   6.848  73.601  1.00  0.00    -0.356 NA 
HETATM   15  C   UNL     1      -9.501   6.160  73.210  1.00  0.00    -0.142 A  
ENDBRANCH  10  11
ENDBRANCH   9  10
BRANCH   9  16
HETATM   16  O   UNL     1     -10.442  10.508  69.480  1.00  0.00    -0.227 OA 
BRANCH  16  17
HETATM   17  C   UNL     1     -11.733  10.953  69.046  1.00  0.00    -0.320 C  
BRANCH  17  18
HETATM   18  C   UNL     1     -11.615  12.240  68.286  1.00  0.00    -0.385 A  
HETATM   19  C   UNL     1     -11.905  13.472  68.836  1.00  0.00    -0.345 A  
HETATM   20  S   UNL     1     -11.696  14.755  67.746  1.00  0.00    -0.297 SA 
HETATM   21  C   UNL     1     -11.207  13.702  66.469  1.00  0.00    -0.310 A  
HETATM   22  C   UNL     1     -11.198  12.365  66.901  1.00  0.00    -0.359 A  
HETATM   23  C   UNL     1     -10.806  11.372  65.962  1.00  0.00    -0.306 A  
HETATM   24  C   UNL     1     -10.445  11.713  64.654  1.00  0.00    -0.354 A  
HETATM   25  C   UNL     1     -10.470  13.039  64.251  1.00  0.00    -0.424 A  
HETATM   26  C   UNL     1     -10.848  14.042  65.146  1.00  0.00    -0.369 A  
HETATM   27 CL   UNL     1     -10.862  15.677  64.591  1.00  0.00    -0.372 Cl 
ENDBRANCH  17  18
ENDBRANCH  16  17
ENDBRANCH   9  16
ENDBRANCH   6   9
TORSDOF 6
ENDMDL
MODEL       73
REMARK 921   NORMALIZED FREE ENERGY PREDICTED BY IDOCK:   -5.63 KCAL/MOL
REMARK 922        TOTAL FREE ENERGY PREDICTED BY IDOCK:   -8.65 KCAL/MOL
REMARK 923 INTER-LIGAND FREE ENERGY PREDICTED BY IDOCK:   -7.64 KCAL/MOL
REMARK 924 INTRA-LIGAND FREE ENERGY PREDICTED BY IDOCK:   -1.01 KCAL/MOL
REMARK 927      BINDING AFFINITY PREDICTED BY RF-SCORE:    0.00 PKD
ROOT
HETATM    1 CL   UNL     1      -7.218   8.487  62.442  1.00  0.00    -0.097 Cl 
HETATM    2  C   UNL     1      -8.115   9.542  63.462  1.00  0.00    -0.151 A  
HETATM    3  C   UNL     1      -7.584   9.945  64.685  1.00  0.00    -0.139 A  
HETATM    4  C   UNL     1      -8.312  10.807  65.512  1.00  0.00    -0.129 A  
HETATM    5 CL   UNL     1      -7.601  11.254  67.020  1.00  0.00    -0.136 Cl 
HETATM    6  C   UNL     1      -9.573  11.283  65.118  1.00  0.00    -0.269 A  
HETATM    7  C   UNL     1     -10.080  10.869  63.869  1.00  0.00    -0.422 A  
HETATM    8  C   UNL     1      -9.365   9.992  63.054  1.00  0.00    -0.297 A  
ENDROOT
BRANCH   6   9
HETATM    9  C   UNL     1     -10.390  12.245  65.976  1.00  0.00    -0.245 C  
BRANCH   9  10
HETATM   10  C   UNL     1     -11.269  13.108  65.049  1.00  0.00    -0.298 C  
BRANCH  10  11
HETATM   11  N   UNL     1     -10.920  14.514  65.076  1.00  0.00    -0.374 NA 
HETATM   12  C   UNL     1     -11.629  15.545  64.525  1.00  0.00    -0.283 A  
HETATM   13  C   UNL     1      -9.853  15.054  65.742  1.00  0.00    -0.353 A  
HETATM   14  N   UNL     1      -9.821  16.360  65.611  1.00  0.00    -0.530 NA 
HETATM   15  C   UNL     1     -10.921  16.676  64.858  1.00  0.00    -0.150 A  
ENDBRANCH  10  11
ENDBRANCH   9  10
BRANCH   9  16
HETATM   16  O   UNL     1     -11.248  11.503  66.862  1.00  0.00    -0.299 OA 
BRANCH  16  17
HETATM   17  C   UNL     1     -10.879  11.618  68.242  1.00  0.00    -0.219 C  
BRANCH  17  18
HETATM   18  C   UNL     1     -10.842  10.266  68.888  1.00  0.00    -0.263 A  
HETATM   19  C   UNL     1     -10.053   9.230  68.431  1.00  0.00    -0.191 A  
HETATM   20  S   UNL     1     -10.221   7.811  69.345  1.00  0.00    -0.211 SA 
HETATM   21  C   UNL     1     -11.379   8.529  70.405  1.00  0.00    -0.182 A  
HETATM   22  C   UNL     1     -11.618   9.867  70.050  1.00  0.00    -0.235 A  
HETATM   23  C   UNL     1     -12.546  10.602  70.837  1.00  0.00    -0.503 A  
HETATM   24  C   UNL     1     -13.199  10.014  71.925  1.00  0.00    -0.557 A  
HETATM   25  C   UNL     1     -12.951   8.689  72.250  1.00  0.00    -0.430 A  
HETATM   26  C   UNL     1     -12.045   7.936  71.500  1.00  0.00    -0.306 A  
HETATM   27 CL   UNL     1     -11.774   6.290  71.948  1.00  0.00    -0.371 Cl 
ENDBRANCH  17  18
ENDBRANCH  16  17
ENDBRANCH   9  16
ENDBRANCH   6   9
TORSDOF 6
ENDMDL
MODEL       74
REMARK 921   NORMALIZED FREE ENERGY PREDICTED BY IDOCK:   -5.63 KCAL/MOL
REMARK 922        TOTAL FREE ENERGY PREDICTED BY IDOCK:   -8.65 KCAL/MOL
REMARK 923 INTER-LIGAND FREE ENERGY PREDICTED BY IDOCK:   -8.83 KCAL/MOL
REMARK 924 INTRA-LIGAND FREE ENERGY PREDICTED BY IDOCK:    0.18 KCAL/MOL
REMARK 927      BINDING AFFINITY PREDICTED BY RF-SCORE:    0.00 PKD
ROOT
HETATM    1 CL   UNL     1     -13.970  15.472  72.596  1.00  0.00    -0.635 Cl 
HETATM    2  C   UNL     1     -13.247  14.114  71.827  1.00  0.00    -0.373 A  
HETATM    3  C   UNL     1     -13.516  12.828  72.289  1.00  0.00    -0.591 A  
HETATM    4  C   UNL     1     -12.931  11.725  71.660  1.00  0.00    -0.362 A  
HETATM    5 CL   UNL     1     -13.295  10.160  72.294  1.00  0.00    -0.448 Cl 
HETATM    6  C   UNL     1     -12.080  11.896  70.556  1.00  0.00    -0.422 A  
HETATM    7  C   UNL     1     -11.837  13.209  70.101  1.00  0.00    -0.328 A  
HETATM    8  C   UNL     1     -12.402  14.311  70.741  1.00  0.00    -0.427 A  
ENDROOT
BRANCH   6   9
HETATM    9  C   UNL     1     -11.442  10.720  69.823  1.00  0.00    -0.311 C  
BRANCH   9  10
HETATM   10  C   UNL     1     -11.661   9.441  70.655  1.00  0.00    -0.269 C  
BRANCH  10  11
HETATM   11  N   UNL     1     -10.838   8.329  70.222  1.00  0.00    -0.240 NA 
HETATM   12  C   UNL     1     -11.268   7.080  69.871  1.00  0.00    -0.246 A  
HETATM   13  C   UNL     1      -9.487   8.377  70.008  1.00  0.00    -0.164 A  
HETATM   14  N   UNL     1      -9.030   7.223  69.583  1.00  0.00    -0.141 NA 
HETATM   15  C   UNL     1     -10.129   6.409  69.492  1.00  0.00    -0.170 A  
ENDBRANCH  10  11
ENDBRANCH   9  10
BRANCH   9  16
HETATM   16  O   UNL     1     -12.069  10.544  68.540  1.00  0.00    -0.329 OA 
BRANCH  16  17
HETATM   17  C   UNL     1     -11.134  10.375  67.466  1.00  0.00    -0.267 C  
BRANCH  17  18
HETATM   18  C   UNL     1     -10.297  11.608  67.302  1.00  0.00    -0.232 A  
HETATM   19  C   UNL     1      -9.048  11.755  67.873  1.00  0.00    -0.181 A  
HETATM   20  S   UNL     1      -8.333  13.255  67.533  1.00  0.00    -0.197 SA 
HETATM   21  C   UNL     1      -9.684  13.783  66.597  1.00  0.00    -0.289 A  
HETATM   22  C   UNL     1     -10.675  12.788  66.545  1.00  0.00    -0.277 A  
HETATM   23  C   UNL     1     -11.853  13.069  65.801  1.00  0.00    -0.453 A  
HETATM   24  C   UNL     1     -12.021  14.293  65.145  1.00  0.00    -0.395 A  
HETATM   25  C   UNL     1     -11.031  15.261  65.218  1.00  0.00    -0.403 A  
HETATM   26  C   UNL     1      -9.860  15.020  65.939  1.00  0.00    -0.338 A  
HETATM   27 CL   UNL     1      -8.660  16.261  65.997  1.00  0.00    -0.340 Cl 
ENDBRANCH  17  18
ENDBRANCH  16  17
ENDBRANCH   9  16
ENDBRANCH   6   9
TORSDOF 6
ENDMDL
MODEL       75
REMARK 921   NORMALIZED FREE ENERGY PREDICTED BY IDOCK:   -5.61 KCAL/MOL
REMARK 922        TOTAL FREE ENERGY PREDICTED BY IDOCK:   -8.63 KCAL/MOL
REMARK 923 INTER-LIGAND FREE ENERGY PREDICTED BY IDOCK:   -8.32 KCAL/MOL
REMARK 924 INTRA-LIGAND FREE ENERGY PREDICTED BY IDOCK:   -0.31 KCAL/MOL
REMARK 927      BINDING AFFINITY PREDICTED BY RF-SCORE:    0.00 PKD
ROOT
HETATM    1 CL   UNL     1      -8.291  18.379  66.626  1.00  0.00    -0.269 Cl 
HETATM    2  C   UNL     1      -9.076  17.102  67.469  1.00  0.00    -0.225 A  
HETATM    3  C   UNL     1     -10.071  16.359  66.836  1.00  0.00    -0.281 A  
HETATM    4  C   UNL     1     -10.705  15.318  67.521  1.00  0.00    -0.285 A  
HETATM    5 CL   UNL     1     -11.939  14.448  66.682  1.00  0.00    -0.429 Cl 
HETATM    6  C   UNL     1     -10.344  15.002  68.840  1.00  0.00    -0.244 A  
HETATM    7  C   UNL     1      -9.325  15.762  69.451  1.00  0.00    -0.269 A  
HETATM    8  C   UNL     1      -8.707  16.815  68.778  1.00  0.00    -0.258 A  
ENDROOT
BRANCH   6   9
HETATM    9  C   UNL     1     -10.991  13.857  69.616  1.00  0.00    -0.002 C  
BRANCH   9  10
HETATM   10  C   UNL     1     -12.502  14.137  69.741  1.00  0.00    -0.216 C  
BRANCH  10  11
HETATM   11  N   UNL     1     -12.877  14.679  71.032  1.00  0.00    -0.331 NA 
HETATM   12  C   UNL     1     -14.088  15.215  71.374  1.00  0.00    -0.504 A  
HETATM   13  C   UNL     1     -12.098  14.664  72.157  1.00  0.00    -0.237 A  
HETATM   14  N   UNL     1     -12.727  15.194  73.179  1.00  0.00    -0.437 NA 
HETATM   15  C   UNL     1     -13.965  15.539  72.705  1.00  0.00    -0.528 A  
ENDBRANCH  10  11
ENDBRANCH   9  10
BRANCH   9  16
HETATM   16  O   UNL     1     -10.811  12.621  68.903  1.00  0.00    -0.237 OA 
BRANCH  16  17
HETATM   17  C   UNL     1     -11.990  11.806  68.868  1.00  0.00    -0.271 C  
BRANCH  17  18
HETATM   18  C   UNL     1     -11.992  10.839  70.014  1.00  0.00    -0.427 A  
HETATM   19  C   UNL     1     -13.096  10.614  70.812  1.00  0.00    -0.219 A  
HETATM   20  S   UNL     1     -12.811   9.479  72.040  1.00  0.00    -0.412 SA 
HETATM   21  C   UNL     1     -11.172   9.238  71.554  1.00  0.00    -0.386 A  
HETATM   22  C   UNL     1     -10.861  10.031  70.436  1.00  0.00    -0.380 A  
HETATM   23  C   UNL     1      -9.545   9.939  69.908  1.00  0.00    -0.265 A  
HETATM   24  C   UNL     1      -8.592   9.090  70.481  1.00  0.00    -0.229 A  
HETATM   25  C   UNL     1      -8.922   8.324  71.589  1.00  0.00    -0.235 A  
HETATM   26  C   UNL     1     -10.206   8.388  72.134  1.00  0.00    -0.320 A  
HETATM   27 CL   UNL     1     -10.562   7.413  73.514  1.00  0.00    -0.422 Cl 
ENDBRANCH  17  18
ENDBRANCH  16  17
ENDBRANCH   9  16
ENDBRANCH   6   9
TORSDOF 6
ENDMDL
MODEL       76
REMARK 921   NORMALIZED FREE ENERGY PREDICTED BY IDOCK:   -5.61 KCAL/MOL
REMARK 922        TOTAL FREE ENERGY PREDICTED BY IDOCK:   -8.62 KCAL/MOL
REMARK 923 INTER-LIGAND FREE ENERGY PREDICTED BY IDOCK:   -7.43 KCAL/MOL
REMARK 924 INTRA-LIGAND FREE ENERGY PREDICTED BY IDOCK:   -1.20 KCAL/MOL
REMARK 927      BINDING AFFINITY PREDICTED BY RF-SCORE:    0.00 PKD
ROOT
HETATM    1 CL   UNL     1     -11.604   4.981  73.076  1.00  0.00    -0.359 Cl 
HETATM    2  C   UNL     1     -11.229   6.434  72.237  1.00  0.00    -0.276 A  
HETATM    3  C   UNL     1     -11.998   7.577  72.445  1.00  0.00    -0.264 A  
HETATM    4  C   UNL     1     -11.690   8.759  71.765  1.00  0.00    -0.346 A  
HETATM    5 CL   UNL     1     -12.694  10.133  72.060  1.00  0.00    -0.469 Cl 
HETATM    6  C   UNL     1     -10.603   8.814  70.878  1.00  0.00    -0.276 A  
HETATM    7  C   UNL     1      -9.833   7.646  70.696  1.00  0.00    -0.182 A  
HETATM    8  C   UNL     1     -10.153   6.460  71.357  1.00  0.00    -0.214 A  
ENDROOT
BRANCH   6   9
HETATM    9  C   UNL     1     -10.214  10.089  70.136  1.00  0.00    -0.242 C  
BRANCH   9  10
HETATM   10  C   UNL     1      -8.716  10.017  69.779  1.00  0.00    -0.179 C  
BRANCH  10  11
HETATM   11  N   UNL     1      -8.361  10.831  68.634  1.00  0.00    -0.134 NA 
HETATM   12  C   UNL     1      -8.141  12.180  68.625  1.00  0.00    -0.048 A  
HETATM   13  C   UNL     1      -8.100  10.360  67.376  1.00  0.00    -0.107 A  
HETATM   14  N   UNL     1      -7.768  11.335  66.562  1.00  0.00    -0.148 NA 
HETATM   15  C   UNL     1      -7.789  12.471  67.328  1.00  0.00    -0.160 A  
ENDBRANCH  10  11
ENDBRANCH   9  10
BRANCH   9  16
HETATM   16  O   UNL     1     -10.971  10.196  68.916  1.00  0.00    -0.219 OA 
BRANCH  16  17
HETATM   17  C   UNL     1     -12.114  11.052  69.027  1.00  0.00    -0.215 C  
BRANCH  17  18
HETATM   18  C   UNL     1     -11.804  12.413  68.480  1.00  0.00    -0.352 A  
HETATM   19  C   UNL     1     -11.803  13.557  69.253  1.00  0.00    -0.341 A  
HETATM   20  S   UNL     1     -11.431  14.957  68.370  1.00  0.00    -0.331 SA 
HETATM   21  C   UNL     1     -11.257  14.082  66.892  1.00  0.00    -0.313 A  
HETATM   22  C   UNL     1     -11.478  12.709  67.096  1.00  0.00    -0.406 A  
HETATM   23  C   UNL     1     -11.362  11.849  65.971  1.00  0.00    -0.375 A  
HETATM   24  C   UNL     1     -11.042  12.350  64.705  1.00  0.00    -0.348 A  
HETATM   25  C   UNL     1     -10.836  13.710  64.529  1.00  0.00    -0.416 A  
HETATM   26  C   UNL     1     -10.941  14.586  65.611  1.00  0.00    -0.323 A  
HETATM   27 CL   UNL     1     -10.676  16.270  65.335  1.00  0.00    -0.381 Cl 
ENDBRANCH  17  18
ENDBRANCH  16  17
ENDBRANCH   9  16
ENDBRANCH   6   9
TORSDOF 6
ENDMDL
MODEL       77
REMARK 921   NORMALIZED FREE ENERGY PREDICTED BY IDOCK:   -5.60 KCAL/MOL
REMARK 922        TOTAL FREE ENERGY PREDICTED BY IDOCK:   -8.61 KCAL/MOL
REMARK 923 INTER-LIGAND FREE ENERGY PREDICTED BY IDOCK:   -7.44 KCAL/MOL
REMARK 924 INTRA-LIGAND FREE ENERGY PREDICTED BY IDOCK:   -1.17 KCAL/MOL
REMARK 927      BINDING AFFINITY PREDICTED BY RF-SCORE:    0.00 PKD
ROOT
HETATM    1 CL   UNL     1      -8.013   9.432  64.271  1.00  0.00    -0.125 Cl 
HETATM    2  C   UNL     1      -9.110   9.964  65.484  1.00  0.00    -0.189 A  
HETATM    3  C   UNL     1     -10.046  10.953  65.191  1.00  0.00    -0.352 A  
HETATM    4  C   UNL     1     -10.940  11.382  66.177  1.00  0.00    -0.236 A  
HETATM    5 CL   UNL     1     -12.063  12.622  65.751  1.00  0.00    -0.497 Cl 
HETATM    6  C   UNL     1     -10.914  10.817  67.463  1.00  0.00    -0.372 A  
HETATM    7  C   UNL     1      -9.965   9.808  67.728  1.00  0.00    -0.206 A  
HETATM    8  C   UNL     1      -9.058   9.395  66.752  1.00  0.00    -0.168 A  
ENDROOT
BRANCH   6   9
HETATM    9  C   UNL     1     -11.888  11.235  68.561  1.00  0.00    -0.285 C  
BRANCH   9  10
HETATM   10  C   UNL     1     -11.202  11.045  69.929  1.00  0.00    -0.252 C  
BRANCH  10  11
HETATM   11  N   UNL     1     -11.944  10.181  70.825  1.00  0.00    -0.322 NA 
HETATM   12  C   UNL     1     -13.002  10.536  71.616  1.00  0.00    -0.476 A  
HETATM   13  C   UNL     1     -11.758   8.832  70.962  1.00  0.00    -0.282 A  
HETATM   14  N   UNL     1     -12.607   8.319  71.822  1.00  0.00    -0.320 NA 
HETATM   15  C   UNL     1     -13.386   9.369  72.233  1.00  0.00    -0.461 A  
ENDBRANCH  10  11
ENDBRANCH   9  10
BRANCH   9  16
HETATM   16  O   UNL     1     -12.230  12.624  68.410  1.00  0.00    -0.178 OA 
BRANCH  16  17
HETATM   17  C   UNL     1     -11.788  13.443  69.500  1.00  0.00    -0.332 C  
BRANCH  17  18
HETATM   18  C   UNL     1     -11.068  14.654  68.987  1.00  0.00    -0.273 A  
HETATM   19  C   UNL     1     -11.633  15.913  68.956  1.00  0.00    -0.389 A  
HETATM   20  S   UNL     1     -10.597  17.093  68.314  1.00  0.00    -0.365 SA 
HETATM   21  C   UNL     1      -9.330  15.954  68.040  1.00  0.00    -0.201 A  
HETATM   22  C   UNL     1      -9.715  14.669  68.459  1.00  0.00    -0.225 A  
HETATM   23  C   UNL     1      -8.772  13.616  68.307  1.00  0.00    -0.171 A  
HETATM   24  C   UNL     1      -7.507  13.850  67.758  1.00  0.00    -0.174 A  
HETATM   25  C   UNL     1      -7.155  15.126  67.345  1.00  0.00    -0.219 A  
HETATM   26  C   UNL     1      -8.054  16.185  67.480  1.00  0.00    -0.145 A  
HETATM   27 CL   UNL     1      -7.564  17.753  66.948  1.00  0.00    -0.224 Cl 
ENDBRANCH  17  18
ENDBRANCH  16  17
ENDBRANCH   9  16
ENDBRANCH   6   9
TORSDOF 6
ENDMDL
MODEL       78
REMARK 921   NORMALIZED FREE ENERGY PREDICTED BY IDOCK:   -5.60 KCAL/MOL
REMARK 922        TOTAL FREE ENERGY PREDICTED BY IDOCK:   -8.60 KCAL/MOL
REMARK 923 INTER-LIGAND FREE ENERGY PREDICTED BY IDOCK:   -7.47 KCAL/MOL
REMARK 924 INTRA-LIGAND FREE ENERGY PREDICTED BY IDOCK:   -1.13 KCAL/MOL
REMARK 927      BINDING AFFINITY PREDICTED BY RF-SCORE:    0.00 PKD
ROOT
HETATM    1 CL   UNL     1     -13.248  15.996  73.103  1.00  0.00    -0.639 Cl 
HETATM    2  C   UNL     1     -12.451  15.474  71.671  1.00  0.00    -0.406 A  
HETATM    3  C   UNL     1     -11.339  16.169  71.201  1.00  0.00    -0.368 A  
HETATM    4  C   UNL     1     -10.689  15.741  70.039  1.00  0.00    -0.341 A  
HETATM    5 CL   UNL     1      -9.326  16.657  69.505  1.00  0.00     0.018 Cl 
HETATM    6  C   UNL     1     -11.139  14.609  69.341  1.00  0.00    -0.293 A  
HETATM    7  C   UNL     1     -12.259  13.917  69.847  1.00  0.00    -0.393 A  
HETATM    8  C   UNL     1     -12.922  14.355  70.993  1.00  0.00    -0.416 A  
ENDROOT
BRANCH   6   9
HETATM    9  C   UNL     1     -10.445  14.091  68.084  1.00  0.00    -0.243 C  
BRANCH   9  10
HETATM   10  C   UNL     1     -10.736  12.584  67.944  1.00  0.00    -0.217 C  
BRANCH  10  11
HETATM   11  N   UNL     1      -9.711  11.870  67.209  1.00  0.00    -0.183 NA 
HETATM   12  C   UNL     1      -9.764  11.480  65.900  1.00  0.00    -0.232 A  
HETATM   13  C   UNL     1      -8.473  11.541  67.690  1.00  0.00    -0.135 A  
HETATM   14  N   UNL     1      -7.754  10.931  66.778  1.00  0.00    -0.134 NA 
HETATM   15  C   UNL     1      -8.545  10.889  65.660  1.00  0.00    -0.160 A  
ENDBRANCH  10  11
ENDBRANCH   9  10
BRANCH   9  16
HETATM   16  O   UNL     1     -10.962  14.768  66.925  1.00  0.00    -0.313 OA 
BRANCH  16  17
HETATM   17  C   UNL     1      -9.946  15.170  65.998  1.00  0.00    -0.311 C  
BRANCH  17  18
HETATM   18  C   UNL     1      -9.600  16.616  66.195  1.00  0.00    -0.323 A  
HETATM   19  C   UNL     1     -10.530  17.633  66.124  1.00  0.00    -0.295 A  
HETATM   20  S   UNL     1      -9.858  19.170  66.375  1.00  0.00    -0.401 SA 
HETATM   21  C   UNL     1      -8.267  18.533  66.588  1.00  0.00    -0.274 A  
HETATM   22  C   UNL     1      -8.271  17.132  66.474  1.00  0.00    -0.308 A  
HETATM   23  C   UNL     1      -7.032  16.454  66.634  1.00  0.00    -0.133 A  
HETATM   24  C   UNL     1      -5.850  17.156  66.894  1.00  0.00    -0.223 A  
HETATM   25  C   UNL     1      -5.872  18.539  66.994  1.00  0.00    -0.160 A  
HETATM   26  C   UNL     1      -7.071  19.239  66.843  1.00  0.00    -0.204 A  
HETATM   27 CL   UNL     1      -7.040  20.961  66.976  1.00  0.00    -0.388 Cl 
ENDBRANCH  17  18
ENDBRANCH  16  17
ENDBRANCH   9  16
ENDBRANCH   6   9
TORSDOF 6
ENDMDL
MODEL       79
REMARK 921   NORMALIZED FREE ENERGY PREDICTED BY IDOCK:   -5.60 KCAL/MOL
REMARK 922        TOTAL FREE ENERGY PREDICTED BY IDOCK:   -8.60 KCAL/MOL
REMARK 923 INTER-LIGAND FREE ENERGY PREDICTED BY IDOCK:   -7.86 KCAL/MOL
REMARK 924 INTRA-LIGAND FREE ENERGY PREDICTED BY IDOCK:   -0.74 KCAL/MOL
REMARK 927      BINDING AFFINITY PREDICTED BY RF-SCORE:    0.00 PKD
ROOT
HETATM    1 CL   UNL     1     -10.938   5.761  69.962  1.00  0.00    -0.407 Cl 
HETATM    2  C   UNL     1     -10.697   7.274  69.181  1.00  0.00    -0.185 A  
HETATM    3  C   UNL     1     -11.029   8.457  69.838  1.00  0.00    -0.166 A  
HETATM    4  C   UNL     1     -10.828   9.687  69.205  1.00  0.00    -0.190 A  
HETATM    5 CL   UNL     1     -11.276  11.112  70.071  1.00  0.00    -0.303 Cl 
HETATM    6  C   UNL     1     -10.284   9.747  67.912  1.00  0.00    -0.237 A  
HETATM    7  C   UNL     1      -9.944   8.535  67.275  1.00  0.00    -0.289 A  
HETATM    8  C   UNL     1     -10.164   7.307  67.897  1.00  0.00    -0.237 A  
ENDROOT
BRANCH   6   9
HETATM    9  C   UNL     1     -10.023  11.068  67.193  1.00  0.00    -0.187 C  
BRANCH   9  10
HETATM   10  C   UNL     1     -11.372  11.772  66.947  1.00  0.00    -0.320 C  
BRANCH  10  11
HETATM   11  N   UNL     1     -11.596  12.108  65.555  1.00  0.00    -0.360 NA 
HETATM   12  C   UNL     1     -10.895  11.643  64.477  1.00  0.00    -0.324 A  
HETATM   13  C   UNL     1     -12.615  12.890  65.081  1.00  0.00    -0.471 A  
HETATM   14  N   UNL     1     -12.577  12.980  63.773  1.00  0.00    -0.712 NA 
HETATM   15  C   UNL     1     -11.513  12.208  63.386  1.00  0.00    -0.416 A  
ENDBRANCH  10  11
ENDBRANCH   9  10
BRANCH   9  16
HETATM   16  O   UNL     1      -9.205  11.920  68.015  1.00  0.00    -0.176 OA 
BRANCH  16  17
HETATM   17  C   UNL     1      -8.248  12.684  67.270  1.00  0.00    -0.184 C  
BRANCH  17  18
HETATM   18  C   UNL     1      -8.279  14.121  67.698  1.00  0.00    -0.193 A  
HETATM   19  C   UNL     1      -7.573  14.603  68.781  1.00  0.00    -0.138 A  
HETATM   20  S   UNL     1      -7.803  16.263  69.042  1.00  0.00    -0.225 SA 
HETATM   21  C   UNL     1      -8.879  16.411  67.699  1.00  0.00    -0.188 A  
HETATM   22  C   UNL     1      -9.042  15.175  67.052  1.00  0.00    -0.249 A  
HETATM   23  C   UNL     1      -9.896  15.133  65.916  1.00  0.00    -0.372 A  
HETATM   24  C   UNL     1     -10.551  16.282  65.460  1.00  0.00    -0.369 A  
HETATM   25  C   UNL     1     -10.379  17.488  66.121  1.00  0.00    -0.330 A  
HETATM   26  C   UNL     1      -9.547  17.568  67.240  1.00  0.00    -0.273 A  
HETATM   27 CL   UNL     1      -9.370  19.095  68.026  1.00  0.00    -0.360 Cl 
ENDBRANCH  17  18
ENDBRANCH  16  17
ENDBRANCH   9  16
ENDBRANCH   6   9
TORSDOF 6
ENDMDL
MODEL       80
REMARK 921   NORMALIZED FREE ENERGY PREDICTED BY IDOCK:   -5.57 KCAL/MOL
REMARK 922        TOTAL FREE ENERGY PREDICTED BY IDOCK:   -8.57 KCAL/MOL
REMARK 923 INTER-LIGAND FREE ENERGY PREDICTED BY IDOCK:   -7.41 KCAL/MOL
REMARK 924 INTRA-LIGAND FREE ENERGY PREDICTED BY IDOCK:   -1.16 KCAL/MOL
REMARK 927      BINDING AFFINITY PREDICTED BY RF-SCORE:    0.00 PKD
ROOT
HETATM    1 CL   UNL     1      -9.184   4.349  65.117  1.00  0.00    -0.149 Cl 
HETATM    2  C   UNL     1      -9.373   5.640  66.236  1.00  0.00    -0.157 A  
HETATM    3  C   UNL     1     -10.312   5.543  67.260  1.00  0.00    -0.290 A  
HETATM    4  C   UNL     1     -10.462   6.592  68.172  1.00  0.00    -0.217 A  
HETATM    5 CL   UNL     1     -11.655   6.411  69.407  1.00  0.00    -0.382 Cl 
HETATM    6  C   UNL     1      -9.666   7.745  68.076  1.00  0.00    -0.176 A  
HETATM    7  C   UNL     1      -8.713   7.811  67.038  1.00  0.00    -0.131 A  
HETATM    8  C   UNL     1      -8.579   6.775  66.114  1.00  0.00    -0.146 A  
ENDROOT
BRANCH   6   9
HETATM    9  C   UNL     1      -9.776   8.902  69.065  1.00  0.00    -0.171 C  
BRANCH   9  10
HETATM   10  C   UNL     1      -8.603   8.814  70.061  1.00  0.00    -0.136 C  
BRANCH  10  11
HETATM   11  N   UNL     1      -8.976   8.226  71.332  1.00  0.00    -0.152 NA 
HETATM   12  C   UNL     1      -9.980   8.641  72.163  1.00  0.00    -0.316 A  
HETATM   13  C   UNL     1      -8.432   7.093  71.874  1.00  0.00    -0.108 A  
HETATM   14  N   UNL     1      -9.003   6.788  73.015  1.00  0.00    -0.127 NA 
HETATM   15  C   UNL     1      -9.968   7.743  73.205  1.00  0.00    -0.311 A  
ENDBRANCH  10  11
ENDBRANCH   9  10
BRANCH   9  16
HETATM   16  O   UNL     1      -9.689  10.155  68.363  1.00  0.00    -0.143 OA 
BRANCH  16  17
HETATM   17  C   UNL     1     -10.944  10.601  67.833  1.00  0.00    -0.295 C  
BRANCH  17  18
HETATM   18  C   UNL     1     -11.335  11.912  68.446  1.00  0.00    -0.331 A  
HETATM   19  C   UNL     1     -11.079  13.131  67.852  1.00  0.00    -0.262 A  
HETATM   20  S   UNL     1     -11.621  14.448  68.773  1.00  0.00    -0.335 SA 
HETATM   21  C   UNL     1     -12.226  13.430  70.029  1.00  0.00    -0.298 A  
HETATM   22  C   UNL     1     -12.014  12.076  69.719  1.00  0.00    -0.370 A  
HETATM   23  C   UNL     1     -12.467  11.107  70.656  1.00  0.00    -0.448 A  
HETATM   24  C   UNL     1     -13.100  11.488  71.844  1.00  0.00    -0.492 A  
HETATM   25  C   UNL     1     -13.290  12.831  72.129  1.00  0.00    -0.593 A  
HETATM   26  C   UNL     1     -12.859  13.811  71.232  1.00  0.00    -0.357 A  
HETATM   27 CL   UNL     1     -13.120  15.469  71.639  1.00  0.00    -0.520 Cl 
ENDBRANCH  17  18
ENDBRANCH  16  17
ENDBRANCH   9  16
ENDBRANCH   6   9
TORSDOF 6
ENDMDL
MODEL       81
REMARK 921   NORMALIZED FREE ENERGY PREDICTED BY IDOCK:   -5.55 KCAL/MOL
REMARK 922        TOTAL FREE ENERGY PREDICTED BY IDOCK:   -8.54 KCAL/MOL
REMARK 923 INTER-LIGAND FREE ENERGY PREDICTED BY IDOCK:   -7.43 KCAL/MOL
REMARK 924 INTRA-LIGAND FREE ENERGY PREDICTED BY IDOCK:   -1.11 KCAL/MOL
REMARK 927      BINDING AFFINITY PREDICTED BY RF-SCORE:    0.00 PKD
ROOT
HETATM    1 CL   UNL     1     -10.793  15.654  65.131  1.00  0.00    -0.428 Cl 
HETATM    2  C   UNL     1     -10.744  14.430  66.339  1.00  0.00    -0.306 A  
HETATM    3  C   UNL     1      -9.529  13.848  66.691  1.00  0.00    -0.296 A  
HETATM    4  C   UNL     1      -9.490  12.856  67.676  1.00  0.00    -0.197 A  
HETATM    5 CL   UNL     1      -7.952  12.167  68.053  1.00  0.00    -0.141 Cl 
HETATM    6  C   UNL     1     -10.664  12.444  68.326  1.00  0.00    -0.250 A  
HETATM    7  C   UNL     1     -11.879  13.060  67.958  1.00  0.00    -0.391 A  
HETATM    8  C   UNL     1     -11.922  14.034  66.961  1.00  0.00    -0.472 A  
ENDROOT
BRANCH   6   9
HETATM    9  C   UNL     1     -10.665  11.385  69.425  1.00  0.00    -0.104 C  
BRANCH   9  10
HETATM   10  C   UNL     1     -12.000  11.469  70.191  1.00  0.00    -0.369 C  
BRANCH  10  11
HETATM   11  N   UNL     1     -12.336  10.244  70.888  1.00  0.00    -0.342 NA 
HETATM   12  C   UNL     1     -11.542   9.555  71.763  1.00  0.00    -0.312 A  
HETATM   13  C   UNL     1     -13.552   9.616  70.850  1.00  0.00    -0.013 A  
HETATM   14  N   UNL     1     -13.563   8.550  71.616  1.00  0.00    -0.365 NA 
HETATM   15  C   UNL     1     -12.319   8.503  72.189  1.00  0.00    -0.382 A  
ENDBRANCH  10  11
ENDBRANCH   9  10
BRANCH   9  16
HETATM   16  O   UNL     1     -10.553  10.075  68.841  1.00  0.00    -0.200 OA 
BRANCH  16  17
HETATM   17  C   UNL     1     -11.138   9.979  67.536  1.00  0.00    -0.120 C  
BRANCH  17  18
HETATM   18  C   UNL     1     -10.119   9.520  66.537  1.00  0.00    -0.326 A  
HETATM   19  C   UNL     1      -9.270   8.454  66.759  1.00  0.00    -0.171 A  
HETATM   20  S   UNL     1      -8.212   8.164  65.465  1.00  0.00    -0.150 SA 
HETATM   21  C   UNL     1      -8.849   9.476  64.540  1.00  0.00    -0.213 A  
HETATM   22  C   UNL     1      -9.885  10.121  65.236  1.00  0.00    -0.388 A  
HETATM   23  C   UNL     1     -10.521  11.221  64.600  1.00  0.00    -0.387 A  
HETATM   24  C   UNL     1     -10.129  11.648  63.327  1.00  0.00    -0.454 A  
HETATM   25  C   UNL     1      -9.099  10.999  62.664  1.00  0.00    -0.375 A  
HETATM   26  C   UNL     1      -8.451   9.913  63.257  1.00  0.00    -0.180 A  
HETATM   27 CL   UNL     1      -7.173   9.143  62.388  1.00  0.00    -0.098 Cl 
ENDBRANCH  17  18
ENDBRANCH  16  17
ENDBRANCH   9  16
ENDBRANCH   6   9
TORSDOF 6
ENDMDL
MODEL       82
REMARK 921   NORMALIZED FREE ENERGY PREDICTED BY IDOCK:   -5.55 KCAL/MOL
REMARK 922        TOTAL FREE ENERGY PREDICTED BY IDOCK:   -8.54 KCAL/MOL
REMARK 923 INTER-LIGAND FREE ENERGY PREDICTED BY IDOCK:   -8.35 KCAL/MOL
REMARK 924 INTRA-LIGAND FREE ENERGY PREDICTED BY IDOCK:   -0.19 KCAL/MOL
REMARK 927      BINDING AFFINITY PREDICTED BY RF-SCORE:    0.00 PKD
ROOT
HETATM    1 CL   UNL     1     -10.037  20.343  66.152  1.00  0.00    -0.409 Cl 
HETATM    2  C   UNL     1     -10.265  18.702  66.611  1.00  0.00    -0.404 A  
HETATM    3  C   UNL     1     -10.223  17.698  65.646  1.00  0.00    -0.057 A  
HETATM    4  C   UNL     1     -10.405  16.363  66.020  1.00  0.00    -0.352 A  
HETATM    5 CL   UNL     1     -10.356  15.171  64.772  1.00  0.00    -0.287 Cl 
HETATM    6  C   UNL     1     -10.618  16.018  67.365  1.00  0.00    -0.316 A  
HETATM    7  C   UNL     1     -10.642  17.053  68.322  1.00  0.00    -0.372 A  
HETATM    8  C   UNL     1     -10.484  18.387  67.947  1.00  0.00    -0.416 A  
ENDROOT
BRANCH   6   9
HETATM    9  C   UNL     1     -10.794  14.572  67.822  1.00  0.00    -0.264 C  
BRANCH   9  10
HETATM   10  C   UNL     1     -10.489  14.490  69.331  1.00  0.00    -0.123 C  
BRANCH  10  11
HETATM   11  N   UNL     1     -11.675  14.312  70.145  1.00  0.00    -0.288 NA 
HETATM   12  C   UNL     1     -12.585  15.273  70.489  1.00  0.00    -0.399 A  
HETATM   13  C   UNL     1     -12.128  13.117  70.636  1.00  0.00    -0.264 A  
HETATM   14  N   UNL     1     -13.247  13.270  71.304  1.00  0.00    -0.211 NA 
HETATM   15  C   UNL     1     -13.541  14.606  71.218  1.00  0.00    -0.384 A  
ENDBRANCH  10  11
ENDBRANCH   9  10
BRANCH   9  16
HETATM   16  O   UNL     1     -12.153  14.152  67.606  1.00  0.00    -0.378 OA 
BRANCH  16  17
HETATM   17  C   UNL     1     -12.323  13.352  66.429  1.00  0.00    -0.321 C  
BRANCH  17  18
HETATM   18  C   UNL     1     -11.500  12.102  66.523  1.00  0.00    -0.430 A  
HETATM   19  C   UNL     1     -11.350  11.381  67.691  1.00  0.00    -0.290 A  
HETATM   20  S   UNL     1     -10.356  10.019  67.511  1.00  0.00    -0.249 SA 
HETATM   21  C   UNL     1     -10.073  10.341  65.838  1.00  0.00    -0.251 A  
HETATM   22  C   UNL     1     -10.762  11.496  65.429  1.00  0.00    -0.335 A  
HETATM   23  C   UNL     1     -10.637  11.890  64.069  1.00  0.00    -0.422 A  
HETATM   24  C   UNL     1      -9.856  11.157  63.170  1.00  0.00    -0.403 A  
HETATM   25  C   UNL     1      -9.180  10.025  63.601  1.00  0.00    -0.314 A  
HETATM   26  C   UNL     1      -9.280   9.606  64.930  1.00  0.00    -0.246 A  
HETATM   27 CL   UNL     1      -8.417   8.191  65.413  1.00  0.00    -0.164 Cl 
ENDBRANCH  17  18
ENDBRANCH  16  17
ENDBRANCH   9  16
ENDBRANCH   6   9
TORSDOF 6
ENDMDL
MODEL       83
REMARK 921   NORMALIZED FREE ENERGY PREDICTED BY IDOCK:   -5.53 KCAL/MOL
REMARK 922        TOTAL FREE ENERGY PREDICTED BY IDOCK:   -8.52 KCAL/MOL
REMARK 923 INTER-LIGAND FREE ENERGY PREDICTED BY IDOCK:   -7.39 KCAL/MOL
REMARK 924 INTRA-LIGAND FREE ENERGY PREDICTED BY IDOCK:   -1.13 KCAL/MOL
REMARK 927      BINDING AFFINITY PREDICTED BY RF-SCORE:    0.00 PKD
ROOT
HETATM    1 CL   UNL     1      -9.043   5.690  66.839  1.00  0.00    -0.115 Cl 
HETATM    2  C   UNL     1      -9.664   6.377  68.287  1.00  0.00    -0.127 A  
HETATM    3  C   UNL     1      -8.924   7.334  68.977  1.00  0.00    -0.134 A  
HETATM    4  C   UNL     1      -9.432   7.896  70.153  1.00  0.00    -0.160 A  
HETATM    5 CL   UNL     1      -8.455   9.065  70.965  1.00  0.00    -0.244 Cl 
HETATM    6  C   UNL     1     -10.691   7.514  70.644  1.00  0.00    -0.239 A  
HETATM    7  C   UNL     1     -11.425   6.553  69.917  1.00  0.00    -0.467 A  
HETATM    8  C   UNL     1     -10.909   5.976  68.757  1.00  0.00    -0.391 A  
ENDROOT
BRANCH   6   9
HETATM    9  C   UNL     1     -11.296   8.120  71.907  1.00  0.00    -0.296 C  
BRANCH   9  10
HETATM   10  C   UNL     1     -10.452   7.679  73.120  1.00  0.00    -0.374 C  
BRANCH  10  11
HETATM   11  N   UNL     1     -10.206   6.252  73.157  1.00  0.00    -0.190 NA 
HETATM   12  C   UNL     1      -8.993   5.628  73.065  1.00  0.00    -0.122 A  
HETATM   13  C   UNL     1     -11.152   5.288  73.379  1.00  0.00    -0.303 A  
HETATM   14  N   UNL     1     -10.618   4.090  73.393  1.00  0.00    -0.177 NA 
HETATM   15  C   UNL     1      -9.276   4.288  73.200  1.00  0.00    -0.110 A  
ENDBRANCH  10  11
ENDBRANCH   9  10
BRANCH   9  16
HETATM   16  O   UNL     1     -11.265   9.556  71.824  1.00  0.00    -0.363 OA 
BRANCH  16  17
HETATM   17  C   UNL     1     -12.502  10.128  71.381  1.00  0.00    -0.423 C  
BRANCH  17  18
HETATM   18  C   UNL     1     -12.245  11.319  70.507  1.00  0.00    -0.474 A  
HETATM   19  C   UNL     1     -12.475  12.618  70.912  1.00  0.00    -0.278 A  
HETATM   20  S   UNL     1     -12.107  13.764  69.717  1.00  0.00    -0.325 SA 
HETATM   21  C   UNL     1     -11.622  12.554  68.585  1.00  0.00    -0.314 A  
HETATM   22  C   UNL     1     -11.737  11.271  69.147  1.00  0.00    -0.410 A  
HETATM   23  C   UNL     1     -11.366  10.162  68.339  1.00  0.00    -0.179 A  
HETATM   24  C   UNL     1     -10.903  10.341  67.031  1.00  0.00    -0.248 A  
HETATM   25  C   UNL     1     -10.805  11.618  66.498  1.00  0.00    -0.328 A  
HETATM   26  C   UNL     1     -11.161  12.731  67.262  1.00  0.00    -0.295 A  
HETATM   27 CL   UNL     1     -11.021  14.297  66.548  1.00  0.00    -0.311 Cl 
ENDBRANCH  17  18
ENDBRANCH  16  17
ENDBRANCH   9  16
ENDBRANCH   6   9
TORSDOF 6
ENDMDL
MODEL       84
REMARK 921   NORMALIZED FREE ENERGY PREDICTED BY IDOCK:   -5.53 KCAL/MOL
REMARK 922        TOTAL FREE ENERGY PREDICTED BY IDOCK:   -8.51 KCAL/MOL
REMARK 923 INTER-LIGAND FREE ENERGY PREDICTED BY IDOCK:   -7.63 KCAL/MOL
REMARK 924 INTRA-LIGAND FREE ENERGY PREDICTED BY IDOCK:   -0.87 KCAL/MOL
REMARK 927      BINDING AFFINITY PREDICTED BY RF-SCORE:    0.00 PKD
ROOT
HETATM    1 CL   UNL     1      -8.814   5.379  66.143  1.00  0.00    -0.134 Cl 
HETATM    2  C   UNL     1      -9.119   7.034  66.496  1.00  0.00    -0.156 A  
HETATM    3  C   UNL     1      -8.120   7.984  66.296  1.00  0.00    -0.112 A  
HETATM    4  C   UNL     1      -8.369   9.330  66.580  1.00  0.00    -0.126 A  
HETATM    5 CL   UNL     1      -7.082  10.452  66.323  1.00  0.00    -0.116 Cl 
HETATM    6  C   UNL     1      -9.625   9.742  67.056  1.00  0.00    -0.218 A  
HETATM    7  C   UNL     1     -10.623   8.761  67.236  1.00  0.00    -0.303 A  
HETATM    8  C   UNL     1     -10.367   7.415  66.975  1.00  0.00    -0.384 A  
ENDROOT
BRANCH   6   9
HETATM    9  C   UNL     1      -9.950  11.203  67.353  1.00  0.00    -0.179 C  
BRANCH   9  10
HETATM   10  C   UNL     1     -11.352  11.521  66.794  1.00  0.00    -0.238 C  
BRANCH  10  11
HETATM   11  N   UNL     1     -11.325  12.016  65.433  1.00  0.00    -0.335 NA 
HETATM   12  C   UNL     1     -12.356  12.607  64.756  1.00  0.00    -0.489 A  
HETATM   13  C   UNL     1     -10.224  12.051  64.621  1.00  0.00    -0.282 A  
HETATM   14  N   UNL     1     -10.505  12.591  63.459  1.00  0.00    -0.392 NA 
HETATM   15  C   UNL     1     -11.827  12.941  63.531  1.00  0.00    -0.536 A  
ENDBRANCH  10  11
ENDBRANCH   9  10
BRANCH   9  16
HETATM   16  O   UNL     1      -9.963  11.422  68.774  1.00  0.00    -0.206 OA 
BRANCH  16  17
HETATM   17  C   UNL     1     -11.283  11.498  69.328  1.00  0.00    -0.272 C  
BRANCH  17  18
HETATM   18  C   UNL     1     -11.467  10.454  70.388  1.00  0.00    -0.420 A  
HETATM   19  C   UNL     1     -12.677  10.205  71.003  1.00  0.00    -0.386 A  
HETATM   20  S   UNL     1     -12.592   8.979  72.173  1.00  0.00    -0.384 SA 
HETATM   21  C   UNL     1     -10.904   8.727  71.908  1.00  0.00    -0.360 A  
HETATM   22  C   UNL     1     -10.423   9.587  70.906  1.00  0.00    -0.382 A  
HETATM   23  C   UNL     1      -9.046   9.495  70.565  1.00  0.00    -0.276 A  
HETATM   24  C   UNL     1      -8.200   8.582  71.203  1.00  0.00    -0.172 A  
HETATM   25  C   UNL     1      -8.699   7.750  72.194  1.00  0.00    -0.169 A  
HETATM   26  C   UNL     1     -10.047   7.811  72.555  1.00  0.00    -0.242 A  
HETATM   27 CL   UNL     1     -10.614   6.753  73.796  1.00  0.00    -0.362 Cl 
ENDBRANCH  17  18
ENDBRANCH  16  17
ENDBRANCH   9  16
ENDBRANCH   6   9
TORSDOF 6
ENDMDL
MODEL       85
REMARK 921   NORMALIZED FREE ENERGY PREDICTED BY IDOCK:   -5.52 KCAL/MOL
REMARK 922        TOTAL FREE ENERGY PREDICTED BY IDOCK:   -8.50 KCAL/MOL
REMARK 923 INTER-LIGAND FREE ENERGY PREDICTED BY IDOCK:   -7.88 KCAL/MOL
REMARK 924 INTRA-LIGAND FREE ENERGY PREDICTED BY IDOCK:   -0.62 KCAL/MOL
REMARK 927      BINDING AFFINITY PREDICTED BY RF-SCORE:    0.00 PKD
ROOT
HETATM    1 CL   UNL     1     -10.325  17.296  65.974  1.00  0.00    -0.349 Cl 
HETATM    2  C   UNL     1     -10.524  15.596  66.145  1.00  0.00    -0.317 A  
HETATM    3  C   UNL     1     -11.514  14.935  65.422  1.00  0.00    -0.320 A  
HETATM    4  C   UNL     1     -11.672  13.552  65.559  1.00  0.00    -0.340 A  
HETATM    5 CL   UNL     1     -12.928  12.799  64.645  1.00  0.00    -0.350 Cl 
HETATM    6  C   UNL     1     -10.834  12.815  66.411  1.00  0.00    -0.294 A  
HETATM    7  C   UNL     1      -9.831  13.509  67.120  1.00  0.00    -0.245 A  
HETATM    8  C   UNL     1      -9.687  14.891  67.002  1.00  0.00    -0.240 A  
ENDROOT
BRANCH   6   9
HETATM    9  C   UNL     1     -10.952  11.302  66.570  1.00  0.00    -0.245 C  
BRANCH   9  10
HETATM   10  C   UNL     1      -9.557  10.727  66.882  1.00  0.00    -0.171 C  
BRANCH  10  11
HETATM   11  N   UNL     1      -8.860  10.248  65.705  1.00  0.00    -0.155 NA 
HETATM   12  C   UNL     1      -9.418   9.911  64.503  1.00  0.00    -0.264 A  
HETATM   13  C   UNL     1      -7.502  10.137  65.577  1.00  0.00    -0.146 A  
HETATM   14  N   UNL     1      -7.169   9.711  64.381  1.00  0.00    -0.116 NA 
HETATM   15  C   UNL     1      -8.352   9.569  63.704  1.00  0.00    -0.176 A  
ENDBRANCH  10  11
ENDBRANCH   9  10
BRANCH   9  16
HETATM   16  O   UNL     1     -11.831  10.993  67.667  1.00  0.00    -0.599 OA 
BRANCH  16  17
HETATM   17  C   UNL     1     -11.426  11.585  68.907  1.00  0.00    -0.289 C  
BRANCH  17  18
HETATM   18  C   UNL     1     -11.602  10.613  70.035  1.00  0.00    -0.406 A  
HETATM   19  C   UNL     1     -12.809  10.400  70.668  1.00  0.00    -0.313 A  
HETATM   20  S   UNL     1     -12.715   9.255  71.916  1.00  0.00    -0.414 SA 
HETATM   21  C   UNL     1     -11.028   8.992  71.663  1.00  0.00    -0.365 A  
HETATM   22  C   UNL     1     -10.552   9.786  70.605  1.00  0.00    -0.382 A  
HETATM   23  C   UNL     1      -9.176   9.677  70.266  1.00  0.00    -0.285 A  
HETATM   24  C   UNL     1      -8.325   8.812  70.960  1.00  0.00    -0.208 A  
HETATM   25  C   UNL     1      -8.817   8.044  72.005  1.00  0.00    -0.209 A  
HETATM   26  C   UNL     1     -10.164   8.124  72.366  1.00  0.00    -0.298 A  
HETATM   27 CL   UNL     1     -10.723   7.147  73.676  1.00  0.00    -0.385 Cl 
ENDBRANCH  17  18
ENDBRANCH  16  17
ENDBRANCH   9  16
ENDBRANCH   6   9
TORSDOF 6
ENDMDL
MODEL       86
REMARK 921   NORMALIZED FREE ENERGY PREDICTED BY IDOCK:   -5.52 KCAL/MOL
REMARK 922        TOTAL FREE ENERGY PREDICTED BY IDOCK:   -8.50 KCAL/MOL
REMARK 923 INTER-LIGAND FREE ENERGY PREDICTED BY IDOCK:   -7.52 KCAL/MOL
REMARK 924 INTRA-LIGAND FREE ENERGY PREDICTED BY IDOCK:   -0.98 KCAL/MOL
REMARK 927      BINDING AFFINITY PREDICTED BY RF-SCORE:    0.00 PKD
ROOT
HETATM    1 CL   UNL     1     -11.097   4.984  73.586  1.00  0.00    -0.377 Cl 
HETATM    2  C   UNL     1     -10.691   6.063  72.309  1.00  0.00    -0.230 A  
HETATM    3  C   UNL     1      -9.355   6.350  72.039  1.00  0.00    -0.151 A  
HETATM    4  C   UNL     1      -9.025   7.223  70.998  1.00  0.00    -0.149 A  
HETATM    5 CL   UNL     1      -7.351   7.546  70.728  1.00  0.00    -0.067 Cl 
HETATM    6  C   UNL     1     -10.028   7.810  70.210  1.00  0.00    -0.189 A  
HETATM    7  C   UNL     1     -11.372   7.491  70.497  1.00  0.00    -0.279 A  
HETATM    8  C   UNL     1     -11.703   6.638  71.549  1.00  0.00    -0.369 A  
ENDROOT
BRANCH   6   9
HETATM    9  C   UNL     1      -9.714   8.748  69.048  1.00  0.00    -0.172 C  
BRANCH   9  10
HETATM   10  C   UNL     1     -10.627   8.385  67.859  1.00  0.00    -0.154 C  
BRANCH  10  11
HETATM   11  N   UNL     1     -10.230   7.166  67.185  1.00  0.00    -0.228 NA 
HETATM   12  C   UNL     1     -11.009   6.066  66.956  1.00  0.00    -0.276 A  
HETATM   13  C   UNL     1      -9.019   6.949  66.583  1.00  0.00    -0.145 A  
HETATM   14  N   UNL     1      -8.971   5.763  66.023  1.00  0.00    -0.150 NA 
HETATM   15  C   UNL     1     -10.203   5.206  66.247  1.00  0.00    -0.253 A  
ENDBRANCH  10  11
ENDBRANCH   9  10
BRANCH   9  16
HETATM   16  O   UNL     1      -9.979  10.109  69.431  1.00  0.00    -0.204 OA 
BRANCH  16  17
HETATM   17  C   UNL     1     -11.226  10.610  68.930  1.00  0.00    -0.275 C  
BRANCH  17  18
HETATM   18  C   UNL     1     -11.895  11.471  69.959  1.00  0.00    -0.435 A  
HETATM   19  C   UNL     1     -12.563  10.961  71.054  1.00  0.00    -0.417 A  
HETATM   20  S   UNL     1     -13.235  12.163  72.044  1.00  0.00    -0.223 SA 
HETATM   21  C   UNL     1     -12.657  13.438  71.034  1.00  0.00    -0.343 A  
HETATM   22  C   UNL     1     -11.937  12.923  69.942  1.00  0.00    -0.377 A  
HETATM   23  C   UNL     1     -11.386  13.852  69.018  1.00  0.00    -0.324 A  
HETATM   24  C   UNL     1     -11.555  15.230  69.188  1.00  0.00    -0.349 A  
HETATM   25  C   UNL     1     -12.276  15.713  70.270  1.00  0.00    -0.416 A  
HETATM   26  C   UNL     1     -12.831  14.830  71.199  1.00  0.00    -0.341 A  
HETATM   27 CL   UNL     1     -13.720  15.486  72.526  1.00  0.00    -0.622 Cl 
ENDBRANCH  17  18
ENDBRANCH  16  17
ENDBRANCH   9  16
ENDBRANCH   6   9
TORSDOF 6
ENDMDL
MODEL       87
REMARK 921   NORMALIZED FREE ENERGY PREDICTED BY IDOCK:   -5.52 KCAL/MOL
REMARK 922        TOTAL FREE ENERGY PREDICTED BY IDOCK:   -8.50 KCAL/MOL
REMARK 923 INTER-LIGAND FREE ENERGY PREDICTED BY IDOCK:   -7.28 KCAL/MOL
REMARK 924 INTRA-LIGAND FREE ENERGY PREDICTED BY IDOCK:   -1.21 KCAL/MOL
REMARK 927      BINDING AFFINITY PREDICTED BY RF-SCORE:    0.00 PKD
ROOT
HETATM    1 CL   UNL     1     -14.389   9.049  72.768  1.00  0.00    -0.220 Cl 
HETATM    2  C   UNL     1     -13.079   9.083  71.654  1.00  0.00    -0.365 A  
HETATM    3  C   UNL     1     -12.198   8.007  71.583  1.00  0.00    -0.340 A  
HETATM    4  C   UNL     1     -11.135   8.034  70.675  1.00  0.00    -0.262 A  
HETATM    5 CL   UNL     1     -10.072   6.674  70.649  1.00  0.00    -0.201 Cl 
HETATM    6  C   UNL     1     -10.950   9.133  69.820  1.00  0.00    -0.195 A  
HETATM    7  C   UNL     1     -11.865  10.203  69.905  1.00  0.00    -0.206 A  
HETATM    8  C   UNL     1     -12.912  10.187  70.826  1.00  0.00    -0.380 A  
ENDROOT
BRANCH   6   9
HETATM    9  C   UNL     1      -9.821   9.194  68.795  1.00  0.00    -0.167 C  
BRANCH   9  10
HETATM   10  C   UNL     1     -10.364   8.719  67.433  1.00  0.00    -0.280 C  
BRANCH  10  11
HETATM   11  N   UNL     1     -10.150   7.307  67.193  1.00  0.00    -0.211 NA 
HETATM   12  C   UNL     1      -8.946   6.670  67.069  1.00  0.00    -0.118 A  
HETATM   13  C   UNL     1     -11.130   6.353  67.138  1.00  0.00    -0.341 A  
HETATM   14  N   UNL     1     -10.623   5.158  66.945  1.00  0.00    -0.224 NA 
HETATM   15  C   UNL     1      -9.266   5.343  66.902  1.00  0.00    -0.121 A  
ENDBRANCH  10  11
ENDBRANCH   9  10
BRANCH   9  16
HETATM   16  O   UNL     1      -9.357  10.549  68.657  1.00  0.00    -0.156 OA 
BRANCH  16  17
HETATM   17  C   UNL     1      -8.926  10.872  67.329  1.00  0.00    -0.137 C  
BRANCH  17  18
HETATM   18  C   UNL     1      -9.549  12.158  66.874  1.00  0.00    -0.210 A  
HETATM   19  C   UNL     1      -9.418  13.347  67.563  1.00  0.00    -0.219 A  
HETATM   20  S   UNL     1     -10.238  14.637  66.827  1.00  0.00    -0.273 SA 
HETATM   21  C   UNL     1     -10.817  13.645  65.538  1.00  0.00    -0.294 A  
HETATM   22  C   UNL     1     -10.361  12.324  65.681  1.00  0.00    -0.287 A  
HETATM   23  C   UNL     1     -10.747  11.382  64.689  1.00  0.00    -0.378 A  
HETATM   24  C   UNL     1     -11.553  11.757  63.609  1.00  0.00    -0.521 A  
HETATM   25  C   UNL     1     -11.996  13.066  63.495  1.00  0.00    -0.615 A  
HETATM   26  C   UNL     1     -11.636  14.019  64.450  1.00  0.00    -0.369 A  
HETATM   27 CL   UNL     1     -12.217  15.634  64.260  1.00  0.00    -0.195 Cl 
ENDBRANCH  17  18
ENDBRANCH  16  17
ENDBRANCH   9  16
ENDBRANCH   6   9
TORSDOF 6
ENDMDL
MODEL       88
REMARK 921   NORMALIZED FREE ENERGY PREDICTED BY IDOCK:   -5.51 KCAL/MOL
REMARK 922        TOTAL FREE ENERGY PREDICTED BY IDOCK:   -8.49 KCAL/MOL
REMARK 923 INTER-LIGAND FREE ENERGY PREDICTED BY IDOCK:   -8.15 KCAL/MOL
REMARK 924 INTRA-LIGAND FREE ENERGY PREDICTED BY IDOCK:   -0.34 KCAL/MOL
REMARK 927      BINDING AFFINITY PREDICTED BY RF-SCORE:    0.00 PKD
ROOT
HETATM    1 CL   UNL     1     -13.003  16.168  74.293  1.00  0.00    -0.338 Cl 
HETATM    2  C   UNL     1     -12.654  15.223  72.900  1.00  0.00    -0.408 A  
HETATM    3  C   UNL     1     -11.613  15.593  72.051  1.00  0.00    -0.540 A  
HETATM    4  C   UNL     1     -11.327  14.821  70.921  1.00  0.00    -0.162 A  
HETATM    5 CL   UNL     1     -10.034  15.345  69.904  1.00  0.00    -0.270 Cl 
HETATM    6  C   UNL     1     -12.072  13.666  70.634  1.00  0.00    -0.398 A  
HETATM    7  C   UNL     1     -13.111  13.307  71.518  1.00  0.00    -0.414 A  
HETATM    8  C   UNL     1     -13.412  14.088  72.633  1.00  0.00    -0.650 A  
ENDROOT
BRANCH   6   9
HETATM    9  C   UNL     1     -11.777  12.779  69.427  1.00  0.00    -0.319 C  
BRANCH   9  10
HETATM   10  C   UNL     1     -12.498  11.430  69.617  1.00  0.00    -0.067 C  
BRANCH  10  11
HETATM   11  N   UNL     1     -11.637  10.391  70.144  1.00  0.00    -0.289 NA 
HETATM   12  C   UNL     1     -10.663   9.712  69.465  1.00  0.00    -0.232 A  
HETATM   13  C   UNL     1     -11.600   9.975  71.447  1.00  0.00    -0.305 A  
HETATM   14  N   UNL     1     -10.691   9.046  71.626  1.00  0.00    -0.348 NA 
HETATM   15  C   UNL     1     -10.101   8.876  70.401  1.00  0.00    -0.196 A  
ENDBRANCH  10  11
ENDBRANCH   9  10
BRANCH   9  16
HETATM   16  O   UNL     1     -12.276  13.402  68.229  1.00  0.00    -0.286 OA 
BRANCH  16  17
HETATM   17  C   UNL     1     -11.249  13.993  67.423  1.00  0.00    -0.311 C  
BRANCH  17  18
HETATM   18  C   UNL     1     -10.280  12.947  66.959  1.00  0.00    -0.243 A  
HETATM   19  C   UNL     1      -9.251  12.469  67.744  1.00  0.00    -0.198 A  
HETATM   20  S   UNL     1      -8.302  11.301  66.961  1.00  0.00    -0.158 SA 
HETATM   21  C   UNL     1      -9.238  11.389  65.513  1.00  0.00    -0.177 A  
HETATM   22  C   UNL     1     -10.287  12.315  65.652  1.00  0.00    -0.287 A  
HETATM   23  C   UNL     1     -11.157  12.496  64.543  1.00  0.00    -0.357 A  
HETATM   24  C   UNL     1     -10.976  11.780  63.355  1.00  0.00    -0.458 A  
HETATM   25  C   UNL     1      -9.929  10.878  63.241  1.00  0.00    -0.399 A  
HETATM   26  C   UNL     1      -9.055  10.672  64.310  1.00  0.00    -0.220 A  
HETATM   27 CL   UNL     1      -7.768   9.538  64.113  1.00  0.00    -0.118 Cl 
ENDBRANCH  17  18
ENDBRANCH  16  17
ENDBRANCH   9  16
ENDBRANCH   6   9
TORSDOF 6
ENDMDL
MODEL       89
REMARK 921   NORMALIZED FREE ENERGY PREDICTED BY IDOCK:   -5.51 KCAL/MOL
REMARK 922        TOTAL FREE ENERGY PREDICTED BY IDOCK:   -8.49 KCAL/MOL
REMARK 923 INTER-LIGAND FREE ENERGY PREDICTED BY IDOCK:   -7.55 KCAL/MOL
REMARK 924 INTRA-LIGAND FREE ENERGY PREDICTED BY IDOCK:   -0.93 KCAL/MOL
REMARK 927      BINDING AFFINITY PREDICTED BY RF-SCORE:    0.00 PKD
ROOT
HETATM    1 CL   UNL     1      -5.768  13.714  69.524  1.00  0.00    -0.091 Cl 
HETATM    2  C   UNL     1      -7.213  14.344  68.838  1.00  0.00    -0.125 A  
HETATM    3  C   UNL     1      -8.247  14.773  69.667  1.00  0.00     0.124 A  
HETATM    4  C   UNL     1      -9.421  15.289  69.109  1.00  0.00    -0.236 A  
HETATM    5 CL   UNL     1     -10.668  15.789  70.194  1.00  0.00    -0.337 Cl 
HETATM    6  C   UNL     1      -9.567  15.392  67.716  1.00  0.00    -0.210 A  
HETATM    7  C   UNL     1      -8.499  14.962  66.901  1.00  0.00    -0.255 A  
HETATM    8  C   UNL     1      -7.337  14.426  67.456  1.00  0.00    -0.208 A  
ENDROOT
BRANCH   6   9
HETATM    9  C   UNL     1     -10.819  15.973  67.064  1.00  0.00    -0.227 C  
BRANCH   9  10
HETATM   10  C   UNL     1     -10.413  16.670  65.750  1.00  0.00    -0.311 C  
BRANCH  10  11
HETATM   11  N   UNL     1      -9.973  18.038  65.941  1.00  0.00    -0.570 NA 
HETATM   12  C   UNL     1      -8.706  18.456  66.243  1.00  0.00    -0.191 A  
HETATM   13  C   UNL     1     -10.745  19.153  65.762  1.00  0.00    -0.307 A  
HETATM   14  N   UNL     1     -10.056  20.250  65.972  1.00  0.00    -0.379 NA 
HETATM   15  C   UNL     1      -8.787  19.829  66.271  1.00  0.00    -0.370 A  
ENDBRANCH  10  11
ENDBRANCH   9  10
BRANCH   9  16
HETATM   16  O   UNL     1     -11.745  14.917  66.755  1.00  0.00    -0.335 OA 
BRANCH  16  17
HETATM   17  C   UNL     1     -11.674  14.475  65.393  1.00  0.00    -0.354 C  
BRANCH  17  18
HETATM   18  C   UNL     1     -11.198  13.055  65.328  1.00  0.00    -0.316 A  
HETATM   19  C   UNL     1     -10.693  12.479  64.179  1.00  0.00    -0.391 A  
HETATM   20  S   UNL     1     -10.243  10.857  64.389  1.00  0.00    -0.360 SA 
HETATM   21  C   UNL     1     -10.715  10.853  66.050  1.00  0.00    -0.140 A  
HETATM   22  C   UNL     1     -11.207  12.112  66.432  1.00  0.00    -0.380 A  
HETATM   23  C   UNL     1     -11.631  12.273  67.779  1.00  0.00    -0.416 A  
HETATM   24  C   UNL     1     -11.562  11.215  68.692  1.00  0.00    -0.383 A  
HETATM   25  C   UNL     1     -11.079   9.980  68.288  1.00  0.00    -0.247 A  
HETATM   26  C   UNL     1     -10.653   9.785  66.972  1.00  0.00    -0.199 A  
HETATM   27 CL   UNL     1     -10.061   8.226  66.522  1.00  0.00    -0.339 Cl 
ENDBRANCH  17  18
ENDBRANCH  16  17
ENDBRANCH   9  16
ENDBRANCH   6   9
TORSDOF 6
ENDMDL
MODEL       90
REMARK 921   NORMALIZED FREE ENERGY PREDICTED BY IDOCK:   -5.50 KCAL/MOL
REMARK 922        TOTAL FREE ENERGY PREDICTED BY IDOCK:   -8.48 KCAL/MOL
REMARK 923 INTER-LIGAND FREE ENERGY PREDICTED BY IDOCK:   -7.25 KCAL/MOL
REMARK 924 INTRA-LIGAND FREE ENERGY PREDICTED BY IDOCK:   -1.23 KCAL/MOL
REMARK 927      BINDING AFFINITY PREDICTED BY RF-SCORE:    0.00 PKD
ROOT
HETATM    1 CL   UNL     1     -10.276   5.894  68.556  1.00  0.00    -0.215 Cl 
HETATM    2  C   UNL     1     -10.415   7.605  68.461  1.00  0.00    -0.174 A  
HETATM    3  C   UNL     1     -10.306   8.245  67.229  1.00  0.00    -0.372 A  
HETATM    4  C   UNL     1     -10.423   9.636  67.152  1.00  0.00    -0.249 A  
HETATM    5 CL   UNL     1     -10.264  10.366  65.595  1.00  0.00    -0.328 Cl 
HETATM    6  C   UNL     1     -10.661  10.401  68.306  1.00  0.00    -0.275 A  
HETATM    7  C   UNL     1     -10.780   9.725  69.539  1.00  0.00    -0.255 A  
HETATM    8  C   UNL     1     -10.641   8.340  69.619  1.00  0.00    -0.222 A  
ENDROOT
BRANCH   6   9
HETATM    9  C   UNL     1     -10.822  11.918  68.266  1.00  0.00    -0.224 C  
BRANCH   9  10
HETATM   10  C   UNL     1     -11.719  12.351  69.442  1.00  0.00    -0.322 C  
BRANCH  10  11
HETATM   11  N   UNL     1     -11.766  13.788  69.626  1.00  0.00    -0.302 NA 
HETATM   12  C   UNL     1     -11.259  14.495  70.681  1.00  0.00    -0.001 A  
HETATM   13  C   UNL     1     -12.256  14.689  68.720  1.00  0.00    -0.119 A  
HETATM   14  N   UNL     1     -12.126  15.920  69.155  1.00  0.00    -0.262 NA 
HETATM   15  C   UNL     1     -11.507  15.812  70.372  1.00  0.00    -0.365 A  
ENDBRANCH  10  11
ENDBRANCH   9  10
BRANCH   9  16
HETATM   16  O   UNL     1      -9.538  12.550  68.410  1.00  0.00    -0.217 OA 
BRANCH  16  17
HETATM   17  C   UNL     1      -8.924  12.888  67.160  1.00  0.00    -0.219 C  
BRANCH  17  18
HETATM   18  C   UNL     1      -9.529  14.140  66.600  1.00  0.00    -0.303 A  
HETATM   19  C   UNL     1     -10.368  14.151  65.505  1.00  0.00    -0.351 A  
HETATM   20  S   UNL     1     -10.894  15.707  65.083  1.00  0.00    -0.419 SA 
HETATM   21  C   UNL     1     -10.003  16.448  66.363  1.00  0.00    -0.303 A  
HETATM   22  C   UNL     1      -9.314  15.481  67.116  1.00  0.00    -0.227 A  
HETATM   23  C   UNL     1      -8.538  15.934  68.216  1.00  0.00    -0.176 A  
HETATM   24  C   UNL     1      -8.460  17.293  68.539  1.00  0.00    -0.267 A  
HETATM   25  C   UNL     1      -9.144  18.227  67.776  1.00  0.00    -0.273 A  
HETATM   26  C   UNL     1      -9.918  17.819  66.687  1.00  0.00    -0.338 A  
HETATM   27 CL   UNL     1     -10.746  19.025  65.770  1.00  0.00    -0.474 Cl 
ENDBRANCH  17  18
ENDBRANCH  16  17
ENDBRANCH   9  16
ENDBRANCH   6   9
TORSDOF 6
ENDMDL
MODEL       91
REMARK 921   NORMALIZED FREE ENERGY PREDICTED BY IDOCK:   -5.48 KCAL/MOL
REMARK 922        TOTAL FREE ENERGY PREDICTED BY IDOCK:   -8.45 KCAL/MOL
REMARK 923 INTER-LIGAND FREE ENERGY PREDICTED BY IDOCK:   -6.96 KCAL/MOL
REMARK 924 INTRA-LIGAND FREE ENERGY PREDICTED BY IDOCK:   -1.48 KCAL/MOL
REMARK 927      BINDING AFFINITY PREDICTED BY RF-SCORE:    0.00 PKD
ROOT
HETATM    1 CL   UNL     1     -11.521   5.223  73.005  1.00  0.00    -0.372 Cl 
HETATM    2  C   UNL     1     -11.070   6.600  72.080  1.00  0.00    -0.254 A  
HETATM    3  C   UNL     1     -11.757   7.801  72.240  1.00  0.00    -0.390 A  
HETATM    4  C   UNL     1     -11.387   8.922  71.491  1.00  0.00    -0.325 A  
HETATM    5 CL   UNL     1     -12.291  10.374  71.727  1.00  0.00    -0.396 Cl 
HETATM    6  C   UNL     1     -10.318   8.856  70.582  1.00  0.00    -0.265 A  
HETATM    7  C   UNL     1      -9.631   7.631  70.451  1.00  0.00    -0.168 A  
HETATM    8  C   UNL     1     -10.014   6.506  71.181  1.00  0.00    -0.202 A  
ENDROOT
BRANCH   6   9
HETATM    9  C   UNL     1      -9.863  10.061  69.763  1.00  0.00    -0.235 C  
BRANCH   9  10
HETATM   10  C   UNL     1      -8.323  10.055  69.690  1.00  0.00    -0.176 C  
BRANCH  10  11
HETATM   11  N   UNL     1      -7.796  10.941  68.671  1.00  0.00    -0.118 NA 
HETATM   12  C   UNL     1      -7.332  10.584  67.435  1.00  0.00    -0.093 A  
HETATM   13  C   UNL     1      -7.756  12.307  68.750  1.00  0.00    -0.016 A  
HETATM   14  N   UNL     1      -7.258  12.833  67.656  1.00  0.00    -0.127 NA 
HETATM   15  C   UNL     1      -6.993  11.772  66.831  1.00  0.00    -0.101 A  
ENDBRANCH  10  11
ENDBRANCH   9  10
BRANCH   9  16
HETATM   16  O   UNL     1     -10.385   9.970  68.426  1.00  0.00    -0.173 OA 
BRANCH  16  17
HETATM   17  C   UNL     1     -11.599  10.708  68.236  1.00  0.00    -0.167 C  
BRANCH  17  18
HETATM   18  C   UNL     1     -11.296  12.131  67.876  1.00  0.00    -0.361 A  
HETATM   19  C   UNL     1     -10.728  12.503  66.674  1.00  0.00    -0.236 A  
HETATM   20  S   UNL     1     -10.485  14.176  66.541  1.00  0.00    -0.285 SA 
HETATM   21  C   UNL     1     -11.133  14.482  68.111  1.00  0.00    -0.266 A  
HETATM   22  C   UNL     1     -11.544  13.285  68.723  1.00  0.00    -0.350 A  
HETATM   23  C   UNL     1     -12.111  13.371  70.023  1.00  0.00    -0.404 A  
HETATM   24  C   UNL     1     -12.253  14.602  70.672  1.00  0.00    -0.394 A  
HETATM   25  C   UNL     1     -11.832  15.767  70.050  1.00  0.00    -0.365 A  
HETATM   26  C   UNL     1     -11.272  15.722  68.772  1.00  0.00    -0.342 A  
HETATM   27 CL   UNL     1     -10.764  17.204  68.044  1.00  0.00    -0.383 Cl 
ENDBRANCH  17  18
ENDBRANCH  16  17
ENDBRANCH   9  16
ENDBRANCH   6   9
TORSDOF 6
ENDMDL
MODEL       92
REMARK 921   NORMALIZED FREE ENERGY PREDICTED BY IDOCK:   -5.48 KCAL/MOL
REMARK 922        TOTAL FREE ENERGY PREDICTED BY IDOCK:   -8.44 KCAL/MOL
REMARK 923 INTER-LIGAND FREE ENERGY PREDICTED BY IDOCK:   -7.67 KCAL/MOL
REMARK 924 INTRA-LIGAND FREE ENERGY PREDICTED BY IDOCK:   -0.77 KCAL/MOL
REMARK 927      BINDING AFFINITY PREDICTED BY RF-SCORE:    0.00 PKD
ROOT
HETATM    1 CL   UNL     1     -11.259  15.721  64.471  1.00  0.00    -0.409 Cl 
HETATM    2  C   UNL     1     -11.131  14.599  65.768  1.00  0.00    -0.331 A  
HETATM    3  C   UNL     1      -9.912  14.425  66.420  1.00  0.00    -0.305 A  
HETATM    4  C   UNL     1      -9.810  13.516  67.477  1.00  0.00    -0.227 A  
HETATM    5 CL   UNL     1      -8.267  13.338  68.231  1.00  0.00    -0.154 Cl 
HETATM    6  C   UNL     1     -10.929  12.780  67.900  1.00  0.00    -0.262 A  
HETATM    7  C   UNL     1     -12.154  12.986  67.231  1.00  0.00    -0.304 A  
HETATM    8  C   UNL     1     -12.251  13.876  66.162  1.00  0.00    -0.498 A  
ENDROOT
BRANCH   6   9
HETATM    9  C   UNL     1     -10.871  11.797  69.067  1.00  0.00    -0.195 C  
BRANCH   9  10
HETATM   10  C   UNL     1     -12.282  11.663  69.672  1.00  0.00    -0.206 C  
BRANCH  10  11
HETATM   11  N   UNL     1     -12.525  12.583  70.764  1.00  0.00    -0.325 NA 
HETATM   12  C   UNL     1     -12.199  13.911  70.805  1.00  0.00    -0.369 A  
HETATM   13  C   UNL     1     -13.207  12.289  71.914  1.00  0.00    -0.376 A  
HETATM   14  N   UNL     1     -13.297  13.338  72.697  1.00  0.00    -0.489 NA 
HETATM   15  C   UNL     1     -12.675  14.352  72.018  1.00  0.00    -0.328 A  
ENDBRANCH  10  11
ENDBRANCH   9  10
BRANCH   9  16
HETATM   16  O   UNL     1     -10.449  10.504  68.596  1.00  0.00    -0.171 OA 
BRANCH  16  17
HETATM   17  C   UNL     1      -9.470   9.882  69.438  1.00  0.00    -0.213 C  
BRANCH  17  18
HETATM   18  C   UNL     1      -9.957   8.543  69.906  1.00  0.00    -0.189 A  
HETATM   19  C   UNL     1     -10.613   7.648  69.086  1.00  0.00    -0.186 A  
HETATM   20  S   UNL     1     -11.061   6.219  69.882  1.00  0.00    -0.425 SA 
HETATM   21  C   UNL     1     -10.392   6.745  71.384  1.00  0.00    -0.202 A  
HETATM   22  C   UNL     1      -9.816   8.020  71.254  1.00  0.00    -0.200 A  
HETATM   23  C   UNL     1      -9.212   8.591  72.407  1.00  0.00    -0.328 A  
HETATM   24  C   UNL     1      -9.193   7.910  73.628  1.00  0.00    -0.320 A  
HETATM   25  C   UNL     1      -9.776   6.656  73.732  1.00  0.00    -0.248 A  
HETATM   26  C   UNL     1     -10.378   6.063  72.620  1.00  0.00    -0.196 A  
HETATM   27 CL   UNL     1     -11.089   4.500  72.806  1.00  0.00    -0.208 Cl 
ENDBRANCH  17  18
ENDBRANCH  16  17
ENDBRANCH   9  16
ENDBRANCH   6   9
TORSDOF 6
ENDMDL
MODEL       93
REMARK 921   NORMALIZED FREE ENERGY PREDICTED BY IDOCK:   -5.47 KCAL/MOL
REMARK 922        TOTAL FREE ENERGY PREDICTED BY IDOCK:   -8.44 KCAL/MOL
REMARK 923 INTER-LIGAND FREE ENERGY PREDICTED BY IDOCK:   -7.73 KCAL/MOL
REMARK 924 INTRA-LIGAND FREE ENERGY PREDICTED BY IDOCK:   -0.71 KCAL/MOL
REMARK 927      BINDING AFFINITY PREDICTED BY RF-SCORE:    0.00 PKD
ROOT
HETATM    1 CL   UNL     1     -13.092  15.942  73.025  1.00  0.00    -0.601 Cl 
HETATM    2  C   UNL     1     -12.645  15.024  71.641  1.00  0.00    -0.339 A  
HETATM    3  C   UNL     1     -12.765  13.636  71.657  1.00  0.00    -0.396 A  
HETATM    4  C   UNL     1     -12.405  12.891  70.530  1.00  0.00    -0.283 A  
HETATM    5 CL   UNL     1     -12.565  11.175  70.624  1.00  0.00    -0.418 Cl 
HETATM    6  C   UNL     1     -11.932  13.528  69.371  1.00  0.00    -0.383 A  
HETATM    7  C   UNL     1     -11.834  14.935  69.377  1.00  0.00    -0.356 A  
HETATM    8  C   UNL     1     -12.171  15.677  70.509  1.00  0.00    -0.437 A  
ENDROOT
BRANCH   6   9
HETATM    9  C   UNL     1     -11.554  12.757  68.109  1.00  0.00    -0.336 C  
BRANCH   9  10
HETATM   10  C   UNL     1     -11.029  13.756  67.059  1.00  0.00    -0.290 C  
BRANCH  10  11
HETATM   11  N   UNL     1     -11.356  13.380  65.698  1.00  0.00    -0.296 NA 
HETATM   12  C   UNL     1     -12.404  13.840  64.950  1.00  0.00    -0.405 A  
HETATM   13  C   UNL     1     -10.609  12.555  64.901  1.00  0.00    -0.301 A  
HETATM   14  N   UNL     1     -11.142  12.435  63.708  1.00  0.00    -0.408 NA 
HETATM   15  C   UNL     1     -12.257  13.230  63.726  1.00  0.00    -0.439 A  
ENDBRANCH  10  11
ENDBRANCH   9  10
BRANCH   9  16
HETATM   16  O   UNL     1     -10.509  11.814  68.407  1.00  0.00    -0.201 OA 
BRANCH  16  17
HETATM   17  C   UNL     1     -10.786  10.489  67.935  1.00  0.00    -0.260 C  
BRANCH  17  18
HETATM   18  C   UNL     1      -9.626   9.580  68.214  1.00  0.00    -0.151 A  
HETATM   19  C   UNL     1      -8.733   9.174  67.244  1.00  0.00    -0.117 A  
HETATM   20  S   UNL     1      -7.528   8.138  67.839  1.00  0.00    -0.099 SA 
HETATM   21  C   UNL     1      -8.161   8.185  69.444  1.00  0.00    -0.121 A  
HETATM   22  C   UNL     1      -9.295   9.013  69.509  1.00  0.00    -0.160 A  
HETATM   23  C   UNL     1      -9.930   9.162  70.772  1.00  0.00    -0.334 A  
HETATM   24  C   UNL     1      -9.444   8.508  71.910  1.00  0.00    -0.350 A  
HETATM   25  C   UNL     1      -8.328   7.691  71.817  1.00  0.00    -0.121 A  
HETATM   26  C   UNL     1      -7.678   7.521  70.593  1.00  0.00    -0.090 A  
HETATM   27 CL   UNL     1      -6.293   6.491  70.534  1.00  0.00    -0.038 Cl 
ENDBRANCH  17  18
ENDBRANCH  16  17
ENDBRANCH   9  16
ENDBRANCH   6   9
TORSDOF 6
ENDMDL
MODEL       94
REMARK 921   NORMALIZED FREE ENERGY PREDICTED BY IDOCK:   -5.47 KCAL/MOL
REMARK 922        TOTAL FREE ENERGY PREDICTED BY IDOCK:   -8.44 KCAL/MOL
REMARK 923 INTER-LIGAND FREE ENERGY PREDICTED BY IDOCK:   -8.00 KCAL/MOL
REMARK 924 INTRA-LIGAND FREE ENERGY PREDICTED BY IDOCK:   -0.44 KCAL/MOL
REMARK 927      BINDING AFFINITY PREDICTED BY RF-SCORE:    0.00 PKD
ROOT
HETATM    1 CL   UNL     1     -12.642  15.786  74.503  1.00  0.00    -0.708 Cl 
HETATM    2  C   UNL     1     -12.470  15.218  72.889  1.00  0.00    -0.406 A  
HETATM    3  C   UNL     1     -11.617  15.877  72.007  1.00  0.00    -0.525 A  
HETATM    4  C   UNL     1     -11.475  15.412  70.696  1.00  0.00    -0.332 A  
HETATM    5 CL   UNL     1     -10.412  16.284  69.651  1.00  0.00    -0.297 Cl 
HETATM    6  C   UNL     1     -12.176  14.277  70.257  1.00  0.00    -0.407 A  
HETATM    7  C   UNL     1     -13.023  13.622  71.176  1.00  0.00    -0.353 A  
HETATM    8  C   UNL     1     -13.183  14.098  72.477  1.00  0.00    -0.596 A  
ENDROOT
BRANCH   6   9
HETATM    9  C   UNL     1     -12.031  13.719  68.844  1.00  0.00    -0.359 C  
BRANCH   9  10
HETATM   10  C   UNL     1     -11.947  14.897  67.853  1.00  0.00    -0.176 C  
BRANCH  10  11
HETATM   11  N   UNL     1     -11.843  14.475  66.471  1.00  0.00    -0.377 NA 
HETATM   12  C   UNL     1     -10.784  14.679  65.630  1.00  0.00    -0.332 A  
HETATM   13  C   UNL     1     -12.765  13.718  65.800  1.00  0.00    -0.446 A  
HETATM   14  N   UNL     1     -12.372  13.465  64.574  1.00  0.00    -0.550 NA 
HETATM   15  C   UNL     1     -11.142  14.056  64.457  1.00  0.00    -0.351 A  
ENDBRANCH  10  11
ENDBRANCH   9  10
BRANCH   9  16
HETATM   16  O   UNL     1     -10.820  12.948  68.744  1.00  0.00    -0.249 OA 
BRANCH  16  17
HETATM   17  C   UNL     1     -11.050  11.542  68.590  1.00  0.00    -0.238 C  
BRANCH  17  18
HETATM   18  C   UNL     1     -10.137  10.974  67.545  1.00  0.00    -0.208 A  
HETATM   19  C   UNL     1     -10.506  10.812  66.225  1.00  0.00    -0.226 A  
HETATM   20  S   UNL     1      -9.280  10.135  65.268  1.00  0.00    -0.232 SA 
HETATM   21  C   UNL     1      -8.187  10.021  66.599  1.00  0.00    -0.122 A  
HETATM   22  C   UNL     1      -8.776  10.520  67.773  1.00  0.00    -0.122 A  
HETATM   23  C   UNL     1      -7.996  10.504  68.961  1.00  0.00    -0.136 A  
HETATM   24  C   UNL     1      -6.688  10.007  68.962  1.00  0.00    -0.053 A  
HETATM   25  C   UNL     1      -6.132   9.514  67.792  1.00  0.00    -0.052 A  
HETATM   26  C   UNL     1      -6.869   9.515  66.605  1.00  0.00    -0.084 A  
HETATM   27 CL   UNL     1      -6.128   8.887  65.177  1.00  0.00    -0.059 Cl 
ENDBRANCH  17  18
ENDBRANCH  16  17
ENDBRANCH   9  16
ENDBRANCH   6   9
TORSDOF 6
ENDMDL
MODEL       95
REMARK 921   NORMALIZED FREE ENERGY PREDICTED BY IDOCK:   -5.46 KCAL/MOL
REMARK 922        TOTAL FREE ENERGY PREDICTED BY IDOCK:   -8.42 KCAL/MOL
REMARK 923 INTER-LIGAND FREE ENERGY PREDICTED BY IDOCK:   -7.70 KCAL/MOL
REMARK 924 INTRA-LIGAND FREE ENERGY PREDICTED BY IDOCK:   -0.72 KCAL/MOL
REMARK 927      BINDING AFFINITY PREDICTED BY RF-SCORE:    0.00 PKD
ROOT
HETATM    1 CL   UNL     1      -9.813  19.927  66.192  1.00  0.00    -0.542 Cl 
HETATM    2  C   UNL     1     -10.086  18.430  66.993  1.00  0.00    -0.364 A  
HETATM    3  C   UNL     1      -9.878  17.230  66.316  1.00  0.00    -0.299 A  
HETATM    4  C   UNL     1     -10.096  16.014  66.969  1.00  0.00    -0.271 A  
HETATM    5 CL   UNL     1      -9.834  14.565  66.066  1.00  0.00    -0.328 Cl 
HETATM    6  C   UNL     1     -10.514  15.984  68.309  1.00  0.00    -0.269 A  
HETATM    7  C   UNL     1     -10.704  17.213  68.974  1.00  0.00    -0.219 A  
HETATM    8  C   UNL     1     -10.508  18.428  68.317  1.00  0.00    -0.329 A  
ENDROOT
BRANCH   6   9
HETATM    9  C   UNL     1     -10.739  14.680  69.069  1.00  0.00    -0.249 C  
BRANCH   9  10
HETATM   10  C   UNL     1     -10.790  14.990  70.578  1.00  0.00    -0.123 C  
BRANCH  10  11
HETATM   11  N   UNL     1     -12.100  14.781  71.161  1.00  0.00    -0.313 NA 
HETATM   12  C   UNL     1     -12.572  13.627  71.724  1.00  0.00    -0.198 A  
HETATM   13  C   UNL     1     -13.060  15.743  71.322  1.00  0.00    -0.340 A  
HETATM   14  N   UNL     1     -14.126  15.259  71.915  1.00  0.00    -0.517 NA 
HETATM   15  C   UNL     1     -13.833  13.945  72.171  1.00  0.00    -0.541 A  
ENDBRANCH  10  11
ENDBRANCH   9  10
BRANCH   9  16
HETATM   16  O   UNL     1     -11.994  14.095  68.678  1.00  0.00    -0.346 OA 
BRANCH  16  17
HETATM   17  C   UNL     1     -11.850  12.882  67.929  1.00  0.00    -0.339 C  
BRANCH  17  18
HETATM   18  C   UNL     1     -11.340  11.780  68.810  1.00  0.00    -0.325 A  
HETATM   19  C   UNL     1     -12.132  11.115  69.724  1.00  0.00    -0.344 A  
HETATM   20  S   UNL     1     -11.291   9.925  70.593  1.00  0.00    -0.362 SA 
HETATM   21  C   UNL     1      -9.807  10.256  69.775  1.00  0.00    -0.161 A  
HETATM   22  C   UNL     1      -9.977  11.279  68.826  1.00  0.00    -0.203 A  
HETATM   23  C   UNL     1      -8.843  11.663  68.060  1.00  0.00    -0.162 A  
HETATM   24  C   UNL     1      -7.601  11.046  68.245  1.00  0.00    -0.106 A  
HETATM   25  C   UNL     1      -7.458  10.044  69.193  1.00  0.00    -0.092 A  
HETATM   26  C   UNL     1      -8.550   9.640  69.964  1.00  0.00    -0.215 A  
HETATM   27 CL   UNL     1      -8.315   8.389  71.131  1.00  0.00    -0.143 Cl 
ENDBRANCH  17  18
ENDBRANCH  16  17
ENDBRANCH   9  16
ENDBRANCH   6   9
TORSDOF 6
ENDMDL
MODEL       96
REMARK 921   NORMALIZED FREE ENERGY PREDICTED BY IDOCK:   -5.46 KCAL/MOL
REMARK 922        TOTAL FREE ENERGY PREDICTED BY IDOCK:   -8.42 KCAL/MOL
REMARK 923 INTER-LIGAND FREE ENERGY PREDICTED BY IDOCK:   -8.08 KCAL/MOL
REMARK 924 INTRA-LIGAND FREE ENERGY PREDICTED BY IDOCK:   -0.34 KCAL/MOL
REMARK 927      BINDING AFFINITY PREDICTED BY RF-SCORE:    0.00 PKD
ROOT
HETATM    1 CL   UNL     1     -12.026  16.460  71.966  1.00  0.00    -0.520 Cl 
HETATM    2  C   UNL     1     -11.587  15.357  70.722  1.00  0.00    -0.347 A  
HETATM    3  C   UNL     1     -10.373  15.505  70.056  1.00  0.00    -0.315 A  
HETATM    4  C   UNL     1     -10.015  14.605  69.048  1.00  0.00    -0.193 A  
HETATM    5 CL   UNL     1      -8.502  14.857  68.254  1.00  0.00    -0.145 Cl 
HETATM    6  C   UNL     1     -10.863  13.541  68.703  1.00  0.00    -0.281 A  
HETATM    7  C   UNL     1     -12.081  13.406  69.403  1.00  0.00    -0.321 A  
HETATM    8  C   UNL     1     -12.449  14.316  70.393  1.00  0.00    -0.426 A  
ENDROOT
BRANCH   6   9
HETATM    9  C   UNL     1     -10.502  12.519  67.628  1.00  0.00    -0.217 C  
BRANCH   9  10
HETATM   10  C   UNL     1      -9.988  13.271  66.384  1.00  0.00    -0.288 C  
BRANCH  10  11
HETATM   11  N   UNL     1     -10.705  12.928  65.173  1.00  0.00    -0.296 NA 
HETATM   12  C   UNL     1     -10.419  11.904  64.314  1.00  0.00    -0.326 A  
HETATM   13  C   UNL     1     -11.853  13.530  64.732  1.00  0.00    -0.381 A  
HETATM   14  N   UNL     1     -12.287  12.975  63.625  1.00  0.00    -0.698 NA 
HETATM   15  C   UNL     1     -11.405  11.962  63.356  1.00  0.00    -0.374 A  
ENDBRANCH  10  11
ENDBRANCH   9  10
BRANCH   9  16
HETATM   16  O   UNL     1      -9.455  11.656  68.106  1.00  0.00    -0.178 OA 
BRANCH  16  17
HETATM   17  C   UNL     1      -9.903  10.329  68.410  1.00  0.00    -0.156 C  
BRANCH  17  18
HETATM   18  C   UNL     1      -9.171   9.788  69.601  1.00  0.00    -0.239 A  
HETATM   19  C   UNL     1      -7.798   9.839  69.732  1.00  0.00    -0.156 A  
HETATM   20  S   UNL     1      -7.240   9.141  71.174  1.00  0.00    -0.028 SA 
HETATM   21  C   UNL     1      -8.835   8.730  71.692  1.00  0.00    -0.208 A  
HETATM   22  C   UNL     1      -9.789   9.147  70.749  1.00  0.00    -0.334 A  
HETATM   23  C   UNL     1     -11.157   8.887  71.036  1.00  0.00    -0.340 A  
HETATM   24  C   UNL     1     -11.539   8.238  72.214  1.00  0.00    -0.449 A  
HETATM   25  C   UNL     1     -10.577   7.830  73.126  1.00  0.00    -0.415 A  
HETATM   26  C   UNL     1      -9.224   8.069  72.878  1.00  0.00    -0.265 A  
HETATM   27 CL   UNL     1      -8.068   7.539  74.046  1.00  0.00    -0.179 Cl 
ENDBRANCH  17  18
ENDBRANCH  16  17
ENDBRANCH   9  16
ENDBRANCH   6   9
TORSDOF 6
ENDMDL
MODEL       97
REMARK 921   NORMALIZED FREE ENERGY PREDICTED BY IDOCK:   -5.45 KCAL/MOL
REMARK 922        TOTAL FREE ENERGY PREDICTED BY IDOCK:   -8.41 KCAL/MOL
REMARK 923 INTER-LIGAND FREE ENERGY PREDICTED BY IDOCK:   -8.29 KCAL/MOL
REMARK 924 INTRA-LIGAND FREE ENERGY PREDICTED BY IDOCK:   -0.13 KCAL/MOL
REMARK 927      BINDING AFFINITY PREDICTED BY RF-SCORE:    0.00 PKD
ROOT
HETATM    1 CL   UNL     1     -10.181  17.952  68.504  1.00  0.00    -0.383 Cl 
HETATM    2  C   UNL     1     -10.488  16.262  68.590  1.00  0.00    -0.282 A  
HETATM    3  C   UNL     1      -9.474  15.354  68.291  1.00  0.00    -0.200 A  
HETATM    4  C   UNL     1      -9.723  13.980  68.366  1.00  0.00    -0.223 A  
HETATM    5 CL   UNL     1      -8.427  12.912  67.968  1.00  0.00    -0.169 Cl 
HETATM    6  C   UNL     1     -10.985  13.500  68.751  1.00  0.00    -0.291 A  
HETATM    7  C   UNL     1     -11.989  14.442  69.061  1.00  0.00    -0.342 A  
HETATM    8  C   UNL     1     -11.748  15.812  68.966  1.00  0.00    -0.405 A  
ENDROOT
BRANCH   6   9
HETATM    9  C   UNL     1     -11.294  12.011  68.872  1.00  0.00    -0.278 C  
BRANCH   9  10
HETATM   10  C   UNL     1     -12.279  11.803  70.039  1.00  0.00    -0.242 C  
BRANCH  10  11
HETATM   11  N   UNL     1     -12.082  10.549  70.737  1.00  0.00    -0.337 NA 
HETATM   12  C   UNL     1     -11.037   9.681  70.582  1.00  0.00    -0.319 A  
HETATM   13  C   UNL     1     -12.877  10.065  71.741  1.00  0.00    -0.446 A  
HETATM   14  N   UNL     1     -12.421   8.924  72.203  1.00  0.00    -0.380 NA 
HETATM   15  C   UNL     1     -11.276   8.676  71.491  1.00  0.00    -0.290 A  
ENDBRANCH  10  11
ENDBRANCH   9  10
BRANCH   9  16
HETATM   16  O   UNL     1     -11.912  11.539  67.661  1.00  0.00    -0.630 OA 
BRANCH  16  17
HETATM   17  C   UNL     1     -11.782  12.450  66.562  1.00  0.00    -0.379 C  
BRANCH  17  18
HETATM   18  C   UNL     1     -10.966  11.835  65.465  1.00  0.00    -0.344 A  
HETATM   19  C   UNL     1     -10.886  12.364  64.193  1.00  0.00    -0.372 A  
HETATM   20  S   UNL     1      -9.902  11.456  63.153  1.00  0.00    -0.371 SA 
HETATM   21  C   UNL     1      -9.537  10.293  64.376  1.00  0.00    -0.316 A  
HETATM   22  C   UNL     1     -10.172  10.624  65.585  1.00  0.00    -0.319 A  
HETATM   23  C   UNL     1      -9.962   9.764  66.697  1.00  0.00    -0.292 A  
HETATM   24  C   UNL     1      -9.153   8.628  66.592  1.00  0.00    -0.203 A  
HETATM   25  C   UNL     1      -8.544   8.319  65.385  1.00  0.00    -0.176 A  
HETATM   26  C   UNL     1      -8.727   9.141  64.271  1.00  0.00    -0.150 A  
HETATM   27 CL   UNL     1      -7.946   8.708  62.793  1.00  0.00    -0.146 Cl 
ENDBRANCH  17  18
ENDBRANCH  16  17
ENDBRANCH   9  16
ENDBRANCH   6   9
TORSDOF 6
ENDMDL
MODEL       98
REMARK 921   NORMALIZED FREE ENERGY PREDICTED BY IDOCK:   -5.43 KCAL/MOL
REMARK 922        TOTAL FREE ENERGY PREDICTED BY IDOCK:   -8.37 KCAL/MOL
REMARK 923 INTER-LIGAND FREE ENERGY PREDICTED BY IDOCK:   -7.35 KCAL/MOL
REMARK 924 INTRA-LIGAND FREE ENERGY PREDICTED BY IDOCK:   -1.02 KCAL/MOL
REMARK 927      BINDING AFFINITY PREDICTED BY RF-SCORE:    0.00 PKD
ROOT
HETATM    1 CL   UNL     1     -13.342  15.934  73.947  1.00  0.00    -0.252 Cl 
HETATM    2  C   UNL     1     -12.818  15.092  72.542  1.00  0.00    -0.360 A  
HETATM    3  C   UNL     1     -11.858  15.660  71.708  1.00  0.00    -0.524 A  
HETATM    4  C   UNL     1     -11.429  14.973  70.568  1.00  0.00    -0.290 A  
HETATM    5 CL   UNL     1     -10.248  15.742  69.570  1.00  0.00    -0.253 Cl 
HETATM    6  C   UNL     1     -11.948  13.706  70.257  1.00  0.00    -0.397 A  
HETATM    7  C   UNL     1     -12.909  13.148  71.127  1.00  0.00    -0.349 A  
HETATM    8  C   UNL     1     -13.354  13.843  72.252  1.00  0.00    -0.599 A  
ENDROOT
BRANCH   6   9
HETATM    9  C   UNL     1     -11.490  12.908  69.039  1.00  0.00    -0.308 C  
BRANCH   9  10
HETATM   10  C   UNL     1     -11.955  11.447  69.201  1.00  0.00    -0.328 C  
BRANCH  10  11
HETATM   11  N   UNL     1     -10.903  10.482  68.953  1.00  0.00    -0.219 NA 
HETATM   12  C   UNL     1     -10.766   9.685  67.850  1.00  0.00    -0.247 A  
HETATM   13  C   UNL     1      -9.814  10.270  69.755  1.00  0.00    -0.161 A  
HETATM   14  N   UNL     1      -9.018   9.360  69.246  1.00  0.00    -0.147 NA 
HETATM   15  C   UNL     1      -9.599   8.990  68.062  1.00  0.00    -0.148 A  
ENDBRANCH  10  11
ENDBRANCH   9  10
BRANCH   9  16
HETATM   16  O   UNL     1     -12.086  13.450  67.847  1.00  0.00    -0.338 OA 
BRANCH  16  17
HETATM   17  C   UNL     1     -11.257  13.321  66.685  1.00  0.00    -0.306 C  
BRANCH  17  18
HETATM   18  C   UNL     1     -10.485  14.584  66.450  1.00  0.00    -0.295 A  
HETATM   19  C   UNL     1     -11.015  15.685  65.808  1.00  0.00    -0.248 A  
HETATM   20  S   UNL     1      -9.914  16.969  65.669  1.00  0.00     0.047 SA 
HETATM   21  C   UNL     1      -8.660  16.092  66.468  1.00  0.00    -0.306 A  
HETATM   22  C   UNL     1      -9.107  14.815  66.848  1.00  0.00    -0.268 A  
HETATM   23  C   UNL     1      -8.189  13.970  67.528  1.00  0.00    -0.195 A  
HETATM   24  C   UNL     1      -6.886  14.394  67.808  1.00  0.00    -0.194 A  
HETATM   25  C   UNL     1      -6.466  15.656  67.416  1.00  0.00    -0.172 A  
HETATM   26  C   UNL     1      -7.341  16.514  66.747  1.00  0.00    -0.239 A  
HETATM   27 CL   UNL     1      -6.766  18.074  66.281  1.00  0.00    -0.257 Cl 
ENDBRANCH  17  18
ENDBRANCH  16  17
ENDBRANCH   9  16
ENDBRANCH   6   9
TORSDOF 6
ENDMDL
MODEL       99
REMARK 921   NORMALIZED FREE ENERGY PREDICTED BY IDOCK:   -5.42 KCAL/MOL
REMARK 922        TOTAL FREE ENERGY PREDICTED BY IDOCK:   -8.36 KCAL/MOL
REMARK 923 INTER-LIGAND FREE ENERGY PREDICTED BY IDOCK:   -8.09 KCAL/MOL
REMARK 924 INTRA-LIGAND FREE ENERGY PREDICTED BY IDOCK:   -0.27 KCAL/MOL
REMARK 927      BINDING AFFINITY PREDICTED BY RF-SCORE:    0.00 PKD
ROOT
HETATM    1 CL   UNL     1      -8.945   7.062  73.788  1.00  0.00    -0.188 Cl 
HETATM    2  C   UNL     1      -9.364   8.014  72.419  1.00  0.00    -0.208 A  
HETATM    3  C   UNL     1     -10.681   8.429  72.238  1.00  0.00    -0.417 A  
HETATM    4  C   UNL     1     -11.021   9.207  71.127  1.00  0.00    -0.320 A  
HETATM    5 CL   UNL     1     -12.674   9.675  70.955  1.00  0.00    -0.372 Cl 
HETATM    6  C   UNL     1     -10.044   9.587  70.192  1.00  0.00    -0.293 A  
HETATM    7  C   UNL     1      -8.716   9.164  70.408  1.00  0.00    -0.245 A  
HETATM    8  C   UNL     1      -8.381   8.370  71.503  1.00  0.00    -0.196 A  
ENDROOT
BRANCH   6   9
HETATM    9  C   UNL     1     -10.364  10.457  68.979  1.00  0.00    -0.214 C  
BRANCH   9  10
HETATM   10  C   UNL     1     -10.518   9.548  67.745  1.00  0.00    -0.254 C  
BRANCH  10  11
HETATM   11  N   UNL     1      -9.580   9.858  66.685  1.00  0.00    -0.175 NA 
HETATM   12  C   UNL     1      -9.798   9.749  65.340  1.00  0.00    -0.295 A  
HETATM   13  C   UNL     1      -8.335  10.400  66.860  1.00  0.00    -0.124 A  
HETATM   14  N   UNL     1      -7.737  10.603  65.710  1.00  0.00    -0.151 NA 
HETATM   15  C   UNL     1      -8.637  10.203  64.758  1.00  0.00    -0.181 A  
ENDBRANCH  10  11
ENDBRANCH   9  10
BRANCH   9  16
HETATM   16  O   UNL     1     -11.604  11.156  69.192  1.00  0.00    -0.266 OA 
BRANCH  16  17
HETATM   17  C   UNL     1     -11.736  12.340  68.395  1.00  0.00    -0.337 C  
BRANCH  17  18
HETATM   18  C   UNL     1     -11.559  13.564  69.243  1.00  0.00    -0.369 A  
HETATM   19  C   UNL     1     -10.728  14.610  68.896  1.00  0.00    -0.248 A  
HETATM   20  S   UNL     1     -10.711  15.857  70.046  1.00  0.00    -0.336 SA 
HETATM   21  C   UNL     1     -11.828  15.037  71.077  1.00  0.00    -0.323 A  
HETATM   22  C   UNL     1     -12.214  13.808  70.516  1.00  0.00    -0.440 A  
HETATM   23  C   UNL     1     -13.142  13.014  71.244  1.00  0.00    -0.263 A  
HETATM   24  C   UNL     1     -13.651  13.440  72.475  1.00  0.00    -0.659 A  
HETATM   25  C   UNL     1     -13.247  14.654  73.010  1.00  0.00    -0.587 A  
HETATM   26  C   UNL     1     -12.338  15.462  72.323  1.00  0.00    -0.383 A  
HETATM   27 CL   UNL     1     -11.869  16.963  73.036  1.00  0.00    -0.250 Cl 
ENDBRANCH  17  18
ENDBRANCH  16  17
ENDBRANCH   9  16
ENDBRANCH   6   9
TORSDOF 6
ENDMDL
MODEL      100
REMARK 921   NORMALIZED FREE ENERGY PREDICTED BY IDOCK:   -5.41 KCAL/MOL
REMARK 922        TOTAL FREE ENERGY PREDICTED BY IDOCK:   -8.36 KCAL/MOL
REMARK 923 INTER-LIGAND FREE ENERGY PREDICTED BY IDOCK:   -7.51 KCAL/MOL
REMARK 924 INTRA-LIGAND FREE ENERGY PREDICTED BY IDOCK:   -0.85 KCAL/MOL
REMARK 927      BINDING AFFINITY PREDICTED BY RF-SCORE:    0.00 PKD
ROOT
HETATM    1 CL   UNL     1      -9.852   3.907  71.691  1.00  0.00    -0.250 Cl 
HETATM    2  C   UNL     1      -9.765   5.392  70.828  1.00  0.00    -0.180 A  
HETATM    3  C   UNL     1      -8.537   5.855  70.361  1.00  0.00    -0.135 A  
HETATM    4  C   UNL     1      -8.468   7.060  69.655  1.00  0.00    -0.134 A  
HETATM    5 CL   UNL     1      -6.912   7.582  69.119  1.00  0.00    -0.070 Cl 
HETATM    6  C   UNL     1      -9.628   7.808  69.399  1.00  0.00    -0.156 A  
HETATM    7  C   UNL     1     -10.860   7.309  69.871  1.00  0.00    -0.264 A  
HETATM    8  C   UNL     1     -10.927   6.119  70.595  1.00  0.00    -0.376 A  
ENDROOT
BRANCH   6   9
HETATM    9  C   UNL     1      -9.604   9.115  68.610  1.00  0.00    -0.152 C  
BRANCH   9  10
HETATM   10  C   UNL     1     -10.517   8.965  67.377  1.00  0.00    -0.277 C  
BRANCH  10  11
HETATM   11  N   UNL     1      -9.842   9.254  66.128  1.00  0.00    -0.281 NA 
HETATM   12  C   UNL     1      -8.849   8.518  65.543  1.00  0.00    -0.154 A  
HETATM   13  C   UNL     1     -10.154  10.279  65.276  1.00  0.00    -0.289 A  
HETATM   14  N   UNL     1      -9.392  10.260  64.208  1.00  0.00    -0.254 NA 
HETATM   15  C   UNL     1      -8.578   9.169  64.363  1.00  0.00    -0.181 A  
ENDBRANCH  10  11
ENDBRANCH   9  10
BRANCH   9  16
HETATM   16  O   UNL     1     -10.107  10.188  69.425  1.00  0.00    -0.205 OA 
BRANCH  16  17
HETATM   17  C   UNL     1     -11.303  10.785  68.908  1.00  0.00    -0.284 C  
BRANCH  17  18
HETATM   18  C   UNL     1     -11.978  11.606  69.965  1.00  0.00    -0.429 A  
HETATM   19  C   UNL     1     -12.643  11.055  71.042  1.00  0.00    -0.411 A  
HETATM   20  S   UNL     1     -13.322  12.218  72.073  1.00  0.00    -0.214 SA 
HETATM   21  C   UNL     1     -12.753  13.530  71.106  1.00  0.00    -0.344 A  
HETATM   22  C   UNL     1     -12.030  13.057  69.998  1.00  0.00    -0.383 A  
HETATM   23  C   UNL     1     -11.486  14.021  69.106  1.00  0.00    -0.340 A  
HETATM   24  C   UNL     1     -11.664  15.391  69.323  1.00  0.00    -0.367 A  
HETATM   25  C   UNL     1     -12.388  15.832  70.421  1.00  0.00    -0.367 A  
HETATM   26  C   UNL     1     -12.937  14.914  71.319  1.00  0.00    -0.363 A  
HETATM   27 CL   UNL     1     -13.831  15.518  72.668  1.00  0.00    -0.645 Cl 
ENDBRANCH  17  18
ENDBRANCH  16  17
ENDBRANCH   9  16
ENDBRANCH   6   9
TORSDOF 6
ENDMDL
MODEL      101
REMARK 921   NORMALIZED FREE ENERGY PREDICTED BY IDOCK:   -5.41 KCAL/MOL
REMARK 922        TOTAL FREE ENERGY PREDICTED BY IDOCK:   -8.35 KCAL/MOL
REMARK 923 INTER-LIGAND FREE ENERGY PREDICTED BY IDOCK:   -7.70 KCAL/MOL
REMARK 924 INTRA-LIGAND FREE ENERGY PREDICTED BY IDOCK:   -0.65 KCAL/MOL
REMARK 927      BINDING AFFINITY PREDICTED BY RF-SCORE:    0.00 PKD
ROOT
HETATM    1 CL   UNL     1      -7.992   4.758  66.171  1.00  0.00    -0.102 Cl 
HETATM    2  C   UNL     1      -8.711   6.273  66.549  1.00  0.00    -0.131 A  
HETATM    3  C   UNL     1      -7.950   7.438  66.492  1.00  0.00    -0.111 A  
HETATM    4  C   UNL     1      -8.536   8.671  66.796  1.00  0.00    -0.115 A  
HETATM    5 CL   UNL     1      -7.531  10.073  66.720  1.00  0.00    -0.095 Cl 
HETATM    6  C   UNL     1      -9.893   8.752  67.148  1.00  0.00    -0.268 A  
HETATM    7  C   UNL     1     -10.644   7.558  67.184  1.00  0.00    -0.415 A  
HETATM    8  C   UNL     1     -10.054   6.326  66.904  1.00  0.00    -0.236 A  
ENDROOT
BRANCH   6   9
HETATM    9  C   UNL     1     -10.581  10.078  67.460  1.00  0.00    -0.280 C  
BRANCH   9  10
HETATM   10  C   UNL     1     -10.008  10.634  68.779  1.00  0.00    -0.193 C  
BRANCH  10  11
HETATM   11  N   UNL     1     -10.680  10.120  69.956  1.00  0.00    -0.288 NA 
HETATM   12  C   UNL     1     -10.216   9.158  70.810  1.00  0.00    -0.260 A  
HETATM   13  C   UNL     1     -11.866  10.582  70.458  1.00  0.00    -0.347 A  
HETATM   14  N   UNL     1     -12.201   9.944  71.555  1.00  0.00    -0.394 NA 
HETATM   15  C   UNL     1     -11.181   9.058  71.784  1.00  0.00    -0.378 A  
ENDBRANCH  10  11
ENDBRANCH   9  10
BRANCH   9  16
HETATM   16  O   UNL     1     -10.317  11.026  66.410  1.00  0.00    -0.235 OA 
BRANCH  16  17
HETATM   17  C   UNL     1     -11.472  11.778  66.017  1.00  0.00    -0.215 C  
BRANCH  17  18
HETATM   18  C   UNL     1     -11.203  13.248  66.133  1.00  0.00    -0.317 A  
HETATM   19  C   UNL     1     -10.728  14.015  65.087  1.00  0.00    -0.382 A  
HETATM   20  S   UNL     1     -10.504  15.644  65.503  1.00  0.00    -0.425 SA 
HETATM   21  C   UNL     1     -11.036  15.391  67.126  1.00  0.00    -0.317 A  
HETATM   22  C   UNL     1     -11.394  14.047  67.330  1.00  0.00    -0.350 A  
HETATM   23  C   UNL     1     -11.863  13.679  68.620  1.00  0.00    -0.409 A  
HETATM   24  C   UNL     1     -11.964  14.620  69.651  1.00  0.00    -0.368 A  
HETATM   25  C   UNL     1     -11.596  15.938  69.426  1.00  0.00    -0.352 A  
HETATM   26  C   UNL     1     -11.131  16.337  68.171  1.00  0.00    -0.329 A  
HETATM   27 CL   UNL     1     -10.686  17.990  67.946  1.00  0.00    -0.385 Cl 
ENDBRANCH  17  18
ENDBRANCH  16  17
ENDBRANCH   9  16
ENDBRANCH   6   9
TORSDOF 6
ENDMDL
MODEL      102
REMARK 921   NORMALIZED FREE ENERGY PREDICTED BY IDOCK:   -5.40 KCAL/MOL
REMARK 922        TOTAL FREE ENERGY PREDICTED BY IDOCK:   -8.34 KCAL/MOL
REMARK 923 INTER-LIGAND FREE ENERGY PREDICTED BY IDOCK:   -7.34 KCAL/MOL
REMARK 924 INTRA-LIGAND FREE ENERGY PREDICTED BY IDOCK:   -1.00 KCAL/MOL
REMARK 927      BINDING AFFINITY PREDICTED BY RF-SCORE:    0.00 PKD
ROOT
HETATM    1 CL   UNL     1     -10.780  20.337  65.270  1.00  0.00    -0.149 Cl 
HETATM    2  C   UNL     1     -10.600  18.878  66.162  1.00  0.00    -0.407 A  
HETATM    3  C   UNL     1     -10.480  17.662  65.492  1.00  0.00    -0.048 A  
HETATM    4  C   UNL     1     -10.329  16.477  66.217  1.00  0.00    -0.320 A  
HETATM    5 CL   UNL     1     -10.201  15.005  65.324  1.00  0.00    -0.405 Cl 
HETATM    6  C   UNL     1     -10.285  16.496  67.621  1.00  0.00    -0.279 A  
HETATM    7  C   UNL     1     -10.395  17.742  68.273  1.00  0.00    -0.387 A  
HETATM    8  C   UNL     1     -10.568  18.922  67.551  1.00  0.00    -0.524 A  
ENDROOT
BRANCH   6   9
HETATM    9  C   UNL     1     -10.095  15.231  68.453  1.00  0.00    -0.220 C  
BRANCH   9  10
HETATM   10  C   UNL     1      -9.228  15.572  69.681  1.00  0.00    -0.203 C  
BRANCH  10  11
HETATM   11  N   UNL     1      -7.809  15.609  69.387  1.00  0.00    -0.230 NA 
HETATM   12  C   UNL     1      -6.975  14.535  69.240  1.00  0.00    -0.141 A  
HETATM   13  C   UNL     1      -7.083  16.737  69.119  1.00  0.00    -0.222 A  
HETATM   14  N   UNL     1      -5.831  16.446  68.852  1.00  0.00    -0.129 NA 
HETATM   15  C   UNL     1      -5.753  15.080  68.923  1.00  0.00    -0.090 A  
ENDBRANCH  10  11
ENDBRANCH   9  10
BRANCH   9  16
HETATM   16  O   UNL     1     -11.371  14.750  68.912  1.00  0.00    -0.254 OA 
BRANCH  16  17
HETATM   17  C   UNL     1     -11.973  13.796  68.028  1.00  0.00    -0.355 C  
BRANCH  17  18
HETATM   18  C   UNL     1     -11.666  12.399  68.478  1.00  0.00    -0.373 A  
HETATM   19  C   UNL     1     -11.871  11.959  69.770  1.00  0.00    -0.340 A  
HETATM   20  S   UNL     1     -11.425  10.338  70.001  1.00  0.00    -0.303 SA 
HETATM   21  C   UNL     1     -10.925  10.153  68.359  1.00  0.00    -0.244 A  
HETATM   22  C   UNL     1     -11.119  11.346  67.641  1.00  0.00    -0.325 A  
HETATM   23  C   UNL     1     -10.762  11.352  66.265  1.00  0.00    -0.322 A  
HETATM   24  C   UNL     1     -10.235  10.213  65.648  1.00  0.00    -0.288 A  
HETATM   25  C   UNL     1     -10.047   9.051  66.380  1.00  0.00    -0.351 A  
HETATM   26  C   UNL     1     -10.387   9.007  67.734  1.00  0.00    -0.246 A  
HETATM   27 CL   UNL     1     -10.130   7.534  68.599  1.00  0.00    -0.185 Cl 
ENDBRANCH  17  18
ENDBRANCH  16  17
ENDBRANCH   9  16
ENDBRANCH   6   9
TORSDOF 6
ENDMDL
MODEL      103
REMARK 921   NORMALIZED FREE ENERGY PREDICTED BY IDOCK:   -5.39 KCAL/MOL
REMARK 922        TOTAL FREE ENERGY PREDICTED BY IDOCK:   -8.33 KCAL/MOL
REMARK 923 INTER-LIGAND FREE ENERGY PREDICTED BY IDOCK:   -7.42 KCAL/MOL
REMARK 924 INTRA-LIGAND FREE ENERGY PREDICTED BY IDOCK:   -0.91 KCAL/MOL
REMARK 927      BINDING AFFINITY PREDICTED BY RF-SCORE:    0.00 PKD
ROOT
HETATM    1 CL   UNL     1     -10.997  16.879  68.265  1.00  0.00    -0.349 Cl 
HETATM    2  C   UNL     1     -10.984  15.223  67.799  1.00  0.00    -0.312 A  
HETATM    3  C   UNL     1     -11.741  14.801  66.709  1.00  0.00    -0.309 A  
HETATM    4  C   UNL     1     -11.726  13.456  66.328  1.00  0.00    -0.366 A  
HETATM    5 CL   UNL     1     -12.700  12.998  64.978  1.00  0.00    -0.523 Cl 
HETATM    6  C   UNL     1     -10.945  12.521  67.027  1.00  0.00    -0.306 A  
HETATM    7  C   UNL     1     -10.177  12.979  68.118  1.00  0.00    -0.239 A  
HETATM    8  C   UNL     1     -10.209  14.316  68.513  1.00  0.00    -0.245 A  
ENDROOT
BRANCH   6   9
HETATM    9  C   UNL     1     -10.877  11.049  66.631  1.00  0.00    -0.225 C  
BRANCH   9  10
HETATM   10  C   UNL     1      -9.436  10.721  66.192  1.00  0.00    -0.187 C  
BRANCH  10  11
HETATM   11  N   UNL     1      -9.318  10.452  64.773  1.00  0.00    -0.226 NA 
HETATM   12  C   UNL     1      -9.837  11.198  63.752  1.00  0.00    -0.331 A  
HETATM   13  C   UNL     1      -8.584   9.440  64.215  1.00  0.00    -0.196 A  
HETATM   14  N   UNL     1      -8.640   9.477  62.905  1.00  0.00    -0.201 NA 
HETATM   15  C   UNL     1      -9.415  10.566  62.605  1.00  0.00    -0.296 A  
ENDBRANCH  10  11
ENDBRANCH   9  10
BRANCH   9  16
HETATM   16  O   UNL     1     -11.213  10.222  67.759  1.00  0.00    -0.306 OA 
BRANCH  16  17
HETATM   17  C   UNL     1     -10.210   9.246  68.069  1.00  0.00    -0.209 C  
BRANCH  17  18
HETATM   18  C   UNL     1     -10.413   8.709  69.454  1.00  0.00    -0.224 A  
HETATM   19  C   UNL     1     -10.695   9.510  70.542  1.00  0.00    -0.298 A  
HETATM   20  S   UNL     1     -10.861   8.637  71.987  1.00  0.00    -0.356 SA 
HETATM   21  C   UNL     1     -10.553   7.127  71.210  1.00  0.00    -0.213 A  
HETATM   22  C   UNL     1     -10.335   7.309  69.834  1.00  0.00    -0.226 A  
HETATM   23  C   UNL     1     -10.075   6.153  69.049  1.00  0.00    -0.213 A  
HETATM   24  C   UNL     1     -10.035   4.879  69.626  1.00  0.00    -0.302 A  
HETATM   25  C   UNL     1     -10.246   4.727  70.988  1.00  0.00    -0.239 A  
HETATM   26  C   UNL     1     -10.506   5.840  71.791  1.00  0.00    -0.228 A  
HETATM   27 CL   UNL     1     -10.760   5.594  73.481  1.00  0.00    -0.295 Cl 
ENDBRANCH  17  18
ENDBRANCH  16  17
ENDBRANCH   9  16
ENDBRANCH   6   9
TORSDOF 6
ENDMDL
MODEL      104
REMARK 921   NORMALIZED FREE ENERGY PREDICTED BY IDOCK:   -5.38 KCAL/MOL
REMARK 922        TOTAL FREE ENERGY PREDICTED BY IDOCK:   -8.32 KCAL/MOL
REMARK 923 INTER-LIGAND FREE ENERGY PREDICTED BY IDOCK:   -7.41 KCAL/MOL
REMARK 924 INTRA-LIGAND FREE ENERGY PREDICTED BY IDOCK:   -0.90 KCAL/MOL
REMARK 927      BINDING AFFINITY PREDICTED BY RF-SCORE:    0.00 PKD
ROOT
HETATM    1 CL   UNL     1     -11.208  16.941  64.766  1.00  0.00    -0.089 Cl 
HETATM    2  C   UNL     1     -10.962  15.257  65.015  1.00  0.00    -0.437 A  
HETATM    3  C   UNL     1     -11.695  14.331  64.278  1.00  0.00    -0.348 A  
HETATM    4  C   UNL     1     -11.492  12.962  64.478  1.00  0.00    -0.344 A  
HETATM    5 CL   UNL     1     -12.445  11.868  63.541  1.00  0.00    -0.660 Cl 
HETATM    6  C   UNL     1     -10.545  12.506  65.409  1.00  0.00    -0.310 A  
HETATM    7  C   UNL     1      -9.806  13.467  66.132  1.00  0.00    -0.289 A  
HETATM    8  C   UNL     1     -10.025  14.832  65.950  1.00  0.00    -0.351 A  
ENDROOT
BRANCH   6   9
HETATM    9  C   UNL     1     -10.270  11.023  65.641  1.00  0.00    -0.260 C  
BRANCH   9  10
HETATM   10  C   UNL     1      -8.761  10.765  65.459  1.00  0.00    -0.187 C  
BRANCH  10  11
HETATM   11  N   UNL     1      -8.468   9.793  64.424  1.00  0.00    -0.164 NA 
HETATM   12  C   UNL     1      -8.226   8.459  64.598  1.00  0.00    -0.154 A  
HETATM   13  C   UNL     1      -8.472  10.041  63.078  1.00  0.00    -0.178 A  
HETATM   14  N   UNL     1      -8.207   8.954  62.392  1.00  0.00    -0.163 NA 
HETATM   15  C   UNL     1      -8.053   7.964  63.327  1.00  0.00    -0.089 A  
ENDBRANCH  10  11
ENDBRANCH   9  10
BRANCH   9  16
HETATM   16  O   UNL     1     -10.638  10.661  66.984  1.00  0.00    -0.241 OA 
BRANCH  16  17
HETATM   17  C   UNL     1      -9.546  10.148  67.756  1.00  0.00    -0.148 C  
BRANCH  17  18
HETATM   18  C   UNL     1      -9.998   8.996  68.603  1.00  0.00    -0.187 A  
HETATM   19  C   UNL     1      -9.663   7.684  68.337  1.00  0.00    -0.158 A  
HETATM   20  S   UNL     1     -10.322   6.588  69.451  1.00  0.00    -0.223 SA 
HETATM   21  C   UNL     1     -11.102   7.840  70.350  1.00  0.00    -0.251 A  
HETATM   22  C   UNL     1     -10.835   9.099  69.786  1.00  0.00    -0.224 A  
HETATM   23  C   UNL     1     -11.402  10.238  70.419  1.00  0.00    -0.410 A  
HETATM   24  C   UNL     1     -12.198  10.111  71.562  1.00  0.00    -0.473 A  
HETATM   25  C   UNL     1     -12.452   8.856  72.095  1.00  0.00    -0.459 A  
HETATM   26  C   UNL     1     -11.911   7.714  71.500  1.00  0.00    -0.303 A  
HETATM   27 CL   UNL     1     -12.261   6.176  72.204  1.00  0.00    -0.311 Cl 
ENDBRANCH  17  18
ENDBRANCH  16  17
ENDBRANCH   9  16
ENDBRANCH   6   9
TORSDOF 6
ENDMDL
MODEL      105
REMARK 921   NORMALIZED FREE ENERGY PREDICTED BY IDOCK:   -5.34 KCAL/MOL
REMARK 922        TOTAL FREE ENERGY PREDICTED BY IDOCK:   -8.25 KCAL/MOL
REMARK 923 INTER-LIGAND FREE ENERGY PREDICTED BY IDOCK:   -7.08 KCAL/MOL
REMARK 924 INTRA-LIGAND FREE ENERGY PREDICTED BY IDOCK:   -1.17 KCAL/MOL
REMARK 927      BINDING AFFINITY PREDICTED BY RF-SCORE:    0.00 PKD
ROOT
HETATM    1 CL   UNL     1     -13.262   8.910  72.919  1.00  0.00    -0.227 Cl 
HETATM    2  C   UNL     1     -12.211   8.408  71.654  1.00  0.00    -0.315 A  
HETATM    3  C   UNL     1     -11.066   9.147  71.365  1.00  0.00    -0.415 A  
HETATM    4  C   UNL     1     -10.210   8.736  70.339  1.00  0.00    -0.197 A  
HETATM    5 CL   UNL     1      -8.817   9.706  70.025  1.00  0.00    -0.240 Cl 
HETATM    6  C   UNL     1     -10.485   7.575  69.598  1.00  0.00    -0.235 A  
HETATM    7  C   UNL     1     -11.644   6.838  69.921  1.00  0.00    -0.326 A  
HETATM    8  C   UNL     1     -12.510   7.260  70.929  1.00  0.00    -0.266 A  
ENDROOT
BRANCH   6   9
HETATM    9  C   UNL     1      -9.565   7.074  68.488  1.00  0.00    -0.137 C  
BRANCH   9  10
HETATM   10  C   UNL     1      -9.798   5.562  68.298  1.00  0.00    -0.144 C  
BRANCH  10  11
HETATM   11  N   UNL     1      -9.511   5.105  66.953  1.00  0.00    -0.131 NA 
HETATM   12  C   UNL     1      -8.276   4.890  66.406  1.00  0.00    -0.108 A  
HETATM   13  C   UNL     1     -10.445   4.725  66.027  1.00  0.00    -0.292 A  
HETATM   14  N   UNL     1      -9.878   4.322  64.915  1.00  0.00    -0.184 NA 
HETATM   15  C   UNL     1      -8.530   4.419  65.139  1.00  0.00    -0.123 A  
ENDBRANCH  10  11
ENDBRANCH   9  10
BRANCH   9  16
HETATM   16  O   UNL     1      -9.877   7.745  67.254  1.00  0.00    -0.159 OA 
BRANCH  16  17
HETATM   17  C   UNL     1      -8.893   8.711  66.866  1.00  0.00    -0.132 C  
BRANCH  17  18
HETATM   18  C   UNL     1      -9.493   9.729  65.943  1.00  0.00    -0.285 A  
HETATM   19  C   UNL     1      -9.272   9.738  64.580  1.00  0.00    -0.255 A  
HETATM   20  S   UNL     1     -10.066  11.009  63.785  1.00  0.00    -0.383 SA 
HETATM   21  C   UNL     1     -10.746  11.615  65.251  1.00  0.00    -0.291 A  
HETATM   22  C   UNL     1     -10.363  10.821  66.345  1.00  0.00    -0.306 A  
HETATM   23  C   UNL     1     -10.851  11.186  67.629  1.00  0.00    -0.295 A  
HETATM   24  C   UNL     1     -11.683  12.298  67.798  1.00  0.00    -0.403 A  
HETATM   25  C   UNL     1     -12.041  13.070  66.703  1.00  0.00    -0.386 A  
HETATM   26  C   UNL     1     -11.581  12.741  65.426  1.00  0.00    -0.358 A  
HETATM   27 CL   UNL     1     -12.056  13.737  64.098  1.00  0.00    -0.489 Cl 
ENDBRANCH  17  18
ENDBRANCH  16  17
ENDBRANCH   9  16
ENDBRANCH   6   9
TORSDOF 6
ENDMDL
MODEL      106
REMARK 921   NORMALIZED FREE ENERGY PREDICTED BY IDOCK:   -5.31 KCAL/MOL
REMARK 922        TOTAL FREE ENERGY PREDICTED BY IDOCK:   -8.22 KCAL/MOL
REMARK 923 INTER-LIGAND FREE ENERGY PREDICTED BY IDOCK:   -7.78 KCAL/MOL
REMARK 924 INTRA-LIGAND FREE ENERGY PREDICTED BY IDOCK:   -0.45 KCAL/MOL
REMARK 927      BINDING AFFINITY PREDICTED BY RF-SCORE:    0.00 PKD
ROOT
HETATM    1 CL   UNL     1     -10.139   7.905  73.090  1.00  0.00    -0.377 Cl 
HETATM    2  C   UNL     1     -10.050   8.859  71.663  1.00  0.00    -0.341 A  
HETATM    3  C   UNL     1     -11.165   9.575  71.234  1.00  0.00    -0.452 A  
HETATM    4  C   UNL     1     -11.091  10.355  70.075  1.00  0.00    -0.314 A  
HETATM    5 CL   UNL     1     -12.515  11.204  69.593  1.00  0.00    -0.272 Cl 
HETATM    6  C   UNL     1      -9.897  10.435  69.340  1.00  0.00    -0.235 A  
HETATM    7  C   UNL     1      -8.780   9.711  69.805  1.00  0.00    -0.221 A  
HETATM    8  C   UNL     1      -8.859   8.915  70.948  1.00  0.00    -0.268 A  
ENDROOT
BRANCH   6   9
HETATM    9  C   UNL     1      -9.763  11.294  68.086  1.00  0.00    -0.185 C  
BRANCH   9  10
HETATM   10  C   UNL     1     -10.778  10.799  67.037  1.00  0.00    -0.265 C  
BRANCH  10  11
HETATM   11  N   UNL     1     -10.214  10.682  65.707  1.00  0.00    -0.260 NA 
HETATM   12  C   UNL     1      -9.159   9.897  65.330  1.00  0.00    -0.196 A  
HETATM   13  C   UNL     1     -10.708  11.281  64.579  1.00  0.00    -0.323 A  
HETATM   14  N   UNL     1     -10.005  10.955  63.520  1.00  0.00    -0.340 NA 
HETATM   15  C   UNL     1      -9.041  10.094  63.974  1.00  0.00    -0.254 A  
ENDBRANCH  10  11
ENDBRANCH   9  10
BRANCH   9  16
HETATM   16  O   UNL     1     -10.060  12.666  68.399  1.00  0.00    -0.228 OA 
BRANCH  16  17
HETATM   17  C   UNL     1      -9.019  13.576  68.021  1.00  0.00    -0.189 C  
BRANCH  17  18
HETATM   18  C   UNL     1      -9.579  14.704  67.206  1.00  0.00    -0.221 A  
HETATM   19  C   UNL     1     -10.252  14.515  66.016  1.00  0.00    -0.315 A  
HETATM   20  S   UNL     1     -10.763  15.967  65.303  1.00  0.00    -0.387 SA 
HETATM   21  C   UNL     1     -10.092  16.926  66.572  1.00  0.00    -0.315 A  
HETATM   22  C   UNL     1      -9.487  16.113  67.545  1.00  0.00    -0.223 A  
HETATM   23  C   UNL     1      -8.893  16.756  68.664  1.00  0.00    -0.255 A  
HETATM   24  C   UNL     1      -8.909  18.149  68.793  1.00  0.00    -0.227 A  
HETATM   25  C   UNL     1      -9.507  18.929  67.815  1.00  0.00    -0.342 A  
HETATM   26  C   UNL     1     -10.101  18.332  66.701  1.00  0.00    -0.375 A  
HETATM   27 CL   UNL     1     -10.830  19.352  65.512  1.00  0.00    -0.397 Cl 
ENDBRANCH  17  18
ENDBRANCH  16  17
ENDBRANCH   9  16
ENDBRANCH   6   9
TORSDOF 6
ENDMDL
MODEL      107
REMARK 921   NORMALIZED FREE ENERGY PREDICTED BY IDOCK:   -5.31 KCAL/MOL
REMARK 922        TOTAL FREE ENERGY PREDICTED BY IDOCK:   -8.22 KCAL/MOL
REMARK 923 INTER-LIGAND FREE ENERGY PREDICTED BY IDOCK:   -7.48 KCAL/MOL
REMARK 924 INTRA-LIGAND FREE ENERGY PREDICTED BY IDOCK:   -0.74 KCAL/MOL
REMARK 927      BINDING AFFINITY PREDICTED BY RF-SCORE:    0.00 PKD
ROOT
HETATM    1 CL   UNL     1     -10.352  18.836  65.932  1.00  0.00    -0.443 Cl 
HETATM    2  C   UNL     1     -10.325  17.170  66.359  1.00  0.00    -0.307 A  
HETATM    3  C   UNL     1     -10.630  16.202  65.404  1.00  0.00    -0.399 A  
HETATM    4  C   UNL     1     -10.603  14.848  65.750  1.00  0.00    -0.331 A  
HETATM    5 CL   UNL     1     -11.006  13.703  64.523  1.00  0.00    -0.395 Cl 
HETATM    6  C   UNL     1     -10.259  14.447  67.052  1.00  0.00    -0.263 A  
HETATM    7  C   UNL     1      -9.941  15.448  67.994  1.00  0.00    -0.221 A  
HETATM    8  C   UNL     1      -9.990  16.800  67.656  1.00  0.00    -0.262 A  
ENDROOT
BRANCH   6   9
HETATM    9  C   UNL     1     -10.191  12.980  67.466  1.00  0.00    -0.221 C  
BRANCH   9  10
HETATM   10  C   UNL     1     -11.627  12.437  67.601  1.00  0.00    -0.357 C  
BRANCH  10  11
HETATM   11  N   UNL     1     -11.990  12.111  68.965  1.00  0.00    -0.282 NA 
HETATM   12  C   UNL     1     -12.188  10.861  69.484  1.00  0.00    -0.261 A  
HETATM   13  C   UNL     1     -12.111  13.009  69.991  1.00  0.00    -0.297 A  
HETATM   14  N   UNL     1     -12.412  12.409  71.118  1.00  0.00    -0.303 NA 
HETATM   15  C   UNL     1     -12.462  11.073  70.815  1.00  0.00    -0.396 A  
ENDBRANCH  10  11
ENDBRANCH   9  10
BRANCH   9  16
HETATM   16  O   UNL     1      -9.505  12.218  66.457  1.00  0.00    -0.226 OA 
BRANCH  16  17
HETATM   17  C   UNL     1      -8.521  11.321  66.990  1.00  0.00    -0.150 C  
BRANCH  17  18
HETATM   18  C   UNL     1      -9.129   9.977  67.257  1.00  0.00    -0.152 A  
HETATM   19  C   UNL     1      -9.666   9.179  66.267  1.00  0.00    -0.274 A  
HETATM   20  S   UNL     1     -10.295   7.718  66.857  1.00  0.00    -0.292 SA 
HETATM   21  C   UNL     1      -9.874   8.096  68.488  1.00  0.00    -0.179 A  
HETATM   22  C   UNL     1      -9.238   9.347  68.562  1.00  0.00    -0.131 A  
HETATM   23  C   UNL     1      -8.820   9.799  69.843  1.00  0.00    -0.248 A  
HETATM   24  C   UNL     1      -9.035   9.027  70.989  1.00  0.00    -0.304 A  
HETATM   25  C   UNL     1      -9.671   7.799  70.890  1.00  0.00    -0.174 A  
HETATM   26  C   UNL     1     -10.095   7.322  69.648  1.00  0.00    -0.194 A  
HETATM   27 CL   UNL     1     -10.883   5.787  69.582  1.00  0.00    -0.423 Cl 
ENDBRANCH  17  18
ENDBRANCH  16  17
ENDBRANCH   9  16
ENDBRANCH   6   9
TORSDOF 6
ENDMDL
MODEL      108
REMARK 921   NORMALIZED FREE ENERGY PREDICTED BY IDOCK:   -5.30 KCAL/MOL
REMARK 922        TOTAL FREE ENERGY PREDICTED BY IDOCK:   -8.20 KCAL/MOL
REMARK 923 INTER-LIGAND FREE ENERGY PREDICTED BY IDOCK:   -6.68 KCAL/MOL
REMARK 924 INTRA-LIGAND FREE ENERGY PREDICTED BY IDOCK:   -1.53 KCAL/MOL
REMARK 927      BINDING AFFINITY PREDICTED BY RF-SCORE:    0.00 PKD
ROOT
HETATM    1 CL   UNL     1     -12.407  14.316  65.546  1.00  0.00    -0.425 Cl 
HETATM    2  C   UNL     1     -11.830  13.094  66.610  1.00  0.00    -0.391 A  
HETATM    3  C   UNL     1     -11.315  11.908  66.093  1.00  0.00    -0.383 A  
HETATM    4  C   UNL     1     -10.842  10.917  66.959  1.00  0.00    -0.266 A  
HETATM    5 CL   UNL     1     -10.231   9.465  66.252  1.00  0.00    -0.324 Cl 
HETATM    6  C   UNL     1     -10.869  11.108  68.350  1.00  0.00    -0.248 A  
HETATM    7  C   UNL     1     -11.383  12.325  68.845  1.00  0.00    -0.337 A  
HETATM    8  C   UNL     1     -11.876  13.304  67.983  1.00  0.00    -0.392 A  
ENDROOT
BRANCH   6   9
HETATM    9  C   UNL     1     -10.339  10.066  69.331  1.00  0.00    -0.227 C  
BRANCH   9  10
HETATM   10  C   UNL     1      -8.815  10.249  69.472  1.00  0.00    -0.148 C  
BRANCH  10  11
HETATM   11  N   UNL     1      -8.094   8.996  69.565  1.00  0.00    -0.101 NA 
HETATM   12  C   UNL     1      -7.622   8.405  70.705  1.00  0.00    -0.070 A  
HETATM   13  C   UNL     1      -7.842   8.146  68.523  1.00  0.00    -0.118 A  
HETATM   14  N   UNL     1      -7.203   7.073  68.926  1.00  0.00    -0.088 NA 
HETATM   15  C   UNL     1      -7.062   7.223  70.281  1.00  0.00    -0.065 A  
ENDBRANCH  10  11
ENDBRANCH   9  10
BRANCH   9  16
HETATM   16  O   UNL     1     -10.945  10.256  70.622  1.00  0.00    -0.308 OA 
BRANCH  16  17
HETATM   17  C   UNL     1     -12.005   9.330  70.897  1.00  0.00    -0.257 C  
BRANCH  17  18
HETATM   18  C   UNL     1     -11.449   8.036  71.411  1.00  0.00    -0.293 A  
HETATM   19  C   UNL     1     -11.258   7.775  72.753  1.00  0.00    -0.398 A  
HETATM   20  S   UNL     1     -10.604   6.237  73.046  1.00  0.00    -0.253 SA 
HETATM   21  C   UNL     1     -10.543   5.849  71.365  1.00  0.00    -0.252 A  
HETATM   22  C   UNL     1     -11.041   6.910  70.589  1.00  0.00    -0.322 A  
HETATM   23  C   UNL     1     -11.065   6.740  69.178  1.00  0.00    -0.270 A  
HETATM   24  C   UNL     1     -10.608   5.560  68.582  1.00  0.00    -0.215 A  
HETATM   25  C   UNL     1     -10.115   4.531  69.370  1.00  0.00    -0.124 A  
HETATM   26  C   UNL     1     -10.076   4.662  70.760  1.00  0.00    -0.194 A  
HETATM   27 CL   UNL     1      -9.450   3.349  71.692  1.00  0.00    -0.207 Cl 
ENDBRANCH  17  18
ENDBRANCH  16  17
ENDBRANCH   9  16
ENDBRANCH   6   9
TORSDOF 6
ENDMDL
MODEL      109
REMARK 921   NORMALIZED FREE ENERGY PREDICTED BY IDOCK:   -5.30 KCAL/MOL
REMARK 922        TOTAL FREE ENERGY PREDICTED BY IDOCK:   -8.20 KCAL/MOL
REMARK 923 INTER-LIGAND FREE ENERGY PREDICTED BY IDOCK:   -7.32 KCAL/MOL
REMARK 924 INTRA-LIGAND FREE ENERGY PREDICTED BY IDOCK:   -0.87 KCAL/MOL
REMARK 927      BINDING AFFINITY PREDICTED BY RF-SCORE:    0.00 PKD
ROOT
HETATM    1 CL   UNL     1      -5.528   4.061  67.767  1.00  0.00    -0.016 Cl 
HETATM    2  C   UNL     1      -6.947   5.032  67.811  1.00  0.00    -0.061 A  
HETATM    3  C   UNL     1      -8.071   4.655  67.080  1.00  0.00    -0.102 A  
HETATM    4  C   UNL     1      -9.226   5.442  67.120  1.00  0.00    -0.111 A  
HETATM    5 CL   UNL     1     -10.578   4.925  66.178  1.00  0.00    -0.360 Cl 
HETATM    6  C   UNL     1      -9.272   6.609  67.901  1.00  0.00    -0.111 A  
HETATM    7  C   UNL     1      -8.124   6.959  68.642  1.00  0.00    -0.121 A  
HETATM    8  C   UNL     1      -6.964   6.187  68.585  1.00  0.00    -0.076 A  
ENDROOT
BRANCH   6   9
HETATM    9  C   UNL     1     -10.519   7.483  67.996  1.00  0.00    -0.197 C  
BRANCH   9  10
HETATM   10  C   UNL     1     -10.334   8.485  69.152  1.00  0.00    -0.217 C  
BRANCH  10  11
HETATM   11  N   UNL     1     -11.080   8.129  70.342  1.00  0.00    -0.253 NA 
HETATM   12  C   UNL     1     -11.332   8.930  71.422  1.00  0.00    -0.309 A  
HETATM   13  C   UNL     1     -11.738   6.946  70.543  1.00  0.00    -0.350 A  
HETATM   14  N   UNL     1     -12.355   6.934  71.701  1.00  0.00    -0.357 NA 
HETATM   15  C   UNL     1     -12.111   8.163  72.255  1.00  0.00    -0.364 A  
ENDBRANCH  10  11
ENDBRANCH   9  10
BRANCH   9  16
HETATM   16  O   UNL     1     -10.693   8.222  66.773  1.00  0.00    -0.267 OA 
BRANCH  16  17
HETATM   17  C   UNL     1      -9.633   9.150  66.511  1.00  0.00    -0.227 C  
BRANCH  17  18
HETATM   18  C   UNL     1     -10.135  10.301  65.693  1.00  0.00    -0.341 A  
HETATM   19  C   UNL     1      -9.990  10.375  64.322  1.00  0.00    -0.298 A  
HETATM   20  S   UNL     1     -10.640  11.794  63.658  1.00  0.00    -0.472 SA 
HETATM   21  C   UNL     1     -11.147  12.384  65.200  1.00  0.00    -0.309 A  
HETATM   22  C   UNL     1     -10.819  11.471  66.216  1.00  0.00    -0.333 A  
HETATM   23  C   UNL     1     -11.180  11.810  67.548  1.00  0.00    -0.354 A  
HETATM   24  C   UNL     1     -11.837  13.010  67.838  1.00  0.00    -0.389 A  
HETATM   25  C   UNL     1     -12.143  13.898  66.818  1.00  0.00    -0.476 A  
HETATM   26  C   UNL     1     -11.805  13.598  65.496  1.00  0.00    -0.362 A  
HETATM   27 CL   UNL     1     -12.208  14.740  64.265  1.00  0.00    -0.489 Cl 
ENDBRANCH  17  18
ENDBRANCH  16  17
ENDBRANCH   9  16
ENDBRANCH   6   9
TORSDOF 6
ENDMDL
MODEL      110
REMARK 921   NORMALIZED FREE ENERGY PREDICTED BY IDOCK:   -5.28 KCAL/MOL
REMARK 922        TOTAL FREE ENERGY PREDICTED BY IDOCK:   -8.18 KCAL/MOL
REMARK 923 INTER-LIGAND FREE ENERGY PREDICTED BY IDOCK:   -7.96 KCAL/MOL
REMARK 924 INTRA-LIGAND FREE ENERGY PREDICTED BY IDOCK:   -0.22 KCAL/MOL
REMARK 927      BINDING AFFINITY PREDICTED BY RF-SCORE:    0.00 PKD
ROOT
HETATM    1 CL   UNL     1      -8.062   6.499  64.885  1.00  0.00    -0.128 Cl 
HETATM    2  C   UNL     1      -8.918   7.596  65.895  1.00  0.00    -0.103 A  
HETATM    3  C   UNL     1      -9.142   8.903  65.470  1.00  0.00    -0.248 A  
HETATM    4  C   UNL     1      -9.842   9.793  66.291  1.00  0.00    -0.250 A  
HETATM    5 CL   UNL     1     -10.072  11.402  65.709  1.00  0.00    -0.275 Cl 
HETATM    6  C   UNL     1     -10.334   9.381  67.540  1.00  0.00    -0.314 A  
HETATM    7  C   UNL     1     -10.104   8.048  67.939  1.00  0.00    -0.243 A  
HETATM    8  C   UNL     1      -9.386   7.166  67.132  1.00  0.00    -0.166 A  
ENDROOT
BRANCH   6   9
HETATM    9  C   UNL     1     -11.125  10.310  68.457  1.00  0.00    -0.242 C  
BRANCH   9  10
HETATM   10  C   UNL     1     -10.635  10.112  69.905  1.00  0.00    -0.285 C  
BRANCH  10  11
HETATM   11  N   UNL     1     -11.657   9.585  70.787  1.00  0.00    -0.291 NA 
HETATM   12  C   UNL     1     -11.785   8.292  71.212  1.00  0.00    -0.283 A  
HETATM   13  C   UNL     1     -12.623  10.325  71.414  1.00  0.00    -0.434 A  
HETATM   14  N   UNL     1     -13.379   9.572  72.178  1.00  0.00    -0.443 NA 
HETATM   15  C   UNL     1     -12.866   8.307  72.062  1.00  0.00    -0.340 A  
ENDBRANCH  10  11
ENDBRANCH   9  10
BRANCH   9  16
HETATM   16  O   UNL     1     -10.898  11.680  68.079  1.00  0.00    -0.195 OA 
BRANCH  16  17
HETATM   17  C   UNL     1     -12.059  12.510  68.215  1.00  0.00    -0.069 C  
BRANCH  17  18
HETATM   18  C   UNL     1     -11.666  13.897  68.626  1.00  0.00    -0.396 A  
HETATM   19  C   UNL     1     -11.733  14.347  69.929  1.00  0.00    -0.303 A  
HETATM   20  S   UNL     1     -11.240  15.961  70.103  1.00  0.00    -0.389 SA 
HETATM   21  C   UNL     1     -10.916  16.133  68.416  1.00  0.00    -0.341 A  
HETATM   22  C   UNL     1     -11.181  14.934  67.732  1.00  0.00    -0.329 A  
HETATM   23  C   UNL     1     -10.954  14.911  66.329  1.00  0.00    -0.338 A  
HETATM   24  C   UNL     1     -10.485  16.042  65.653  1.00  0.00    -0.416 A  
HETATM   25  C   UNL     1     -10.238  17.215  66.350  1.00  0.00    -0.331 A  
HETATM   26  C   UNL     1     -10.449  17.274  67.729  1.00  0.00    -0.371 A  
HETATM   27 CL   UNL     1     -10.126  18.761  68.547  1.00  0.00    -0.435 Cl 
ENDBRANCH  17  18
ENDBRANCH  16  17
ENDBRANCH   9  16
ENDBRANCH   6   9
TORSDOF 6
ENDMDL
MODEL      111
REMARK 921   NORMALIZED FREE ENERGY PREDICTED BY IDOCK:   -5.28 KCAL/MOL
REMARK 922        TOTAL FREE ENERGY PREDICTED BY IDOCK:   -8.17 KCAL/MOL
REMARK 923 INTER-LIGAND FREE ENERGY PREDICTED BY IDOCK:   -7.26 KCAL/MOL
REMARK 924 INTRA-LIGAND FREE ENERGY PREDICTED BY IDOCK:   -0.91 KCAL/MOL
REMARK 927      BINDING AFFINITY PREDICTED BY RF-SCORE:    0.00 PKD
ROOT
HETATM    1 CL   UNL     1      -7.579  21.030  67.644  1.00  0.00    -0.226 Cl 
HETATM    2  C   UNL     1      -8.303  19.506  67.974  1.00  0.00    -0.320 A  
HETATM    3  C   UNL     1      -7.512  18.432  68.376  1.00  0.00    -0.300 A  
HETATM    4  C   UNL     1      -8.103  17.194  68.649  1.00  0.00    -0.264 A  
HETATM    5 CL   UNL     1      -7.062  15.902  69.127  1.00  0.00    -0.172 Cl 
HETATM    6  C   UNL     1      -9.492  17.021  68.533  1.00  0.00    -0.269 A  
HETATM    7  C   UNL     1     -10.270  18.129  68.138  1.00  0.00    -0.400 A  
HETATM    8  C   UNL     1      -9.679  19.358  67.844  1.00  0.00    -0.445 A  
ENDROOT
BRANCH   6   9
HETATM    9  C   UNL     1     -10.182  15.696  68.846  1.00  0.00    -0.214 C  
BRANCH   9  10
HETATM   10  C   UNL     1     -11.688  15.957  69.040  1.00  0.00    -0.370 C  
BRANCH  10  11
HETATM   11  N   UNL     1     -12.120  15.820  70.416  1.00  0.00    -0.385 NA 
HETATM   12  C   UNL     1     -13.372  15.485  70.852  1.00  0.00    -0.353 A  
HETATM   13  C   UNL     1     -11.312  15.922  71.516  1.00  0.00    -0.309 A  
HETATM   14  N   UNL     1     -11.984  15.712  72.623  1.00  0.00    -0.432 NA 
HETATM   15  C   UNL     1     -13.266  15.437  72.223  1.00  0.00    -0.421 A  
ENDBRANCH  10  11
ENDBRANCH   9  10
BRANCH   9  16
HETATM   16  O   UNL     1     -10.011  14.784  67.747  1.00  0.00    -0.221 OA 
BRANCH  16  17
HETATM   17  C   UNL     1     -11.020  13.767  67.688  1.00  0.00    -0.264 C  
BRANCH  17  18
HETATM   18  C   UNL     1     -10.598  12.664  66.765  1.00  0.00    -0.254 A  
HETATM   19  C   UNL     1     -11.186  12.439  65.537  1.00  0.00    -0.325 A  
HETATM   20  S   UNL     1     -10.519  11.116  64.710  1.00  0.00    -0.310 SA 
HETATM   21  C   UNL     1      -9.400  10.778  65.981  1.00  0.00    -0.186 A  
HETATM   22  C   UNL     1      -9.544  11.700  67.031  1.00  0.00    -0.196 A  
HETATM   23  C   UNL     1      -8.684  11.560  68.154  1.00  0.00    -0.157 A  
HETATM   24  C   UNL     1      -7.728  10.540  68.212  1.00  0.00    -0.101 A  
HETATM   25  C   UNL     1      -7.611   9.638  67.166  1.00  0.00    -0.091 A  
HETATM   26  C   UNL     1      -8.439   9.745  66.046  1.00  0.00    -0.124 A  
HETATM   27 CL   UNL     1      -8.251   8.595  64.772  1.00  0.00    -0.153 Cl 
ENDBRANCH  17  18
ENDBRANCH  16  17
ENDBRANCH   9  16
ENDBRANCH   6   9
TORSDOF 6
ENDMDL
MODEL      112
REMARK 921   NORMALIZED FREE ENERGY PREDICTED BY IDOCK:   -5.27 KCAL/MOL
REMARK 922        TOTAL FREE ENERGY PREDICTED BY IDOCK:   -8.17 KCAL/MOL
REMARK 923 INTER-LIGAND FREE ENERGY PREDICTED BY IDOCK:   -7.34 KCAL/MOL
REMARK 924 INTRA-LIGAND FREE ENERGY PREDICTED BY IDOCK:   -0.83 KCAL/MOL
REMARK 927      BINDING AFFINITY PREDICTED BY RF-SCORE:    0.00 PKD
ROOT
HETATM    1 CL   UNL     1     -12.888   8.816  72.715  1.00  0.00    -0.308 Cl 
HETATM    2  C   UNL     1     -12.141   9.619  71.391  1.00  0.00    -0.388 A  
HETATM    3  C   UNL     1     -10.880   9.218  70.956  1.00  0.00    -0.385 A  
HETATM    4  C   UNL     1     -10.274   9.869  69.877  1.00  0.00    -0.257 A  
HETATM    5 CL   UNL     1      -8.705   9.331  69.400  1.00  0.00    -0.140 Cl 
HETATM    6  C   UNL     1     -10.929  10.920  69.215  1.00  0.00    -0.295 A  
HETATM    7  C   UNL     1     -12.211  11.296  69.668  1.00  0.00    -0.340 A  
HETATM    8  C   UNL     1     -12.806  10.663  70.758  1.00  0.00    -0.439 A  
ENDROOT
BRANCH   6   9
HETATM    9  C   UNL     1     -10.318  11.640  68.016  1.00  0.00    -0.192 C  
BRANCH   9  10
HETATM   10  C   UNL     1     -11.219  11.406  66.787  1.00  0.00    -0.252 C  
BRANCH  10  11
HETATM   11  N   UNL     1     -10.479  11.331  65.543  1.00  0.00    -0.264 NA 
HETATM   12  C   UNL     1      -9.592  10.358  65.175  1.00  0.00    -0.271 A  
HETATM   13  C   UNL     1     -10.617  12.188  64.484  1.00  0.00    -0.310 A  
HETATM   14  N   UNL     1      -9.841  11.840  63.485  1.00  0.00    -0.367 NA 
HETATM   15  C   UNL     1      -9.200  10.703  63.902  1.00  0.00    -0.243 A  
ENDBRANCH  10  11
ENDBRANCH   9  10
BRANCH   9  16
HETATM   16  O   UNL     1     -10.255  13.054  68.275  1.00  0.00    -0.235 OA 
BRANCH  16  17
HETATM   17  C   UNL     1      -8.922  13.580  68.247  1.00  0.00    -0.180 C  
BRANCH  17  18
HETATM   18  C   UNL     1      -8.950  15.075  68.135  1.00  0.00    -0.173 A  
HETATM   19  C   UNL     1      -8.337  15.913  69.044  1.00  0.00    -0.239 A  
HETATM   20  S   UNL     1      -8.542  17.557  68.678  1.00  0.00    -0.222 SA 
HETATM   21  C   UNL     1      -9.478  17.214  67.269  1.00  0.00    -0.245 A  
HETATM   22  C   UNL     1      -9.615  15.827  67.086  1.00  0.00    -0.224 A  
HETATM   23  C   UNL     1     -10.356  15.381  65.958  1.00  0.00    -0.339 A  
HETATM   24  C   UNL     1     -10.930  16.290  65.062  1.00  0.00    -0.311 A  
HETATM   25  C   UNL     1     -10.786  17.653  65.269  1.00  0.00     0.193 A  
HETATM   26  C   UNL     1     -10.064  18.129  66.366  1.00  0.00    -0.389 A  
HETATM   27 CL   UNL     1      -9.918  19.836  66.576  1.00  0.00    -0.525 Cl 
ENDBRANCH  17  18
ENDBRANCH  16  17
ENDBRANCH   9  16
ENDBRANCH   6   9
TORSDOF 6
ENDMDL
MODEL      113
REMARK 921   NORMALIZED FREE ENERGY PREDICTED BY IDOCK:   -5.26 KCAL/MOL
REMARK 922        TOTAL FREE ENERGY PREDICTED BY IDOCK:   -8.15 KCAL/MOL
REMARK 923 INTER-LIGAND FREE ENERGY PREDICTED BY IDOCK:   -7.22 KCAL/MOL
REMARK 924 INTRA-LIGAND FREE ENERGY PREDICTED BY IDOCK:   -0.93 KCAL/MOL
REMARK 927      BINDING AFFINITY PREDICTED BY RF-SCORE:    0.00 PKD
ROOT
HETATM    1 CL   UNL     1     -11.697   5.158  72.951  1.00  0.00    -0.303 Cl 
HETATM    2  C   UNL     1     -11.059   6.470  72.041  1.00  0.00    -0.258 A  
HETATM    3  C   UNL     1     -10.419   6.229  70.827  1.00  0.00    -0.273 A  
HETATM    4  C   UNL     1      -9.905   7.297  70.086  1.00  0.00    -0.179 A  
HETATM    5 CL   UNL     1      -9.110   6.926  68.598  1.00  0.00    -0.132 Cl 
HETATM    6  C   UNL     1     -10.036   8.618  70.545  1.00  0.00    -0.228 A  
HETATM    7  C   UNL     1     -10.701   8.834  71.770  1.00  0.00    -0.413 A  
HETATM    8  C   UNL     1     -11.194   7.768  72.521  1.00  0.00    -0.419 A  
ENDROOT
BRANCH   6   9
HETATM    9  C   UNL     1      -9.514   9.816  69.756  1.00  0.00    -0.228 C  
BRANCH   9  10
HETATM   10  C   UNL     1      -7.973   9.782  69.767  1.00  0.00    -0.164 C  
BRANCH  10  11
HETATM   11  N   UNL     1      -7.377  10.577  68.712  1.00  0.00    -0.085 NA 
HETATM   12  C   UNL     1      -7.319  11.941  68.648  1.00  0.00    -0.115 A  
HETATM   13  C   UNL     1      -6.689  10.082  67.637  1.00  0.00    -0.075 A  
HETATM   14  N   UNL     1      -6.234  11.049  66.876  1.00  0.00    -0.082 NA 
HETATM   15  C   UNL     1      -6.619  12.209  67.495  1.00  0.00    -0.132 A  
ENDBRANCH  10  11
ENDBRANCH   9  10
BRANCH   9  16
HETATM   16  O   UNL     1      -9.965   9.737  68.391  1.00  0.00    -0.149 OA 
BRANCH  16  17
HETATM   17  C   UNL     1     -11.324  10.158  68.214  1.00  0.00    -0.114 C  
BRANCH  17  18
HETATM   18  C   UNL     1     -11.487  11.589  68.627  1.00  0.00    -0.354 A  
HETATM   19  C   UNL     1     -11.016  12.650  67.880  1.00  0.00    -0.230 A  
HETATM   20  S   UNL     1     -11.329  14.158  68.593  1.00  0.00    -0.297 SA 
HETATM   21  C   UNL     1     -12.115  13.446  69.955  1.00  0.00    -0.334 A  
HETATM   22  C   UNL     1     -12.139  12.046  69.842  1.00  0.00    -0.334 A  
HETATM   23  C   UNL     1     -12.763  11.311  70.886  1.00  0.00    -0.412 A  
HETATM   24  C   UNL     1     -13.332  11.958  71.989  1.00  0.00    -0.425 A  
HETATM   25  C   UNL     1     -13.287  13.341  72.080  1.00  0.00    -0.618 A  
HETATM   26  C   UNL     1     -12.683  14.096  71.073  1.00  0.00    -0.362 A  
HETATM   27 CL   UNL     1     -12.655  15.815  71.239  1.00  0.00    -0.505 Cl 
ENDBRANCH  17  18
ENDBRANCH  16  17
ENDBRANCH   9  16
ENDBRANCH   6   9
TORSDOF 6
ENDMDL
MODEL      114
REMARK 921   NORMALIZED FREE ENERGY PREDICTED BY IDOCK:   -5.26 KCAL/MOL
REMARK 922        TOTAL FREE ENERGY PREDICTED BY IDOCK:   -8.15 KCAL/MOL
REMARK 923 INTER-LIGAND FREE ENERGY PREDICTED BY IDOCK:   -7.52 KCAL/MOL
REMARK 924 INTRA-LIGAND FREE ENERGY PREDICTED BY IDOCK:   -0.63 KCAL/MOL
REMARK 927      BINDING AFFINITY PREDICTED BY RF-SCORE:    0.00 PKD
ROOT
HETATM    1 CL   UNL     1     -12.963  11.826  62.957  1.00  0.00    -0.162 Cl 
HETATM    2  C   UNL     1     -12.010  12.096  64.362  1.00  0.00    -0.361 A  
HETATM    3  C   UNL     1     -10.739  11.533  64.459  1.00  0.00    -0.390 A  
HETATM    4  C   UNL     1      -9.962  11.757  65.600  1.00  0.00    -0.240 A  
HETATM    5 CL   UNL     1      -8.403  11.018  65.661  1.00  0.00    -0.113 Cl 
HETATM    6  C   UNL     1     -10.444  12.554  66.651  1.00  0.00    -0.252 A  
HETATM    7  C   UNL     1     -11.729  13.122  66.520  1.00  0.00    -0.433 A  
HETATM    8  C   UNL     1     -12.513  12.881  65.393  1.00  0.00    -0.511 A  
ENDROOT
BRANCH   6   9
HETATM    9  C   UNL     1      -9.621  12.846  67.903  1.00  0.00    -0.215 C  
BRANCH   9  10
HETATM   10  C   UNL     1      -9.902  14.294  68.352  1.00  0.00    -0.233 C  
BRANCH  10  11
HETATM   11  N   UNL     1      -9.183  15.283  67.574  1.00  0.00    -0.197 NA 
HETATM   12  C   UNL     1      -7.859  15.253  67.234  1.00  0.00    -0.209 A  
HETATM   13  C   UNL     1      -9.740  16.379  66.972  1.00  0.00    -0.248 A  
HETATM   14  N   UNL     1      -8.842  17.066  66.307  1.00  0.00    -0.391 NA 
HETATM   15  C   UNL     1      -7.669  16.375  66.461  1.00  0.00    -0.260 A  
ENDBRANCH  10  11
ENDBRANCH   9  10
BRANCH   9  16
HETATM   16  O   UNL     1     -10.009  11.954  68.963  1.00  0.00    -0.067 OA 
BRANCH  16  17
HETATM   17  C   UNL     1      -9.206  10.769  69.034  1.00  0.00    -0.146 C  
BRANCH  17  18
HETATM   18  C   UNL     1     -10.024   9.611  69.520  1.00  0.00    -0.223 A  
HETATM   19  C   UNL     1      -9.740   8.298  69.202  1.00  0.00    -0.171 A  
HETATM   20  S   UNL     1     -10.838   7.196  69.878  1.00  0.00    -0.251 SA 
HETATM   21  C   UNL     1     -11.759   8.446  70.633  1.00  0.00    -0.147 A  
HETATM   22  C   UNL     1     -11.201   9.707  70.365  1.00  0.00    -0.342 A  
HETATM   23  C   UNL     1     -11.843  10.844  70.927  1.00  0.00    -0.363 A  
HETATM   24  C   UNL     1     -12.990  10.712  71.717  1.00  0.00    -0.577 A  
HETATM   25  C   UNL     1     -13.524   9.456  71.960  1.00  0.00    -0.522 A  
HETATM   26  C   UNL     1     -12.920   8.316  71.426  1.00  0.00    -0.232 A  
HETATM   27 CL   UNL     1     -13.629   6.777  71.760  1.00  0.00    -0.264 Cl 
ENDBRANCH  17  18
ENDBRANCH  16  17
ENDBRANCH   9  16
ENDBRANCH   6   9
TORSDOF 6
ENDMDL
MODEL      115
REMARK 921   NORMALIZED FREE ENERGY PREDICTED BY IDOCK:   -5.24 KCAL/MOL
REMARK 922        TOTAL FREE ENERGY PREDICTED BY IDOCK:   -8.12 KCAL/MOL
REMARK 923 INTER-LIGAND FREE ENERGY PREDICTED BY IDOCK:   -8.16 KCAL/MOL
REMARK 924 INTRA-LIGAND FREE ENERGY PREDICTED BY IDOCK:    0.04 KCAL/MOL
REMARK 927      BINDING AFFINITY PREDICTED BY RF-SCORE:    0.00 PKD
ROOT
HETATM    1 CL   UNL     1      -7.242  19.750  67.466  1.00  0.00    -0.272 Cl 
HETATM    2  C   UNL     1      -8.150  18.290  67.478  1.00  0.00    -0.239 A  
HETATM    3  C   UNL     1      -9.037  18.013  66.440  1.00  0.00    -0.251 A  
HETATM    4  C   UNL     1      -9.772  16.824  66.448  1.00  0.00    -0.290 A  
HETATM    5 CL   UNL     1     -10.863  16.552  65.138  1.00  0.00    -0.329 Cl 
HETATM    6  C   UNL     1      -9.619  15.894  67.489  1.00  0.00    -0.221 A  
HETATM    7  C   UNL     1      -8.704  16.193  68.520  1.00  0.00    -0.200 A  
HETATM    8  C   UNL     1      -7.988  17.390  68.525  1.00  0.00    -0.266 A  
ENDROOT
BRANCH   6   9
HETATM    9  C   UNL     1     -10.380  14.571  67.525  1.00  0.00    -0.244 C  
BRANCH   9  10
HETATM   10  C   UNL     1     -10.294  13.990  68.950  1.00  0.00    -0.176 C  
BRANCH  10  11
HETATM   11  N   UNL     1     -11.420  14.357  69.786  1.00  0.00    -0.272 NA 
HETATM   12  C   UNL     1     -11.847  15.624  70.075  1.00  0.00    -0.367 A  
HETATM   13  C   UNL     1     -12.301  13.482  70.360  1.00  0.00    -0.327 A  
HETATM   14  N   UNL     1     -13.236  14.116  71.028  1.00  0.00    -0.312 NA 
HETATM   15  C   UNL     1     -12.965  15.448  70.856  1.00  0.00    -0.478 A  
ENDBRANCH  10  11
ENDBRANCH   9  10
BRANCH   9  16
HETATM   16  O   UNL     1     -11.765  14.795  67.204  1.00  0.00    -0.376 OA 
BRANCH  16  17
HETATM   17  C   UNL     1     -12.455  13.607  66.795  1.00  0.00    -0.191 C  
BRANCH  17  18
HETATM   18  C   UNL     1     -11.626  12.831  65.816  1.00  0.00    -0.419 A  
HETATM   19  C   UNL     1     -11.372  13.264  64.530  1.00  0.00    -0.363 A  
HETATM   20  S   UNL     1     -10.418  12.182  63.638  1.00  0.00    -0.464 SA 
HETATM   21  C   UNL     1     -10.305  11.066  64.951  1.00  0.00    -0.313 A  
HETATM   22  C   UNL     1     -10.999  11.547  66.075  1.00  0.00    -0.316 A  
HETATM   23  C   UNL     1     -10.993  10.743  67.247  1.00  0.00    -0.359 A  
HETATM   24  C   UNL     1     -10.322   9.515  67.280  1.00  0.00    -0.319 A  
HETATM   25  C   UNL     1      -9.652   9.060  66.155  1.00  0.00    -0.341 A  
HETATM   26  C   UNL     1      -9.635   9.824  64.986  1.00  0.00    -0.264 A  
HETATM   27 CL   UNL     1      -8.786   9.208  63.614  1.00  0.00    -0.187 Cl 
ENDBRANCH  17  18
ENDBRANCH  16  17
ENDBRANCH   9  16
ENDBRANCH   6   9
TORSDOF 6
ENDMDL
MODEL      116
REMARK 921   NORMALIZED FREE ENERGY PREDICTED BY IDOCK:   -5.24 KCAL/MOL
REMARK 922        TOTAL FREE ENERGY PREDICTED BY IDOCK:   -8.12 KCAL/MOL
REMARK 923 INTER-LIGAND FREE ENERGY PREDICTED BY IDOCK:   -7.76 KCAL/MOL
REMARK 924 INTRA-LIGAND FREE ENERGY PREDICTED BY IDOCK:   -0.36 KCAL/MOL
REMARK 927      BINDING AFFINITY PREDICTED BY RF-SCORE:    0.00 PKD
ROOT
HETATM    1 CL   UNL     1     -10.563   3.544  74.560  1.00  0.00    -0.229 Cl 
HETATM    2  C   UNL     1     -10.549   4.966  73.593  1.00  0.00    -0.266 A  
HETATM    3  C   UNL     1     -10.866   4.889  72.239  1.00  0.00    -0.172 A  
HETATM    4  C   UNL     1     -10.859   6.046  71.454  1.00  0.00    -0.270 A  
HETATM    5 CL   UNL     1     -11.247   5.877  69.780  1.00  0.00    -0.433 Cl 
HETATM    6  C   UNL     1     -10.546   7.294  72.018  1.00  0.00    -0.236 A  
HETATM    7  C   UNL     1     -10.243   7.344  73.395  1.00  0.00    -0.402 A  
HETATM    8  C   UNL     1     -10.227   6.187  74.174  1.00  0.00    -0.320 A  
ENDROOT
BRANCH   6   9
HETATM    9  C   UNL     1     -10.553   8.586  71.206  1.00  0.00    -0.234 C  
BRANCH   9  10
HETATM   10  C   UNL     1      -9.578   8.430  70.022  1.00  0.00    -0.168 C  
BRANCH  10  11
HETATM   11  N   UNL     1      -8.200   8.257  70.435  1.00  0.00    -0.110 NA 
HETATM   12  C   UNL     1      -7.376   7.211  70.122  1.00  0.00    -0.080 A  
HETATM   13  C   UNL     1      -7.463   9.167  71.143  1.00  0.00    -0.063 A  
HETATM   14  N   UNL     1      -6.235   8.742  71.333  1.00  0.00    -0.053 NA 
HETATM   15  C   UNL     1      -6.170   7.528  70.701  1.00  0.00    -0.035 A  
ENDBRANCH  10  11
ENDBRANCH   9  10
BRANCH   9  16
HETATM   16  O   UNL     1     -11.871   8.829  70.685  1.00  0.00    -0.232 OA 
BRANCH  16  17
HETATM   17  C   UNL     1     -12.545   9.921  71.324  1.00  0.00    -0.381 C  
BRANCH  17  18
HETATM   18  C   UNL     1     -12.271  11.204  70.597  1.00  0.00    -0.492 A  
HETATM   19  C   UNL     1     -11.595  11.262  69.396  1.00  0.00    -0.321 A  
HETATM   20  S   UNL     1     -11.417  12.843  68.807  1.00  0.00    -0.324 SA 
HETATM   21  C   UNL     1     -12.245  13.530  70.158  1.00  0.00    -0.330 A  
HETATM   22  C   UNL     1     -12.663  12.527  71.049  1.00  0.00    -0.316 A  
HETATM   23  C   UNL     1     -13.371  12.933  72.213  1.00  0.00    -0.597 A  
HETATM   24  C   UNL     1     -13.640  14.283  72.463  1.00  0.00    -0.620 A  
HETATM   25  C   UNL     1     -13.209  15.254  71.572  1.00  0.00    -0.542 A  
HETATM   26  C   UNL     1     -12.512  14.892  70.417  1.00  0.00    -0.350 A  
HETATM   27 CL   UNL     1     -11.998  16.142  69.341  1.00  0.00    -0.186 Cl 
ENDBRANCH  17  18
ENDBRANCH  16  17
ENDBRANCH   9  16
ENDBRANCH   6   9
TORSDOF 6
ENDMDL
MODEL      117
REMARK 921   NORMALIZED FREE ENERGY PREDICTED BY IDOCK:   -5.22 KCAL/MOL
REMARK 922        TOTAL FREE ENERGY PREDICTED BY IDOCK:   -8.10 KCAL/MOL
REMARK 923 INTER-LIGAND FREE ENERGY PREDICTED BY IDOCK:   -7.30 KCAL/MOL
REMARK 924 INTRA-LIGAND FREE ENERGY PREDICTED BY IDOCK:   -0.81 KCAL/MOL
REMARK 927      BINDING AFFINITY PREDICTED BY RF-SCORE:    0.00 PKD
ROOT
HETATM    1 CL   UNL     1     -11.192  16.046  64.252  1.00  0.00    -0.272 Cl 
HETATM    2  C   UNL     1     -10.725  14.606  65.068  1.00  0.00    -0.430 A  
HETATM    3  C   UNL     1      -9.765  14.658  66.076  1.00  0.00    -0.340 A  
HETATM    4  C   UNL     1      -9.389  13.488  66.742  1.00  0.00    -0.257 A  
HETATM    5 CL   UNL     1      -8.183  13.621  67.971  1.00  0.00    -0.150 Cl 
HETATM    6  C   UNL     1      -9.978  12.255  66.415  1.00  0.00    -0.243 A  
HETATM    7  C   UNL     1     -10.958  12.235  65.400  1.00  0.00    -0.341 A  
HETATM    8  C   UNL     1     -11.317  13.398  64.720  1.00  0.00    -0.356 A  
ENDROOT
BRANCH   6   9
HETATM    9  C   UNL     1      -9.619  10.958  67.134  1.00  0.00    -0.165 C  
BRANCH   9  10
HETATM   10  C   UNL     1      -8.084  10.815  67.158  1.00  0.00    -0.124 C  
BRANCH  10  11
HETATM   11  N   UNL     1      -7.563  10.051  66.043  1.00  0.00    -0.106 NA 
HETATM   12  C   UNL     1      -8.187   9.022  65.393  1.00  0.00    -0.130 A  
HETATM   13  C   UNL     1      -6.383  10.295  65.395  1.00  0.00    -0.124 A  
HETATM   14  N   UNL     1      -6.202   9.458  64.400  1.00  0.00    -0.077 NA 
HETATM   15  C   UNL     1      -7.318   8.663  64.389  1.00  0.00    -0.103 A  
ENDBRANCH  10  11
ENDBRANCH   9  10
BRANCH   9  16
HETATM   16  O   UNL     1     -10.096  11.001  68.491  1.00  0.00    -0.176 OA 
BRANCH  16  17
HETATM   17  C   UNL     1     -11.502  10.750  68.609  1.00  0.00    -0.295 C  
BRANCH  17  18
HETATM   18  C   UNL     1     -12.070  11.491  69.781  1.00  0.00    -0.374 A  
HETATM   19  C   UNL     1     -12.597  10.862  70.891  1.00  0.00    -0.397 A  
HETATM   20  S   UNL     1     -13.180  11.946  72.059  1.00  0.00    -0.153 SA 
HETATM   21  C   UNL     1     -12.752  13.326  71.114  1.00  0.00    -0.320 A  
HETATM   22  C   UNL     1     -12.149  12.936  69.906  1.00  0.00    -0.335 A  
HETATM   23  C   UNL     1     -11.730  13.964  69.017  1.00  0.00    -0.378 A  
HETATM   24  C   UNL     1     -11.912  15.314  69.333  1.00  0.00    -0.342 A  
HETATM   25  C   UNL     1     -12.516  15.672  70.529  1.00  0.00    -0.440 A  
HETATM   26  C   UNL     1     -12.940  14.690  71.427  1.00  0.00    -0.334 A  
HETATM   27 CL   UNL     1     -13.687  15.192  72.901  1.00  0.00    -0.535 Cl 
ENDBRANCH  17  18
ENDBRANCH  16  17
ENDBRANCH   9  16
ENDBRANCH   6   9
TORSDOF 6
ENDMDL
MODEL      118
REMARK 921   NORMALIZED FREE ENERGY PREDICTED BY IDOCK:   -5.20 KCAL/MOL
REMARK 922        TOTAL FREE ENERGY PREDICTED BY IDOCK:   -8.07 KCAL/MOL
REMARK 923 INTER-LIGAND FREE ENERGY PREDICTED BY IDOCK:   -7.23 KCAL/MOL
REMARK 924 INTRA-LIGAND FREE ENERGY PREDICTED BY IDOCK:   -0.85 KCAL/MOL
REMARK 927      BINDING AFFINITY PREDICTED BY RF-SCORE:    0.00 PKD
ROOT
HETATM    1 CL   UNL     1     -10.418  20.196  66.610  1.00  0.00    -0.509 Cl 
HETATM    2  C   UNL     1     -10.404  18.505  66.922  1.00  0.00    -0.397 A  
HETATM    3  C   UNL     1     -10.751  18.027  68.183  1.00  0.00    -0.267 A  
HETATM    4  C   UNL     1     -10.743  16.652  68.435  1.00  0.00    -0.353 A  
HETATM    5 CL   UNL     1     -11.170  16.129  70.024  1.00  0.00    -0.354 Cl 
HETATM    6  C   UNL     1     -10.399  15.740  67.424  1.00  0.00    -0.282 A  
HETATM    7  C   UNL     1     -10.065  16.251  66.152  1.00  0.00    -0.362 A  
HETATM    8  C   UNL     1     -10.050  17.623  65.906  1.00  0.00    -0.192 A  
ENDROOT
BRANCH   6   9
HETATM    9  C   UNL     1     -10.402  14.230  67.646  1.00  0.00    -0.248 C  
BRANCH   9  10
HETATM   10  C   UNL     1     -11.820  13.693  67.366  1.00  0.00    -0.393 C  
BRANCH  10  11
HETATM   11  N   UNL     1     -12.018  13.294  65.987  1.00  0.00    -0.401 NA 
HETATM   12  C   UNL     1     -11.711  12.082  65.432  1.00  0.00    -0.255 A  
HETATM   13  C   UNL     1     -12.633  14.047  65.023  1.00  0.00    -0.390 A  
HETATM   14  N   UNL     1     -12.697  13.401  63.883  1.00  0.00    -0.650 NA 
HETATM   15  C   UNL     1     -12.129  12.178  64.125  1.00  0.00    -0.409 A  
ENDBRANCH  10  11
ENDBRANCH   9  10
BRANCH   9  16
HETATM   16  O   UNL     1      -9.485  13.599  66.734  1.00  0.00    -0.254 OA 
BRANCH  16  17
HETATM   17  C   UNL     1      -8.330  13.047  67.379  1.00  0.00    -0.194 C  
BRANCH  17  18
HETATM   18  C   UNL     1      -8.500  11.572  67.587  1.00  0.00    -0.135 A  
HETATM   19  C   UNL     1      -8.687  11.001  68.829  1.00  0.00    -0.145 A  
HETATM   20  S   UNL     1      -8.838   9.312  68.770  1.00  0.00    -0.133 SA 
HETATM   21  C   UNL     1      -8.651   9.270  67.055  1.00  0.00    -0.124 A  
HETATM   22  C   UNL     1      -8.485  10.567  66.539  1.00  0.00    -0.139 A  
HETATM   23  C   UNL     1      -8.327  10.702  65.133  1.00  0.00    -0.117 A  
HETATM   24  C   UNL     1      -8.334   9.584  64.292  1.00  0.00    -0.172 A  
HETATM   25  C   UNL     1      -8.492   8.314  64.827  1.00  0.00    -0.089 A  
HETATM   26  C   UNL     1      -8.652   8.143  66.204  1.00  0.00    -0.139 A  
HETATM   27 CL   UNL     1      -8.844   6.540  66.816  1.00  0.00    -0.125 Cl 
ENDBRANCH  17  18
ENDBRANCH  16  17
ENDBRANCH   9  16
ENDBRANCH   6   9
TORSDOF 6
ENDMDL
MODEL      119
REMARK 921   NORMALIZED FREE ENERGY PREDICTED BY IDOCK:   -5.20 KCAL/MOL
REMARK 922        TOTAL FREE ENERGY PREDICTED BY IDOCK:   -8.07 KCAL/MOL
REMARK 923 INTER-LIGAND FREE ENERGY PREDICTED BY IDOCK:   -7.20 KCAL/MOL
REMARK 924 INTRA-LIGAND FREE ENERGY PREDICTED BY IDOCK:   -0.87 KCAL/MOL
REMARK 927      BINDING AFFINITY PREDICTED BY RF-SCORE:    0.00 PKD
ROOT
HETATM    1 CL   UNL     1     -10.905   5.304  74.050  1.00  0.00    -0.287 Cl 
HETATM    2  C   UNL     1     -10.618   6.439  72.790  1.00  0.00    -0.229 A  
HETATM    3  C   UNL     1     -10.958   6.121  71.477  1.00  0.00    -0.328 A  
HETATM    4  C   UNL     1     -10.729   7.046  70.454  1.00  0.00    -0.234 A  
HETATM    5 CL   UNL     1     -11.160   6.583  68.847  1.00  0.00    -0.367 Cl 
HETATM    6  C   UNL     1     -10.167   8.303  70.735  1.00  0.00    -0.219 A  
HETATM    7  C   UNL     1      -9.845   8.602  72.076  1.00  0.00    -0.396 A  
HETATM    8  C   UNL     1     -10.053   7.672  73.094  1.00  0.00    -0.382 A  
ENDROOT
BRANCH   6   9
HETATM    9  C   UNL     1      -9.924   9.353  69.655  1.00  0.00    -0.197 C  
BRANCH   9  10
HETATM   10  C   UNL     1      -8.853   8.822  68.682  1.00  0.00    -0.138 C  
BRANCH  10  11
HETATM   11  N   UNL     1      -8.261   9.860  67.862  1.00  0.00    -0.113 NA 
HETATM   12  C   UNL     1      -7.833  11.090  68.281  1.00  0.00    -0.121 A  
HETATM   13  C   UNL     1      -7.950   9.743  66.535  1.00  0.00    -0.112 A  
HETATM   14  N   UNL     1      -7.389  10.838  66.078  1.00  0.00    -0.137 NA 
HETATM   15  C   UNL     1      -7.310  11.682  67.155  1.00  0.00    -0.143 A  
ENDBRANCH  10  11
ENDBRANCH   9  10
BRANCH   9  16
HETATM   16  O   UNL     1     -11.137   9.587  68.918  1.00  0.00    -0.142 OA 
BRANCH  16  17
HETATM   17  C   UNL     1     -11.753  10.846  69.217  1.00  0.00    -0.324 C  
BRANCH  17  18
HETATM   18  C   UNL     1     -11.471  11.839  68.130  1.00  0.00    -0.382 A  
HETATM   19  C   UNL     1     -11.206  11.475  66.825  1.00  0.00    -0.285 A  
HETATM   20  S   UNL     1     -10.910  12.802  65.810  1.00  0.00    -0.279 SA 
HETATM   21  C   UNL     1     -11.121  13.938  67.093  1.00  0.00    -0.300 A  
HETATM   22  C   UNL     1     -11.431  13.281  68.296  1.00  0.00    -0.351 A  
HETATM   23  C   UNL     1     -11.644  14.083  69.450  1.00  0.00    -0.349 A  
HETATM   24  C   UNL     1     -11.548  15.477  69.391  1.00  0.00    -0.366 A  
HETATM   25  C   UNL     1     -11.233  16.101  68.193  1.00  0.00    -0.311 A  
HETATM   26  C   UNL     1     -11.018  15.346  67.039  1.00  0.00    -0.306 A  
HETATM   27 CL   UNL     1     -10.627  16.174  65.575  1.00  0.00    -0.401 Cl 
ENDBRANCH  17  18
ENDBRANCH  16  17
ENDBRANCH   9  16
ENDBRANCH   6   9
TORSDOF 6
ENDMDL
MODEL      120
REMARK 921   NORMALIZED FREE ENERGY PREDICTED BY IDOCK:   -5.20 KCAL/MOL
REMARK 922        TOTAL FREE ENERGY PREDICTED BY IDOCK:   -8.07 KCAL/MOL
REMARK 923 INTER-LIGAND FREE ENERGY PREDICTED BY IDOCK:   -7.04 KCAL/MOL
REMARK 924 INTRA-LIGAND FREE ENERGY PREDICTED BY IDOCK:   -1.02 KCAL/MOL
REMARK 927      BINDING AFFINITY PREDICTED BY RF-SCORE:    0.00 PKD
ROOT
HETATM    1 CL   UNL     1     -10.968   4.349  73.977  1.00  0.00    -0.311 Cl 
HETATM    2  C   UNL     1     -10.723   5.139  72.470  1.00  0.00    -0.229 A  
HETATM    3  C   UNL     1      -9.643   4.783  71.665  1.00  0.00    -0.216 A  
HETATM    4  C   UNL     1      -9.447   5.424  70.437  1.00  0.00    -0.164 A  
HETATM    5 CL   UNL     1      -8.081   4.944  69.496  1.00  0.00    -0.073 Cl 
HETATM    6  C   UNL     1     -10.335   6.419  69.998  1.00  0.00    -0.245 A  
HETATM    7  C   UNL     1     -11.427   6.750  70.827  1.00  0.00    -0.392 A  
HETATM    8  C   UNL     1     -11.611   6.128  72.061  1.00  0.00    -0.364 A  
ENDROOT
BRANCH   6   9
HETATM    9  C   UNL     1     -10.176   7.125  68.654  1.00  0.00    -0.179 C  
BRANCH   9  10
HETATM   10  C   UNL     1     -10.974   6.347  67.589  1.00  0.00    -0.349 C  
BRANCH  10  11
HETATM   11  N   UNL     1     -10.134   5.734  66.580  1.00  0.00    -0.180 NA 
HETATM   12  C   UNL     1     -10.374   4.563  65.916  1.00  0.00    -0.258 A  
HETATM   13  C   UNL     1      -8.991   6.279  66.059  1.00  0.00    -0.137 A  
HETATM   14  N   UNL     1      -8.472   5.505  65.136  1.00  0.00    -0.146 NA 
HETATM   15  C   UNL     1      -9.324   4.436  65.037  1.00  0.00    -0.164 A  
ENDBRANCH  10  11
ENDBRANCH   9  10
BRANCH   9  16
HETATM   16  O   UNL     1     -10.703   8.461  68.737  1.00  0.00    -0.168 OA 
BRANCH  16  17
HETATM   17  C   UNL     1      -9.728   9.477  68.471  1.00  0.00    -0.151 C  
BRANCH  17  18
HETATM   18  C   UNL     1     -10.121  10.277  67.265  1.00  0.00    -0.249 A  
HETATM   19  C   UNL     1      -9.794   9.910  65.975  1.00  0.00    -0.264 A  
HETATM   20  S   UNL     1     -10.355  11.006  64.808  1.00  0.00    -0.317 SA 
HETATM   21  C   UNL     1     -11.067  12.037  65.996  1.00  0.00    -0.320 A  
HETATM   22  C   UNL     1     -10.875  11.518  67.287  1.00  0.00    -0.301 A  
HETATM   23  C   UNL     1     -11.413  12.252  68.379  1.00  0.00    -0.356 A  
HETATM   24  C   UNL     1     -12.109  13.448  68.176  1.00  0.00    -0.267 A  
HETATM   25  C   UNL     1     -12.279  13.942  66.892  1.00  0.00    -0.415 A  
HETATM   26  C   UNL     1     -11.764  13.248  65.794  1.00  0.00    -0.359 A  
HETATM   27 CL   UNL     1     -12.004  13.910  64.217  1.00  0.00    -0.469 Cl 
ENDBRANCH  17  18
ENDBRANCH  16  17
ENDBRANCH   9  16
ENDBRANCH   6   9
TORSDOF 6
ENDMDL
MODEL      121
REMARK 921   NORMALIZED FREE ENERGY PREDICTED BY IDOCK:   -5.19 KCAL/MOL
REMARK 922        TOTAL FREE ENERGY PREDICTED BY IDOCK:   -8.06 KCAL/MOL
REMARK 923 INTER-LIGAND FREE ENERGY PREDICTED BY IDOCK:   -7.32 KCAL/MOL
REMARK 924 INTRA-LIGAND FREE ENERGY PREDICTED BY IDOCK:   -0.74 KCAL/MOL
REMARK 927      BINDING AFFINITY PREDICTED BY RF-SCORE:    0.00 PKD
ROOT
HETATM    1 CL   UNL     1     -13.522  14.789  72.899  1.00  0.00    -0.556 Cl 
HETATM    2  C   UNL     1     -12.699  14.646  71.396  1.00  0.00    -0.333 A  
HETATM    3  C   UNL     1     -12.090  15.762  70.827  1.00  0.00    -0.448 A  
HETATM    4  C   UNL     1     -11.417  15.645  69.607  1.00  0.00    -0.340 A  
HETATM    5 CL   UNL     1     -10.698  17.071  68.951  1.00  0.00    -0.327 Cl 
HETATM    6  C   UNL     1     -11.336  14.406  68.950  1.00  0.00    -0.300 A  
HETATM    7  C   UNL     1     -11.949  13.290  69.556  1.00  0.00    -0.366 A  
HETATM    8  C   UNL     1     -12.640  13.411  70.761  1.00  0.00    -0.369 A  
ENDROOT
BRANCH   6   9
HETATM    9  C   UNL     1     -10.589  14.225  67.631  1.00  0.00    -0.253 C  
BRANCH   9  10
HETATM   10  C   UNL     1     -11.442  14.821  66.494  1.00  0.00    -0.327 C  
BRANCH  10  11
HETATM   11  N   UNL     1     -11.717  13.876  65.430  1.00  0.00    -0.328 NA 
HETATM   12  C   UNL     1     -11.558  12.519  65.479  1.00  0.00    -0.386 A  
HETATM   13  C   UNL     1     -12.268  14.185  64.216  1.00  0.00    -0.420 A  
HETATM   14  N   UNL     1     -12.431  13.111  63.480  1.00  0.00    -0.749 NA 
HETATM   15  C   UNL     1     -11.994  12.069  64.255  1.00  0.00    -0.335 A  
ENDBRANCH  10  11
ENDBRANCH   9  10
BRANCH   9  16
HETATM   16  O   UNL     1      -9.334  14.928  67.679  1.00  0.00    -0.188 OA 
BRANCH  16  17
HETATM   17  C   UNL     1      -8.327  14.357  66.834  1.00  0.00    -0.078 C  
BRANCH  17  18
HETATM   18  C   UNL     1      -7.838  13.060  67.406  1.00  0.00    -0.166 A  
HETATM   19  C   UNL     1      -8.144  11.830  66.861  1.00  0.00    -0.160 A  
HETATM   20  S   UNL     1      -7.467  10.533  67.719  1.00  0.00    -0.088 SA 
HETATM   21  C   UNL     1      -6.727  11.576  68.879  1.00  0.00    -0.086 A  
HETATM   22  C   UNL     1      -7.001  12.923  68.585  1.00  0.00    -0.101 A  
HETATM   23  C   UNL     1      -6.451  13.910  69.447  1.00  0.00    -0.119 A  
HETATM   24  C   UNL     1      -5.667  13.555  70.549  1.00  0.00    -0.170 A  
HETATM   25  C   UNL     1      -5.418  12.218  70.822  1.00  0.00    -0.159 A  
HETATM   26  C   UNL     1      -5.941  11.220  69.997  1.00  0.00    -0.131 A  
HETATM   27 CL   UNL     1      -5.601   9.572  70.383  1.00  0.00    -0.039 Cl 
ENDBRANCH  17  18
ENDBRANCH  16  17
ENDBRANCH   9  16
ENDBRANCH   6   9
TORSDOF 6
ENDMDL
MODEL      122
REMARK 921   NORMALIZED FREE ENERGY PREDICTED BY IDOCK:   -5.18 KCAL/MOL
REMARK 922        TOTAL FREE ENERGY PREDICTED BY IDOCK:   -8.05 KCAL/MOL
REMARK 923 INTER-LIGAND FREE ENERGY PREDICTED BY IDOCK:   -7.04 KCAL/MOL
REMARK 924 INTRA-LIGAND FREE ENERGY PREDICTED BY IDOCK:   -1.01 KCAL/MOL
REMARK 927      BINDING AFFINITY PREDICTED BY RF-SCORE:    0.00 PKD
ROOT
HETATM    1 CL   UNL     1     -10.624  19.799  66.708  1.00  0.00    -0.593 Cl 
HETATM    2  C   UNL     1     -10.480  18.109  66.992  1.00  0.00    -0.370 A  
HETATM    3  C   UNL     1     -10.536  17.615  68.292  1.00  0.00    -0.376 A  
HETATM    4  C   UNL     1     -10.424  16.240  68.522  1.00  0.00    -0.278 A  
HETATM    5 CL   UNL     1     -10.486  15.697  70.160  1.00  0.00    -0.326 Cl 
HETATM    6  C   UNL     1     -10.265  15.345  67.451  1.00  0.00    -0.249 A  
HETATM    7  C   UNL     1     -10.226  15.872  66.144  1.00  0.00    -0.340 A  
HETATM    8  C   UNL     1     -10.315  17.245  65.915  1.00  0.00    -0.287 A  
ENDROOT
BRANCH   6   9
HETATM    9  C   UNL     1     -10.166  13.835  67.653  1.00  0.00    -0.242 C  
BRANCH   9  10
HETATM   10  C   UNL     1      -8.826  13.516  68.345  1.00  0.00    -0.146 C  
BRANCH  10  11
HETATM   11  N   UNL     1      -8.237  12.268  67.903  1.00  0.00    -0.150 NA 
HETATM   12  C   UNL     1      -7.686  11.298  68.692  1.00  0.00    -0.136 A  
HETATM   13  C   UNL     1      -8.215  11.814  66.612  1.00  0.00    -0.117 A  
HETATM   14  N   UNL     1      -7.647  10.634  66.531  1.00  0.00    -0.127 NA 
HETATM   15  C   UNL     1      -7.315  10.302  67.819  1.00  0.00    -0.087 A  
ENDBRANCH  10  11
ENDBRANCH   9  10
BRANCH   9  16
HETATM   16  O   UNL     1     -11.238  13.383  68.499  1.00  0.00    -0.252 OA 
BRANCH  16  17
HETATM   17  C   UNL     1     -11.854  12.173  68.040  1.00  0.00    -0.285 C  
BRANCH  17  18
HETATM   18  C   UNL     1     -11.507  11.031  68.948  1.00  0.00    -0.364 A  
HETATM   19  C   UNL     1     -11.604  11.102  70.323  1.00  0.00    -0.296 A  
HETATM   20  S   UNL     1     -11.135   9.669  71.100  1.00  0.00    -0.354 SA 
HETATM   21  C   UNL     1     -10.771   8.880  69.608  1.00  0.00    -0.217 A  
HETATM   22  C   UNL     1     -11.028   9.730  68.518  1.00  0.00    -0.195 A  
HETATM   23  C   UNL     1     -10.785   9.220  67.214  1.00  0.00    -0.244 A  
HETATM   24  C   UNL     1     -10.307   7.920  67.021  1.00  0.00    -0.411 A  
HETATM   25  C   UNL     1     -10.055   7.104  68.113  1.00  0.00    -0.195 A  
HETATM   26  C   UNL     1     -10.282   7.570  69.410  1.00  0.00    -0.204 A  
HETATM   27 CL   UNL     1      -9.951   6.512  70.734  1.00  0.00    -0.201 Cl 
ENDBRANCH  17  18
ENDBRANCH  16  17
ENDBRANCH   9  16
ENDBRANCH   6   9
TORSDOF 6
ENDMDL
MODEL      123
REMARK 921   NORMALIZED FREE ENERGY PREDICTED BY IDOCK:   -5.18 KCAL/MOL
REMARK 922        TOTAL FREE ENERGY PREDICTED BY IDOCK:   -8.04 KCAL/MOL
REMARK 923 INTER-LIGAND FREE ENERGY PREDICTED BY IDOCK:   -7.32 KCAL/MOL
REMARK 924 INTRA-LIGAND FREE ENERGY PREDICTED BY IDOCK:   -0.72 KCAL/MOL
REMARK 927      BINDING AFFINITY PREDICTED BY RF-SCORE:    0.00 PKD
ROOT
HETATM    1 CL   UNL     1      -9.209  10.529  63.442  1.00  0.00    -0.263 Cl 
HETATM    2  C   UNL     1      -9.903  11.336  64.792  1.00  0.00    -0.266 A  
HETATM    3  C   UNL     1     -11.038  12.125  64.624  1.00  0.00    -0.366 A  
HETATM    4  C   UNL     1     -11.604  12.777  65.723  1.00  0.00    -0.376 A  
HETATM    5 CL   UNL     1     -13.002  13.751  65.441  1.00  0.00    -0.454 Cl 
HETATM    6  C   UNL     1     -11.046  12.638  67.005  1.00  0.00    -0.322 A  
HETATM    7  C   UNL     1      -9.905  11.822  67.149  1.00  0.00    -0.207 A  
HETATM    8  C   UNL     1      -9.326  11.189  66.049  1.00  0.00    -0.228 A  
ENDROOT
BRANCH   6   9
HETATM    9  C   UNL     1     -11.646  13.310  68.237  1.00  0.00    -0.334 C  
BRANCH   9  10
HETATM   10  C   UNL     1     -10.948  12.752  69.493  1.00  0.00     0.111 C  
BRANCH  10  11
HETATM   11  N   UNL     1     -11.569  11.546  70.004  1.00  0.00    -0.302 NA 
HETATM   12  C   UNL     1     -10.983  10.318  70.141  1.00  0.00    -0.314 A  
HETATM   13  C   UNL     1     -12.834  11.462  70.520  1.00  0.00    -0.042 A  
HETATM   14  N   UNL     1     -13.098  10.247  70.937  1.00  0.00    -0.388 NA 
HETATM   15  C   UNL     1     -11.955   9.527  70.709  1.00  0.00    -0.252 A  
ENDBRANCH  10  11
ENDBRANCH   9  10
BRANCH   9  16
HETATM   16  O   UNL     1     -11.419  14.730  68.180  1.00  0.00    -0.295 OA 
BRANCH  16  17
HETATM   17  C   UNL     1     -10.209  15.141  68.828  1.00  0.00    -0.235 C  
BRANCH  17  18
HETATM   18  C   UNL     1      -9.881  16.560  68.473  1.00  0.00    -0.243 A  
HETATM   19  C   UNL     1     -10.804  17.441  67.947  1.00  0.00    -0.270 A  
HETATM   20  S   UNL     1     -10.155  18.976  67.629  1.00  0.00    -0.399 SA 
HETATM   21  C   UNL     1      -8.585  18.520  68.183  1.00  0.00    -0.303 A  
HETATM   22  C   UNL     1      -8.578  17.185  68.622  1.00  0.00    -0.260 A  
HETATM   23  C   UNL     1      -7.354  16.661  69.120  1.00  0.00    -0.217 A  
HETATM   24  C   UNL     1      -6.197  17.445  69.169  1.00  0.00    -0.228 A  
HETATM   25  C   UNL     1      -6.228  18.758  68.722  1.00  0.00    -0.246 A  
HETATM   26  C   UNL     1      -7.413  19.307  68.228  1.00  0.00    -0.300 A  
HETATM   27 CL   UNL     1      -7.395  20.946  67.684  1.00  0.00    -0.323 Cl 
ENDBRANCH  17  18
ENDBRANCH  16  17
ENDBRANCH   9  16
ENDBRANCH   6   9
TORSDOF 6
ENDMDL
MODEL      124
REMARK 921   NORMALIZED FREE ENERGY PREDICTED BY IDOCK:   -5.17 KCAL/MOL
REMARK 922        TOTAL FREE ENERGY PREDICTED BY IDOCK:   -8.03 KCAL/MOL
REMARK 923 INTER-LIGAND FREE ENERGY PREDICTED BY IDOCK:   -7.01 KCAL/MOL
REMARK 924 INTRA-LIGAND FREE ENERGY PREDICTED BY IDOCK:   -1.02 KCAL/MOL
REMARK 927      BINDING AFFINITY PREDICTED BY RF-SCORE:    0.00 PKD
ROOT
HETATM    1 CL   UNL     1      -7.600   6.203  65.833  1.00  0.00    -0.085 Cl 
HETATM    2  C   UNL     1      -8.214   7.786  66.108  1.00  0.00    -0.123 A  
HETATM    3  C   UNL     1      -7.340   8.868  66.183  1.00  0.00    -0.090 A  
HETATM    4  C   UNL     1      -7.841  10.155  66.402  1.00  0.00    -0.114 A  
HETATM    5 CL   UNL     1      -6.701  11.448  66.499  1.00  0.00    -0.110 Cl 
HETATM    6  C   UNL     1      -9.221  10.374  66.537  1.00  0.00    -0.184 A  
HETATM    7  C   UNL     1     -10.084   9.262  66.443  1.00  0.00    -0.337 A  
HETATM    8  C   UNL     1      -9.584   7.975  66.247  1.00  0.00    -0.223 A  
ENDROOT
BRANCH   6   9
HETATM    9  C   UNL     1      -9.814  11.765  66.750  1.00  0.00    -0.198 C  
BRANCH   9  10
HETATM   10  C   UNL     1     -11.326  11.707  66.459  1.00  0.00    -0.263 C  
BRANCH  10  11
HETATM   11  N   UNL     1     -11.716  12.490  65.303  1.00  0.00    -0.368 NA 
HETATM   12  C   UNL     1     -11.905  13.843  65.256  1.00  0.00    -0.357 A  
HETATM   13  C   UNL     1     -11.876  12.005  64.033  1.00  0.00    -0.408 A  
HETATM   14  N   UNL     1     -12.194  12.962  63.194  1.00  0.00    -0.540 NA 
HETATM   15  C   UNL     1     -12.214  14.109  63.942  1.00  0.00    -0.247 A  
ENDBRANCH  10  11
ENDBRANCH   9  10
BRANCH   9  16
HETATM   16  O   UNL     1      -9.625  12.172  68.117  1.00  0.00    -0.198 OA 
BRANCH  16  17
HETATM   17  C   UNL     1      -8.708  13.264  68.265  1.00  0.00    -0.168 C  
BRANCH  17  18
HETATM   18  C   UNL     1      -9.445  14.570  68.274  1.00  0.00    -0.207 A  
HETATM   19  C   UNL     1     -10.673  14.741  68.879  1.00  0.00    -0.252 A  
HETATM   20  S   UNL     1     -11.280  16.317  68.723  1.00  0.00    -0.317 SA 
HETATM   21  C   UNL     1      -9.907  16.847  67.820  1.00  0.00    -0.252 A  
HETATM   22  C   UNL     1      -8.983  15.801  67.656  1.00  0.00    -0.190 A  
HETATM   23  C   UNL     1      -7.789  16.082  66.938  1.00  0.00    -0.284 A  
HETATM   24  C   UNL     1      -7.543  17.354  66.411  1.00  0.00    -0.342 A  
HETATM   25  C   UNL     1      -8.474  18.367  66.580  1.00  0.00    -0.287 A  
HETATM   26  C   UNL     1      -9.658  18.128  67.281  1.00  0.00    -0.281 A  
HETATM   27 CL   UNL     1     -10.784  19.426  67.460  1.00  0.00    -0.582 Cl 
ENDBRANCH  17  18
ENDBRANCH  16  17
ENDBRANCH   9  16
ENDBRANCH   6   9
TORSDOF 6
ENDMDL
MODEL      125
REMARK 921   NORMALIZED FREE ENERGY PREDICTED BY IDOCK:   -5.16 KCAL/MOL
REMARK 922        TOTAL FREE ENERGY PREDICTED BY IDOCK:   -8.02 KCAL/MOL
REMARK 923 INTER-LIGAND FREE ENERGY PREDICTED BY IDOCK:   -6.98 KCAL/MOL
REMARK 924 INTRA-LIGAND FREE ENERGY PREDICTED BY IDOCK:   -1.03 KCAL/MOL
REMARK 927      BINDING AFFINITY PREDICTED BY RF-SCORE:    0.00 PKD
ROOT
HETATM    1 CL   UNL     1     -10.363   5.132  69.926  1.00  0.00    -0.364 Cl 
HETATM    2  C   UNL     1     -10.126   6.543  68.973  1.00  0.00    -0.165 A  
HETATM    3  C   UNL     1      -9.230   7.523  69.391  1.00  0.00    -0.149 A  
HETATM    4  C   UNL     1      -9.035   8.668  68.612  1.00  0.00    -0.142 A  
HETATM    5 CL   UNL     1      -7.920   9.850  69.197  1.00  0.00    -0.102 Cl 
HETATM    6  C   UNL     1      -9.727   8.839  67.402  1.00  0.00    -0.225 A  
HETATM    7  C   UNL     1     -10.618   7.824  66.997  1.00  0.00    -0.396 A  
HETATM    8  C   UNL     1     -10.830   6.692  67.783  1.00  0.00    -0.372 A  
ENDROOT
BRANCH   6   9
HETATM    9  C   UNL     1      -9.526  10.060  66.508  1.00  0.00    -0.175 C  
BRANCH   9  10
HETATM   10  C   UNL     1      -9.537   9.601  65.036  1.00  0.00    -0.214 C  
BRANCH  10  11
HETATM   11  N   UNL     1      -8.223   9.251  64.537  1.00  0.00    -0.142 NA 
HETATM   12  C   UNL     1      -7.131  10.071  64.456  1.00  0.00    -0.139 A  
HETATM   13  C   UNL     1      -7.831   8.001  64.140  1.00  0.00    -0.141 A  
HETATM   14  N   UNL     1      -6.571   7.989  63.775  1.00  0.00    -0.066 NA 
HETATM   15  C   UNL     1      -6.125   9.270  63.968  1.00  0.00    -0.084 A  
ENDBRANCH  10  11
ENDBRANCH   9  10
BRANCH   9  16
HETATM   16  O   UNL     1     -10.602  10.994  66.705  1.00  0.00    -0.244 OA 
BRANCH  16  17
HETATM   17  C   UNL     1     -10.218  12.158  67.448  1.00  0.00    -0.198 C  
BRANCH  17  18
HETATM   18  C   UNL     1     -11.018  12.260  68.712  1.00  0.00    -0.277 A  
HETATM   19  C   UNL     1     -11.461  11.160  69.417  1.00  0.00    -0.298 A  
HETATM   20  S   UNL     1     -12.352  11.570  70.801  1.00  0.00    -0.324 SA 
HETATM   21  C   UNL     1     -12.187  13.264  70.510  1.00  0.00    -0.340 A  
HETATM   22  C   UNL     1     -11.431  13.499  69.348  1.00  0.00    -0.340 A  
HETATM   23  C   UNL     1     -11.197  14.850  68.977  1.00  0.00    -0.278 A  
HETATM   24  C   UNL     1     -11.702  15.909  69.738  1.00  0.00    -0.323 A  
HETATM   25  C   UNL     1     -12.451  15.651  70.876  1.00  0.00    -0.497 A  
HETATM   26  C   UNL     1     -12.700  14.335  71.273  1.00  0.00    -0.357 A  
HETATM   27 CL   UNL     1     -13.640  14.070  72.698  1.00  0.00    -0.631 Cl 
ENDBRANCH  17  18
ENDBRANCH  16  17
ENDBRANCH   9  16
ENDBRANCH   6   9
TORSDOF 6
ENDMDL
MODEL      126
REMARK 921   NORMALIZED FREE ENERGY PREDICTED BY IDOCK:   -5.15 KCAL/MOL
REMARK 922        TOTAL FREE ENERGY PREDICTED BY IDOCK:   -8.00 KCAL/MOL
REMARK 923 INTER-LIGAND FREE ENERGY PREDICTED BY IDOCK:   -7.06 KCAL/MOL
REMARK 924 INTRA-LIGAND FREE ENERGY PREDICTED BY IDOCK:   -0.94 KCAL/MOL
REMARK 927      BINDING AFFINITY PREDICTED BY RF-SCORE:    0.00 PKD
ROOT
HETATM    1 CL   UNL     1     -12.423  14.741  64.305  1.00  0.00    -0.396 Cl 
HETATM    2  C   UNL     1     -11.654  13.234  64.613  1.00  0.00    -0.350 A  
HETATM    3  C   UNL     1     -11.006  12.559  63.581  1.00  0.00    -0.507 A  
HETATM    4  C   UNL     1     -10.378  11.336  63.833  1.00  0.00    -0.381 A  
HETATM    5 CL   UNL     1      -9.607  10.545  62.505  1.00  0.00    -0.285 Cl 
HETATM    6  C   UNL     1     -10.380  10.781  65.123  1.00  0.00    -0.341 A  
HETATM    7  C   UNL     1     -11.032  11.492  66.153  1.00  0.00    -0.320 A  
HETATM    8  C   UNL     1     -11.678  12.701  65.897  1.00  0.00    -0.470 A  
ENDROOT
BRANCH   6   9
HETATM    9  C   UNL     1      -9.684   9.462  65.450  1.00  0.00    -0.178 C  
BRANCH   9  10
HETATM   10  C   UNL     1      -8.200   9.748  65.752  1.00  0.00    -0.122 C  
BRANCH  10  11
HETATM   11  N   UNL     1      -7.306   9.287  64.709  1.00  0.00    -0.101 NA 
HETATM   12  C   UNL     1      -7.349   8.080  64.067  1.00  0.00    -0.097 A  
HETATM   13  C   UNL     1      -6.312  10.028  64.129  1.00  0.00    -0.132 A  
HETATM   14  N   UNL     1      -5.698   9.350  63.189  1.00  0.00    -0.083 NA 
HETATM   15  C   UNL     1      -6.335   8.138  63.140  1.00  0.00    -0.081 A  
ENDBRANCH  10  11
ENDBRANCH   9  10
BRANCH   9  16
HETATM   16  O   UNL     1     -10.283   8.869  66.616  1.00  0.00    -0.275 OA 
BRANCH  16  17
HETATM   17  C   UNL     1      -9.405   8.824  67.748  1.00  0.00    -0.141 C  
BRANCH  17  18
HETATM   18  C   UNL     1      -9.864   7.784  68.726  1.00  0.00    -0.171 A  
HETATM   19  C   UNL     1      -9.676   6.430  68.535  1.00  0.00    -0.132 A  
HETATM   20  S   UNL     1     -10.306   5.485  69.794  1.00  0.00    -0.315 SA 
HETATM   21  C   UNL     1     -10.872   6.867  70.662  1.00  0.00    -0.245 A  
HETATM   22  C   UNL     1     -10.557   8.051  69.974  1.00  0.00    -0.242 A  
HETATM   23  C   UNL     1     -10.950   9.282  70.567  1.00  0.00    -0.318 A  
HETATM   24  C   UNL     1     -11.627   9.313  71.791  1.00  0.00    -0.458 A  
HETATM   25  C   UNL     1     -11.933   8.129  72.445  1.00  0.00    -0.431 A  
HETATM   26  C   UNL     1     -11.561   6.901  71.894  1.00  0.00    -0.286 A  
HETATM   27 CL   UNL     1     -11.968   5.458  72.751  1.00  0.00    -0.206 Cl 
ENDBRANCH  17  18
ENDBRANCH  16  17
ENDBRANCH   9  16
ENDBRANCH   6   9
TORSDOF 6
ENDMDL
MODEL      127
REMARK 921   NORMALIZED FREE ENERGY PREDICTED BY IDOCK:   -5.14 KCAL/MOL
REMARK 922        TOTAL FREE ENERGY PREDICTED BY IDOCK:   -7.99 KCAL/MOL
REMARK 923 INTER-LIGAND FREE ENERGY PREDICTED BY IDOCK:   -6.81 KCAL/MOL
REMARK 924 INTRA-LIGAND FREE ENERGY PREDICTED BY IDOCK:   -1.18 KCAL/MOL
REMARK 927      BINDING AFFINITY PREDICTED BY RF-SCORE:    0.00 PKD
ROOT
HETATM    1 CL   UNL     1     -13.984   9.051  72.650  1.00  0.00    -0.466 Cl 
HETATM    2  C   UNL     1     -12.697   8.423  71.697  1.00  0.00    -0.331 A  
HETATM    3  C   UNL     1     -11.515   9.146  71.562  1.00  0.00    -0.437 A  
HETATM    4  C   UNL     1     -10.467   8.633  70.791  1.00  0.00    -0.204 A  
HETATM    5 CL   UNL     1      -9.036   9.589  70.653  1.00  0.00    -0.278 Cl 
HETATM    6  C   UNL     1     -10.588   7.386  70.156  1.00  0.00    -0.240 A  
HETATM    7  C   UNL     1     -11.792   6.669  70.322  1.00  0.00    -0.378 A  
HETATM    8  C   UNL     1     -12.845   7.190  71.072  1.00  0.00    -0.268 A  
ENDROOT
BRANCH   6   9
HETATM    9  C   UNL     1      -9.461   6.776  69.327  1.00  0.00    -0.142 C  
BRANCH   9  10
HETATM   10  C   UNL     1      -9.594   5.240  69.368  1.00  0.00    -0.156 C  
BRANCH  10  11
HETATM   11  N   UNL     1      -9.176   4.664  70.630  1.00  0.00    -0.128 NA 
HETATM   12  C   UNL     1      -8.115   5.056  71.399  1.00  0.00    -0.112 A  
HETATM   13  C   UNL     1      -9.837   3.677  71.310  1.00  0.00    -0.141 A  
HETATM   14  N   UNL     1      -9.236   3.392  72.441  1.00  0.00    -0.100 NA 
HETATM   15  C   UNL     1      -8.165   4.244  72.508  1.00  0.00    -0.100 A  
ENDBRANCH  10  11
ENDBRANCH   9  10
BRANCH   9  16
HETATM   16  O   UNL     1      -9.570   7.209  67.960  1.00  0.00    -0.133 OA 
BRANCH  16  17
HETATM   17  C   UNL     1      -8.493   8.058  67.543  1.00  0.00    -0.127 C  
BRANCH  17  18
HETATM   18  C   UNL     1      -8.920   8.920  66.393  1.00  0.00    -0.193 A  
HETATM   19  C   UNL     1      -8.428   8.771  65.112  1.00  0.00    -0.174 A  
HETATM   20  S   UNL     1      -9.076   9.889  64.014  1.00  0.00    -0.247 SA 
HETATM   21  C   UNL     1     -10.055  10.637  65.223  1.00  0.00    -0.297 A  
HETATM   22  C   UNL     1      -9.881  10.006  66.467  1.00  0.00    -0.267 A  
HETATM   23  C   UNL     1     -10.630  10.504  67.568  1.00  0.00    -0.306 A  
HETATM   24  C   UNL     1     -11.507  11.583  67.420  1.00  0.00    -0.349 A  
HETATM   25  C   UNL     1     -11.655  12.192  66.184  1.00  0.00    -0.418 A  
HETATM   26  C   UNL     1     -10.937  11.731  65.078  1.00  0.00    -0.300 A  
HETATM   27 CL   UNL     1     -11.159  12.527  63.562  1.00  0.00    -0.512 Cl 
ENDBRANCH  17  18
ENDBRANCH  16  17
ENDBRANCH   9  16
ENDBRANCH   6   9
TORSDOF 6
ENDMDL
MODEL      128
REMARK 921   NORMALIZED FREE ENERGY PREDICTED BY IDOCK:   -5.10 KCAL/MOL
REMARK 922        TOTAL FREE ENERGY PREDICTED BY IDOCK:   -7.94 KCAL/MOL
REMARK 923 INTER-LIGAND FREE ENERGY PREDICTED BY IDOCK:   -7.13 KCAL/MOL
REMARK 924 INTRA-LIGAND FREE ENERGY PREDICTED BY IDOCK:   -0.81 KCAL/MOL
REMARK 927      BINDING AFFINITY PREDICTED BY RF-SCORE:    0.00 PKD
ROOT
HETATM    1 CL   UNL     1     -12.171  15.458  63.975  1.00  0.00    -0.171 Cl 
HETATM    2  C   UNL     1     -11.863  14.201  65.106  1.00  0.00    -0.372 A  
HETATM    3  C   UNL     1     -11.190  13.050  64.702  1.00  0.00    -0.355 A  
HETATM    4  C   UNL     1     -10.936  12.030  65.624  1.00  0.00    -0.297 A  
HETATM    5 CL   UNL     1     -10.111  10.625  65.053  1.00  0.00    -0.370 Cl 
HETATM    6  C   UNL     1     -11.343  12.155  66.963  1.00  0.00    -0.398 A  
HETATM    7  C   UNL     1     -12.010  13.337  67.347  1.00  0.00    -0.383 A  
HETATM    8  C   UNL     1     -12.284  14.346  66.424  1.00  0.00    -0.363 A  
ENDROOT
BRANCH   6   9
HETATM    9  C   UNL     1     -11.064  11.080  68.009  1.00  0.00    -0.286 C  
BRANCH   9  10
HETATM   10  C   UNL     1      -9.919  11.563  68.921  1.00  0.00    -0.101 C  
BRANCH  10  11
HETATM   11  N   UNL     1      -8.743  11.987  68.187  1.00  0.00    -0.173 NA 
HETATM   12  C   UNL     1      -8.363  13.273  67.923  1.00  0.00    -0.163 A  
HETATM   13  C   UNL     1      -7.765  11.159  67.707  1.00  0.00    -0.112 A  
HETATM   14  N   UNL     1      -6.809  11.839  67.120  1.00  0.00    -0.139 NA 
HETATM   15  C   UNL     1      -7.169  13.155  67.249  1.00  0.00    -0.032 A  
ENDBRANCH  10  11
ENDBRANCH   9  10
BRANCH   9  16
HETATM   16  O   UNL     1     -12.235  10.867  68.817  1.00  0.00    -0.518 OA 
BRANCH  16  17
HETATM   17  C   UNL     1     -11.982  10.964  70.225  1.00  0.00    -0.361 C  
BRANCH  17  18
HETATM   18  C   UNL     1     -12.119   9.620  70.875  1.00  0.00    -0.383 A  
HETATM   19  C   UNL     1     -13.318   8.943  70.968  1.00  0.00     0.048 A  
HETATM   20  S   UNL     1     -13.182   7.451  71.763  1.00  0.00    -0.275 SA 
HETATM   21  C   UNL     1     -11.487   7.650  72.027  1.00  0.00    -0.283 A  
HETATM   22  C   UNL     1     -11.037   8.867  71.486  1.00  0.00    -0.397 A  
HETATM   23  C   UNL     1      -9.656   9.174  71.614  1.00  0.00    -0.226 A  
HETATM   24  C   UNL     1      -8.775   8.299  72.258  1.00  0.00    -0.264 A  
HETATM   25  C   UNL     1      -9.246   7.108  72.790  1.00  0.00    -0.166 A  
HETATM   26  C   UNL     1     -10.597   6.771  72.682  1.00  0.00    -0.223 A  
HETATM   27 CL   UNL     1     -11.129   5.277  73.364  1.00  0.00    -0.367 Cl 
ENDBRANCH  17  18
ENDBRANCH  16  17
ENDBRANCH   9  16
ENDBRANCH   6   9
TORSDOF 6
ENDMDL
MODEL      129
REMARK 921   NORMALIZED FREE ENERGY PREDICTED BY IDOCK:   -5.10 KCAL/MOL
REMARK 922        TOTAL FREE ENERGY PREDICTED BY IDOCK:   -7.94 KCAL/MOL
REMARK 923 INTER-LIGAND FREE ENERGY PREDICTED BY IDOCK:   -8.19 KCAL/MOL
REMARK 924 INTRA-LIGAND FREE ENERGY PREDICTED BY IDOCK:    0.25 KCAL/MOL
REMARK 927      BINDING AFFINITY PREDICTED BY RF-SCORE:    0.00 PKD
ROOT
HETATM    1 CL   UNL     1     -12.974  16.263  74.328  1.00  0.00    -0.297 Cl 
HETATM    2  C   UNL     1     -12.483  15.499  72.867  1.00  0.00    -0.424 A  
HETATM    3  C   UNL     1     -12.853  14.180  72.613  1.00  0.00    -0.440 A  
HETATM    4  C   UNL     1     -12.457  13.561  71.423  1.00  0.00    -0.255 A  
HETATM    5 CL   UNL     1     -12.937  11.921  71.179  1.00  0.00    -0.341 Cl 
HETATM    6  C   UNL     1     -11.696  14.259  70.471  1.00  0.00    -0.309 A  
HETATM    7  C   UNL     1     -11.348  15.597  70.748  1.00  0.00    -0.400 A  
HETATM    8  C   UNL     1     -11.723  16.208  71.944  1.00  0.00    -0.575 A  
ENDROOT
BRANCH   6   9
HETATM    9  C   UNL     1     -11.265  13.632  69.148  1.00  0.00    -0.261 C  
BRANCH   9  10
HETATM   10  C   UNL     1     -11.843  12.206  69.065  1.00  0.00    -0.306 C  
BRANCH  10  11
HETATM   11  N   UNL     1     -10.842  11.200  68.770  1.00  0.00    -0.198 NA 
HETATM   12  C   UNL     1      -9.588  11.414  68.269  1.00  0.00    -0.192 A  
HETATM   13  C   UNL     1     -10.961   9.861  69.031  1.00  0.00    -0.190 A  
HETATM   14  N   UNL     1      -9.875   9.211  68.688  1.00  0.00    -0.160 NA 
HETATM   15  C   UNL     1      -9.014  10.166  68.214  1.00  0.00    -0.120 A  
ENDBRANCH  10  11
ENDBRANCH   9  10
BRANCH   9  16
HETATM   16  O   UNL     1     -11.785  14.402  68.049  1.00  0.00    -0.311 OA 
BRANCH  16  17
HETATM   17  C   UNL     1     -10.807  14.694  67.043  1.00  0.00    -0.304 C  
BRANCH  17  18
HETATM   18  C   UNL     1      -9.704  15.535  67.613  1.00  0.00    -0.212 A  
HETATM   19  C   UNL     1      -8.508  15.011  68.060  1.00  0.00    -0.149 A  
HETATM   20  S   UNL     1      -7.449  16.190  68.665  1.00  0.00    -0.192 SA 
HETATM   21  C   UNL     1      -8.563  17.472  68.356  1.00  0.00    -0.275 A  
HETATM   22  C   UNL     1      -9.743  16.977  67.775  1.00  0.00    -0.258 A  
HETATM   23  C   UNL     1     -10.761  17.915  67.451  1.00  0.00    -0.306 A  
HETATM   24  C   UNL     1     -10.596  19.281  67.703  1.00  0.00    -0.553 A  
HETATM   25  C   UNL     1      -9.424  19.742  68.284  1.00  0.00    -0.440 A  
HETATM   26  C   UNL     1      -8.402  18.850  68.615  1.00  0.00    -0.349 A  
HETATM   27 CL   UNL     1      -6.965  19.479  69.339  1.00  0.00    -0.373 Cl 
ENDBRANCH  17  18
ENDBRANCH  16  17
ENDBRANCH   9  16
ENDBRANCH   6   9
TORSDOF 6
ENDMDL
MODEL      130
REMARK 921   NORMALIZED FREE ENERGY PREDICTED BY IDOCK:   -5.09 KCAL/MOL
REMARK 922        TOTAL FREE ENERGY PREDICTED BY IDOCK:   -7.93 KCAL/MOL
REMARK 923 INTER-LIGAND FREE ENERGY PREDICTED BY IDOCK:   -7.55 KCAL/MOL
REMARK 924 INTRA-LIGAND FREE ENERGY PREDICTED BY IDOCK:   -0.38 KCAL/MOL
REMARK 927      BINDING AFFINITY PREDICTED BY RF-SCORE:    0.00 PKD
ROOT
HETATM    1 CL   UNL     1      -7.915   5.691  66.089  1.00  0.00    -0.104 Cl 
HETATM    2  C   UNL     1      -8.531   7.238  66.519  1.00  0.00    -0.125 A  
HETATM    3  C   UNL     1      -7.674   8.334  66.585  1.00  0.00    -0.093 A  
HETATM    4  C   UNL     1      -8.177   9.592  66.930  1.00  0.00    -0.113 A  
HETATM    5 CL   UNL     1      -7.057  10.905  67.008  1.00  0.00    -0.102 Cl 
HETATM    6  C   UNL     1      -9.544   9.769  67.202  1.00  0.00    -0.211 A  
HETATM    7  C   UNL     1     -10.390   8.644  67.114  1.00  0.00    -0.369 A  
HETATM    8  C   UNL     1      -9.886   7.384  66.792  1.00  0.00    -0.290 A  
ENDROOT
BRANCH   6   9
HETATM    9  C   UNL     1     -10.140  11.128  67.556  1.00  0.00    -0.183 C  
BRANCH   9  10
HETATM   10  C   UNL     1     -11.527  11.247  66.893  1.00  0.00    -0.042 C  
BRANCH  10  11
HETATM   11  N   UNL     1     -11.498  11.964  65.634  1.00  0.00    -0.298 NA 
HETATM   12  C   UNL     1     -12.431  12.852  65.175  1.00  0.00    -0.501 A  
HETATM   13  C   UNL     1     -10.475  11.932  64.725  1.00  0.00    -0.289 A  
HETATM   14  N   UNL     1     -10.723  12.714  63.701  1.00  0.00    -0.417 NA 
HETATM   15  C   UNL     1     -11.936  13.292  63.971  1.00  0.00    -0.465 A  
ENDBRANCH  10  11
ENDBRANCH   9  10
BRANCH   9  16
HETATM   16  O   UNL     1     -10.303  11.235  68.982  1.00  0.00    -0.205 OA 
BRANCH  16  17
HETATM   17  C   UNL     1     -11.565  10.743  69.450  1.00  0.00    -0.308 C  
BRANCH  17  18
HETATM   18  C   UNL     1     -12.167  11.699  70.435  1.00  0.00    -0.434 A  
HETATM   19  C   UNL     1     -13.018  11.306  71.448  1.00  0.00    -0.379 A  
HETATM   20  S   UNL     1     -13.559  12.599  72.404  1.00  0.00    -0.092 SA 
HETATM   21  C   UNL     1     -12.669  13.760  71.488  1.00  0.00    -0.346 A  
HETATM   22  C   UNL     1     -11.950  13.135  70.454  1.00  0.00    -0.343 A  
HETATM   23  C   UNL     1     -11.157  13.960  69.611  1.00  0.00    -0.126 A  
HETATM   24  C   UNL     1     -11.095  15.344  69.802  1.00  0.00    -0.295 A  
HETATM   25  C   UNL     1     -11.820  15.937  70.825  1.00  0.00    -0.423 A  
HETATM   26  C   UNL     1     -12.609  15.158  71.674  1.00  0.00    -0.351 A  
HETATM   27 CL   UNL     1     -13.492  15.949  72.930  1.00  0.00    -0.644 Cl 
ENDBRANCH  17  18
ENDBRANCH  16  17
ENDBRANCH   9  16
ENDBRANCH   6   9
TORSDOF 6
ENDMDL
MODEL      131
REMARK 921   NORMALIZED FREE ENERGY PREDICTED BY IDOCK:   -5.09 KCAL/MOL
REMARK 922        TOTAL FREE ENERGY PREDICTED BY IDOCK:   -7.92 KCAL/MOL
REMARK 923 INTER-LIGAND FREE ENERGY PREDICTED BY IDOCK:   -6.93 KCAL/MOL
REMARK 924 INTRA-LIGAND FREE ENERGY PREDICTED BY IDOCK:   -1.00 KCAL/MOL
REMARK 927      BINDING AFFINITY PREDICTED BY RF-SCORE:    0.00 PKD
ROOT
HETATM    1 CL   UNL     1     -12.098  15.329  64.289  1.00  0.00    -0.351 Cl 
HETATM    2  C   UNL     1     -11.583  13.938  65.158  1.00  0.00    -0.335 A  
HETATM    3  C   UNL     1     -11.801  13.855  66.532  1.00  0.00    -0.440 A  
HETATM    4  C   UNL     1     -11.386  12.722  67.237  1.00  0.00    -0.314 A  
HETATM    5 CL   UNL     1     -11.673  12.692  68.940  1.00  0.00    -0.352 Cl 
HETATM    6  C   UNL     1     -10.758  11.654  66.575  1.00  0.00    -0.313 A  
HETATM    7  C   UNL     1     -10.563  11.759  65.181  1.00  0.00    -0.332 A  
HETATM    8  C   UNL     1     -10.956  12.898  64.481  1.00  0.00    -0.377 A  
ENDROOT
BRANCH   6   9
HETATM    9  C   UNL     1     -10.313  10.387  67.299  1.00  0.00    -0.228 C  
BRANCH   9  10
HETATM   10  C   UNL     1     -10.490   9.186  66.350  1.00  0.00    -0.071 C  
BRANCH  10  11
HETATM   11  N   UNL     1      -9.254   8.477  66.089  1.00  0.00    -0.200 NA 
HETATM   12  C   UNL     1      -8.909   7.235  66.547  1.00  0.00    -0.141 A  
HETATM   13  C   UNL     1      -8.253   8.904  65.258  1.00  0.00    -0.137 A  
HETATM   14  N   UNL     1      -7.279   8.027  65.196  1.00  0.00    -0.063 NA 
HETATM   15  C   UNL     1      -7.676   6.985  65.992  1.00  0.00    -0.099 A  
ENDBRANCH  10  11
ENDBRANCH   9  10
BRANCH   9  16
HETATM   16  O   UNL     1      -8.923  10.489  67.655  1.00  0.00    -0.137 OA 
BRANCH  16  17
HETATM   17  C   UNL     1      -8.707  10.733  69.051  1.00  0.00    -0.130 C  
BRANCH  17  18
HETATM   18  C   UNL     1      -8.958   9.486  69.845  1.00  0.00    -0.231 A  
HETATM   19  C   UNL     1      -8.066   8.435  69.904  1.00  0.00    -0.119 A  
HETATM   20  S   UNL     1      -8.613   7.149  70.866  1.00  0.00    -0.138 SA 
HETATM   21  C   UNL     1     -10.093   7.953  71.247  1.00  0.00    -0.180 A  
HETATM   22  C   UNL     1     -10.146   9.217  70.636  1.00  0.00    -0.339 A  
HETATM   23  C   UNL     1     -11.303  10.010  70.862  1.00  0.00    -0.439 A  
HETATM   24  C   UNL     1     -12.353   9.549  71.663  1.00  0.00    -0.480 A  
HETATM   25  C   UNL     1     -12.279   8.295  72.250  1.00  0.00    -0.428 A  
HETATM   26  C   UNL     1     -11.157   7.488  72.051  1.00  0.00    -0.247 A  
HETATM   27 CL   UNL     1     -11.118   5.934  72.804  1.00  0.00    -0.304 Cl 
ENDBRANCH  17  18
ENDBRANCH  16  17
ENDBRANCH   9  16
ENDBRANCH   6   9
TORSDOF 6
ENDMDL
MODEL      132
REMARK 921   NORMALIZED FREE ENERGY PREDICTED BY IDOCK:   -5.09 KCAL/MOL
REMARK 922        TOTAL FREE ENERGY PREDICTED BY IDOCK:   -7.92 KCAL/MOL
REMARK 923 INTER-LIGAND FREE ENERGY PREDICTED BY IDOCK:   -6.85 KCAL/MOL
REMARK 924 INTRA-LIGAND FREE ENERGY PREDICTED BY IDOCK:   -1.08 KCAL/MOL
REMARK 927      BINDING AFFINITY PREDICTED BY RF-SCORE:    0.00 PKD
ROOT
HETATM    1 CL   UNL     1     -12.259  13.151  63.260  1.00  0.00    -0.575 Cl 
HETATM    2  C   UNL     1     -11.780  12.715  64.853  1.00  0.00    -0.353 A  
HETATM    3  C   UNL     1     -12.041  13.573  65.918  1.00  0.00    -0.477 A  
HETATM    4  C   UNL     1     -11.655  13.216  67.214  1.00  0.00    -0.355 A  
HETATM    5 CL   UNL     1     -11.996  14.333  68.485  1.00  0.00    -0.373 Cl 
HETATM    6  C   UNL     1     -11.013  11.990  67.458  1.00  0.00    -0.303 A  
HETATM    7  C   UNL     1     -10.774  11.134  66.363  1.00  0.00    -0.303 A  
HETATM    8  C   UNL     1     -11.138  11.500  65.068  1.00  0.00    -0.268 A  
ENDROOT
BRANCH   6   9
HETATM    9  C   UNL     1     -10.599  11.547  68.859  1.00  0.00    -0.204 C  
BRANCH   9  10
HETATM   10  C   UNL     1     -11.533  10.409  69.314  1.00  0.00    -0.215 C  
BRANCH  10  11
HETATM   11  N   UNL     1     -12.339  10.757  70.467  1.00  0.00    -0.340 NA 
HETATM   12  C   UNL     1     -13.031   9.896  71.272  1.00  0.00    -0.395 A  
HETATM   13  C   UNL     1     -12.468  12.013  70.995  1.00  0.00    -0.276 A  
HETATM   14  N   UNL     1     -13.233  12.006  72.061  1.00  0.00    -0.465 NA 
HETATM   15  C   UNL     1     -13.588  10.695  72.244  1.00  0.00     0.100 A  
ENDBRANCH  10  11
ENDBRANCH   9  10
BRANCH   9  16
HETATM   16  O   UNL     1      -9.249  11.051  68.835  1.00  0.00    -0.179 OA 
BRANCH  16  17
HETATM   17  C   UNL     1      -9.055   9.886  69.647  1.00  0.00    -0.227 C  
BRANCH  17  18
HETATM   18  C   UNL     1      -8.408   8.793  68.850  1.00  0.00    -0.127 A  
HETATM   19  C   UNL     1      -7.049   8.730  68.617  1.00  0.00    -0.072 A  
HETATM   20  S   UNL     1      -6.596   7.394  67.675  1.00  0.00    -0.063 SA 
HETATM   21  C   UNL     1      -8.223   6.836  67.531  1.00  0.00    -0.122 A  
HETATM   22  C   UNL     1      -9.104   7.682  68.225  1.00  0.00    -0.136 A  
HETATM   23  C   UNL     1     -10.486   7.350  68.209  1.00  0.00    -0.231 A  
HETATM   24  C   UNL     1     -10.953   6.222  67.527  1.00  0.00    -0.444 A  
HETATM   25  C   UNL     1     -10.063   5.407  66.844  1.00  0.00    -0.240 A  
HETATM   26  C   UNL     1      -8.698   5.701  66.838  1.00  0.00    -0.113 A  
HETATM   27 CL   UNL     1      -7.635   4.652  65.970  1.00  0.00    -0.089 Cl 
ENDBRANCH  17  18
ENDBRANCH  16  17
ENDBRANCH   9  16
ENDBRANCH   6   9
TORSDOF 6
ENDMDL
MODEL      133
REMARK 921   NORMALIZED FREE ENERGY PREDICTED BY IDOCK:   -5.09 KCAL/MOL
REMARK 922        TOTAL FREE ENERGY PREDICTED BY IDOCK:   -7.92 KCAL/MOL
REMARK 923 INTER-LIGAND FREE ENERGY PREDICTED BY IDOCK:   -6.88 KCAL/MOL
REMARK 924 INTRA-LIGAND FREE ENERGY PREDICTED BY IDOCK:   -1.04 KCAL/MOL
REMARK 927      BINDING AFFINITY PREDICTED BY RF-SCORE:    0.00 PKD
ROOT
HETATM    1 CL   UNL     1      -5.343  10.113  63.046  1.00  0.00    -0.102 Cl 
HETATM    2  C   UNL     1      -6.434  10.180  64.373  1.00  0.00    -0.122 A  
HETATM    3  C   UNL     1      -7.808  10.156  64.146  1.00  0.00    -0.145 A  
HETATM    4  C   UNL     1      -8.695  10.206  65.226  1.00  0.00    -0.165 A  
HETATM    5 CL   UNL     1     -10.385  10.188  64.872  1.00  0.00    -0.188 Cl 
HETATM    6  C   UNL     1      -8.216  10.269  66.545  1.00  0.00    -0.127 A  
HETATM    7  C   UNL     1      -6.819  10.278  66.746  1.00  0.00    -0.088 A  
HETATM    8  C   UNL     1      -5.935  10.251  65.668  1.00  0.00    -0.103 A  
ENDROOT
BRANCH   6   9
HETATM    9  C   UNL     1      -9.146  10.298  67.754  1.00  0.00    -0.134 C  
BRANCH   9  10
HETATM   10  C   UNL     1      -8.421   9.651  68.951  1.00  0.00    -0.125 C  
BRANCH  10  11
HETATM   11  N   UNL     1      -9.327   9.101  69.939  1.00  0.00    -0.174 NA 
HETATM   12  C   UNL     1      -9.134   9.055  71.292  1.00  0.00    -0.232 A  
HETATM   13  C   UNL     1     -10.578   8.608  69.682  1.00  0.00    -0.218 A  
HETATM   14  N   UNL     1     -11.172   8.217  70.785  1.00  0.00    -0.261 NA 
HETATM   15  C   UNL     1     -10.285   8.491  71.792  1.00  0.00    -0.282 A  
ENDBRANCH  10  11
ENDBRANCH   9  10
BRANCH   9  16
HETATM   16  O   UNL     1      -9.466  11.659  68.093  1.00  0.00    -0.178 OA 
BRANCH  16  17
HETATM   17  C   UNL     1     -10.829  12.009  67.824  1.00  0.00    -0.215 C  
BRANCH  17  18
HETATM   18  C   UNL     1     -11.278  13.110  68.737  1.00  0.00    -0.323 A  
HETATM   19  C   UNL     1     -11.009  14.444  68.503  1.00  0.00    -0.251 A  
HETATM   20  S   UNL     1     -11.624  15.469  69.706  1.00  0.00    -0.362 SA 
HETATM   21  C   UNL     1     -12.283  14.154  70.610  1.00  0.00    -0.362 A  
HETATM   22  C   UNL     1     -12.031  12.931  69.966  1.00  0.00    -0.380 A  
HETATM   23  C   UNL     1     -12.521  11.748  70.584  1.00  0.00    -0.364 A  
HETATM   24  C   UNL     1     -13.226  11.799  71.791  1.00  0.00    -0.434 A  
HETATM   25  C   UNL     1     -13.455  13.019  72.409  1.00  0.00    -0.615 A  
HETATM   26  C   UNL     1     -12.990  14.202  71.831  1.00  0.00    -0.360 A  
HETATM   27 CL   UNL     1     -13.302  15.693  72.645  1.00  0.00    -0.573 Cl 
ENDBRANCH  17  18
ENDBRANCH  16  17
ENDBRANCH   9  16
ENDBRANCH   6   9
TORSDOF 6
ENDMDL
MODEL      134
REMARK 921   NORMALIZED FREE ENERGY PREDICTED BY IDOCK:   -5.08 KCAL/MOL
REMARK 922        TOTAL FREE ENERGY PREDICTED BY IDOCK:   -7.90 KCAL/MOL
REMARK 923 INTER-LIGAND FREE ENERGY PREDICTED BY IDOCK:   -7.36 KCAL/MOL
REMARK 924 INTRA-LIGAND FREE ENERGY PREDICTED BY IDOCK:   -0.54 KCAL/MOL
REMARK 927      BINDING AFFINITY PREDICTED BY RF-SCORE:    0.00 PKD
ROOT
HETATM    1 CL   UNL     1      -7.994   3.586  70.376  1.00  0.00    -0.047 Cl 
HETATM    2  C   UNL     1      -8.701   5.114  70.025  1.00  0.00    -0.107 A  
HETATM    3  C   UNL     1      -7.892   6.238  69.880  1.00  0.00    -0.110 A  
HETATM    4  C   UNL     1      -8.467   7.479  69.591  1.00  0.00    -0.135 A  
HETATM    5 CL   UNL     1      -7.408   8.834  69.438  1.00  0.00    -0.070 Cl 
HETATM    6  C   UNL     1      -9.857   7.606  69.434  1.00  0.00    -0.171 A  
HETATM    7  C   UNL     1     -10.651   6.449  69.573  1.00  0.00    -0.308 A  
HETATM    8  C   UNL     1     -10.080   5.215  69.883  1.00  0.00    -0.342 A  
ENDROOT
BRANCH   6   9
HETATM    9  C   UNL     1     -10.526   8.935  69.092  1.00  0.00    -0.223 C  
BRANCH   9  10
HETATM   10  C   UNL     1     -10.332   9.904  70.274  1.00  0.00    -0.281 C  
BRANCH  10  11
HETATM   11  N   UNL     1     -11.532  10.085  71.067  1.00  0.00    -0.374 NA 
HETATM   12  C   UNL     1     -12.357  11.175  71.068  1.00  0.00    -0.382 A  
HETATM   13  C   UNL     1     -12.088   9.144  71.892  1.00  0.00    -0.378 A  
HETATM   14  N   UNL     1     -13.192   9.588  72.445  1.00  0.00    -0.415 NA 
HETATM   15  C   UNL     1     -13.370  10.848  71.939  1.00  0.00    -0.324 A  
ENDBRANCH  10  11
ENDBRANCH   9  10
BRANCH   9  16
HETATM   16  O   UNL     1      -9.909   9.507  67.925  1.00  0.00    -0.147 OA 
BRANCH  16  17
HETATM   17  C   UNL     1     -10.725   9.426  66.749  1.00  0.00    -0.059 C  
BRANCH  17  18
HETATM   18  C   UNL     1     -10.709  10.729  66.009  1.00  0.00    -0.168 A  
HETATM   19  C   UNL     1     -10.268  10.854  64.707  1.00  0.00    -0.333 A  
HETATM   20  S   UNL     1     -10.349  12.445  64.125  1.00  0.00    -0.383 SA 
HETATM   21  C   UNL     1     -10.983  13.047  65.614  1.00  0.00    -0.273 A  
HETATM   22  C   UNL     1     -11.138  12.008  66.547  1.00  0.00    -0.362 A  
HETATM   23  C   UNL     1     -11.660  12.343  67.826  1.00  0.00    -0.413 A  
HETATM   24  C   UNL     1     -12.006  13.660  68.145  1.00  0.00    -0.390 A  
HETATM   25  C   UNL     1     -11.836  14.669  67.209  1.00  0.00    -0.375 A  
HETATM   26  C   UNL     1     -11.327  14.377  65.942  1.00  0.00    -0.332 A  
HETATM   27 CL   UNL     1     -11.135  15.672  64.815  1.00  0.00    -0.454 Cl 
ENDBRANCH  17  18
ENDBRANCH  16  17
ENDBRANCH   9  16
ENDBRANCH   6   9
TORSDOF 6
ENDMDL
MODEL      135
REMARK 921   NORMALIZED FREE ENERGY PREDICTED BY IDOCK:   -5.05 KCAL/MOL
REMARK 922        TOTAL FREE ENERGY PREDICTED BY IDOCK:   -7.87 KCAL/MOL
REMARK 923 INTER-LIGAND FREE ENERGY PREDICTED BY IDOCK:   -7.13 KCAL/MOL
REMARK 924 INTRA-LIGAND FREE ENERGY PREDICTED BY IDOCK:   -0.74 KCAL/MOL
REMARK 927      BINDING AFFINITY PREDICTED BY RF-SCORE:    0.00 PKD
ROOT
HETATM    1 CL   UNL     1     -11.053  16.169  64.704  1.00  0.00    -0.421 Cl 
HETATM    2  C   UNL     1     -10.955  14.798  65.737  1.00  0.00    -0.334 A  
HETATM    3  C   UNL     1      -9.732  14.432  66.294  1.00  0.00    -0.330 A  
HETATM    4  C   UNL     1      -9.654  13.319  67.137  1.00  0.00    -0.240 A  
HETATM    5 CL   UNL     1      -8.104  12.912  67.780  1.00  0.00    -0.152 Cl 
HETATM    6  C   UNL     1     -10.801  12.569  67.442  1.00  0.00    -0.272 A  
HETATM    7  C   UNL     1     -12.029  12.970  66.876  1.00  0.00    -0.415 A  
HETATM    8  C   UNL     1     -12.104  14.066  66.016  1.00  0.00    -0.461 A  
ENDROOT
BRANCH   6   9
HETATM    9  C   UNL     1     -10.768  11.364  68.378  1.00  0.00    -0.203 C  
BRANCH   9  10
HETATM   10  C   UNL     1     -11.809  11.577  69.495  1.00  0.00    -0.351 C  
BRANCH  10  11
HETATM   11  N   UNL     1     -11.778  10.543  70.510  1.00  0.00    -0.325 NA 
HETATM   12  C   UNL     1     -12.820  10.136  71.296  1.00  0.00    -0.410 A  
HETATM   13  C   UNL     1     -10.708   9.737  70.790  1.00  0.00    -0.323 A  
HETATM   14  N   UNL     1     -10.997   8.872  71.734  1.00  0.00    -0.339 NA 
HETATM   15  C   UNL     1     -12.307   9.109  72.055  1.00  0.00    -0.377 A  
ENDBRANCH  10  11
ENDBRANCH   9  10
BRANCH   9  16
HETATM   16  O   UNL     1     -11.112  10.170  67.652  1.00  0.00    -0.301 OA 
BRANCH  16  17
HETATM   17  C   UNL     1     -10.125   9.785  66.687  1.00  0.00    -0.237 C  
BRANCH  17  18
HETATM   18  C   UNL     1      -9.933   8.298  66.697  1.00  0.00    -0.348 A  
HETATM   19  C   UNL     1     -10.745   7.437  67.408  1.00  0.00    -0.278 A  
HETATM   20  S   UNL     1     -10.290   5.810  67.249  1.00  0.00    -0.258 SA 
HETATM   21  C   UNL     1      -8.965   6.194  66.211  1.00  0.00    -0.154 A  
HETATM   22  C   UNL     1      -8.892   7.579  65.986  1.00  0.00    -0.179 A  
HETATM   23  C   UNL     1      -7.853   8.055  65.141  1.00  0.00    -0.116 A  
HETATM   24  C   UNL     1      -6.936   7.177  64.554  1.00  0.00    -0.051 A  
HETATM   25  C   UNL     1      -7.025   5.815  64.798  1.00  0.00    -0.052 A  
HETATM   26  C   UNL     1      -8.033   5.310  65.623  1.00  0.00    -0.106 A  
HETATM   27 CL   UNL     1      -8.097   3.606  65.894  1.00  0.00    -0.093 Cl 
ENDBRANCH  17  18
ENDBRANCH  16  17
ENDBRANCH   9  16
ENDBRANCH   6   9
TORSDOF 6
ENDMDL
MODEL      136
REMARK 921   NORMALIZED FREE ENERGY PREDICTED BY IDOCK:   -5.05 KCAL/MOL
REMARK 922        TOTAL FREE ENERGY PREDICTED BY IDOCK:   -7.86 KCAL/MOL
REMARK 923 INTER-LIGAND FREE ENERGY PREDICTED BY IDOCK:   -6.38 KCAL/MOL
REMARK 924 INTRA-LIGAND FREE ENERGY PREDICTED BY IDOCK:   -1.48 KCAL/MOL
REMARK 927      BINDING AFFINITY PREDICTED BY RF-SCORE:    0.00 PKD
ROOT
HETATM    1 CL   UNL     1      -5.211  13.954  70.355  1.00  0.00    -0.099 Cl 
HETATM    2  C   UNL     1      -6.123  12.607  69.798  1.00  0.00    -0.134 A  
HETATM    3  C   UNL     1      -5.900  11.344  70.341  1.00  0.00    -0.153 A  
HETATM    4  C   UNL     1      -6.645  10.250  69.890  1.00  0.00    -0.114 A  
HETATM    5 CL   UNL     1      -6.308   8.710  70.595  1.00  0.00    -0.036 Cl 
HETATM    6  C   UNL     1      -7.628  10.410  68.899  1.00  0.00    -0.103 A  
HETATM    7  C   UNL     1      -7.841  11.703  68.377  1.00  0.00    -0.137 A  
HETATM    8  C   UNL     1      -7.083  12.791  68.810  1.00  0.00    -0.089 A  
ENDROOT
BRANCH   6   9
HETATM    9  C   UNL     1      -8.482   9.250  68.397  1.00  0.00    -0.120 C  
BRANCH   9  10
HETATM   10  C   UNL     1      -9.876   9.344  69.049  1.00  0.00    -0.169 C  
BRANCH  10  11
HETATM   11  N   UNL     1      -9.974   8.613  70.296  1.00  0.00    -0.182 NA 
HETATM   12  C   UNL     1      -9.626   7.308  70.511  1.00  0.00    -0.168 A  
HETATM   13  C   UNL     1     -10.356   9.142  71.499  1.00  0.00    -0.344 A  
HETATM   14  N   UNL     1     -10.309   8.243  72.453  1.00  0.00    -0.311 NA 
HETATM   15  C   UNL     1      -9.855   7.099  71.850  1.00  0.00    -0.159 A  
ENDBRANCH  10  11
ENDBRANCH   9  10
BRANCH   9  16
HETATM   16  O   UNL     1      -8.637   9.338  66.969  1.00  0.00    -0.122 OA 
BRANCH  16  17
HETATM   17  C   UNL     1     -10.003   9.271  66.538  1.00  0.00    -0.274 C  
BRANCH  17  18
HETATM   18  C   UNL     1     -10.350  10.471  65.710  1.00  0.00    -0.270 A  
HETATM   19  C   UNL     1     -10.104  10.551  64.354  1.00  0.00    -0.325 A  
HETATM   20  S   UNL     1     -10.588  12.029  63.675  1.00  0.00    -0.482 SA 
HETATM   21  C   UNL     1     -11.152  12.637  65.188  1.00  0.00    -0.294 A  
HETATM   22  C   UNL     1     -10.972  11.686  66.207  1.00  0.00    -0.338 A  
HETATM   23  C   UNL     1     -11.398  12.035  67.517  1.00  0.00    -0.387 A  
HETATM   24  C   UNL     1     -11.974  13.281  67.784  1.00  0.00    -0.356 A  
HETATM   25  C   UNL     1     -12.134  14.205  66.763  1.00  0.00    -0.474 A  
HETATM   26  C   UNL     1     -11.728  13.897  65.463  1.00  0.00    -0.349 A  
HETATM   27 CL   UNL     1     -11.950  15.085  64.229  1.00  0.00    -0.393 Cl 
ENDBRANCH  17  18
ENDBRANCH  16  17
ENDBRANCH   9  16
ENDBRANCH   6   9
TORSDOF 6
ENDMDL
MODEL      137
REMARK 921   NORMALIZED FREE ENERGY PREDICTED BY IDOCK:   -5.04 KCAL/MOL
REMARK 922        TOTAL FREE ENERGY PREDICTED BY IDOCK:   -7.85 KCAL/MOL
REMARK 923 INTER-LIGAND FREE ENERGY PREDICTED BY IDOCK:   -6.55 KCAL/MOL
REMARK 924 INTRA-LIGAND FREE ENERGY PREDICTED BY IDOCK:   -1.30 KCAL/MOL
REMARK 927      BINDING AFFINITY PREDICTED BY RF-SCORE:    0.00 PKD
ROOT
HETATM    1 CL   UNL     1     -10.760  15.920  65.101  1.00  0.00    -0.452 Cl 
HETATM    2  C   UNL     1     -10.781  14.556  66.148  1.00  0.00    -0.310 A  
HETATM    3  C   UNL     1      -9.590  14.070  66.683  1.00  0.00    -0.299 A  
HETATM    4  C   UNL     1      -9.609  12.964  67.537  1.00  0.00    -0.200 A  
HETATM    5 CL   UNL     1      -8.096  12.405  68.152  1.00  0.00    -0.155 Cl 
HETATM    6  C   UNL     1     -10.821  12.339  67.875  1.00  0.00    -0.252 A  
HETATM    7  C   UNL     1     -12.013  12.861  67.331  1.00  0.00    -0.360 A  
HETATM    8  C   UNL     1     -11.993  13.951  66.460  1.00  0.00    -0.470 A  
ENDROOT
BRANCH   6   9
HETATM    9  C   UNL     1     -10.892  11.147  68.825  1.00  0.00    -0.213 C  
BRANCH   9  10
HETATM   10  C   UNL     1     -11.891  11.472  69.953  1.00  0.00    -0.355 C  
BRANCH  10  11
HETATM   11  N   UNL     1     -12.189  10.333  70.798  1.00  0.00    -0.323 NA 
HETATM   12  C   UNL     1     -11.286   9.512  71.415  1.00  0.00    -0.392 A  
HETATM   13  C   UNL     1     -13.440   9.941  71.190  1.00  0.00    -0.240 A  
HETATM   14  N   UNL     1     -13.386   8.898  71.985  1.00  0.00    -0.390 NA 
HETATM   15  C   UNL     1     -12.052   8.624  72.133  1.00  0.00    -0.381 A  
ENDBRANCH  10  11
ENDBRANCH   9  10
BRANCH   9  16
HETATM   16  O   UNL     1     -11.361   9.985  68.118  1.00  0.00    -0.195 OA 
BRANCH  16  17
HETATM   17  C   UNL     1     -10.303   9.161  67.609  1.00  0.00    -0.255 C  
BRANCH  17  18
HETATM   18  C   UNL     1      -9.996   8.052  68.569  1.00  0.00    -0.206 A  
HETATM   19  C   UNL     1     -10.827   6.966  68.762  1.00  0.00    -0.192 A  
HETATM   20  S   UNL     1     -10.237   5.872  69.916  1.00  0.00    -0.241 SA 
HETATM   21  C   UNL     1      -8.825   6.820  70.217  1.00  0.00    -0.152 A  
HETATM   22  C   UNL     1      -8.816   7.971  69.412  1.00  0.00    -0.144 A  
HETATM   23  C   UNL     1      -7.709   8.854  69.538  1.00  0.00    -0.088 A  
HETATM   24  C   UNL     1      -6.666   8.587  70.431  1.00  0.00    -0.037 A  
HETATM   25  C   UNL     1      -6.703   7.447  71.220  1.00  0.00    -0.050 A  
HETATM   26  C   UNL     1      -7.774   6.556  71.124  1.00  0.00    -0.098 A  
HETATM   27 CL   UNL     1      -7.770   5.153  72.130  1.00  0.00    -0.097 Cl 
ENDBRANCH  17  18
ENDBRANCH  16  17
ENDBRANCH   9  16
ENDBRANCH   6   9
TORSDOF 6
ENDMDL
MODEL      138
REMARK 921   NORMALIZED FREE ENERGY PREDICTED BY IDOCK:   -5.04 KCAL/MOL
REMARK 922        TOTAL FREE ENERGY PREDICTED BY IDOCK:   -7.85 KCAL/MOL
REMARK 923 INTER-LIGAND FREE ENERGY PREDICTED BY IDOCK:   -7.57 KCAL/MOL
REMARK 924 INTRA-LIGAND FREE ENERGY PREDICTED BY IDOCK:   -0.28 KCAL/MOL
REMARK 927      BINDING AFFINITY PREDICTED BY RF-SCORE:    0.00 PKD
ROOT
HETATM    1 CL   UNL     1     -11.134   7.791  72.965  1.00  0.00    -0.463 Cl 
HETATM    2  C   UNL     1     -10.682   8.711  71.585  1.00  0.00    -0.303 A  
HETATM    3  C   UNL     1     -11.529   9.707  71.105  1.00  0.00    -0.456 A  
HETATM    4  C   UNL     1     -11.159  10.458  69.985  1.00  0.00    -0.314 A  
HETATM    5 CL   UNL     1     -12.262  11.666  69.434  1.00  0.00    -0.292 Cl 
HETATM    6  C   UNL     1      -9.932  10.228  69.341  1.00  0.00    -0.254 A  
HETATM    7  C   UNL     1      -9.088   9.222  69.857  1.00  0.00    -0.203 A  
HETATM    8  C   UNL     1      -9.466   8.458  70.960  1.00  0.00    -0.212 A  
ENDROOT
BRANCH   6   9
HETATM    9  C   UNL     1      -9.475  11.041  68.133  1.00  0.00    -0.172 C  
BRANCH   9  10
HETATM   10  C   UNL     1     -10.564  10.963  67.044  1.00  0.00    -0.257 C  
BRANCH  10  11
HETATM   11  N   UNL     1     -10.033  10.693  65.723  1.00  0.00    -0.244 NA 
HETATM   12  C   UNL     1      -8.945   9.923  65.420  1.00  0.00    -0.184 A  
HETATM   13  C   UNL     1     -10.595  11.099  64.543  1.00  0.00    -0.328 A  
HETATM   14  N   UNL     1      -9.906  10.668  63.513  1.00  0.00    -0.328 NA 
HETATM   15  C   UNL     1      -8.878   9.934  64.046  1.00  0.00    -0.228 A  
ENDBRANCH  10  11
ENDBRANCH   9  10
BRANCH   9  16
HETATM   16  O   UNL     1      -9.299  12.418  68.508  1.00  0.00    -0.178 OA 
BRANCH  16  17
HETATM   17  C   UNL     1      -9.631  13.341  67.463  1.00  0.00    -0.218 C  
BRANCH  17  18
HETATM   18  C   UNL     1      -9.939  14.692  68.035  1.00  0.00    -0.220 A  
HETATM   19  C   UNL     1     -10.819  14.888  69.081  1.00  0.00    -0.250 A  
HETATM   20  S   UNL     1     -10.986  16.519  69.516  1.00  0.00    -0.229 SA 
HETATM   21  C   UNL     1      -9.876  17.044  68.302  1.00  0.00    -0.278 A  
HETATM   22  C   UNL     1      -9.375  15.949  67.576  1.00  0.00    -0.217 A  
HETATM   23  C   UNL     1      -8.439  16.218  66.542  1.00  0.00    -0.338 A  
HETATM   24  C   UNL     1      -8.031  17.524  66.254  1.00  0.00    -0.303 A  
HETATM   25  C   UNL     1      -8.545  18.588  66.980  1.00  0.00    -0.273 A  
HETATM   26  C   UNL     1      -9.467  18.363  68.005  1.00  0.00    -0.290 A  
HETATM   27 CL   UNL     1     -10.077  19.723  68.876  1.00  0.00    -0.534 Cl 
ENDBRANCH  17  18
ENDBRANCH  16  17
ENDBRANCH   9  16
ENDBRANCH   6   9
TORSDOF 6
ENDMDL
MODEL      139
REMARK 921   NORMALIZED FREE ENERGY PREDICTED BY IDOCK:   -5.04 KCAL/MOL
REMARK 922        TOTAL FREE ENERGY PREDICTED BY IDOCK:   -7.85 KCAL/MOL
REMARK 923 INTER-LIGAND FREE ENERGY PREDICTED BY IDOCK:   -7.11 KCAL/MOL
REMARK 924 INTRA-LIGAND FREE ENERGY PREDICTED BY IDOCK:   -0.74 KCAL/MOL
REMARK 927      BINDING AFFINITY PREDICTED BY RF-SCORE:    0.00 PKD
ROOT
HETATM    1 CL   UNL     1     -10.097   4.293  66.184  1.00  0.00    -0.233 Cl 
HETATM    2  C   UNL     1      -9.926   5.824  66.947  1.00  0.00    -0.171 A  
HETATM    3  C   UNL     1      -8.695   6.203  67.480  1.00  0.00    -0.104 A  
HETATM    4  C   UNL     1      -8.556   7.449  68.097  1.00  0.00    -0.123 A  
HETATM    5 CL   UNL     1      -7.008   7.849  68.749  1.00  0.00    -0.065 Cl 
HETATM    6  C   UNL     1      -9.643   8.335  68.178  1.00  0.00    -0.163 A  
HETATM    7  C   UNL     1     -10.873   7.931  67.618  1.00  0.00    -0.125 A  
HETATM    8  C   UNL     1     -11.019   6.679  67.023  1.00  0.00    -0.463 A  
ENDROOT
BRANCH   6   9
HETATM    9  C   UNL     1      -9.530   9.716  68.818  1.00  0.00    -0.148 C  
BRANCH   9  10
HETATM   10  C   UNL     1      -9.382   9.543  70.343  1.00  0.00    -0.257 C  
BRANCH  10  11
HETATM   11  N   UNL     1     -10.651   9.543  71.043  1.00  0.00    -0.319 NA 
HETATM   12  C   UNL     1     -11.705  10.388  70.830  1.00  0.00    -0.368 A  
HETATM   13  C   UNL     1     -11.037   8.630  71.987  1.00  0.00    -0.367 A  
HETATM   14  N   UNL     1     -12.255   8.869  72.412  1.00  0.00    -0.336 NA 
HETATM   15  C   UNL     1     -12.681   9.959  71.698  1.00  0.00    -0.429 A  
ENDBRANCH  10  11
ENDBRANCH   9  10
BRANCH   9  16
HETATM   16  O   UNL     1      -8.363  10.393  68.318  1.00  0.00    -0.113 OA 
BRANCH  16  17
HETATM   17  C   UNL     1      -8.447  11.820  68.412  1.00  0.00    -0.155 C  
BRANCH  17  18
HETATM   18  C   UNL     1      -9.473  12.349  67.455  1.00  0.00    -0.187 A  
HETATM   19  C   UNL     1     -10.363  13.353  67.779  1.00  0.00    -0.241 A  
HETATM   20  S   UNL     1     -11.418  13.742  66.509  1.00  0.00    -0.364 SA 
HETATM   21  C   UNL     1     -10.723  12.564  65.456  1.00  0.00    -0.271 A  
HETATM   22  C   UNL     1      -9.670  11.885  66.093  1.00  0.00    -0.251 A  
HETATM   23  C   UNL     1      -8.987  10.884  65.350  1.00  0.00    -0.209 A  
HETATM   24  C   UNL     1      -9.350  10.585  64.033  1.00  0.00    -0.308 A  
HETATM   25  C   UNL     1     -10.397  11.264  63.430  1.00  0.00    -0.449 A  
HETATM   26  C   UNL     1     -11.092  12.255  64.129  1.00  0.00    -0.366 A  
HETATM   27 CL   UNL     1     -12.388  13.068  63.330  1.00  0.00    -0.525 Cl 
ENDBRANCH  17  18
ENDBRANCH  16  17
ENDBRANCH   9  16
ENDBRANCH   6   9
TORSDOF 6
ENDMDL
MODEL      140
REMARK 921   NORMALIZED FREE ENERGY PREDICTED BY IDOCK:   -5.03 KCAL/MOL
REMARK 922        TOTAL FREE ENERGY PREDICTED BY IDOCK:   -7.84 KCAL/MOL
REMARK 923 INTER-LIGAND FREE ENERGY PREDICTED BY IDOCK:   -7.42 KCAL/MOL
REMARK 924 INTRA-LIGAND FREE ENERGY PREDICTED BY IDOCK:   -0.43 KCAL/MOL
REMARK 927      BINDING AFFINITY PREDICTED BY RF-SCORE:    0.00 PKD
ROOT
HETATM    1 CL   UNL     1      -9.574   4.208  70.406  1.00  0.00    -0.252 Cl 
HETATM    2  C   UNL     1      -9.475   5.681  69.525  1.00  0.00    -0.136 A  
HETATM    3  C   UNL     1      -8.308   6.441  69.569  1.00  0.00    -0.126 A  
HETATM    4  C   UNL     1      -8.227   7.637  68.848  1.00  0.00    -0.128 A  
HETATM    5 CL   UNL     1      -6.758   8.537  68.959  1.00  0.00    -0.051 Cl 
HETATM    6  C   UNL     1      -9.308   8.078  68.067  1.00  0.00    -0.146 A  
HETATM    7  C   UNL     1     -10.471   7.281  68.030  1.00  0.00    -0.249 A  
HETATM    8  C   UNL     1     -10.562   6.100  68.766  1.00  0.00    -0.330 A  
ENDROOT
BRANCH   6   9
HETATM    9  C   UNL     1      -9.254   9.362  67.243  1.00  0.00    -0.130 C  
BRANCH   9  10
HETATM   10  C   UNL     1     -10.194   9.211  66.031  1.00  0.00    -0.023 C  
BRANCH  10  11
HETATM   11  N   UNL     1      -9.929  10.172  64.980  1.00  0.00    -0.332 NA 
HETATM   12  C   UNL     1      -9.129   9.990  63.885  1.00  0.00    -0.259 A  
HETATM   13  C   UNL     1     -10.513  11.405  64.865  1.00  0.00    -0.305 A  
HETATM   14  N   UNL     1     -10.100  12.029  63.787  1.00  0.00    -0.383 NA 
HETATM   15  C   UNL     1      -9.241  11.159  63.169  1.00  0.00    -0.289 A  
ENDBRANCH  10  11
ENDBRANCH   9  10
BRANCH   9  16
HETATM   16  O   UNL     1      -9.705  10.473  68.038  1.00  0.00    -0.145 OA 
BRANCH  16  17
HETATM   17  C   UNL     1     -11.125  10.660  68.003  1.00  0.00    -0.301 C  
BRANCH  17  18
HETATM   18  C   UNL     1     -11.489  12.013  68.536  1.00  0.00    -0.345 A  
HETATM   19  C   UNL     1     -11.208  13.189  67.870  1.00  0.00    -0.270 A  
HETATM   20  S   UNL     1     -11.720  14.570  68.712  1.00  0.00    -0.328 SA 
HETATM   21  C   UNL     1     -12.345  13.642  70.026  1.00  0.00    -0.278 A  
HETATM   22  C   UNL     1     -12.162  12.267  69.798  1.00  0.00    -0.201 A  
HETATM   23  C   UNL     1     -12.634  11.366  70.790  1.00  0.00    -0.409 A  
HETATM   24  C   UNL     1     -13.257  11.830  71.954  1.00  0.00    -0.468 A  
HETATM   25  C   UNL     1     -13.418  13.191  72.159  1.00  0.00    -0.653 A  
HETATM   26  C   UNL     1     -12.968  14.107  71.205  1.00  0.00    -0.356 A  
HETATM   27 CL   UNL     1     -13.194  15.792  71.512  1.00  0.00    -0.523 Cl 
ENDBRANCH  17  18
ENDBRANCH  16  17
ENDBRANCH   9  16
ENDBRANCH   6   9
TORSDOF 6
ENDMDL
MODEL      141
REMARK 921   NORMALIZED FREE ENERGY PREDICTED BY IDOCK:   -5.03 KCAL/MOL
REMARK 922        TOTAL FREE ENERGY PREDICTED BY IDOCK:   -7.84 KCAL/MOL
REMARK 923 INTER-LIGAND FREE ENERGY PREDICTED BY IDOCK:   -6.68 KCAL/MOL
REMARK 924 INTRA-LIGAND FREE ENERGY PREDICTED BY IDOCK:   -1.16 KCAL/MOL
REMARK 927      BINDING AFFINITY PREDICTED BY RF-SCORE:    0.00 PKD
ROOT
HETATM    1 CL   UNL     1     -11.985  14.489  64.441  1.00  0.00    -0.478 Cl 
HETATM    2  C   UNL     1     -11.709  13.293  65.644  1.00  0.00    -0.356 A  
HETATM    3  C   UNL     1     -11.024  12.124  65.319  1.00  0.00    -0.349 A  
HETATM    4  C   UNL     1     -10.796  11.153  66.299  1.00  0.00    -0.205 A  
HETATM    5 CL   UNL     1      -9.954   9.722  65.824  1.00  0.00    -0.363 Cl 
HETATM    6  C   UNL     1     -11.240  11.346  67.617  1.00  0.00    -0.346 A  
HETATM    7  C   UNL     1     -11.919  12.545  67.922  1.00  0.00    -0.283 A  
HETATM    8  C   UNL     1     -12.167  13.504  66.940  1.00  0.00    -0.377 A  
ENDROOT
BRANCH   6   9
HETATM    9  C   UNL     1     -10.990  10.326  68.725  1.00  0.00    -0.243 C  
BRANCH   9  10
HETATM   10  C   UNL     1      -9.589  10.575  69.318  1.00  0.00    -0.181 C  
BRANCH  10  11
HETATM   11  N   UNL     1      -8.734   9.405  69.275  1.00  0.00    -0.138 NA 
HETATM   12  C   UNL     1      -7.465   9.300  69.773  1.00  0.00    -0.075 A  
HETATM   13  C   UNL     1      -9.097   8.174  68.801  1.00  0.00    -0.144 A  
HETATM   14  N   UNL     1      -8.121   7.307  68.931  1.00  0.00    -0.126 NA 
HETATM   15  C   UNL     1      -7.101   7.995  69.535  1.00  0.00    -0.058 A  
ENDBRANCH  10  11
ENDBRANCH   9  10
BRANCH   9  16
HETATM   16  O   UNL     1     -11.965  10.489  69.769  1.00  0.00    -0.272 OA 
BRANCH  16  17
HETATM   17  C   UNL     1     -11.432  10.285  71.084  1.00  0.00    -0.237 C  
BRANCH  17  18
HETATM   18  C   UNL     1     -11.654   8.870  71.526  1.00  0.00    -0.388 A  
HETATM   19  C   UNL     1     -12.827   8.180  71.294  1.00  0.00    -0.183 A  
HETATM   20  S   UNL     1     -12.806   6.602  71.914  1.00  0.00    -0.006 SA 
HETATM   21  C   UNL     1     -11.204   6.776  72.535  1.00  0.00    -0.268 A  
HETATM   22  C   UNL     1     -10.693   8.053  72.246  1.00  0.00    -0.360 A  
HETATM   23  C   UNL     1      -9.374   8.350  72.685  1.00  0.00    -0.334 A  
HETATM   24  C   UNL     1      -8.613   7.405  73.381  1.00  0.00    -0.193 A  
HETATM   25  C   UNL     1      -9.143   6.155  73.660  1.00  0.00    -0.129 A  
HETATM   26  C   UNL     1     -10.435   5.827  73.243  1.00  0.00    -0.233 A  
HETATM   27 CL   UNL     1     -11.046   4.256  73.619  1.00  0.00    -0.356 Cl 
ENDBRANCH  17  18
ENDBRANCH  16  17
ENDBRANCH   9  16
ENDBRANCH   6   9
TORSDOF 6
ENDMDL
MODEL      142
REMARK 921   NORMALIZED FREE ENERGY PREDICTED BY IDOCK:   -5.02 KCAL/MOL
REMARK 922        TOTAL FREE ENERGY PREDICTED BY IDOCK:   -7.83 KCAL/MOL
REMARK 923 INTER-LIGAND FREE ENERGY PREDICTED BY IDOCK:   -6.05 KCAL/MOL
REMARK 924 INTRA-LIGAND FREE ENERGY PREDICTED BY IDOCK:   -1.78 KCAL/MOL
REMARK 927      BINDING AFFINITY PREDICTED BY RF-SCORE:    0.00 PKD
ROOT
HETATM    1 CL   UNL     1     -10.772  18.935  65.664  1.00  0.00    -0.390 Cl 
HETATM    2  C   UNL     1     -10.458  17.326  66.183  1.00  0.00    -0.278 A  
HETATM    3  C   UNL     1     -10.562  16.271  65.279  1.00  0.00    -0.357 A  
HETATM    4  C   UNL     1     -10.302  14.963  65.701  1.00  0.00    -0.349 A  
HETATM    5 CL   UNL     1     -10.463  13.701  64.533  1.00  0.00    -0.453 Cl 
HETATM    6  C   UNL     1      -9.926  14.699  67.028  1.00  0.00    -0.246 A  
HETATM    7  C   UNL     1      -9.816  15.788  67.918  1.00  0.00    -0.217 A  
HETATM    8  C   UNL     1     -10.096  17.089  67.504  1.00  0.00    -0.294 A  
ENDROOT
BRANCH   6   9
HETATM    9  C   UNL     1      -9.607  13.291  67.525  1.00  0.00    -0.218 C  
BRANCH   9  10
HETATM   10  C   UNL     1      -8.261  13.325  68.276  1.00  0.00    -0.156 C  
BRANCH  10  11
HETATM   11  N   UNL     1      -7.573  12.050  68.273  1.00  0.00    -0.110 NA 
HETATM   12  C   UNL     1      -7.465  11.175  69.319  1.00  0.00    -0.076 A  
HETATM   13  C   UNL     1      -6.985  11.467  67.183  1.00  0.00    -0.138 A  
HETATM   14  N   UNL     1      -6.476  10.296  67.485  1.00  0.00    -0.065 NA 
HETATM   15  C   UNL     1      -6.770  10.103  68.810  1.00  0.00    -0.053 A  
ENDBRANCH  10  11
ENDBRANCH   9  10
BRANCH   9  16
HETATM   16  O   UNL     1     -10.630  12.851  68.436  1.00  0.00    -0.241 OA 
BRANCH  16  17
HETATM   17  C   UNL     1     -11.497  11.853  67.881  1.00  0.00    -0.316 C  
BRANCH  17  18
HETATM   18  C   UNL     1     -10.973  10.480  68.176  1.00  0.00    -0.330 A  
HETATM   19  C   UNL     1     -11.131   9.857  69.397  1.00  0.00    -0.199 A  
HETATM   20  S   UNL     1     -10.426   8.314  69.453  1.00  0.00    -0.200 SA 
HETATM   21  C   UNL     1      -9.866   8.417  67.824  1.00  0.00    -0.174 A  
HETATM   22  C   UNL     1     -10.240   9.641  67.244  1.00  0.00    -0.292 A  
HETATM   23  C   UNL     1      -9.858   9.875  65.895  1.00  0.00    -0.342 A  
HETATM   24  C   UNL     1      -9.135   8.922  65.170  1.00  0.00    -0.157 A  
HETATM   25  C   UNL     1      -8.773   7.724  65.768  1.00  0.00    -0.160 A  
HETATM   26  C   UNL     1      -9.131   7.459  67.092  1.00  0.00    -0.130 A  
HETATM   27 CL   UNL     1      -8.652   5.952  67.787  1.00  0.00    -0.106 Cl 
ENDBRANCH  17  18
ENDBRANCH  16  17
ENDBRANCH   9  16
ENDBRANCH   6   9
TORSDOF 6
ENDMDL
MODEL      143
REMARK 921   NORMALIZED FREE ENERGY PREDICTED BY IDOCK:   -5.02 KCAL/MOL
REMARK 922        TOTAL FREE ENERGY PREDICTED BY IDOCK:   -7.83 KCAL/MOL
REMARK 923 INTER-LIGAND FREE ENERGY PREDICTED BY IDOCK:   -7.30 KCAL/MOL
REMARK 924 INTRA-LIGAND FREE ENERGY PREDICTED BY IDOCK:   -0.52 KCAL/MOL
REMARK 927      BINDING AFFINITY PREDICTED BY RF-SCORE:    0.00 PKD
ROOT
HETATM    1 CL   UNL     1     -10.333  18.457  68.612  1.00  0.00    -0.352 Cl 
HETATM    2  C   UNL     1     -10.383  16.764  68.310  1.00  0.00    -0.319 A  
HETATM    3  C   UNL     1     -11.333  16.242  67.436  1.00  0.00     0.113 A  
HETATM    4  C   UNL     1     -11.370  14.866  67.187  1.00  0.00    -0.343 A  
HETATM    5 CL   UNL     1     -12.583  14.284  66.104  1.00  0.00    -0.395 Cl 
HETATM    6  C   UNL     1     -10.450  14.001  67.801  1.00  0.00    -0.236 A  
HETATM    7  C   UNL     1      -9.490  14.560  68.671  1.00  0.00    -0.205 A  
HETATM    8  C   UNL     1      -9.467  15.928  68.937  1.00  0.00    -0.234 A  
ENDROOT
BRANCH   6   9
HETATM    9  C   UNL     1     -10.436  12.498  67.538  1.00  0.00    -0.219 C  
BRANCH   9  10
HETATM   10  C   UNL     1      -9.201  12.157  66.680  1.00  0.00    -0.206 C  
BRANCH  10  11
HETATM   11  N   UNL     1      -9.540  11.578  65.396  1.00  0.00    -0.229 NA 
HETATM   12  C   UNL     1     -10.292  12.154  64.410  1.00  0.00    -0.319 A  
HETATM   13  C   UNL     1      -9.083  10.378  64.921  1.00  0.00    -0.208 A  
HETATM   14  N   UNL     1      -9.533  10.142  63.711  1.00  0.00    -0.291 NA 
HETATM   15  C   UNL     1     -10.284  11.239  63.383  1.00  0.00    -0.403 A  
ENDBRANCH  10  11
ENDBRANCH   9  10
BRANCH   9  16
HETATM   16  O   UNL     1     -10.340  11.784  68.784  1.00  0.00    -0.213 OA 
BRANCH  16  17
HETATM   17  C   UNL     1      -9.218  10.894  68.846  1.00  0.00    -0.160 C  
BRANCH  17  18
HETATM   18  C   UNL     1      -9.613   9.599  69.490  1.00  0.00    -0.211 A  
HETATM   19  C   UNL     1      -8.916   8.421  69.308  1.00  0.00    -0.150 A  
HETATM   20  S   UNL     1      -9.593   7.110  70.145  1.00  0.00    -0.167 SA 
HETATM   21  C   UNL     1     -10.870   8.074  70.793  1.00  0.00    -0.232 A  
HETATM   22  C   UNL     1     -10.756   9.408  70.365  1.00  0.00    -0.317 A  
HETATM   23  C   UNL     1     -11.733  10.333  70.823  1.00  0.00    -0.453 A  
HETATM   24  C   UNL     1     -12.772   9.931  71.668  1.00  0.00    -0.527 A  
HETATM   25  C   UNL     1     -12.867   8.607  72.070  1.00  0.00    -0.425 A  
HETATM   26  C   UNL     1     -11.925   7.670  71.641  1.00  0.00    -0.299 A  
HETATM   27 CL   UNL     1     -12.092   6.035  72.171  1.00  0.00    -0.304 Cl 
ENDBRANCH  17  18
ENDBRANCH  16  17
ENDBRANCH   9  16
ENDBRANCH   6   9
TORSDOF 6
ENDMDL
MODEL      144
REMARK 921   NORMALIZED FREE ENERGY PREDICTED BY IDOCK:   -5.02 KCAL/MOL
REMARK 922        TOTAL FREE ENERGY PREDICTED BY IDOCK:   -7.82 KCAL/MOL
REMARK 923 INTER-LIGAND FREE ENERGY PREDICTED BY IDOCK:   -6.36 KCAL/MOL
REMARK 924 INTRA-LIGAND FREE ENERGY PREDICTED BY IDOCK:   -1.46 KCAL/MOL
REMARK 927      BINDING AFFINITY PREDICTED BY RF-SCORE:    0.00 PKD
ROOT
HETATM    1 CL   UNL     1      -5.189  11.692  66.768  1.00  0.00    -0.119 Cl 
HETATM    2  C   UNL     1      -6.767  11.191  67.232  1.00  0.00    -0.091 A  
HETATM    3  C   UNL     1      -7.591  10.546  66.312  1.00  0.00    -0.133 A  
HETATM    4  C   UNL     1      -8.872  10.135  66.692  1.00  0.00    -0.132 A  
HETATM    5 CL   UNL     1      -9.846   9.355  65.498  1.00  0.00    -0.323 Cl 
HETATM    6  C   UNL     1      -9.338  10.354  67.998  1.00  0.00    -0.145 A  
HETATM    7  C   UNL     1      -8.478  10.997  68.913  1.00  0.00    -0.124 A  
HETATM    8  C   UNL     1      -7.208  11.428  68.529  1.00  0.00    -0.093 A  
ENDROOT
BRANCH   6   9
HETATM    9  C   UNL     1     -10.719   9.899  68.463  1.00  0.00    -0.226 C  
BRANCH   9  10
HETATM   10  C   UNL     1     -10.817  10.097  69.989  1.00  0.00    -0.307 C  
BRANCH  10  11
HETATM   11  N   UNL     1     -11.081   8.868  70.709  1.00  0.00    -0.251 NA 
HETATM   12  C   UNL     1     -11.382   7.650  70.167  1.00  0.00    -0.132 A  
HETATM   13  C   UNL     1     -10.985   8.706  72.065  1.00  0.00    -0.362 A  
HETATM   14  N   UNL     1     -11.247   7.470  72.417  1.00  0.00    -0.286 NA 
HETATM   15  C   UNL     1     -11.494   6.803  71.245  1.00  0.00    -0.302 A  
ENDBRANCH  10  11
ENDBRANCH   9  10
BRANCH   9  16
HETATM   16  O   UNL     1     -11.736  10.696  67.831  1.00  0.00    -0.506 OA 
BRANCH  16  17
HETATM   17  C   UNL     1     -12.000  11.929  68.512  1.00  0.00    -0.212 C  
BRANCH  17  18
HETATM   18  C   UNL     1     -11.581  13.095  67.668  1.00  0.00    -0.392 A  
HETATM   19  C   UNL     1     -11.923  13.227  66.337  1.00  0.00    -0.410 A  
HETATM   20  S   UNL     1     -11.303  14.636  65.626  1.00  0.00    -0.335 SA 
HETATM   21  C   UNL     1     -10.532  15.136  67.087  1.00  0.00    -0.280 A  
HETATM   22  C   UNL     1     -10.772  14.213  68.119  1.00  0.00    -0.251 A  
HETATM   23  C   UNL     1     -10.208  14.489  69.394  1.00  0.00    -0.051 A  
HETATM   24  C   UNL     1      -9.441  15.638  69.615  1.00  0.00    -0.243 A  
HETATM   25  C   UNL     1      -9.213  16.530  68.577  1.00  0.00    -0.230 A  
HETATM   26  C   UNL     1      -9.752  16.292  67.311  1.00  0.00    -0.237 A  
HETATM   27 CL   UNL     1      -9.435  17.435  66.055  1.00  0.00    -0.181 Cl 
ENDBRANCH  17  18
ENDBRANCH  16  17
ENDBRANCH   9  16
ENDBRANCH   6   9
TORSDOF 6
ENDMDL
MODEL      145
REMARK 921   NORMALIZED FREE ENERGY PREDICTED BY IDOCK:   -5.02 KCAL/MOL
REMARK 922        TOTAL FREE ENERGY PREDICTED BY IDOCK:   -7.82 KCAL/MOL
REMARK 923 INTER-LIGAND FREE ENERGY PREDICTED BY IDOCK:   -6.94 KCAL/MOL
REMARK 924 INTRA-LIGAND FREE ENERGY PREDICTED BY IDOCK:   -0.88 KCAL/MOL
REMARK 927      BINDING AFFINITY PREDICTED BY RF-SCORE:    0.00 PKD
ROOT
HETATM    1 CL   UNL     1     -12.489  13.193  63.208  1.00  0.00    -0.403 Cl 
HETATM    2  C   UNL     1     -11.459  12.301  64.257  1.00  0.00    -0.362 A  
HETATM    3  C   UNL     1     -10.545  11.392  63.728  1.00  0.00    -0.464 A  
HETATM    4  C   UNL     1      -9.705  10.670  64.581  1.00  0.00    -0.302 A  
HETATM    5 CL   UNL     1      -8.607   9.550  63.860  1.00  0.00    -0.206 Cl 
HETATM    6  C   UNL     1      -9.763  10.858  65.972  1.00  0.00    -0.268 A  
HETATM    7  C   UNL     1     -10.688  11.795  66.479  1.00  0.00    -0.304 A  
HETATM    8  C   UNL     1     -11.541  12.499  65.630  1.00  0.00    -0.435 A  
ENDROOT
BRANCH   6   9
HETATM    9  C   UNL     1      -8.847  10.112  66.938  1.00  0.00    -0.132 C  
BRANCH   9  10
HETATM   10  C   UNL     1      -9.060  10.677  68.357  1.00  0.00    -0.156 C  
BRANCH  10  11
HETATM   11  N   UNL     1      -7.822  11.017  69.029  1.00  0.00    -0.141 NA 
HETATM   12  C   UNL     1      -7.133  10.239  69.918  1.00  0.00    -0.152 A  
HETATM   13  C   UNL     1      -7.087  12.151  68.814  1.00  0.00    -0.110 A  
HETATM   14  N   UNL     1      -5.996  12.157  69.543  1.00  0.00    -0.094 NA 
HETATM   15  C   UNL     1      -6.013  10.973  70.232  1.00  0.00    -0.139 A  
ENDBRANCH  10  11
ENDBRANCH   9  10
BRANCH   9  16
HETATM   16  O   UNL     1      -9.181   8.713  66.947  1.00  0.00    -0.146 OA 
BRANCH  16  17
HETATM   17  C   UNL     1     -10.529   8.450  67.357  1.00  0.00    -0.283 C  
BRANCH  17  18
HETATM   18  C   UNL     1     -10.551   7.460  68.482  1.00  0.00    -0.188 A  
HETATM   19  C   UNL     1     -10.215   6.130  68.326  1.00  0.00    -0.175 A  
HETATM   20  S   UNL     1     -10.341   5.237  69.762  1.00  0.00    -0.265 SA 
HETATM   21  C   UNL     1     -10.863   6.609  70.670  1.00  0.00    -0.253 A  
HETATM   22  C   UNL     1     -10.925   7.752  69.855  1.00  0.00    -0.194 A  
HETATM   23  C   UNL     1     -11.332   8.972  70.460  1.00  0.00    -0.282 A  
HETATM   24  C   UNL     1     -11.661   9.033  71.818  1.00  0.00    -0.440 A  
HETATM   25  C   UNL     1     -11.600   7.889  72.599  1.00  0.00    -0.435 A  
HETATM   26  C   UNL     1     -11.203   6.672  72.039  1.00  0.00    -0.266 A  
HETATM   27 CL   UNL     1     -11.145   5.279  73.057  1.00  0.00    -0.349 Cl 
ENDBRANCH  17  18
ENDBRANCH  16  17
ENDBRANCH   9  16
ENDBRANCH   6   9
TORSDOF 6
ENDMDL
MODEL      146
REMARK 921   NORMALIZED FREE ENERGY PREDICTED BY IDOCK:   -5.01 KCAL/MOL
REMARK 922        TOTAL FREE ENERGY PREDICTED BY IDOCK:   -7.82 KCAL/MOL
REMARK 923 INTER-LIGAND FREE ENERGY PREDICTED BY IDOCK:   -6.78 KCAL/MOL
REMARK 924 INTRA-LIGAND FREE ENERGY PREDICTED BY IDOCK:   -1.03 KCAL/MOL
REMARK 927      BINDING AFFINITY PREDICTED BY RF-SCORE:    0.00 PKD
ROOT
HETATM    1 CL   UNL     1     -10.539   7.491  73.437  1.00  0.00    -0.431 Cl 
HETATM    2  C   UNL     1     -10.415   8.539  72.079  1.00  0.00    -0.336 A  
HETATM    3  C   UNL     1      -9.197   8.683  71.419  1.00  0.00    -0.303 A  
HETATM    4  C   UNL     1      -9.099   9.532  70.313  1.00  0.00    -0.253 A  
HETATM    5 CL   UNL     1      -7.556   9.674  69.551  1.00  0.00    -0.093 Cl 
HETATM    6  C   UNL     1     -10.220  10.238  69.848  1.00  0.00    -0.250 A  
HETATM    7  C   UNL     1     -11.444  10.064  70.528  1.00  0.00    -0.407 A  
HETATM    8  C   UNL     1     -11.538   9.234  71.645  1.00  0.00    -0.463 A  
ENDROOT
BRANCH   6   9
HETATM    9  C   UNL     1     -10.166  11.155  68.629  1.00  0.00    -0.205 C  
BRANCH   9  10
HETATM   10  C   UNL     1     -10.953  10.496  67.480  1.00  0.00    -0.303 C  
BRANCH  10  11
HETATM   11  N   UNL     1     -10.106   9.804  66.530  1.00  0.00    -0.236 NA 
HETATM   12  C   UNL     1      -9.505  10.340  65.424  1.00  0.00    -0.232 A  
HETATM   13  C   UNL     1      -9.693   8.503  66.634  1.00  0.00    -0.249 A  
HETATM   14  N   UNL     1      -8.901   8.172  65.641  1.00  0.00    -0.153 NA 
HETATM   15  C   UNL     1      -8.776   9.307  64.883  1.00  0.00    -0.192 A  
ENDBRANCH  10  11
ENDBRANCH   9  10
BRANCH   9  16
HETATM   16  O   UNL     1     -10.779  12.419  68.939  1.00  0.00    -0.222 OA 
BRANCH  16  17
HETATM   17  C   UNL     1     -11.051  13.220  67.782  1.00  0.00    -0.265 C  
BRANCH  17  18
HETATM   18  C   UNL     1     -10.532  14.613  67.976  1.00  0.00    -0.236 A  
HETATM   19  C   UNL     1     -11.337  15.733  67.927  1.00  0.00    -0.277 A  
HETATM   20  S   UNL     1     -10.482  17.179  68.167  1.00  0.00    -0.379 SA 
HETATM   21  C   UNL     1      -8.974  16.357  68.345  1.00  0.00    -0.214 A  
HETATM   22  C   UNL     1      -9.147  14.967  68.228  1.00  0.00    -0.182 A  
HETATM   23  C   UNL     1      -7.993  14.147  68.360  1.00  0.00    -0.142 A  
HETATM   24  C   UNL     1      -6.732  14.703  68.596  1.00  0.00    -0.086 A  
HETATM   25  C   UNL     1      -6.587  16.078  68.700  1.00  0.00    -0.123 A  
HETATM   26  C   UNL     1      -7.698  16.916  68.576  1.00  0.00    -0.227 A  
HETATM   27 CL   UNL     1      -7.461  18.621  68.713  1.00  0.00    -0.324 Cl 
ENDBRANCH  17  18
ENDBRANCH  16  17
ENDBRANCH   9  16
ENDBRANCH   6   9
TORSDOF 6
ENDMDL
MODEL      147
REMARK 921   NORMALIZED FREE ENERGY PREDICTED BY IDOCK:   -5.00 KCAL/MOL
REMARK 922        TOTAL FREE ENERGY PREDICTED BY IDOCK:   -7.79 KCAL/MOL
REMARK 923 INTER-LIGAND FREE ENERGY PREDICTED BY IDOCK:   -7.11 KCAL/MOL
REMARK 924 INTRA-LIGAND FREE ENERGY PREDICTED BY IDOCK:   -0.68 KCAL/MOL
REMARK 927      BINDING AFFINITY PREDICTED BY RF-SCORE:    0.00 PKD
ROOT
HETATM    1 CL   UNL     1      -7.062   6.145  65.850  1.00  0.00    -0.068 Cl 
HETATM    2  C   UNL     1      -8.130   7.215  66.668  1.00  0.00    -0.109 A  
HETATM    3  C   UNL     1      -7.636   8.378  67.254  1.00  0.00    -0.097 A  
HETATM    4  C   UNL     1      -8.506   9.250  67.916  1.00  0.00    -0.117 A  
HETATM    5 CL   UNL     1      -7.825  10.665  68.633  1.00  0.00    -0.113 Cl 
HETATM    6  C   UNL     1      -9.881   8.974  67.987  1.00  0.00    -0.197 A  
HETATM    7  C   UNL     1     -10.356   7.796  67.372  1.00  0.00    -0.354 A  
HETATM    8  C   UNL     1      -9.486   6.914  66.732  1.00  0.00    -0.204 A  
ENDROOT
BRANCH   6   9
HETATM    9  C   UNL     1     -10.871   9.910  68.675  1.00  0.00    -0.209 C  
BRANCH   9  10
HETATM   10  C   UNL     1     -10.573   9.920  70.187  1.00  0.00    -0.297 C  
BRANCH  10  11
HETATM   11  N   UNL     1     -10.821   8.644  70.827  1.00  0.00    -0.222 NA 
HETATM   12  C   UNL     1      -9.913   7.876  71.502  1.00  0.00    -0.173 A  
HETATM   13  C   UNL     1     -12.041   8.032  70.934  1.00  0.00    -0.152 A  
HETATM   14  N   UNL     1     -11.953   6.906  71.601  1.00  0.00    -0.320 NA 
HETATM   15  C   UNL     1     -10.634   6.799  71.960  1.00  0.00    -0.213 A  
ENDBRANCH  10  11
ENDBRANCH   9  10
BRANCH   9  16
HETATM   16  O   UNL     1     -10.713  11.247  68.167  1.00  0.00    -0.184 OA 
BRANCH  16  17
HETATM   17  C   UNL     1     -11.933  11.999  68.151  1.00  0.00    -0.163 C  
BRANCH  17  18
HETATM   18  C   UNL     1     -11.784  13.257  68.953  1.00  0.00    -0.369 A  
HETATM   19  C   UNL     1     -11.137  14.381  68.482  1.00  0.00    -0.253 A  
HETATM   20  S   UNL     1     -11.107  15.652  69.606  1.00  0.00    -0.331 SA 
HETATM   21  C   UNL     1     -11.967  14.738  70.791  1.00  0.00    -0.310 A  
HETATM   22  C   UNL     1     -12.282  13.459  70.302  1.00  0.00    -0.405 A  
HETATM   23  C   UNL     1     -13.002  12.584  71.161  1.00  0.00    -0.237 A  
HETATM   24  C   UNL     1     -13.382  12.982  72.447  1.00  0.00    -0.563 A  
HETATM   25  C   UNL     1     -13.053  14.248  72.908  1.00  0.00    -0.589 A  
HETATM   26  C   UNL     1     -12.347  15.135  72.092  1.00  0.00    -0.358 A  
HETATM   27 CL   UNL     1     -11.962  16.698  72.717  1.00  0.00    -0.505 Cl 
ENDBRANCH  17  18
ENDBRANCH  16  17
ENDBRANCH   9  16
ENDBRANCH   6   9
TORSDOF 6
ENDMDL
MODEL      148
REMARK 921   NORMALIZED FREE ENERGY PREDICTED BY IDOCK:   -5.00 KCAL/MOL
REMARK 922        TOTAL FREE ENERGY PREDICTED BY IDOCK:   -7.79 KCAL/MOL
REMARK 923 INTER-LIGAND FREE ENERGY PREDICTED BY IDOCK:   -6.87 KCAL/MOL
REMARK 924 INTRA-LIGAND FREE ENERGY PREDICTED BY IDOCK:   -0.93 KCAL/MOL
REMARK 927      BINDING AFFINITY PREDICTED BY RF-SCORE:    0.00 PKD
ROOT
HETATM    1 CL   UNL     1     -10.243   5.054  70.080  1.00  0.00    -0.336 Cl 
HETATM    2  C   UNL     1      -9.950   6.469  69.148  1.00  0.00    -0.146 A  
HETATM    3  C   UNL     1      -8.867   7.291  69.452  1.00  0.00    -0.137 A  
HETATM    4  C   UNL     1      -8.627   8.439  68.691  1.00  0.00    -0.132 A  
HETATM    5 CL   UNL     1      -7.275   9.420  69.132  1.00  0.00    -0.065 Cl 
HETATM    6  C   UNL     1      -9.461   8.771  67.612  1.00  0.00    -0.168 A  
HETATM    7  C   UNL     1     -10.542   7.914  67.318  1.00  0.00    -0.365 A  
HETATM    8  C   UNL     1     -10.796   6.781  68.090  1.00  0.00    -0.296 A  
ENDROOT
BRANCH   6   9
HETATM    9  C   UNL     1      -9.221   9.999  66.738  1.00  0.00    -0.148 C  
BRANCH   9  10
HETATM   10  C   UNL     1      -9.863   9.757  65.357  1.00  0.00    -0.295 C  
BRANCH  10  11
HETATM   11  N   UNL     1      -8.958  10.007  64.254  1.00  0.00    -0.215 NA 
HETATM   12  C   UNL     1      -9.295  10.421  62.995  1.00  0.00    -0.319 A  
HETATM   13  C   UNL     1      -7.592   9.952  64.319  1.00  0.00    -0.139 A  
HETATM   14  N   UNL     1      -7.046  10.266  63.168  1.00  0.00    -0.132 NA 
HETATM   15  C   UNL     1      -8.096  10.561  62.338  1.00  0.00    -0.184 A  
ENDBRANCH  10  11
ENDBRANCH   9  10
BRANCH   9  16
HETATM   16  O   UNL     1      -9.840  11.153  67.335  1.00  0.00    -0.172 OA 
BRANCH  16  17
HETATM   17  C   UNL     1     -10.963  11.646  66.593  1.00  0.00    -0.299 C  
BRANCH  17  18
HETATM   18  C   UNL     1     -10.848  13.127  66.392  1.00  0.00    -0.299 A  
HETATM   19  C   UNL     1     -10.721  13.714  65.149  1.00  0.00    -0.353 A  
HETATM   20  S   UNL     1     -10.598  15.404  65.220  1.00  0.00    -0.439 SA 
HETATM   21  C   UNL     1     -10.707  15.426  66.942  1.00  0.00    -0.314 A  
HETATM   22  C   UNL     1     -10.849  14.123  67.450  1.00  0.00    -0.291 A  
HETATM   23  C   UNL     1     -10.960  13.973  68.859  1.00  0.00    -0.283 A  
HETATM   24  C   UNL     1     -10.928  15.082  69.710  1.00  0.00    -0.291 A  
HETATM   25  C   UNL     1     -10.779  16.356  69.185  1.00  0.00    -0.317 A  
HETATM   26  C   UNL     1     -10.668  16.543  67.806  1.00  0.00    -0.329 A  
HETATM   27 CL   UNL     1     -10.483  18.151  67.206  1.00  0.00    -0.403 Cl 
ENDBRANCH  17  18
ENDBRANCH  16  17
ENDBRANCH   9  16
ENDBRANCH   6   9
TORSDOF 6
ENDMDL
MODEL      149
REMARK 921   NORMALIZED FREE ENERGY PREDICTED BY IDOCK:   -4.95 KCAL/MOL
REMARK 922        TOTAL FREE ENERGY PREDICTED BY IDOCK:   -7.74 KCAL/MOL
REMARK 923 INTER-LIGAND FREE ENERGY PREDICTED BY IDOCK:   -7.31 KCAL/MOL
REMARK 924 INTRA-LIGAND FREE ENERGY PREDICTED BY IDOCK:   -0.42 KCAL/MOL
REMARK 927      BINDING AFFINITY PREDICTED BY RF-SCORE:    0.00 PKD
ROOT
HETATM    1 CL   UNL     1      -9.222   7.452  73.884  1.00  0.00    -0.294 Cl 
HETATM    2  C   UNL     1      -9.522   8.347  72.447  1.00  0.00    -0.295 A  
HETATM    3  C   UNL     1     -10.797   8.849  72.194  1.00  0.00    -0.339 A  
HETATM    4  C   UNL     1     -11.040   9.581  71.027  1.00  0.00    -0.363 A  
HETATM    5 CL   UNL     1     -12.645  10.160  70.768  1.00  0.00    -0.407 Cl 
HETATM    6  C   UNL     1     -10.007   9.828  70.108  1.00  0.00    -0.315 A  
HETATM    7  C   UNL     1      -8.723   9.320  70.396  1.00  0.00    -0.263 A  
HETATM    8  C   UNL     1      -8.485   8.571  71.548  1.00  0.00    -0.221 A  
ENDROOT
BRANCH   6   9
HETATM    9  C   UNL     1     -10.220  10.644  68.836  1.00  0.00    -0.201 C  
BRANCH   9  10
HETATM   10  C   UNL     1     -10.915   9.753  67.787  1.00  0.00    -0.180 C  
BRANCH  10  11
HETATM   11  N   UNL     1     -10.088   9.484  66.627  1.00  0.00    -0.243 NA 
HETATM   12  C   UNL     1      -9.273   8.403  66.435  1.00  0.00    -0.201 A  
HETATM   13  C   UNL     1     -10.055  10.237  65.484  1.00  0.00    -0.281 A  
HETATM   14  N   UNL     1      -9.238   9.720  64.597  1.00  0.00    -0.250 NA 
HETATM   15  C   UNL     1      -8.748   8.579  65.176  1.00  0.00    -0.120 A  
ENDBRANCH  10  11
ENDBRANCH   9  10
BRANCH   9  16
HETATM   16  O   UNL     1     -11.069  11.771  69.114  1.00  0.00    -0.232 OA 
BRANCH  16  17
HETATM   17  C   UNL     1     -11.784  12.244  67.965  1.00  0.00    -0.356 C  
BRANCH  17  18
HETATM   18  C   UNL     1     -11.279  13.595  67.553  1.00  0.00    -0.316 A  
HETATM   19  C   UNL     1     -10.913  13.902  66.259  1.00  0.00    -0.298 A  
HETATM   20  S   UNL     1     -10.367  15.499  66.082  1.00  0.00    -0.334 SA 
HETATM   21  C   UNL     1     -10.595  15.852  67.757  1.00  0.00    -0.302 A  
HETATM   22  C   UNL     1     -11.104  14.733  68.438  1.00  0.00    -0.274 A  
HETATM   23  C   UNL     1     -11.356  14.868  69.830  1.00  0.00    -0.311 A  
HETATM   24  C   UNL     1     -11.105  16.070  70.499  1.00  0.00    -0.370 A  
HETATM   25  C   UNL     1     -10.595  17.157  69.805  1.00  0.00     0.095 A  
HETATM   26  C   UNL     1     -10.336  17.063  68.436  1.00  0.00    -0.351 A  
HETATM   27 CL   UNL     1      -9.701  18.447  67.622  1.00  0.00    -0.292 Cl 
ENDBRANCH  17  18
ENDBRANCH  16  17
ENDBRANCH   9  16
ENDBRANCH   6   9
TORSDOF 6
ENDMDL
MODEL      150
REMARK 921   NORMALIZED FREE ENERGY PREDICTED BY IDOCK:   -4.94 KCAL/MOL
REMARK 922        TOTAL FREE ENERGY PREDICTED BY IDOCK:   -7.72 KCAL/MOL
REMARK 923 INTER-LIGAND FREE ENERGY PREDICTED BY IDOCK:   -6.71 KCAL/MOL
REMARK 924 INTRA-LIGAND FREE ENERGY PREDICTED BY IDOCK:   -1.01 KCAL/MOL
REMARK 927      BINDING AFFINITY PREDICTED BY RF-SCORE:    0.00 PKD
ROOT
HETATM    1 CL   UNL     1     -12.282  14.279  66.503  1.00  0.00    -0.462 Cl 
HETATM    2  C   UNL     1     -11.606  12.698  66.480  1.00  0.00    -0.381 A  
HETATM    3  C   UNL     1     -11.016  12.210  65.317  1.00  0.00    -0.349 A  
HETATM    4  C   UNL     1     -10.463  10.926  65.301  1.00  0.00    -0.230 A  
HETATM    5 CL   UNL     1      -9.761  10.378  63.821  1.00  0.00    -0.363 Cl 
HETATM    6  C   UNL     1     -10.486  10.121  66.451  1.00  0.00    -0.210 A  
HETATM    7  C   UNL     1     -11.078  10.646  67.619  1.00  0.00    -0.385 A  
HETATM    8  C   UNL     1     -11.649  11.918  67.630  1.00  0.00    -0.382 A  
ENDROOT
BRANCH   6   9
HETATM    9  C   UNL     1      -9.871   8.724  66.487  1.00  0.00    -0.279 C  
BRANCH   9  10
HETATM   10  C   UNL     1      -8.547   8.787  67.273  1.00  0.00    -0.121 C  
BRANCH  10  11
HETATM   11  N   UNL     1      -7.478   9.437  66.541  1.00  0.00    -0.093 NA 
HETATM   12  C   UNL     1      -6.902   9.006  65.378  1.00  0.00    -0.073 A  
HETATM   13  C   UNL     1      -6.923  10.648  66.854  1.00  0.00    -0.100 A  
HETATM   14  N   UNL     1      -6.004  10.991  65.983  1.00  0.00    -0.134 NA 
HETATM   15  C   UNL     1      -5.983   9.979  65.059  1.00  0.00    -0.107 A  
ENDBRANCH  10  11
ENDBRANCH   9  10
BRANCH   9  16
HETATM   16  O   UNL     1     -10.761   7.815  67.160  1.00  0.00    -0.333 OA 
BRANCH  16  17
HETATM   17  C   UNL     1     -10.090   6.697  67.754  1.00  0.00    -0.148 C  
BRANCH  17  18
HETATM   18  C   UNL     1     -10.461   6.573  69.202  1.00  0.00    -0.260 A  
HETATM   19  C   UNL     1     -11.092   7.577  69.909  1.00  0.00    -0.171 A  
HETATM   20  S   UNL     1     -11.378   7.170  71.531  1.00  0.00    -0.267 SA 
HETATM   21  C   UNL     1     -10.655   5.612  71.357  1.00  0.00    -0.253 A  
HETATM   22  C   UNL     1     -10.207   5.414  70.040  1.00  0.00    -0.349 A  
HETATM   23  C   UNL     1      -9.593   4.170  69.733  1.00  0.00    -0.281 A  
HETATM   24  C   UNL     1      -9.438   3.178  70.706  1.00  0.00    -0.231 A  
HETATM   25  C   UNL     1      -9.882   3.401  72.001  1.00  0.00    -0.239 A  
HETATM   26  C   UNL     1     -10.491   4.611  72.340  1.00  0.00    -0.185 A  
HETATM   27 CL   UNL     1     -11.024   4.837  73.967  1.00  0.00    -0.325 Cl 
ENDBRANCH  17  18
ENDBRANCH  16  17
ENDBRANCH   9  16
ENDBRANCH   6   9
TORSDOF 6
ENDMDL
MODEL      151
REMARK 921   NORMALIZED FREE ENERGY PREDICTED BY IDOCK:   -4.94 KCAL/MOL
REMARK 922        TOTAL FREE ENERGY PREDICTED BY IDOCK:   -7.72 KCAL/MOL
REMARK 923 INTER-LIGAND FREE ENERGY PREDICTED BY IDOCK:   -7.29 KCAL/MOL
REMARK 924 INTRA-LIGAND FREE ENERGY PREDICTED BY IDOCK:   -0.43 KCAL/MOL
REMARK 927      BINDING AFFINITY PREDICTED BY RF-SCORE:    0.00 PKD
ROOT
HETATM    1 CL   UNL     1      -8.729   3.809  64.490  1.00  0.00    -0.111 Cl 
HETATM    2  C   UNL     1      -9.251   5.124  65.468  1.00  0.00    -0.136 A  
HETATM    3  C   UNL     1      -8.462   6.267  65.576  1.00  0.00    -0.145 A  
HETATM    4  C   UNL     1      -8.889   7.337  66.368  1.00  0.00    -0.149 A  
HETATM    5 CL   UNL     1      -7.856   8.716  66.471  1.00  0.00    -0.098 Cl 
HETATM    6  C   UNL     1     -10.116   7.279  67.050  1.00  0.00    -0.316 A  
HETATM    7  C   UNL     1     -10.901   6.115  66.911  1.00  0.00    -0.411 A  
HETATM    8  C   UNL     1     -10.465   5.039  66.140  1.00  0.00    -0.334 A  
ENDROOT
BRANCH   6   9
HETATM    9  C   UNL     1     -10.634   8.434  67.904  1.00  0.00    -0.154 C  
BRANCH   9  10
HETATM   10  C   UNL     1      -9.736   8.570  69.149  1.00  0.00    -0.170 C  
BRANCH  10  11
HETATM   11  N   UNL     1     -10.411   8.214  70.382  1.00  0.00    -0.202 NA 
HETATM   12  C   UNL     1     -11.236   7.143  70.584  1.00  0.00    -0.280 A  
HETATM   13  C   UNL     1     -10.260   8.854  71.582  1.00  0.00    -0.345 A  
HETATM   14  N   UNL     1     -10.971   8.277  72.522  1.00  0.00    -0.358 NA 
HETATM   15  C   UNL     1     -11.581   7.212  71.914  1.00  0.00    -0.278 A  
ENDBRANCH  10  11
ENDBRANCH   9  10
BRANCH   9  16
HETATM   16  O   UNL     1     -10.570   9.661  67.157  1.00  0.00    -0.256 OA 
BRANCH  16  17
HETATM   17  C   UNL     1     -11.339  10.723  67.737  1.00  0.00    -0.279 C  
BRANCH  17  18
HETATM   18  C   UNL     1     -11.117  12.001  66.986  1.00  0.00    -0.351 A  
HETATM   19  C   UNL     1     -10.823  12.045  65.638  1.00  0.00    -0.282 A  
HETATM   20  S   UNL     1     -10.610  13.624  65.054  1.00  0.00    -0.404 SA 
HETATM   21  C   UNL     1     -10.901  14.328  66.603  1.00  0.00    -0.301 A  
HETATM   22  C   UNL     1     -11.174  13.335  67.559  1.00  0.00    -0.309 A  
HETATM   23  C   UNL     1     -11.445  13.757  68.889  1.00  0.00    -0.344 A  
HETATM   24  C   UNL     1     -11.440  15.113  69.234  1.00  0.00    -0.327 A  
HETATM   25  C   UNL     1     -11.161  16.072  68.273  1.00  0.00    -0.351 A  
HETATM   26  C   UNL     1     -10.891  15.695  66.956  1.00  0.00    -0.294 A  
HETATM   27 CL   UNL     1     -10.548  16.932  65.800  1.00  0.00    -0.302 Cl 
ENDBRANCH  17  18
ENDBRANCH  16  17
ENDBRANCH   9  16
ENDBRANCH   6   9
TORSDOF 6
ENDMDL
MODEL      152
REMARK 921   NORMALIZED FREE ENERGY PREDICTED BY IDOCK:   -4.94 KCAL/MOL
REMARK 922        TOTAL FREE ENERGY PREDICTED BY IDOCK:   -7.72 KCAL/MOL
REMARK 923 INTER-LIGAND FREE ENERGY PREDICTED BY IDOCK:   -6.85 KCAL/MOL
REMARK 924 INTRA-LIGAND FREE ENERGY PREDICTED BY IDOCK:   -0.86 KCAL/MOL
REMARK 927      BINDING AFFINITY PREDICTED BY RF-SCORE:    0.00 PKD
ROOT
HETATM    1 CL   UNL     1      -5.625   8.004  67.861  1.00  0.00    -0.033 Cl 
HETATM    2  C   UNL     1      -7.171   8.415  68.491  1.00  0.00    -0.081 A  
HETATM    3  C   UNL     1      -8.301   7.717  68.072  1.00  0.00    -0.124 A  
HETATM    4  C   UNL     1      -9.557   8.048  68.589  1.00  0.00    -0.148 A  
HETATM    5 CL   UNL     1     -10.918   7.153  68.015  1.00  0.00    -0.175 Cl 
HETATM    6  C   UNL     1      -9.695   9.074  69.538  1.00  0.00    -0.171 A  
HETATM    7  C   UNL     1      -8.532   9.756  69.954  1.00  0.00    -0.217 A  
HETATM    8  C   UNL     1      -7.281   9.441  69.423  1.00  0.00    -0.066 A  
ENDROOT
BRANCH   6   9
HETATM    9  C   UNL     1     -11.042   9.452  70.148  1.00  0.00    -0.242 C  
BRANCH   9  10
HETATM   10  C   UNL     1     -10.954   9.289  71.678  1.00  0.00    -0.363 C  
BRANCH  10  11
HETATM   11  N   UNL     1     -10.985   7.906  72.108  1.00  0.00    -0.260 NA 
HETATM   12  C   UNL     1     -10.281   7.353  73.142  1.00  0.00    -0.312 A  
HETATM   13  C   UNL     1     -11.802   6.933  71.597  1.00  0.00    -0.324 A  
HETATM   14  N   UNL     1     -11.627   5.790  72.217  1.00  0.00    -0.277 NA 
HETATM   15  C   UNL     1     -10.685   6.039  73.180  1.00  0.00    -0.260 A  
ENDBRANCH  10  11
ENDBRANCH   9  10
BRANCH   9  16
HETATM   16  O   UNL     1     -11.346  10.826  69.850  1.00  0.00    -0.265 OA 
BRANCH  16  17
HETATM   17  C   UNL     1     -11.825  11.028  68.514  1.00  0.00    -0.216 C  
BRANCH  17  18
HETATM   18  C   UNL     1     -11.490  12.411  68.041  1.00  0.00    -0.377 A  
HETATM   19  C   UNL     1     -10.964  12.676  66.793  1.00  0.00    -0.262 A  
HETATM   20  S   UNL     1     -10.671  14.326  66.530  1.00  0.00    -0.302 SA 
HETATM   21  C   UNL     1     -11.238  14.764  68.100  1.00  0.00    -0.294 A  
HETATM   22  C   UNL     1     -11.662  13.629  68.812  1.00  0.00    -0.383 A  
HETATM   23  C   UNL     1     -12.168  13.826  70.126  1.00  0.00    -0.425 A  
HETATM   24  C   UNL     1     -12.240  15.104  70.691  1.00  0.00    -0.401 A  
HETATM   25  C   UNL     1     -11.808  16.207  69.970  1.00  0.00    -0.129 A  
HETATM   26  C   UNL     1     -11.306  16.052  68.676  1.00  0.00    -0.383 A  
HETATM   27 CL   UNL     1     -10.781  17.459  67.823  1.00  0.00    -0.365 Cl 
ENDBRANCH  17  18
ENDBRANCH  16  17
ENDBRANCH   9  16
ENDBRANCH   6   9
TORSDOF 6
ENDMDL
MODEL      153
REMARK 921   NORMALIZED FREE ENERGY PREDICTED BY IDOCK:   -4.93 KCAL/MOL
REMARK 922        TOTAL FREE ENERGY PREDICTED BY IDOCK:   -7.70 KCAL/MOL
REMARK 923 INTER-LIGAND FREE ENERGY PREDICTED BY IDOCK:   -7.11 KCAL/MOL
REMARK 924 INTRA-LIGAND FREE ENERGY PREDICTED BY IDOCK:   -0.59 KCAL/MOL
REMARK 927      BINDING AFFINITY PREDICTED BY RF-SCORE:    0.00 PKD
ROOT
HETATM    1 CL   UNL     1     -11.753  15.709  64.206  1.00  0.00    -0.294 Cl 
HETATM    2  C   UNL     1     -11.218  14.300  65.035  1.00  0.00    -0.364 A  
HETATM    3  C   UNL     1     -10.186  14.390  65.966  1.00  0.00    -0.328 A  
HETATM    4  C   UNL     1      -9.754  13.246  66.642  1.00  0.00    -0.270 A  
HETATM    5 CL   UNL     1      -8.460  13.426  67.771  1.00  0.00    -0.167 Cl 
HETATM    6  C   UNL     1     -10.358  12.000  66.403  1.00  0.00    -0.246 A  
HETATM    7  C   UNL     1     -11.410  11.941  65.465  1.00  0.00    -0.334 A  
HETATM    8  C   UNL     1     -11.826  13.078  64.773  1.00  0.00    -0.409 A  
ENDROOT
BRANCH   6   9
HETATM    9  C   UNL     1      -9.937  10.730  67.137  1.00  0.00    -0.194 C  
BRANCH   9  10
HETATM   10  C   UNL     1      -8.474  10.411  66.774  1.00  0.00    -0.125 C  
BRANCH  10  11
HETATM   11  N   UNL     1      -8.349   9.445  65.700  1.00  0.00    -0.120 NA 
HETATM   12  C   UNL     1      -8.193   9.716  64.369  1.00  0.00    -0.157 A  
HETATM   13  C   UNL     1      -8.280   8.088  65.857  1.00  0.00    -0.127 A  
HETATM   14  N   UNL     1      -8.131   7.481  64.703  1.00  0.00    -0.128 NA 
HETATM   15  C   UNL     1      -8.073   8.484  63.771  1.00  0.00    -0.154 A  
ENDBRANCH  10  11
ENDBRANCH   9  10
BRANCH   9  16
HETATM   16  O   UNL     1     -10.023  10.936  68.558  1.00  0.00    -0.168 OA 
BRANCH  16  17
HETATM   17  C   UNL     1      -9.369   9.915  69.323  1.00  0.00    -0.206 C  
BRANCH  17  18
HETATM   18  C   UNL     1     -10.361   8.888  69.782  1.00  0.00    -0.213 A  
HETATM   19  C   UNL     1     -10.269   7.550  69.457  1.00  0.00    -0.207 A  
HETATM   20  S   UNL     1     -11.534   6.620  70.100  1.00  0.00    -0.371 SA 
HETATM   21  C   UNL     1     -12.273   7.988  70.848  1.00  0.00    -0.109 A  
HETATM   22  C   UNL     1     -11.528   9.155  70.604  1.00  0.00    -0.310 A  
HETATM   23  C   UNL     1     -12.005  10.371  71.163  1.00  0.00    -0.460 A  
HETATM   24  C   UNL     1     -13.175  10.407  71.929  1.00  0.00    -0.535 A  
HETATM   25  C   UNL     1     -13.896   9.243  72.149  1.00  0.00    -0.478 A  
HETATM   26  C   UNL     1     -13.458   8.029  71.616  1.00  0.00    -0.337 A  
HETATM   27 CL   UNL     1     -14.395   6.611  71.921  1.00  0.00    -0.298 Cl 
ENDBRANCH  17  18
ENDBRANCH  16  17
ENDBRANCH   9  16
ENDBRANCH   6   9
TORSDOF 6
ENDMDL
MODEL      154
REMARK 921   NORMALIZED FREE ENERGY PREDICTED BY IDOCK:   -4.92 KCAL/MOL
REMARK 922        TOTAL FREE ENERGY PREDICTED BY IDOCK:   -7.70 KCAL/MOL
REMARK 923 INTER-LIGAND FREE ENERGY PREDICTED BY IDOCK:   -7.04 KCAL/MOL
REMARK 924 INTRA-LIGAND FREE ENERGY PREDICTED BY IDOCK:   -0.65 KCAL/MOL
REMARK 927      BINDING AFFINITY PREDICTED BY RF-SCORE:    0.00 PKD
ROOT
HETATM    1 CL   UNL     1      -9.337   6.935  74.243  1.00  0.00    -0.254 Cl 
HETATM    2  C   UNL     1      -9.408   7.671  72.691  1.00  0.00    -0.172 A  
HETATM    3  C   UNL     1     -10.484   8.491  72.359  1.00  0.00    -0.367 A  
HETATM    4  C   UNL     1     -10.539   9.093  71.098  1.00  0.00    -0.309 A  
HETATM    5 CL   UNL     1     -11.907  10.086  70.746  1.00  0.00    -0.402 Cl 
HETATM    6  C   UNL     1      -9.513   8.890  70.161  1.00  0.00    -0.198 A  
HETATM    7  C   UNL     1      -8.429   8.065  70.529  1.00  0.00    -0.125 A  
HETATM    8  C   UNL     1      -8.384   7.447  71.778  1.00  0.00    -0.113 A  
ENDROOT
BRANCH   6   9
HETATM    9  C   UNL     1      -9.518   9.547  68.783  1.00  0.00    -0.147 C  
BRANCH   9  10
HETATM   10  C   UNL     1     -10.661   8.937  67.948  1.00  0.00    -0.183 C  
BRANCH  10  11
HETATM   11  N   UNL     1     -10.320   7.655  67.364  1.00  0.00    -0.249 NA 
HETATM   12  C   UNL     1     -11.053   6.503  67.434  1.00  0.00    -0.327 A  
HETATM   13  C   UNL     1      -9.238   7.410  66.564  1.00  0.00    -0.165 A  
HETATM   14  N   UNL     1      -9.219   6.163  66.156  1.00  0.00    -0.155 NA 
HETATM   15  C   UNL     1     -10.343   5.589  66.690  1.00  0.00    -0.269 A  
ENDBRANCH  10  11
ENDBRANCH   9  10
BRANCH   9  16
HETATM   16  O   UNL     1      -9.752  10.961  68.917  1.00  0.00    -0.191 OA 
BRANCH  16  17
HETATM   17  C   UNL     1      -8.852  11.764  68.143  1.00  0.00    -0.169 C  
BRANCH  17  18
HETATM   18  C   UNL     1      -9.603  12.833  67.409  1.00  0.00    -0.199 A  
HETATM   19  C   UNL     1      -9.758  14.117  67.893  1.00  0.00    -0.224 A  
HETATM   20  S   UNL     1     -10.664  15.113  66.862  1.00  0.00    -0.311 SA 
HETATM   21  C   UNL     1     -10.896  13.852  65.707  1.00  0.00    -0.289 A  
HETATM   22  C   UNL     1     -10.260  12.670  66.124  1.00  0.00    -0.272 A  
HETATM   23  C   UNL     1     -10.352  11.536  65.272  1.00  0.00    -0.322 A  
HETATM   24  C   UNL     1     -11.053  11.593  64.063  1.00  0.00    -0.458 A  
HETATM   25  C   UNL     1     -11.678  12.769  63.678  1.00  0.00    -0.587 A  
HETATM   26  C   UNL     1     -11.608  13.904  64.489  1.00  0.00    -0.393 A  
HETATM   27 CL   UNL     1     -12.407  15.342  63.961  1.00  0.00    -0.193 Cl 
ENDBRANCH  17  18
ENDBRANCH  16  17
ENDBRANCH   9  16
ENDBRANCH   6   9
TORSDOF 6
ENDMDL
MODEL      155
REMARK 921   NORMALIZED FREE ENERGY PREDICTED BY IDOCK:   -4.92 KCAL/MOL
REMARK 922        TOTAL FREE ENERGY PREDICTED BY IDOCK:   -7.70 KCAL/MOL
REMARK 923 INTER-LIGAND FREE ENERGY PREDICTED BY IDOCK:   -7.35 KCAL/MOL
REMARK 924 INTRA-LIGAND FREE ENERGY PREDICTED BY IDOCK:   -0.35 KCAL/MOL
REMARK 927      BINDING AFFINITY PREDICTED BY RF-SCORE:    0.00 PKD
ROOT
HETATM    1 CL   UNL     1     -12.409  15.434  64.244  1.00  0.00    -0.256 Cl 
HETATM    2  C   UNL     1     -11.610  13.929  64.471  1.00  0.00    -0.393 A  
HETATM    3  C   UNL     1     -10.646  13.796  65.468  1.00  0.00    -0.312 A  
HETATM    4  C   UNL     1      -9.999  12.571  65.654  1.00  0.00    -0.245 A  
HETATM    5 CL   UNL     1      -8.804  12.480  66.898  1.00  0.00    -0.210 Cl 
HETATM    6  C   UNL     1     -10.318  11.462  64.854  1.00  0.00    -0.347 A  
HETATM    7  C   UNL     1     -11.308  11.621  63.861  1.00  0.00    -0.457 A  
HETATM    8  C   UNL     1     -11.937  12.849  63.659  1.00  0.00    -0.613 A  
ENDROOT
BRANCH   6   9
HETATM    9  C   UNL     1      -9.657  10.099  65.040  1.00  0.00    -0.299 C  
BRANCH   9  10
HETATM   10  C   UNL     1      -8.168  10.313  65.375  1.00  0.00    -0.156 C  
BRANCH  10  11
HETATM   11  N   UNL     1      -7.273   9.775  64.370  1.00  0.00    -0.123 NA 
HETATM   12  C   UNL     1      -7.327   9.997  63.022  1.00  0.00    -0.133 A  
HETATM   13  C   UNL     1      -6.162   9.017  64.621  1.00  0.00    -0.066 A  
HETATM   14  N   UNL     1      -5.532   8.712  63.511  1.00  0.00    -0.063 NA 
HETATM   15  C   UNL     1      -6.247   9.317  62.510  1.00  0.00    -0.093 A  
ENDBRANCH  10  11
ENDBRANCH   9  10
BRANCH   9  16
HETATM   16  O   UNL     1     -10.278   9.400  66.134  1.00  0.00    -0.279 OA 
BRANCH  16  17
HETATM   17  C   UNL     1      -9.425   9.258  67.277  1.00  0.00    -0.144 C  
BRANCH  17  18
HETATM   18  C   UNL     1     -10.228   8.887  68.487  1.00  0.00    -0.223 A  
HETATM   19  C   UNL     1     -10.332   7.594  68.959  1.00  0.00    -0.213 A  
HETATM   20  S   UNL     1     -11.316   7.464  70.335  1.00  0.00    -0.212 SA 
HETATM   21  C   UNL     1     -11.655   9.156  70.357  1.00  0.00    -0.146 A  
HETATM   22  C   UNL     1     -10.994   9.812  69.305  1.00  0.00    -0.222 A  
HETATM   23  C   UNL     1     -11.167  11.218  69.192  1.00  0.00    -0.337 A  
HETATM   24  C   UNL     1     -11.968  11.925  70.095  1.00  0.00    -0.413 A  
HETATM   25  C   UNL     1     -12.616  11.253  71.121  1.00  0.00    -0.501 A  
HETATM   26  C   UNL     1     -12.468   9.871  71.264  1.00  0.00    -0.381 A  
HETATM   27 CL   UNL     1     -13.298   9.086  72.558  1.00  0.00    -0.510 Cl 
ENDBRANCH  17  18
ENDBRANCH  16  17
ENDBRANCH   9  16
ENDBRANCH   6   9
TORSDOF 6
ENDMDL
MODEL      156
REMARK 921   NORMALIZED FREE ENERGY PREDICTED BY IDOCK:   -4.89 KCAL/MOL
REMARK 922        TOTAL FREE ENERGY PREDICTED BY IDOCK:   -7.66 KCAL/MOL
REMARK 923 INTER-LIGAND FREE ENERGY PREDICTED BY IDOCK:   -6.45 KCAL/MOL
REMARK 924 INTRA-LIGAND FREE ENERGY PREDICTED BY IDOCK:   -1.21 KCAL/MOL
REMARK 927      BINDING AFFINITY PREDICTED BY RF-SCORE:    0.00 PKD
ROOT
HETATM    1 CL   UNL     1      -8.240   4.299  64.197  1.00  0.00    -0.095 Cl 
HETATM    2  C   UNL     1      -8.602   5.656  65.188  1.00  0.00    -0.130 A  
HETATM    3  C   UNL     1      -9.511   5.531  66.236  1.00  0.00    -0.171 A  
HETATM    4  C   UNL     1      -9.802   6.634  67.044  1.00  0.00    -0.160 A  
HETATM    5 CL   UNL     1     -10.948   6.412  68.316  1.00  0.00    -0.383 Cl 
HETATM    6  C   UNL     1      -9.177   7.872  66.819  1.00  0.00    -0.206 A  
HETATM    7  C   UNL     1      -8.251   7.967  65.760  1.00  0.00    -0.132 A  
HETATM    8  C   UNL     1      -7.977   6.873  64.939  1.00  0.00    -0.124 A  
ENDROOT
BRANCH   6   9
HETATM    9  C   UNL     1      -9.444   9.095  67.692  1.00  0.00    -0.140 C  
BRANCH   9  10
HETATM   10  C   UNL     1      -8.340   9.188  68.763  1.00  0.00    -0.121 C  
BRANCH  10  11
HETATM   11  N   UNL     1      -8.632   8.415  69.954  1.00  0.00    -0.129 NA 
HETATM   12  C   UNL     1      -9.596   8.680  70.886  1.00  0.00    -0.203 A  
HETATM   13  C   UNL     1      -8.038   7.231  70.297  1.00  0.00    -0.121 A  
HETATM   14  N   UNL     1      -8.540   6.751  71.411  1.00  0.00    -0.124 NA 
HETATM   15  C   UNL     1      -9.510   7.643  71.785  1.00  0.00    -0.145 A  
ENDBRANCH  10  11
ENDBRANCH   9  10
BRANCH   9  16
HETATM   16  O   UNL     1      -9.405  10.288  66.888  1.00  0.00    -0.155 OA 
BRANCH  16  17
HETATM   17  C   UNL     1     -10.695  10.705  66.423  1.00  0.00    -0.129 C  
BRANCH  17  18
HETATM   18  C   UNL     1     -11.109  11.978  67.098  1.00  0.00    -0.344 A  
HETATM   19  C   UNL     1     -11.046  13.213  66.486  1.00  0.00    -0.294 A  
HETATM   20  S   UNL     1     -11.565  14.480  67.487  1.00  0.00    -0.391 SA 
HETATM   21  C   UNL     1     -11.896  13.416  68.806  1.00  0.00    -0.351 A  
HETATM   22  C   UNL     1     -11.613  12.085  68.456  1.00  0.00    -0.363 A  
HETATM   23  C   UNL     1     -11.843  11.082  69.436  1.00  0.00    -0.407 A  
HETATM   24  C   UNL     1     -12.333  11.409  70.706  1.00  0.00    -0.483 A  
HETATM   25  C   UNL     1     -12.597  12.731  71.028  1.00  0.00    -0.362 A  
HETATM   26  C   UNL     1     -12.384  13.743  70.090  1.00  0.00    -0.323 A  
HETATM   27 CL   UNL     1     -12.729  15.373  70.546  1.00  0.00    -0.461 Cl 
ENDBRANCH  17  18
ENDBRANCH  16  17
ENDBRANCH   9  16
ENDBRANCH   6   9
TORSDOF 6
ENDMDL
MODEL      157
REMARK 921   NORMALIZED FREE ENERGY PREDICTED BY IDOCK:   -4.88 KCAL/MOL
REMARK 922        TOTAL FREE ENERGY PREDICTED BY IDOCK:   -7.63 KCAL/MOL
REMARK 923 INTER-LIGAND FREE ENERGY PREDICTED BY IDOCK:   -7.18 KCAL/MOL
REMARK 924 INTRA-LIGAND FREE ENERGY PREDICTED BY IDOCK:   -0.45 KCAL/MOL
REMARK 927      BINDING AFFINITY PREDICTED BY RF-SCORE:    0.00 PKD
ROOT
HETATM    1 CL   UNL     1      -6.151   8.346  62.835  1.00  0.00    -0.085 Cl 
HETATM    2  C   UNL     1      -7.054   9.265  63.973  1.00  0.00    -0.098 A  
HETATM    3  C   UNL     1      -6.393  10.068  64.901  1.00  0.00    -0.118 A  
HETATM    4  C   UNL     1      -7.128  10.818  65.823  1.00  0.00    -0.053 A  
HETATM    5 CL   UNL     1      -6.246  11.780  66.954  1.00  0.00    -0.149 Cl 
HETATM    6  C   UNL     1      -8.532  10.782  65.821  1.00  0.00    -0.174 A  
HETATM    7  C   UNL     1      -9.176   9.972  64.862  1.00  0.00    -0.291 A  
HETATM    8  C   UNL     1      -8.443   9.206  63.956  1.00  0.00    -0.195 A  
ENDROOT
BRANCH   6   9
HETATM    9  C   UNL     1      -9.375  11.605  66.791  1.00  0.00    -0.186 C  
BRANCH   9  10
HETATM   10  C   UNL     1      -9.714  12.956  66.130  1.00  0.00    -0.248 C  
BRANCH  10  11
HETATM   11  N   UNL     1     -10.894  12.902  65.292  1.00  0.00    -0.287 NA 
HETATM   12  C   UNL     1     -10.929  12.743  63.934  1.00  0.00    -0.417 A  
HETATM   13  C   UNL     1     -12.188  12.915  65.740  1.00  0.00    -0.439 A  
HETATM   14  N   UNL     1     -13.038  12.815  64.745  1.00  0.00    -0.836 NA 
HETATM   15  C   UNL     1     -12.267  12.706  63.618  1.00  0.00    -0.536 A  
ENDBRANCH  10  11
ENDBRANCH   9  10
BRANCH   9  16
HETATM   16  O   UNL     1     -10.605  10.915  67.078  1.00  0.00    -0.232 OA 
BRANCH  16  17
HETATM   17  C   UNL     1     -10.802  10.658  68.474  1.00  0.00    -0.233 C  
BRANCH  17  18
HETATM   18  C   UNL     1     -10.639   9.196  68.766  1.00  0.00    -0.208 A  
HETATM   19  C   UNL     1     -10.384   8.254  67.790  1.00  0.00    -0.234 A  
HETATM   20  S   UNL     1     -10.259   6.677  68.403  1.00  0.00    -0.185 SA 
HETATM   21  C   UNL     1     -10.550   7.193  70.024  1.00  0.00    -0.232 A  
HETATM   22  C   UNL     1     -10.730   8.585  70.081  1.00  0.00    -0.240 A  
HETATM   23  C   UNL     1     -10.971   9.167  71.355  1.00  0.00    -0.414 A  
HETATM   24  C   UNL     1     -11.029   8.383  72.511  1.00  0.00    -0.388 A  
HETATM   25  C   UNL     1     -10.856   7.010  72.427  1.00  0.00    -0.272 A  
HETATM   26  C   UNL     1     -10.616   6.402  71.193  1.00  0.00    -0.236 A  
HETATM   27 CL   UNL     1     -10.408   4.688  71.146  1.00  0.00    -0.200 Cl 
ENDBRANCH  17  18
ENDBRANCH  16  17
ENDBRANCH   9  16
ENDBRANCH   6   9
TORSDOF 6
ENDMDL
MODEL      158
REMARK 921   NORMALIZED FREE ENERGY PREDICTED BY IDOCK:   -4.87 KCAL/MOL
REMARK 922        TOTAL FREE ENERGY PREDICTED BY IDOCK:   -7.63 KCAL/MOL
REMARK 923 INTER-LIGAND FREE ENERGY PREDICTED BY IDOCK:   -7.01 KCAL/MOL
REMARK 924 INTRA-LIGAND FREE ENERGY PREDICTED BY IDOCK:   -0.62 KCAL/MOL
REMARK 927      BINDING AFFINITY PREDICTED BY RF-SCORE:    0.00 PKD
ROOT
HETATM    1 CL   UNL     1      -9.522   4.422  67.288  1.00  0.00    -0.179 Cl 
HETATM    2  C   UNL     1      -9.546   6.094  66.885  1.00  0.00    -0.142 A  
HETATM    3  C   UNL     1      -8.406   6.699  66.361  1.00  0.00    -0.121 A  
HETATM    4  C   UNL     1      -8.427   8.058  66.030  1.00  0.00    -0.136 A  
HETATM    5 CL   UNL     1      -6.976   8.748  65.399  1.00  0.00    -0.075 Cl 
HETATM    6  C   UNL     1      -9.593   8.821  66.208  1.00  0.00    -0.328 A  
HETATM    7  C   UNL     1     -10.736   8.179  66.728  1.00  0.00    -0.070 A  
HETATM    8  C   UNL     1     -10.709   6.830  67.080  1.00  0.00    -0.435 A  
ENDROOT
BRANCH   6   9
HETATM    9  C   UNL     1      -9.669  10.299  65.835  1.00  0.00    -0.225 C  
BRANCH   9  10
HETATM   10  C   UNL     1     -10.111  10.415  64.363  1.00  0.00    -0.272 C  
BRANCH  10  11
HETATM   11  N   UNL     1     -10.960  11.562  64.110  1.00  0.00    -0.364 NA 
HETATM   12  C   UNL     1     -10.574  12.873  64.067  1.00  0.00    -0.389 A  
HETATM   13  C   UNL     1     -12.288  11.510  63.782  1.00  0.00     0.008 A  
HETATM   14  N   UNL     1     -12.775  12.710  63.574  1.00  0.00    -0.736 NA 
HETATM   15  C   UNL     1     -11.719  13.566  63.748  1.00  0.00    -0.321 A  
ENDBRANCH  10  11
ENDBRANCH   9  10
BRANCH   9  16
HETATM   16  O   UNL     1     -10.644  10.962  66.660  1.00  0.00    -0.246 OA 
BRANCH  16  17
HETATM   17  C   UNL     1     -10.120  11.408  67.917  1.00  0.00    -0.183 C  
BRANCH  17  18
HETATM   18  C   UNL     1      -9.922  12.894  67.905  1.00  0.00    -0.233 A  
HETATM   19  C   UNL     1      -9.068  13.535  67.031  1.00  0.00    -0.244 A  
HETATM   20  S   UNL     1      -9.031  15.217  67.248  1.00  0.00    -0.206 SA 
HETATM   21  C   UNL     1     -10.170  15.160  68.545  1.00  0.00    -0.231 A  
HETATM   22  C   UNL     1     -10.579  13.838  68.791  1.00  0.00    -0.253 A  
HETATM   23  C   UNL     1     -11.526  13.624  69.829  1.00  0.00    -0.256 A  
HETATM   24  C   UNL     1     -12.033  14.690  70.579  1.00  0.00    -0.376 A  
HETATM   25  C   UNL     1     -11.607  15.984  70.321  1.00  0.00    -0.335 A  
HETATM   26  C   UNL     1     -10.678  16.233  69.309  1.00  0.00    -0.307 A  
HETATM   27 CL   UNL     1     -10.182  17.864  69.030  1.00  0.00    -0.352 Cl 
ENDBRANCH  17  18
ENDBRANCH  16  17
ENDBRANCH   9  16
ENDBRANCH   6   9
TORSDOF 6
ENDMDL
MODEL      159
REMARK 921   NORMALIZED FREE ENERGY PREDICTED BY IDOCK:   -4.87 KCAL/MOL
REMARK 922        TOTAL FREE ENERGY PREDICTED BY IDOCK:   -7.62 KCAL/MOL
REMARK 923 INTER-LIGAND FREE ENERGY PREDICTED BY IDOCK:   -7.11 KCAL/MOL
REMARK 924 INTRA-LIGAND FREE ENERGY PREDICTED BY IDOCK:   -0.51 KCAL/MOL
REMARK 927      BINDING AFFINITY PREDICTED BY RF-SCORE:    0.00 PKD
ROOT
HETATM    1 CL   UNL     1      -8.335   3.093  69.962  1.00  0.00    -0.072 Cl 
HETATM    2  C   UNL     1      -8.903   4.709  69.813  1.00  0.00    -0.089 A  
HETATM    3  C   UNL     1      -8.020   5.775  69.971  1.00  0.00    -0.099 A  
HETATM    4  C   UNL     1      -8.482   7.088  69.845  1.00  0.00    -0.140 A  
HETATM    5 CL   UNL     1      -7.338   8.361  70.068  1.00  0.00    -0.058 Cl 
HETATM    6  C   UNL     1      -9.830   7.349  69.549  1.00  0.00    -0.165 A  
HETATM    7  C   UNL     1     -10.699   6.251  69.381  1.00  0.00    -0.364 A  
HETATM    8  C   UNL     1     -10.244   4.941  69.528  1.00  0.00    -0.247 A  
ENDROOT
BRANCH   6   9
HETATM    9  C   UNL     1     -10.373   8.765  69.377  1.00  0.00    -0.214 C  
BRANCH   9  10
HETATM   10  C   UNL     1     -10.330   9.480  70.742  1.00  0.00    -0.306 C  
BRANCH  10  11
HETATM   11  N   UNL     1     -11.601   9.460  71.438  1.00  0.00    -0.352 NA 
HETATM   12  C   UNL     1     -12.655  10.309  71.243  1.00  0.00    -0.418 A  
HETATM   13  C   UNL     1     -11.989   8.521  72.354  1.00  0.00    -0.364 A  
HETATM   14  N   UNL     1     -13.209   8.748  72.781  1.00  0.00    -0.278 NA 
HETATM   15  C   UNL     1     -13.633   9.856  72.096  1.00  0.00    -0.298 A  
ENDBRANCH  10  11
ENDBRANCH   9  10
BRANCH   9  16
HETATM   16  O   UNL     1      -9.548   9.495  68.451  1.00  0.00    -0.140 OA 
BRANCH  16  17
HETATM   17  C   UNL     1      -9.535  10.908  68.690  1.00  0.00    -0.190 C  
BRANCH  17  18
HETATM   18  C   UNL     1     -10.325  11.626  67.637  1.00  0.00    -0.210 A  
HETATM   19  C   UNL     1     -11.284  12.575  67.927  1.00  0.00    -0.264 A  
HETATM   20  S   UNL     1     -12.030  13.214  66.544  1.00  0.00    -0.374 SA 
HETATM   21  C   UNL     1     -11.092  12.229  65.480  1.00  0.00    -0.307 A  
HETATM   22  C   UNL     1     -10.199  11.421  66.205  1.00  0.00    -0.282 A  
HETATM   23  C   UNL     1      -9.347  10.556  65.467  1.00  0.00    -0.245 A  
HETATM   24  C   UNL     1      -9.395  10.508  64.070  1.00  0.00    -0.308 A  
HETATM   25  C   UNL     1     -10.290  11.310  63.379  1.00  0.00    -0.449 A  
HETATM   26  C   UNL     1     -11.143  12.174  64.070  1.00  0.00    -0.386 A  
HETATM   27 CL   UNL     1     -12.239  13.150  63.159  1.00  0.00    -0.489 Cl 
ENDBRANCH  17  18
ENDBRANCH  16  17
ENDBRANCH   9  16
ENDBRANCH   6   9
TORSDOF 6
ENDMDL
MODEL      160
REMARK 921   NORMALIZED FREE ENERGY PREDICTED BY IDOCK:   -4.87 KCAL/MOL
REMARK 922        TOTAL FREE ENERGY PREDICTED BY IDOCK:   -7.62 KCAL/MOL
REMARK 923 INTER-LIGAND FREE ENERGY PREDICTED BY IDOCK:   -7.21 KCAL/MOL
REMARK 924 INTRA-LIGAND FREE ENERGY PREDICTED BY IDOCK:   -0.40 KCAL/MOL
REMARK 927      BINDING AFFINITY PREDICTED BY RF-SCORE:    0.00 PKD
ROOT
HETATM    1 CL   UNL     1      -5.669   7.321  70.249  1.00  0.00    -0.024 Cl 
HETATM    2  C   UNL     1      -6.737   8.442  69.501  1.00  0.00    -0.041 A  
HETATM    3  C   UNL     1      -7.980   8.706  70.071  1.00  0.00    -0.106 A  
HETATM    4  C   UNL     1      -8.846   9.621  69.464  1.00  0.00    -0.190 A  
HETATM    5 CL   UNL     1     -10.378   9.889  70.215  1.00  0.00    -0.334 Cl 
HETATM    6  C   UNL     1      -8.473  10.290  68.287  1.00  0.00    -0.121 A  
HETATM    7  C   UNL     1      -7.202  10.014  67.739  1.00  0.00    -0.087 A  
HETATM    8  C   UNL     1      -6.347   9.085  68.331  1.00  0.00    -0.054 A  
ENDROOT
BRANCH   6   9
HETATM    9  C   UNL     1      -9.374  11.316  67.605  1.00  0.00    -0.160 C  
BRANCH   9  10
HETATM   10  C   UNL     1     -10.485  10.568  66.843  1.00  0.00    -0.246 C  
BRANCH  10  11
HETATM   11  N   UNL     1     -10.526  10.891  65.431  1.00  0.00    -0.251 NA 
HETATM   12  C   UNL     1     -11.282  11.862  64.834  1.00  0.00    -0.292 A  
HETATM   13  C   UNL     1      -9.740  10.326  64.463  1.00  0.00    -0.329 A  
HETATM   14  N   UNL     1      -9.981  10.852  63.286  1.00  0.00    -0.345 NA 
HETATM   15  C   UNL     1     -10.936  11.809  63.504  1.00  0.00    -0.424 A  
ENDBRANCH  10  11
ENDBRANCH   9  10
BRANCH   9  16
HETATM   16  O   UNL     1      -9.987  12.162  68.594  1.00  0.00    -0.202 OA 
BRANCH  16  17
HETATM   17  C   UNL     1     -10.647  13.306  68.037  1.00  0.00    -0.240 C  
BRANCH  17  18
HETATM   18  C   UNL     1     -11.135  14.212  69.127  1.00  0.00    -0.295 A  
HETATM   19  C   UNL     1     -10.831  15.557  69.185  1.00  0.00    -0.251 A  
HETATM   20  S   UNL     1     -11.506  16.335  70.532  1.00  0.00    -0.138 SA 
HETATM   21  C   UNL     1     -12.241  14.884  71.109  1.00  0.00    -0.320 A  
HETATM   22  C   UNL     1     -11.968  13.809  70.246  1.00  0.00    -0.397 A  
HETATM   23  C   UNL     1     -12.514  12.540  70.581  1.00  0.00    -0.323 A  
HETATM   24  C   UNL     1     -13.294  12.366  71.729  1.00  0.00    -0.368 A  
HETATM   25  C   UNL     1     -13.543  13.442  72.568  1.00  0.00    -0.659 A  
HETATM   26  C   UNL     1     -13.024  14.704  72.271  1.00  0.00    -0.355 A  
HETATM   27 CL   UNL     1     -13.364  16.008  73.351  1.00  0.00    -0.661 Cl 
ENDBRANCH  17  18
ENDBRANCH  16  17
ENDBRANCH   9  16
ENDBRANCH   6   9
TORSDOF 6
ENDMDL
MODEL      161
REMARK 921   NORMALIZED FREE ENERGY PREDICTED BY IDOCK:   -4.86 KCAL/MOL
REMARK 922        TOTAL FREE ENERGY PREDICTED BY IDOCK:   -7.61 KCAL/MOL
REMARK 923 INTER-LIGAND FREE ENERGY PREDICTED BY IDOCK:   -6.77 KCAL/MOL
REMARK 924 INTRA-LIGAND FREE ENERGY PREDICTED BY IDOCK:   -0.84 KCAL/MOL
REMARK 927      BINDING AFFINITY PREDICTED BY RF-SCORE:    0.00 PKD
ROOT
HETATM    1 CL   UNL     1     -11.424  15.858  64.086  1.00  0.00    -0.246 Cl 
HETATM    2  C   UNL     1     -11.271  14.939  65.532  1.00  0.00    -0.348 A  
HETATM    3  C   UNL     1     -10.041  14.861  66.180  1.00  0.00    -0.316 A  
HETATM    4  C   UNL     1      -9.918  14.117  67.358  1.00  0.00    -0.240 A  
HETATM    5 CL   UNL     1      -8.361  14.051  68.101  1.00  0.00    -0.154 Cl 
HETATM    6  C   UNL     1     -11.028  13.453  67.905  1.00  0.00    -0.276 A  
HETATM    7  C   UNL     1     -12.264  13.560  67.235  1.00  0.00    -0.305 A  
HETATM    8  C   UNL     1     -12.383  14.283  66.048  1.00  0.00    -0.416 A  
ENDROOT
BRANCH   6   9
HETATM    9  C   UNL     1     -10.946  12.652  69.202  1.00  0.00    -0.142 C  
BRANCH   9  10
HETATM   10  C   UNL     1     -12.378  12.362  69.694  1.00  0.00     0.021 C  
BRANCH  10  11
HETATM   11  N   UNL     1     -12.784  13.205  70.800  1.00  0.00    -0.235 NA 
HETATM   12  C   UNL     1     -12.730  14.571  70.852  1.00  0.00    -0.344 A  
HETATM   13  C   UNL     1     -13.375  12.770  71.955  1.00  0.00    -0.466 A  
HETATM   14  N   UNL     1     -13.662  13.773  72.751  1.00  0.00    -0.700 NA 
HETATM   15  C   UNL     1     -13.267  14.897  72.075  1.00  0.00    -0.350 A  
ENDBRANCH  10  11
ENDBRANCH   9  10
BRANCH   9  16
HETATM   16  O   UNL     1     -10.281  11.399  68.962  1.00  0.00    -0.193 OA 
BRANCH  16  17
HETATM   17  C   UNL     1     -11.125  10.411  68.357  1.00  0.00    -0.268 C  
BRANCH  17  18
HETATM   18  C   UNL     1     -10.763   9.042  68.847  1.00  0.00    -0.149 A  
HETATM   19  C   UNL     1     -11.007   8.610  70.136  1.00  0.00    -0.226 A  
HETATM   20  S   UNL     1     -10.482   7.022  70.418  1.00  0.00    -0.211 SA 
HETATM   21  C   UNL     1      -9.891   6.841  68.806  1.00  0.00    -0.143 A  
HETATM   22  C   UNL     1     -10.116   8.009  68.057  1.00  0.00    -0.238 A  
HETATM   23  C   UNL     1      -9.691   8.014  66.701  1.00  0.00    -0.313 A  
HETATM   24  C   UNL     1      -9.071   6.898  66.131  1.00  0.00    -0.144 A  
HETATM   25  C   UNL     1      -8.854   5.760  66.893  1.00  0.00    -0.114 A  
HETATM   26  C   UNL     1      -9.259   5.717  68.230  1.00  0.00    -0.117 A  
HETATM   27 CL   UNL     1      -8.963   4.276  69.133  1.00  0.00    -0.142 Cl 
ENDBRANCH  17  18
ENDBRANCH  16  17
ENDBRANCH   9  16
ENDBRANCH   6   9
TORSDOF 6
ENDMDL
MODEL      162
REMARK 921   NORMALIZED FREE ENERGY PREDICTED BY IDOCK:   -4.85 KCAL/MOL
REMARK 922        TOTAL FREE ENERGY PREDICTED BY IDOCK:   -7.59 KCAL/MOL
REMARK 923 INTER-LIGAND FREE ENERGY PREDICTED BY IDOCK:   -6.59 KCAL/MOL
REMARK 924 INTRA-LIGAND FREE ENERGY PREDICTED BY IDOCK:   -1.01 KCAL/MOL
REMARK 927      BINDING AFFINITY PREDICTED BY RF-SCORE:    0.00 PKD
ROOT
HETATM    1 CL   UNL     1     -12.896  11.922  63.095  1.00  0.00    -0.446 Cl 
HETATM    2  C   UNL     1     -11.807  12.098  64.414  1.00  0.00    -0.358 A  
HETATM    3  C   UNL     1     -10.610  11.387  64.427  1.00  0.00    -0.403 A  
HETATM    4  C   UNL     1      -9.723  11.534  65.498  1.00  0.00    -0.230 A  
HETATM    5 CL   UNL     1      -8.264  10.611  65.458  1.00  0.00    -0.159 Cl 
HETATM    6  C   UNL     1     -10.019  12.403  66.561  1.00  0.00    -0.242 A  
HETATM    7  C   UNL     1     -11.233  13.121  66.515  1.00  0.00    -0.339 A  
HETATM    8  C   UNL     1     -12.128  12.958  65.458  1.00  0.00    -0.507 A  
ENDROOT
BRANCH   6   9
HETATM    9  C   UNL     1      -9.069  12.614  67.736  1.00  0.00    -0.192 C  
BRANCH   9  10
HETATM   10  C   UNL     1      -9.410  13.958  68.412  1.00  0.00    -0.201 C  
BRANCH  10  11
HETATM   11  N   UNL     1      -8.565  15.049  67.971  1.00  0.00    -0.154 NA 
HETATM   12  C   UNL     1      -8.493  15.572  66.710  1.00  0.00    -0.279 A  
HETATM   13  C   UNL     1      -7.754  15.801  68.778  1.00  0.00    -0.177 A  
HETATM   14  N   UNL     1      -7.142  16.741  68.096  1.00  0.00    -0.155 NA 
HETATM   15  C   UNL     1      -7.595  16.609  66.810  1.00  0.00    -0.257 A  
ENDBRANCH  10  11
ENDBRANCH   9  10
BRANCH   9  16
HETATM   16  O   UNL     1      -9.240  11.560  68.700  1.00  0.00    -0.186 OA 
BRANCH  16  17
HETATM   17  C   UNL     1      -8.087  10.720  68.838  1.00  0.00    -0.145 C  
BRANCH  17  18
HETATM   18  C   UNL     1      -8.432   9.479  69.605  1.00  0.00    -0.174 A  
HETATM   19  C   UNL     1      -7.922   9.198  70.857  1.00  0.00    -0.157 A  
HETATM   20  S   UNL     1      -8.472   7.721  71.484  1.00  0.00    -0.122 SA 
HETATM   21  C   UNL     1      -9.427   7.385  70.085  1.00  0.00    -0.165 A  
HETATM   22  C   UNL     1      -9.322   8.426  69.148  1.00  0.00    -0.151 A  
HETATM   23  C   UNL     1     -10.060   8.302  67.939  1.00  0.00    -0.252 A  
HETATM   24  C   UNL     1     -10.862   7.183  67.692  1.00  0.00    -0.279 A  
HETATM   25  C   UNL     1     -10.943   6.166  68.630  1.00  0.00    -0.415 A  
HETATM   26  C   UNL     1     -10.232   6.253  69.830  1.00  0.00    -0.187 A  
HETATM   27 CL   UNL     1     -10.368   4.957  70.962  1.00  0.00    -0.256 Cl 
ENDBRANCH  17  18
ENDBRANCH  16  17
ENDBRANCH   9  16
ENDBRANCH   6   9
TORSDOF 6
ENDMDL
MODEL      163
REMARK 921   NORMALIZED FREE ENERGY PREDICTED BY IDOCK:   -4.82 KCAL/MOL
REMARK 922        TOTAL FREE ENERGY PREDICTED BY IDOCK:   -7.56 KCAL/MOL
REMARK 923 INTER-LIGAND FREE ENERGY PREDICTED BY IDOCK:   -7.28 KCAL/MOL
REMARK 924 INTRA-LIGAND FREE ENERGY PREDICTED BY IDOCK:   -0.27 KCAL/MOL
REMARK 927      BINDING AFFINITY PREDICTED BY RF-SCORE:    0.00 PKD
ROOT
HETATM    1 CL   UNL     1     -12.223  16.219  73.765  1.00  0.00    -0.599 Cl 
HETATM    2  C   UNL     1     -12.095  15.399  72.259  1.00  0.00    -0.411 A  
HETATM    3  C   UNL     1     -11.047  15.696  71.391  1.00  0.00    -0.293 A  
HETATM    4  C   UNL     1     -10.941  15.025  70.169  1.00  0.00    -0.221 A  
HETATM    5 CL   UNL     1      -9.626  15.453  69.135  1.00  0.00    -0.237 Cl 
HETATM    6  C   UNL     1     -11.877  14.042  69.807  1.00  0.00    -0.385 A  
HETATM    7  C   UNL     1     -12.920  13.752  70.711  1.00  0.00    -0.238 A  
HETATM    8  C   UNL     1     -13.039  14.436  71.920  1.00  0.00    -0.433 A  
ENDROOT
BRANCH   6   9
HETATM    9  C   UNL     1     -11.785  13.266  68.496  1.00  0.00    -0.352 C  
BRANCH   9  10
HETATM   10  C   UNL     1     -11.553  14.266  67.345  1.00  0.00    -0.369 C  
BRANCH  10  11
HETATM   11  N   UNL     1     -11.636  13.656  66.033  1.00  0.00    -0.326 NA 
HETATM   12  C   UNL     1     -12.770  13.230  65.399  1.00  0.00    -0.399 A  
HETATM   13  C   UNL     1     -10.589  13.485  65.169  1.00  0.00    -0.355 A  
HETATM   14  N   UNL     1     -10.984  12.939  64.043  1.00  0.00    -0.399 NA 
HETATM   15  C   UNL     1     -12.338  12.778  64.174  1.00  0.00    -0.407 A  
ENDBRANCH  10  11
ENDBRANCH   9  10
BRANCH   9  16
HETATM   16  O   UNL     1     -10.673  12.355  68.543  1.00  0.00    -0.225 OA 
BRANCH  16  17
HETATM   17  C   UNL     1     -11.011  11.021  68.144  1.00  0.00    -0.247 C  
BRANCH  17  18
HETATM   18  C   UNL     1     -10.000  10.045  68.666  1.00  0.00    -0.176 A  
HETATM   19  C   UNL     1      -9.327  10.219  69.859  1.00  0.00     0.004 A  
HETATM   20  S   UNL     1      -8.233   8.968  70.195  1.00  0.00    -0.155 SA 
HETATM   21  C   UNL     1      -8.611   8.129  68.735  1.00  0.00    -0.127 A  
HETATM   22  C   UNL     1      -9.593   8.819  68.003  1.00  0.00    -0.160 A  
HETATM   23  C   UNL     1     -10.021   8.248  66.774  1.00  0.00    -0.355 A  
HETATM   24  C   UNL     1      -9.484   7.044  66.307  1.00  0.00    -0.127 A  
HETATM   25  C   UNL     1      -8.511   6.386  67.045  1.00  0.00    -0.112 A  
HETATM   26  C   UNL     1      -8.066   6.916  68.258  1.00  0.00    -0.119 A  
HETATM   27 CL   UNL     1      -6.852   6.056  69.135  1.00  0.00    -0.060 Cl 
ENDBRANCH  17  18
ENDBRANCH  16  17
ENDBRANCH   9  16
ENDBRANCH   6   9
TORSDOF 6
ENDMDL
MODEL      164
REMARK 921   NORMALIZED FREE ENERGY PREDICTED BY IDOCK:   -4.82 KCAL/MOL
REMARK 922        TOTAL FREE ENERGY PREDICTED BY IDOCK:   -7.55 KCAL/MOL
REMARK 923 INTER-LIGAND FREE ENERGY PREDICTED BY IDOCK:   -6.42 KCAL/MOL
REMARK 924 INTRA-LIGAND FREE ENERGY PREDICTED BY IDOCK:   -1.13 KCAL/MOL
REMARK 927      BINDING AFFINITY PREDICTED BY RF-SCORE:    0.00 PKD
ROOT
HETATM    1 CL   UNL     1      -6.457   8.411  72.374  1.00  0.00    -0.080 Cl 
HETATM    2  C   UNL     1      -7.437   8.580  70.972  1.00  0.00    -0.080 A  
HETATM    3  C   UNL     1      -6.997   8.077  69.750  1.00  0.00    -0.052 A  
HETATM    4  C   UNL     1      -7.797   8.212  68.611  1.00  0.00    -0.114 A  
HETATM    5 CL   UNL     1      -7.184   7.578  67.126  1.00  0.00    -0.084 Cl 
HETATM    6  C   UNL     1      -9.050   8.841  68.685  1.00  0.00    -0.141 A  
HETATM    7  C   UNL     1      -9.476   9.330  69.938  1.00  0.00    -0.214 A  
HETATM    8  C   UNL     1      -8.670   9.216  71.069  1.00  0.00    -0.251 A  
ENDROOT
BRANCH   6   9
HETATM    9  C   UNL     1      -9.967   8.987  67.474  1.00  0.00    -0.207 C  
BRANCH   9  10
HETATM   10  C   UNL     1      -9.377  10.055  66.532  1.00  0.00    -0.162 C  
BRANCH  10  11
HETATM   11  N   UNL     1     -10.305  11.127  66.232  1.00  0.00    -0.242 NA 
HETATM   12  C   UNL     1     -10.429  11.795  65.045  1.00  0.00    -0.285 A  
HETATM   13  C   UNL     1     -11.280  11.593  67.073  1.00  0.00    -0.314 A  
HETATM   14  N   UNL     1     -11.986  12.542  66.505  1.00  0.00    -0.576 NA 
HETATM   15  C   UNL     1     -11.467  12.675  65.244  1.00  0.00    -0.331 A  
ENDBRANCH  10  11
ENDBRANCH   9  10
BRANCH   9  16
HETATM   16  O   UNL     1     -10.039   7.738  66.762  1.00  0.00    -0.250 OA 
BRANCH  16  17
HETATM   17  C   UNL     1     -11.074   6.868  67.240  1.00  0.00    -0.285 C  
BRANCH  17  18
HETATM   18  C   UNL     1     -10.530   5.924  68.269  1.00  0.00    -0.293 A  
HETATM   19  C   UNL     1      -9.661   4.895  67.967  1.00  0.00    -0.146 A  
HETATM   20  S   UNL     1      -9.218   3.977  69.322  1.00  0.00    -0.167 SA 
HETATM   21  C   UNL     1     -10.189   4.926  70.389  1.00  0.00    -0.222 A  
HETATM   22  C   UNL     1     -10.839   5.956  69.687  1.00  0.00    -0.444 A  
HETATM   23  C   UNL     1     -11.674   6.834  70.431  1.00  0.00    -0.418 A  
HETATM   24  C   UNL     1     -11.842   6.679  71.811  1.00  0.00    -0.380 A  
HETATM   25  C   UNL     1     -11.194   5.651  72.478  1.00  0.00    -0.346 A  
HETATM   26  C   UNL     1     -10.366   4.768  71.781  1.00  0.00    -0.160 A  
HETATM   27 CL   UNL     1      -9.585   3.505  72.661  1.00  0.00    -0.178 Cl 
ENDBRANCH  17  18
ENDBRANCH  16  17
ENDBRANCH   9  16
ENDBRANCH   6   9
TORSDOF 6
ENDMDL
MODEL      165
REMARK 921   NORMALIZED FREE ENERGY PREDICTED BY IDOCK:   -4.81 KCAL/MOL
REMARK 922        TOTAL FREE ENERGY PREDICTED BY IDOCK:   -7.55 KCAL/MOL
REMARK 923 INTER-LIGAND FREE ENERGY PREDICTED BY IDOCK:   -6.42 KCAL/MOL
REMARK 924 INTRA-LIGAND FREE ENERGY PREDICTED BY IDOCK:   -1.13 KCAL/MOL
REMARK 927      BINDING AFFINITY PREDICTED BY RF-SCORE:    0.00 PKD
ROOT
HETATM    1 CL   UNL     1      -9.119   2.404  65.133  1.00  0.00    -0.130 Cl 
HETATM    2  C   UNL     1      -9.127   4.046  65.642  1.00  0.00    -0.142 A  
HETATM    3  C   UNL     1     -10.043   4.474  66.599  1.00  0.00    -0.238 A  
HETATM    4  C   UNL     1     -10.046   5.809  67.016  1.00  0.00    -0.187 A  
HETATM    5 CL   UNL     1     -11.218   6.275  68.194  1.00  0.00    -0.363 Cl 
HETATM    6  C   UNL     1      -9.124   6.727  66.487  1.00  0.00    -0.171 A  
HETATM    7  C   UNL     1      -8.198   6.263  65.529  1.00  0.00    -0.145 A  
HETATM    8  C   UNL     1      -8.209   4.937  65.097  1.00  0.00    -0.124 A  
ENDROOT
BRANCH   6   9
HETATM    9  C   UNL     1      -9.072   8.186  66.931  1.00  0.00    -0.154 C  
BRANCH   9  10
HETATM   10  C   UNL     1      -8.376   8.260  68.305  1.00  0.00    -0.132 C  
BRANCH  10  11
HETATM   11  N   UNL     1      -9.222   8.806  69.346  1.00  0.00    -0.145 NA 
HETATM   12  C   UNL     1     -10.271   9.668  69.181  1.00  0.00    -0.202 A  
HETATM   13  C   UNL     1      -9.163   8.476  70.673  1.00  0.00    -0.163 A  
HETATM   14  N   UNL     1     -10.083   9.107  71.363  1.00  0.00    -0.325 NA 
HETATM   15  C   UNL     1     -10.779   9.850  70.446  1.00  0.00    -0.318 A  
ENDBRANCH  10  11
ENDBRANCH   9  10
BRANCH   9  16
HETATM   16  O   UNL     1      -8.309   8.958  65.988  1.00  0.00    -0.115 OA 
BRANCH  16  17
HETATM   17  C   UNL     1      -9.112   9.829  65.181  1.00  0.00    -0.222 C  
BRANCH  17  18
HETATM   18  C   UNL     1      -9.271  11.162  65.847  1.00  0.00    -0.225 A  
HETATM   19  C   UNL     1      -8.343  11.685  66.725  1.00  0.00    -0.171 A  
HETATM   20  S   UNL     1      -8.786  13.203  67.338  1.00  0.00    -0.214 SA 
HETATM   21  C   UNL     1     -10.264  13.226  66.446  1.00  0.00    -0.292 A  
HETATM   22  C   UNL     1     -10.397  12.062  65.670  1.00  0.00    -0.288 A  
HETATM   23  C   UNL     1     -11.563  11.935  64.868  1.00  0.00    -0.290 A  
HETATM   24  C   UNL     1     -12.544  12.932  64.851  1.00  0.00    -0.525 A  
HETATM   25  C   UNL     1     -12.393  14.068  65.631  1.00  0.00    -0.502 A  
HETATM   26  C   UNL     1     -11.259  14.228  66.432  1.00  0.00    -0.337 A  
HETATM   27 CL   UNL     1     -11.122  15.662  67.384  1.00  0.00    -0.297 Cl 
ENDBRANCH  17  18
ENDBRANCH  16  17
ENDBRANCH   9  16
ENDBRANCH   6   9
TORSDOF 6
ENDMDL
MODEL      166
REMARK 921   NORMALIZED FREE ENERGY PREDICTED BY IDOCK:   -4.81 KCAL/MOL
REMARK 922        TOTAL FREE ENERGY PREDICTED BY IDOCK:   -7.54 KCAL/MOL
REMARK 923 INTER-LIGAND FREE ENERGY PREDICTED BY IDOCK:   -6.06 KCAL/MOL
REMARK 924 INTRA-LIGAND FREE ENERGY PREDICTED BY IDOCK:   -1.49 KCAL/MOL
REMARK 927      BINDING AFFINITY PREDICTED BY RF-SCORE:    0.00 PKD
ROOT
HETATM    1 CL   UNL     1     -11.100   1.533  74.234  1.00  0.00    -0.184 Cl 
HETATM    2  C   UNL     1     -10.845   2.927  73.259  1.00  0.00    -0.175 A  
HETATM    3  C   UNL     1     -10.001   2.857  72.153  1.00  0.00    -0.235 A  
HETATM    4  C   UNL     1      -9.797   3.989  71.358  1.00  0.00    -0.179 A  
HETATM    5 CL   UNL     1      -8.726   3.837  70.012  1.00  0.00    -0.108 Cl 
HETATM    6  C   UNL     1     -10.445   5.199  71.654  1.00  0.00    -0.255 A  
HETATM    7  C   UNL     1     -11.305   5.237  72.772  1.00  0.00    -0.342 A  
HETATM    8  C   UNL     1     -11.491   4.115  73.578  1.00  0.00    -0.228 A  
ENDROOT
BRANCH   6   9
HETATM    9  C   UNL     1     -10.274   6.452  70.799  1.00  0.00    -0.190 C  
BRANCH   9  10
HETATM   10  C   UNL     1     -11.005   6.239  69.459  1.00  0.00    -0.379 C  
BRANCH  10  11
HETATM   11  N   UNL     1     -10.326   6.852  68.334  1.00  0.00    -0.180 NA 
HETATM   12  C   UNL     1     -10.888   7.642  67.370  1.00  0.00    -0.170 A  
HETATM   13  C   UNL     1      -8.979   6.808  68.100  1.00  0.00    -0.118 A  
HETATM   14  N   UNL     1      -8.659   7.488  67.025  1.00  0.00    -0.120 NA 
HETATM   15  C   UNL     1      -9.838   8.012  66.563  1.00  0.00    -0.219 A  
ENDBRANCH  10  11
ENDBRANCH   9  10
BRANCH   9  16
HETATM   16  O   UNL     1     -10.859   7.584  71.467  1.00  0.00    -0.226 OA 
BRANCH  16  17
HETATM   17  C   UNL     1      -9.892   8.528  71.945  1.00  0.00    -0.288 C  
BRANCH  17  18
HETATM   18  C   UNL     1      -9.340   9.334  70.807  1.00  0.00    -0.322 A  
HETATM   19  C   UNL     1      -8.001   9.350  70.472  1.00  0.00    -0.174 A  
HETATM   20  S   UNL     1      -7.657  10.358  69.152  1.00  0.00    -0.130 SA 
HETATM   21  C   UNL     1      -9.308  10.829  68.972  1.00  0.00    -0.156 A  
HETATM   22  C   UNL     1     -10.116  10.191  69.929  1.00  0.00    -0.268 A  
HETATM   23  C   UNL     1     -11.510  10.470  69.906  1.00  0.00    -0.384 A  
HETATM   24  C   UNL     1     -12.058  11.348  68.965  1.00  0.00    -0.316 A  
HETATM   25  C   UNL     1     -11.238  11.970  68.036  1.00  0.00    -0.316 A  
HETATM   26  C   UNL     1      -9.864  11.720  68.028  1.00  0.00    -0.183 A  
HETATM   27 CL   UNL     1      -8.889  12.522  66.849  1.00  0.00    -0.210 Cl 
ENDBRANCH  17  18
ENDBRANCH  16  17
ENDBRANCH   9  16
ENDBRANCH   6   9
TORSDOF 6
ENDMDL
MODEL      167
REMARK 921   NORMALIZED FREE ENERGY PREDICTED BY IDOCK:   -4.81 KCAL/MOL
REMARK 922        TOTAL FREE ENERGY PREDICTED BY IDOCK:   -7.54 KCAL/MOL
REMARK 923 INTER-LIGAND FREE ENERGY PREDICTED BY IDOCK:   -6.92 KCAL/MOL
REMARK 924 INTRA-LIGAND FREE ENERGY PREDICTED BY IDOCK:   -0.62 KCAL/MOL
REMARK 927      BINDING AFFINITY PREDICTED BY RF-SCORE:    0.00 PKD
ROOT
HETATM    1 CL   UNL     1      -7.777  20.814  67.416  1.00  0.00    -0.371 Cl 
HETATM    2  C   UNL     1      -8.440  19.244  67.644  1.00  0.00    -0.292 A  
HETATM    3  C   UNL     1      -7.701  18.266  68.305  1.00  0.00    -0.303 A  
HETATM    4  C   UNL     1      -8.242  16.990  68.494  1.00  0.00    -0.259 A  
HETATM    5 CL   UNL     1      -7.267  15.822  69.309  1.00  0.00    -0.198 Cl 
HETATM    6  C   UNL     1      -9.533  16.683  68.032  1.00  0.00    -0.224 A  
HETATM    7  C   UNL     1     -10.264  17.697  67.377  1.00  0.00    -0.345 A  
HETATM    8  C   UNL     1      -9.716  18.962  67.169  1.00  0.00    -0.345 A  
ENDROOT
BRANCH   6   9
HETATM    9  C   UNL     1     -10.173  15.314  68.239  1.00  0.00    -0.226 C  
BRANCH   9  10
HETATM   10  C   UNL     1     -11.641  15.379  67.773  1.00  0.00    -0.228 C  
BRANCH  10  11
HETATM   11  N   UNL     1     -11.860  14.759  66.482  1.00  0.00    -0.289 NA 
HETATM   12  C   UNL     1     -11.335  15.156  65.283  1.00  0.00    -0.318 A  
HETATM   13  C   UNL     1     -12.567  13.607  66.264  1.00  0.00    -0.291 A  
HETATM   14  N   UNL     1     -12.555  13.274  64.995  1.00  0.00    -0.620 NA 
HETATM   15  C   UNL     1     -11.792  14.229  64.376  1.00  0.00    -0.426 A  
ENDBRANCH  10  11
ENDBRANCH   9  10
BRANCH   9  16
HETATM   16  O   UNL     1      -9.486  14.327  67.449  1.00  0.00    -0.202 OA 
BRANCH  16  17
HETATM   17  C   UNL     1      -9.123  13.155  68.190  1.00  0.00    -0.200 C  
BRANCH  17  18
HETATM   18  C   UNL     1      -8.167  12.312  67.401  1.00  0.00    -0.178 A  
HETATM   19  C   UNL     1      -6.809  12.274  67.651  1.00  0.00    -0.124 A  
HETATM   20  S   UNL     1      -5.967  11.245  66.597  1.00  0.00    -0.144 SA 
HETATM   21  C   UNL     1      -7.401  10.803  65.745  1.00  0.00    -0.061 A  
HETATM   22  C   UNL     1      -8.525  11.447  66.291  1.00  0.00    -0.138 A  
HETATM   23  C   UNL     1      -9.790  11.177  65.702  1.00  0.00    -0.280 A  
HETATM   24  C   UNL     1      -9.913  10.304  64.616  1.00  0.00    -0.377 A  
HETATM   25  C   UNL     1      -8.787   9.687  64.092  1.00  0.00    -0.257 A  
HETATM   26  C   UNL     1      -7.528   9.927  64.645  1.00  0.00    -0.140 A  
HETATM   27 CL   UNL     1      -6.160   9.133  63.951  1.00  0.00    -0.082 Cl 
ENDBRANCH  17  18
ENDBRANCH  16  17
ENDBRANCH   9  16
ENDBRANCH   6   9
TORSDOF 6
ENDMDL
MODEL      168
REMARK 921   NORMALIZED FREE ENERGY PREDICTED BY IDOCK:   -4.77 KCAL/MOL
REMARK 922        TOTAL FREE ENERGY PREDICTED BY IDOCK:   -7.49 KCAL/MOL
REMARK 923 INTER-LIGAND FREE ENERGY PREDICTED BY IDOCK:   -7.03 KCAL/MOL
REMARK 924 INTRA-LIGAND FREE ENERGY PREDICTED BY IDOCK:   -0.46 KCAL/MOL
REMARK 927      BINDING AFFINITY PREDICTED BY RF-SCORE:    0.00 PKD
ROOT
HETATM    1 CL   UNL     1     -11.404  16.890  64.087  1.00  0.00     0.582 Cl 
HETATM    2  C   UNL     1     -11.212  15.275  64.645  1.00  0.00    -0.356 A  
HETATM    3  C   UNL     1     -12.072  14.276  64.194  1.00  0.00    -0.423 A  
HETATM    4  C   UNL     1     -11.913  12.962  64.645  1.00  0.00    -0.392 A  
HETATM    5 CL   UNL     1     -13.023  11.777  64.057  1.00  0.00    -0.268 Cl 
HETATM    6  C   UNL     1     -10.885  12.631  65.543  1.00  0.00    -0.310 A  
HETATM    7  C   UNL     1     -10.021  13.660  65.972  1.00  0.00    -0.313 A  
HETATM    8  C   UNL     1     -10.192  14.975  65.541  1.00  0.00    -0.406 A  
ENDROOT
BRANCH   6   9
HETATM    9  C   UNL     1     -10.658  11.207  66.040  1.00  0.00    -0.239 C  
BRANCH   9  10
HETATM   10  C   UNL     1      -9.142  10.977  66.205  1.00  0.00    -0.182 C  
BRANCH  10  11
HETATM   11  N   UNL     1      -8.722   9.642  65.828  1.00  0.00    -0.141 NA 
HETATM   12  C   UNL     1      -9.332   8.465  66.166  1.00  0.00    -0.201 A  
HETATM   13  C   UNL     1      -7.683   9.344  64.989  1.00  0.00    -0.110 A  
HETATM   14  N   UNL     1      -7.572   8.049  64.809  1.00  0.00    -0.098 NA 
HETATM   15  C   UNL     1      -8.593   7.493  65.534  1.00  0.00    -0.083 A  
ENDBRANCH  10  11
ENDBRANCH   9  10
BRANCH   9  16
HETATM   16  O   UNL     1     -11.291  11.028  67.319  1.00  0.00    -0.408 OA 
BRANCH  16  17
HETATM   17  C   UNL     1     -10.463  11.412  68.424  1.00  0.00    -0.200 C  
BRANCH  17  18
HETATM   18  C   UNL     1     -11.106  12.521  69.201  1.00  0.00    -0.254 A  
HETATM   19  C   UNL     1     -10.904  13.857  68.919  1.00  0.00    -0.255 A  
HETATM   20  S   UNL     1     -11.746  14.894  69.965  1.00  0.00    -0.315 SA 
HETATM   21  C   UNL     1     -12.424  13.581  70.858  1.00  0.00    -0.369 A  
HETATM   22  C   UNL     1     -12.002  12.348  70.330  1.00  0.00    -0.342 A  
HETATM   23  C   UNL     1     -12.484  11.165  70.954  1.00  0.00    -0.509 A  
HETATM   24  C   UNL     1     -13.346  11.225  72.053  1.00  0.00    -0.386 A  
HETATM   25  C   UNL     1     -13.742  12.454  72.559  1.00  0.00    -0.023 A  
HETATM   26  C   UNL     1     -13.290  13.638  71.972  1.00  0.00    -0.459 A  
HETATM   27 CL   UNL     1     -13.813  15.140  72.643  1.00  0.00    -0.569 Cl 
ENDBRANCH  17  18
ENDBRANCH  16  17
ENDBRANCH   9  16
ENDBRANCH   6   9
TORSDOF 6
ENDMDL
MODEL      169
REMARK 921   NORMALIZED FREE ENERGY PREDICTED BY IDOCK:   -4.74 KCAL/MOL
REMARK 922        TOTAL FREE ENERGY PREDICTED BY IDOCK:   -7.45 KCAL/MOL
REMARK 923 INTER-LIGAND FREE ENERGY PREDICTED BY IDOCK:   -6.13 KCAL/MOL
REMARK 924 INTRA-LIGAND FREE ENERGY PREDICTED BY IDOCK:   -1.33 KCAL/MOL
REMARK 927      BINDING AFFINITY PREDICTED BY RF-SCORE:    0.00 PKD
ROOT
HETATM    1 CL   UNL     1      -9.643   4.578  66.230  1.00  0.00    -0.171 Cl 
HETATM    2  C   UNL     1      -9.625   6.236  66.686  1.00  0.00    -0.157 A  
HETATM    3  C   UNL     1      -8.459   6.985  66.543  1.00  0.00    -0.125 A  
HETATM    4  C   UNL     1      -8.446   8.334  66.910  1.00  0.00    -0.118 A  
HETATM    5 CL   UNL     1      -6.964   9.199  66.720  1.00  0.00    -0.080 Cl 
HETATM    6  C   UNL     1      -9.603   8.951  67.413  1.00  0.00    -0.201 A  
HETATM    7  C   UNL     1     -10.773   8.173  67.535  1.00  0.00    -0.227 A  
HETATM    8  C   UNL     1     -10.781   6.821  67.190  1.00  0.00    -0.441 A  
ENDROOT
BRANCH   6   9
HETATM    9  C   UNL     1      -9.643  10.427  67.801  1.00  0.00    -0.152 C  
BRANCH   9  10
HETATM   10  C   UNL     1     -10.915  11.061  67.204  1.00  0.00    -0.283 C  
BRANCH  10  11
HETATM   11  N   UNL     1     -10.867  12.508  67.163  1.00  0.00    -0.244 NA 
HETATM   12  C   UNL     1     -11.652  13.374  67.873  1.00  0.00    -0.339 A  
HETATM   13  C   UNL     1      -9.957  13.254  66.463  1.00  0.00    -0.280 A  
HETATM   14  N   UNL     1     -10.145  14.538  66.655  1.00  0.00    -0.266 NA 
HETATM   15  C   UNL     1     -11.195  14.625  67.531  1.00  0.00    -0.333 A  
ENDBRANCH  10  11
ENDBRANCH   9  10
BRANCH   9  16
HETATM   16  O   UNL     1      -9.695  10.555  69.233  1.00  0.00    -0.214 OA 
BRANCH  16  17
HETATM   17  C   UNL     1      -8.839   9.634  69.920  1.00  0.00    -0.221 C  
BRANCH  17  18
HETATM   18  C   UNL     1      -9.649   8.691  70.758  1.00  0.00    -0.231 A  
HETATM   19  C   UNL     1     -10.704   9.098  71.549  1.00  0.00    -0.367 A  
HETATM   20  S   UNL     1     -11.432   7.823  72.398  1.00  0.00    -0.379 SA 
HETATM   21  C   UNL     1     -10.348   6.652  71.739  1.00  0.00    -0.196 A  
HETATM   22  C   UNL     1      -9.437   7.258  70.856  1.00  0.00    -0.159 A  
HETATM   23  C   UNL     1      -8.479   6.421  70.222  1.00  0.00    -0.135 A  
HETATM   24  C   UNL     1      -8.443   5.044  70.468  1.00  0.00    -0.109 A  
HETATM   25  C   UNL     1      -9.349   4.473  71.349  1.00  0.00    -0.206 A  
HETATM   26  C   UNL     1     -10.305   5.263  71.990  1.00  0.00    -0.215 A  
HETATM   27 CL   UNL     1     -11.407   4.500  73.078  1.00  0.00    -0.280 Cl 
ENDBRANCH  17  18
ENDBRANCH  16  17
ENDBRANCH   9  16
ENDBRANCH   6   9
TORSDOF 6
ENDMDL
MODEL      170
REMARK 921   NORMALIZED FREE ENERGY PREDICTED BY IDOCK:   -4.74 KCAL/MOL
REMARK 922        TOTAL FREE ENERGY PREDICTED BY IDOCK:   -7.45 KCAL/MOL
REMARK 923 INTER-LIGAND FREE ENERGY PREDICTED BY IDOCK:   -7.47 KCAL/MOL
REMARK 924 INTRA-LIGAND FREE ENERGY PREDICTED BY IDOCK:    0.02 KCAL/MOL
REMARK 927      BINDING AFFINITY PREDICTED BY RF-SCORE:    0.00 PKD
ROOT
HETATM    1 CL   UNL     1     -11.850  16.000  64.261  1.00  0.00    -0.218 Cl 
HETATM    2  C   UNL     1     -11.611  14.438  64.940  1.00  0.00    -0.395 A  
HETATM    3  C   UNL     1     -11.204  13.382  64.128  1.00  0.00    -0.379 A  
HETATM    4  C   UNL     1     -11.006  12.113  64.681  1.00  0.00    -0.312 A  
HETATM    5 CL   UNL     1     -10.516  10.846  63.616  1.00  0.00    -0.373 Cl 
HETATM    6  C   UNL     1     -11.201  11.891  66.054  1.00  0.00    -0.377 A  
HETATM    7  C   UNL     1     -11.600  12.982  66.855  1.00  0.00    -0.419 A  
HETATM    8  C   UNL     1     -11.819  14.242  66.300  1.00  0.00    -0.420 A  
ENDROOT
BRANCH   6   9
HETATM    9  C   UNL     1     -10.971  10.530  66.705  1.00  0.00    -0.080 C  
BRANCH   9  10
HETATM   10  C   UNL     1      -9.544  10.055  66.367  1.00  0.00    -0.196 C  
BRANCH  10  11
HETATM   11  N   UNL     1      -9.397   8.614  66.405  1.00  0.00    -0.194 NA 
HETATM   12  C   UNL     1      -8.324   7.888  65.965  1.00  0.00    -0.128 A  
HETATM   13  C   UNL     1     -10.283   7.740  66.974  1.00  0.00    -0.305 A  
HETATM   14  N   UNL     1      -9.856   6.503  66.886  1.00  0.00    -0.156 NA 
HETATM   15  C   UNL     1      -8.639   6.583  66.262  1.00  0.00    -0.141 A  
ENDBRANCH  10  11
ENDBRANCH   9  10
BRANCH   9  16
HETATM   16  O   UNL     1     -11.088  10.645  68.135  1.00  0.00    -0.244 OA 
BRANCH  16  17
HETATM   17  C   UNL     1      -9.871  11.046  68.777  1.00  0.00    -0.198 C  
BRANCH  17  18
HETATM   18  C   UNL     1      -9.497  10.068  69.849  1.00  0.00    -0.221 A  
HETATM   19  C   UNL     1      -8.209   9.611  70.040  1.00  0.00    -0.184 A  
HETATM   20  S   UNL     1      -8.077   8.501  71.316  1.00  0.00    -0.148 SA 
HETATM   21  C   UNL     1      -9.765   8.579  71.671  1.00  0.00    -0.252 A  
HETATM   22  C   UNL     1     -10.416   9.475  70.805  1.00  0.00    -0.384 A  
HETATM   23  C   UNL     1     -11.815   9.657  70.976  1.00  0.00    -0.428 A  
HETATM   24  C   UNL     1     -12.519   8.969  71.970  1.00  0.00    -0.460 A  
HETATM   25  C   UNL     1     -11.855   8.086  72.806  1.00  0.00    -0.303 A  
HETATM   26  C   UNL     1     -10.480   7.881  72.669  1.00  0.00    -0.320 A  
HETATM   27 CL   UNL     1      -9.703   6.769  73.737  1.00  0.00    -0.236 Cl 
ENDBRANCH  17  18
ENDBRANCH  16  17
ENDBRANCH   9  16
ENDBRANCH   6   9
TORSDOF 6
ENDMDL
MODEL      171
REMARK 921   NORMALIZED FREE ENERGY PREDICTED BY IDOCK:   -4.72 KCAL/MOL
REMARK 922        TOTAL FREE ENERGY PREDICTED BY IDOCK:   -7.41 KCAL/MOL
REMARK 923 INTER-LIGAND FREE ENERGY PREDICTED BY IDOCK:   -6.48 KCAL/MOL
REMARK 924 INTRA-LIGAND FREE ENERGY PREDICTED BY IDOCK:   -0.94 KCAL/MOL
REMARK 927      BINDING AFFINITY PREDICTED BY RF-SCORE:    0.00 PKD
ROOT
HETATM    1 CL   UNL     1      -7.766  20.063  67.849  1.00  0.00    -0.327 Cl 
HETATM    2  C   UNL     1      -8.396  18.466  67.750  1.00  0.00    -0.262 A  
HETATM    3  C   UNL     1      -9.123  18.073  66.629  1.00  0.00    -0.290 A  
HETATM    4  C   UNL     1      -9.632  16.773  66.547  1.00  0.00    -0.266 A  
HETATM    5 CL   UNL     1     -10.536  16.358  65.136  1.00  0.00    -0.355 Cl 
HETATM    6  C   UNL     1      -9.409  15.850  67.581  1.00  0.00    -0.217 A  
HETATM    7  C   UNL     1      -8.658  16.271  68.699  1.00  0.00    -0.222 A  
HETATM    8  C   UNL     1      -8.170  17.574  68.791  1.00  0.00    -0.222 A  
ENDROOT
BRANCH   6   9
HETATM    9  C   UNL     1      -9.922  14.414  67.523  1.00  0.00    -0.224 C  
BRANCH   9  10
HETATM   10  C   UNL     1      -9.251  13.603  68.649  1.00  0.00    -0.045 C  
BRANCH  10  11
HETATM   11  N   UNL     1      -8.046  12.921  68.222  1.00  0.00    -0.149 NA 
HETATM   12  C   UNL     1      -7.326  12.004  68.937  1.00  0.00    -0.067 A  
HETATM   13  C   UNL     1      -7.473  13.021  66.983  1.00  0.00     0.147 A  
HETATM   14  N   UNL     1      -6.412  12.255  66.884  1.00  0.00    -0.108 NA 
HETATM   15  C   UNL     1      -6.312  11.617  68.093  1.00  0.00    -0.050 A  
ENDBRANCH  10  11
ENDBRANCH   9  10
BRANCH   9  16
HETATM   16  O   UNL     1     -11.346  14.394  67.729  1.00  0.00    -0.283 OA 
BRANCH  16  17
HETATM   17  C   UNL     1     -11.940  13.114  67.480  1.00  0.00    -0.317 C  
BRANCH  17  18
HETATM   18  C   UNL     1     -11.518  12.592  66.139  1.00  0.00    -0.426 A  
HETATM   19  C   UNL     1     -11.944  13.141  64.946  1.00  0.00    -0.388 A  
HETATM   20  S   UNL     1     -11.320  12.343  63.586  1.00  0.00    -0.499 SA 
HETATM   21  C   UNL     1     -10.444  11.207  64.547  1.00  0.00    -0.350 A  
HETATM   22  C   UNL     1     -10.633  11.463  65.916  1.00  0.00    -0.317 A  
HETATM   23  C   UNL     1      -9.967  10.615  66.843  1.00  0.00    -0.245 A  
HETATM   24  C   UNL     1      -9.154   9.563  66.408  1.00  0.00    -0.195 A  
HETATM   25  C   UNL     1      -8.991   9.327  65.051  1.00  0.00    -0.245 A  
HETATM   26  C   UNL     1      -9.629  10.140  64.111  1.00  0.00    -0.272 A  
HETATM   27 CL   UNL     1      -9.391   9.801  62.435  1.00  0.00    -0.284 Cl 
ENDBRANCH  17  18
ENDBRANCH  16  17
ENDBRANCH   9  16
ENDBRANCH   6   9
TORSDOF 6
ENDMDL
MODEL      172
REMARK 921   NORMALIZED FREE ENERGY PREDICTED BY IDOCK:   -4.71 KCAL/MOL
REMARK 922        TOTAL FREE ENERGY PREDICTED BY IDOCK:   -7.41 KCAL/MOL
REMARK 923 INTER-LIGAND FREE ENERGY PREDICTED BY IDOCK:   -6.68 KCAL/MOL
REMARK 924 INTRA-LIGAND FREE ENERGY PREDICTED BY IDOCK:   -0.73 KCAL/MOL
REMARK 927      BINDING AFFINITY PREDICTED BY RF-SCORE:    0.00 PKD
ROOT
HETATM    1 CL   UNL     1     -12.206  14.558  64.153  1.00  0.00    -0.466 Cl 
HETATM    2  C   UNL     1     -11.560  13.283  65.109  1.00  0.00    -0.308 A  
HETATM    3  C   UNL     1     -10.587  12.440  64.579  1.00  0.00    -0.352 A  
HETATM    4  C   UNL     1     -10.059  11.406  65.358  1.00  0.00    -0.261 A  
HETATM    5 CL   UNL     1      -8.867  10.389  64.633  1.00  0.00    -0.201 Cl 
HETATM    6  C   UNL     1     -10.491  11.213  66.681  1.00  0.00    -0.298 A  
HETATM    7  C   UNL     1     -11.468  12.090  67.197  1.00  0.00    -0.401 A  
HETATM    8  C   UNL     1     -12.011  13.107  66.413  1.00  0.00    -0.462 A  
ENDROOT
BRANCH   6   9
HETATM    9  C   UNL     1      -9.924  10.115  67.576  1.00  0.00    -0.191 C  
BRANCH   9  10
HETATM   10  C   UNL     1      -9.601  10.720  68.956  1.00  0.00    -0.180 C  
BRANCH  10  11
HETATM   11  N   UNL     1     -10.328  10.092  70.041  1.00  0.00    -0.267 NA 
HETATM   12  C   UNL     1      -9.869   9.107  70.872  1.00  0.00    -0.291 A  
HETATM   13  C   UNL     1     -11.578  10.446  70.470  1.00  0.00    -0.344 A  
HETATM   14  N   UNL     1     -11.954   9.719  71.495  1.00  0.00    -0.395 NA 
HETATM   15  C   UNL     1     -10.899   8.885  71.755  1.00  0.00    -0.365 A  
ENDBRANCH  10  11
ENDBRANCH   9  10
BRANCH   9  16
HETATM   16  O   UNL     1     -10.900   9.072  67.750  1.00  0.00    -0.194 OA 
BRANCH  16  17
HETATM   17  C   UNL     1     -10.735   7.979  66.838  1.00  0.00    -0.131 C  
BRANCH  17  18
HETATM   18  C   UNL     1     -10.519   6.699  67.588  1.00  0.00    -0.282 A  
HETATM   19  C   UNL     1     -10.846   6.538  68.919  1.00  0.00    -0.301 A  
HETATM   20  S   UNL     1     -10.481   4.991  69.513  1.00  0.00     0.104 SA 
HETATM   21  C   UNL     1      -9.856   4.462  67.993  1.00  0.00    -0.072 A  
HETATM   22  C   UNL     1      -9.945   5.485  67.034  1.00  0.00    -0.198 A  
HETATM   23  C   UNL     1      -9.477   5.201  65.722  1.00  0.00    -0.153 A  
HETATM   24  C   UNL     1      -8.944   3.948  65.398  1.00  0.00    -0.132 A  
HETATM   25  C   UNL     1      -8.860   2.959  66.366  1.00  0.00    -0.149 A  
HETATM   26  C   UNL     1      -9.312   3.201  67.665  1.00  0.00    -0.200 A  
HETATM   27 CL   UNL     1      -9.182   1.933  68.830  1.00  0.00    -0.191 Cl 
ENDBRANCH  17  18
ENDBRANCH  16  17
ENDBRANCH   9  16
ENDBRANCH   6   9
TORSDOF 6
ENDMDL
MODEL      173
REMARK 921   NORMALIZED FREE ENERGY PREDICTED BY IDOCK:   -4.69 KCAL/MOL
REMARK 922        TOTAL FREE ENERGY PREDICTED BY IDOCK:   -7.38 KCAL/MOL
REMARK 923 INTER-LIGAND FREE ENERGY PREDICTED BY IDOCK:   -7.02 KCAL/MOL
REMARK 924 INTRA-LIGAND FREE ENERGY PREDICTED BY IDOCK:   -0.36 KCAL/MOL
REMARK 927      BINDING AFFINITY PREDICTED BY RF-SCORE:    0.00 PKD
ROOT
HETATM    1 CL   UNL     1     -12.428  15.390  72.306  1.00  0.00    -0.417 Cl 
HETATM    2  C   UNL     1     -11.698  15.441  70.750  1.00  0.00    -0.348 A  
HETATM    3  C   UNL     1     -10.321  15.615  70.632  1.00  0.00     0.115 A  
HETATM    4  C   UNL     1      -9.728  15.652  69.367  1.00  0.00    -0.292 A  
HETATM    5 CL   UNL     1      -8.018  15.885  69.293  1.00  0.00    -0.232 Cl 
HETATM    6  C   UNL     1     -10.504  15.504  68.206  1.00  0.00    -0.242 A  
HETATM    7  C   UNL     1     -11.894  15.316  68.355  1.00  0.00    -0.283 A  
HETATM    8  C   UNL     1     -12.490  15.301  69.616  1.00  0.00    -0.174 A  
ENDROOT
BRANCH   6   9
HETATM    9  C   UNL     1      -9.896  15.511  66.806  1.00  0.00    -0.241 C  
BRANCH   9  10
HETATM   10  C   UNL     1      -9.654  14.054  66.365  1.00  0.00    -0.283 C  
BRANCH  10  11
HETATM   11  N   UNL     1     -10.757  13.494  65.611  1.00  0.00    -0.277 NA 
HETATM   12  C   UNL     1     -11.659  12.563  66.048  1.00  0.00    -0.406 A  
HETATM   13  C   UNL     1     -11.131  13.874  64.351  1.00  0.00    -0.319 A  
HETATM   14  N   UNL     1     -12.190  13.212  63.948  1.00  0.00    -0.594 NA 
HETATM   15  C   UNL     1     -12.528  12.396  64.995  1.00  0.00    -0.316 A  
ENDBRANCH  10  11
ENDBRANCH   9  10
BRANCH   9  16
HETATM   16  O   UNL     1     -10.809  16.124  65.879  1.00  0.00    -0.277 OA 
BRANCH  16  17
HETATM   17  C   UNL     1     -10.389  17.422  65.438  1.00  0.00     0.071 C  
BRANCH  17  18
HETATM   18  C   UNL     1      -9.915  18.242  66.600  1.00  0.00    -0.370 A  
HETATM   19  C   UNL     1     -10.759  19.004  67.382  1.00  0.00    -0.473 A  
HETATM   20  S   UNL     1      -9.950  19.838  68.618  1.00  0.00    -0.394 SA 
HETATM   21  C   UNL     1      -8.411  19.210  68.151  1.00  0.00    -0.316 A  
HETATM   22  C   UNL     1      -8.537  18.349  67.047  1.00  0.00    -0.264 A  
HETATM   23  C   UNL     1      -7.354  17.742  66.546  1.00  0.00    -0.283 A  
HETATM   24  C   UNL     1      -6.107  17.993  67.130  1.00  0.00    -0.168 A  
HETATM   25  C   UNL     1      -6.009  18.852  68.213  1.00  0.00    -0.218 A  
HETATM   26  C   UNL     1      -7.150  19.467  68.733  1.00  0.00    -0.347 A  
HETATM   27 CL   UNL     1      -6.969  20.529  70.083  1.00  0.00     0.330 Cl 
ENDBRANCH  17  18
ENDBRANCH  16  17
ENDBRANCH   9  16
ENDBRANCH   6   9
TORSDOF 6
ENDMDL
MODEL      174
REMARK 921   NORMALIZED FREE ENERGY PREDICTED BY IDOCK:   -4.68 KCAL/MOL
REMARK 922        TOTAL FREE ENERGY PREDICTED BY IDOCK:   -7.36 KCAL/MOL
REMARK 923 INTER-LIGAND FREE ENERGY PREDICTED BY IDOCK:   -6.32 KCAL/MOL
REMARK 924 INTRA-LIGAND FREE ENERGY PREDICTED BY IDOCK:   -1.04 KCAL/MOL
REMARK 927      BINDING AFFINITY PREDICTED BY RF-SCORE:    0.00 PKD
ROOT
HETATM    1 CL   UNL     1     -13.873   9.271  72.937  1.00  0.00    -0.251 Cl 
HETATM    2  C   UNL     1     -12.684   8.548  71.927  1.00  0.00    -0.360 A  
HETATM    3  C   UNL     1     -11.425   9.132  71.806  1.00  0.00    -0.452 A  
HETATM    4  C   UNL     1     -10.458   8.541  70.988  1.00  0.00    -0.212 A  
HETATM    5 CL   UNL     1      -8.924   9.325  70.873  1.00  0.00    -0.294 Cl 
HETATM    6  C   UNL     1     -10.736   7.354  70.291  1.00  0.00    -0.250 A  
HETATM    7  C   UNL     1     -12.014   6.777  70.442  1.00  0.00    -0.343 A  
HETATM    8  C   UNL     1     -12.987   7.378  71.240  1.00  0.00    -0.358 A  
ENDROOT
BRANCH   6   9
HETATM    9  C   UNL     1      -9.702   6.660  69.409  1.00  0.00    -0.147 C  
BRANCH   9  10
HETATM   10  C   UNL     1      -9.934   5.137  69.478  1.00  0.00    -0.231 C  
BRANCH  10  11
HETATM   11  N   UNL     1      -8.712   4.380  69.653  1.00  0.00    -0.075 NA 
HETATM   12  C   UNL     1      -8.457   3.448  70.621  1.00  0.00    -0.068 A  
HETATM   13  C   UNL     1      -7.631   4.412  68.814  1.00  0.00    -0.063 A  
HETATM   14  N   UNL     1      -6.692   3.587  69.215  1.00  0.00    -0.037 NA 
HETATM   15  C   UNL     1      -7.194   2.982  70.336  1.00  0.00    -0.037 A  
ENDBRANCH  10  11
ENDBRANCH   9  10
BRANCH   9  16
HETATM   16  O   UNL     1      -9.859   7.085  68.043  1.00  0.00    -0.134 OA 
BRANCH  16  17
HETATM   17  C   UNL     1      -8.908   8.081  67.643  1.00  0.00    -0.125 C  
BRANCH  17  18
HETATM   18  C   UNL     1      -9.601   9.226  66.969  1.00  0.00    -0.223 A  
HETATM   19  C   UNL     1     -10.454  10.088  67.628  1.00  0.00    -0.246 A  
HETATM   20  S   UNL     1     -11.107  11.283  66.617  1.00  0.00    -0.166 SA 
HETATM   21  C   UNL     1     -10.269  10.687  65.230  1.00  0.00    -0.282 A  
HETATM   22  C   UNL     1      -9.480   9.574  65.564  1.00  0.00    -0.334 A  
HETATM   23  C   UNL     1      -8.719   8.971  64.526  1.00  0.00    -0.153 A  
HETATM   24  C   UNL     1      -8.754   9.467  63.219  1.00  0.00    -0.220 A  
HETATM   25  C   UNL     1      -9.547  10.563  62.914  1.00  0.00    -0.355 A  
HETATM   26  C   UNL     1     -10.308  11.182  63.908  1.00  0.00    -0.380 A  
HETATM   27 CL   UNL     1     -11.278  12.543  63.472  1.00  0.00    -0.527 Cl 
ENDBRANCH  17  18
ENDBRANCH  16  17
ENDBRANCH   9  16
ENDBRANCH   6   9
TORSDOF 6
ENDMDL
MODEL      175
REMARK 921   NORMALIZED FREE ENERGY PREDICTED BY IDOCK:   -4.68 KCAL/MOL
REMARK 922        TOTAL FREE ENERGY PREDICTED BY IDOCK:   -7.36 KCAL/MOL
REMARK 923 INTER-LIGAND FREE ENERGY PREDICTED BY IDOCK:   -6.52 KCAL/MOL
REMARK 924 INTRA-LIGAND FREE ENERGY PREDICTED BY IDOCK:   -0.85 KCAL/MOL
REMARK 927      BINDING AFFINITY PREDICTED BY RF-SCORE:    0.00 PKD
ROOT
HETATM    1 CL   UNL     1     -12.156  10.009  71.799  1.00  0.00    -0.407 Cl 
HETATM    2  C   UNL     1     -11.231  10.287  70.377  1.00  0.00    -0.332 A  
HETATM    3  C   UNL     1      -9.925   9.810  70.292  1.00  0.00    -0.309 A  
HETATM    4  C   UNL     1      -9.174  10.033  69.133  1.00  0.00    -0.190 A  
HETATM    5 CL   UNL     1      -7.557   9.428  69.101  1.00  0.00    -0.072 Cl 
HETATM    6  C   UNL     1      -9.727  10.725  68.043  1.00  0.00    -0.174 A  
HETATM    7  C   UNL     1     -11.056  11.184  68.151  1.00  0.00    -0.324 A  
HETATM    8  C   UNL     1     -11.798  10.982  69.315  1.00  0.00    -0.411 A  
ENDROOT
BRANCH   6   9
HETATM    9  C   UNL     1      -8.954  10.968  66.750  1.00  0.00    -0.157 C  
BRANCH   9  10
HETATM   10  C   UNL     1      -9.472   9.992  65.675  1.00  0.00    -0.220 C  
BRANCH  10  11
HETATM   11  N   UNL     1      -8.727  10.060  64.434  1.00  0.00    -0.182 NA 
HETATM   12  C   UNL     1      -9.131  10.647  63.267  1.00  0.00    -0.257 A  
HETATM   13  C   UNL     1      -7.444   9.618  64.252  1.00  0.00    -0.125 A  
HETATM   14  N   UNL     1      -7.027   9.852  63.030  1.00  0.00    -0.120 NA 
HETATM   15  C   UNL     1      -8.067  10.494  62.409  1.00  0.00    -0.184 A  
ENDBRANCH  10  11
ENDBRANCH   9  10
BRANCH   9  16
HETATM   16  O   UNL     1      -9.176  12.313  66.292  1.00  0.00    -0.225 OA 
BRANCH  16  17
HETATM   17  C   UNL     1      -8.408  13.292  67.004  1.00  0.00    -0.080 C  
BRANCH  17  18
HETATM   18  C   UNL     1      -8.926  14.670  66.722  1.00  0.00    -0.283 A  
HETATM   19  C   UNL     1      -9.972  14.923  65.857  1.00  0.00    -0.331 A  
HETATM   20  S   UNL     1     -10.338  16.574  65.720  1.00  0.00    -0.294 SA 
HETATM   21  C   UNL     1      -9.092  17.030  66.823  1.00  0.00    -0.246 A  
HETATM   22  C   UNL     1      -8.408  15.898  67.300  1.00  0.00    -0.211 A  
HETATM   23  C   UNL     1      -7.353  16.108  68.229  1.00  0.00    -0.140 A  
HETATM   24  C   UNL     1      -7.006  17.395  68.653  1.00  0.00    -0.226 A  
HETATM   25  C   UNL     1      -7.692  18.496  68.162  1.00  0.00    -0.302 A  
HETATM   26  C   UNL     1      -8.735  18.329  67.249  1.00  0.00    -0.255 A  
HETATM   27 CL   UNL     1      -9.553  19.734  66.669  1.00  0.00    -0.461 Cl 
ENDBRANCH  17  18
ENDBRANCH  16  17
ENDBRANCH   9  16
ENDBRANCH   6   9
TORSDOF 6
ENDMDL
MODEL      176
REMARK 921   NORMALIZED FREE ENERGY PREDICTED BY IDOCK:   -4.68 KCAL/MOL
REMARK 922        TOTAL FREE ENERGY PREDICTED BY IDOCK:   -7.36 KCAL/MOL
REMARK 923 INTER-LIGAND FREE ENERGY PREDICTED BY IDOCK:   -6.07 KCAL/MOL
REMARK 924 INTRA-LIGAND FREE ENERGY PREDICTED BY IDOCK:   -1.29 KCAL/MOL
REMARK 927      BINDING AFFINITY PREDICTED BY RF-SCORE:    0.00 PKD
ROOT
HETATM    1 CL   UNL     1     -14.159   9.003  72.495  1.00  0.00    -0.508 Cl 
HETATM    2  C   UNL     1     -12.749   8.214  71.906  1.00  0.00    -0.332 A  
HETATM    3  C   UNL     1     -11.531   8.388  72.558  1.00  0.00    -0.422 A  
HETATM    4  C   UNL     1     -10.386   7.743  72.081  1.00  0.00    -0.224 A  
HETATM    5 CL   UNL     1      -8.906   8.014  72.928  1.00  0.00    -0.259 Cl 
HETATM    6  C   UNL     1     -10.450   6.909  70.953  1.00  0.00    -0.233 A  
HETATM    7  C   UNL     1     -11.700   6.740  70.320  1.00  0.00    -0.397 A  
HETATM    8  C   UNL     1     -12.838   7.401  70.782  1.00  0.00    -0.017 A  
ENDROOT
BRANCH   6   9
HETATM    9  C   UNL     1      -9.232   6.164  70.413  1.00  0.00    -0.153 C  
BRANCH   9  10
HETATM   10  C   UNL     1      -9.511   4.649  70.475  1.00  0.00    -0.177 C  
BRANCH  10  11
HETATM   11  N   UNL     1      -8.726   3.884  69.528  1.00  0.00    -0.076 NA 
HETATM   12  C   UNL     1      -7.716   3.010  69.818  1.00  0.00    -0.043 A  
HETATM   13  C   UNL     1      -8.929   3.847  68.174  1.00  0.00    -0.121 A  
HETATM   14  N   UNL     1      -8.083   3.034  67.587  1.00  0.00    -0.078 NA 
HETATM   15  C   UNL     1      -7.325   2.507  68.599  1.00  0.00    -0.047 A  
ENDBRANCH  10  11
ENDBRANCH   9  10
BRANCH   9  16
HETATM   16  O   UNL     1      -9.001   6.532  69.042  1.00  0.00    -0.130 OA 
BRANCH  16  17
HETATM   17  C   UNL     1      -8.317   7.783  68.894  1.00  0.00    -0.128 C  
BRANCH  17  18
HETATM   18  C   UNL     1      -9.022   8.651  67.896  1.00  0.00    -0.142 A  
HETATM   19  C   UNL     1      -8.878   8.507  66.531  1.00  0.00    -0.140 A  
HETATM   20  S   UNL     1      -9.782   9.633  65.642  1.00  0.00    -0.279 SA 
HETATM   21  C   UNL     1     -10.413  10.378  67.066  1.00  0.00    -0.251 A  
HETATM   22  C   UNL     1      -9.926   9.741  68.220  1.00  0.00    -0.175 A  
HETATM   23  C   UNL     1     -10.362  10.235  69.479  1.00  0.00    -0.267 A  
HETATM   24  C   UNL     1     -11.243  11.318  69.567  1.00  0.00    -0.337 A  
HETATM   25  C   UNL     1     -11.703  11.935  68.413  1.00  0.00    -0.387 A  
HETATM   26  C   UNL     1     -11.297  11.476  67.158  1.00  0.00    -0.284 A  
HETATM   27 CL   UNL     1     -11.899  12.281  65.754  1.00  0.00    -0.457 Cl 
ENDBRANCH  17  18
ENDBRANCH  16  17
ENDBRANCH   9  16
ENDBRANCH   6   9
TORSDOF 6
ENDMDL
MODEL      177
REMARK 921   NORMALIZED FREE ENERGY PREDICTED BY IDOCK:   -4.65 KCAL/MOL
REMARK 922        TOTAL FREE ENERGY PREDICTED BY IDOCK:   -7.33 KCAL/MOL
REMARK 923 INTER-LIGAND FREE ENERGY PREDICTED BY IDOCK:   -7.29 KCAL/MOL
REMARK 924 INTRA-LIGAND FREE ENERGY PREDICTED BY IDOCK:   -0.04 KCAL/MOL
REMARK 927      BINDING AFFINITY PREDICTED BY RF-SCORE:    0.00 PKD
ROOT
HETATM    1 CL   UNL     1     -12.564  16.034  72.330  1.00  0.00    -0.520 Cl 
HETATM    2  C   UNL     1     -12.285  14.889  71.078  1.00  0.00    -0.317 A  
HETATM    3  C   UNL     1     -11.632  15.278  69.912  1.00  0.00    -0.335 A  
HETATM    4  C   UNL     1     -11.401  14.346  68.896  1.00  0.00    -0.274 A  
HETATM    5 CL   UNL     1     -10.599  14.900  67.471  1.00  0.00    -0.262 Cl 
HETATM    6  C   UNL     1     -11.812  13.010  69.042  1.00  0.00    -0.362 A  
HETATM    7  C   UNL     1     -12.459  12.640  70.239  1.00  0.00    -0.163 A  
HETATM    8  C   UNL     1     -12.710  13.575  71.243  1.00  0.00    -0.432 A  
ENDROOT
BRANCH   6   9
HETATM    9  C   UNL     1     -11.558  11.953  67.971  1.00  0.00    -0.332 C  
BRANCH   9  10
HETATM   10  C   UNL     1     -10.158  12.185  67.370  1.00  0.00    -0.199 C  
BRANCH  10  11
HETATM   11  N   UNL     1     -10.008  11.632  66.039  1.00  0.00    -0.220 NA 
HETATM   12  C   UNL     1     -10.918  11.692  65.020  1.00  0.00    -0.273 A  
HETATM   13  C   UNL     1      -8.882  11.026  65.552  1.00  0.00    -0.169 A  
HETATM   14  N   UNL     1      -9.038  10.664  64.301  1.00  0.00    -0.210 NA 
HETATM   15  C   UNL     1     -10.300  11.074  63.959  1.00  0.00    -0.371 A  
ENDBRANCH  10  11
ENDBRANCH   9  10
BRANCH   9  16
HETATM   16  O   UNL     1     -11.592  10.641  68.561  1.00  0.00    -0.289 OA 
BRANCH  16  17
HETATM   17  C   UNL     1     -10.301  10.159  68.954  1.00  0.00    -0.206 C  
BRANCH  17  18
HETATM   18  C   UNL     1     -10.356   8.688  69.241  1.00  0.00    -0.228 A  
HETATM   19  C   UNL     1     -10.458   7.729  68.253  1.00  0.00    -0.168 A  
HETATM   20  S   UNL     1     -10.513   6.147  68.864  1.00  0.00    -0.270 SA 
HETATM   21  C   UNL     1     -10.407   6.685  70.501  1.00  0.00    -0.199 A  
HETATM   22  C   UNL     1     -10.317   8.086  70.562  1.00  0.00    -0.205 A  
HETATM   23  C   UNL     1     -10.214   8.685  71.847  1.00  0.00    -0.404 A  
HETATM   24  C   UNL     1     -10.204   7.908  73.010  1.00  0.00    -0.394 A  
HETATM   25  C   UNL     1     -10.301   6.527  72.923  1.00  0.00    -0.232 A  
HETATM   26  C   UNL     1     -10.403   5.903  71.677  1.00  0.00    -0.219 A  
HETATM   27 CL   UNL     1     -10.522   4.181  71.628  1.00  0.00    -0.039 Cl 
ENDBRANCH  17  18
ENDBRANCH  16  17
ENDBRANCH   9  16
ENDBRANCH   6   9
TORSDOF 6
ENDMDL
MODEL      178
REMARK 921   NORMALIZED FREE ENERGY PREDICTED BY IDOCK:   -4.64 KCAL/MOL
REMARK 922        TOTAL FREE ENERGY PREDICTED BY IDOCK:   -7.31 KCAL/MOL
REMARK 923 INTER-LIGAND FREE ENERGY PREDICTED BY IDOCK:   -5.69 KCAL/MOL
REMARK 924 INTRA-LIGAND FREE ENERGY PREDICTED BY IDOCK:   -1.62 KCAL/MOL
REMARK 927      BINDING AFFINITY PREDICTED BY RF-SCORE:    0.00 PKD
ROOT
HETATM    1 CL   UNL     1      -9.388   2.554  74.502  1.00  0.00    -0.101 Cl 
HETATM    2  C   UNL     1      -9.680   3.858  73.418  1.00  0.00    -0.111 A  
HETATM    3  C   UNL     1      -8.629   4.397  72.680  1.00  0.00    -0.110 A  
HETATM    4  C   UNL     1      -8.867   5.453  71.796  1.00  0.00    -0.135 A  
HETATM    5 CL   UNL     1      -7.517   6.084  70.923  1.00  0.00    -0.089 Cl 
HETATM    6  C   UNL     1     -10.161   5.975  71.634  1.00  0.00    -0.245 A  
HETATM    7  C   UNL     1     -11.209   5.401  72.384  1.00  0.00    -0.272 A  
HETATM    8  C   UNL     1     -10.968   4.362  73.283  1.00  0.00    -0.358 A  
ENDROOT
BRANCH   6   9
HETATM    9  C   UNL     1     -10.472   7.109  70.661  1.00  0.00    -0.210 C  
BRANCH   9  10
HETATM   10  C   UNL     1     -10.901   6.500  69.312  1.00  0.00    -0.307 C  
BRANCH  10  11
HETATM   11  N   UNL     1     -10.196   7.065  68.179  1.00  0.00    -0.173 NA 
HETATM   12  C   UNL     1      -8.921   6.775  67.781  1.00  0.00    -0.116 A  
HETATM   13  C   UNL     1     -10.730   7.929  67.262  1.00  0.00    -0.229 A  
HETATM   14  N   UNL     1      -9.858   8.235  66.330  1.00  0.00    -0.239 NA 
HETATM   15  C   UNL     1      -8.730   7.522  66.642  1.00  0.00    -0.138 A  
ENDBRANCH  10  11
ENDBRANCH   9  10
BRANCH   9  16
HETATM   16  O   UNL     1     -11.557   7.906  71.170  1.00  0.00    -0.274 OA 
BRANCH  16  17
HETATM   17  C   UNL     1     -11.161   9.227  71.559  1.00  0.00    -0.373 C  
BRANCH  17  18
HETATM   18  C   UNL     1     -11.073  10.123  70.360  1.00  0.00    -0.393 A  
HETATM   19  C   UNL     1     -12.159  10.793  69.836  1.00  0.00    -0.337 A  
HETATM   20  S   UNL     1     -11.773  11.724  68.472  1.00  0.00    -0.314 SA 
HETATM   21  C   UNL     1     -10.111  11.260  68.520  1.00  0.00    -0.204 A  
HETATM   22  C   UNL     1      -9.865  10.396  69.601  1.00  0.00    -0.179 A  
HETATM   23  C   UNL     1      -8.535   9.930  69.782  1.00  0.00    -0.206 A  
HETATM   24  C   UNL     1      -7.507  10.316  68.916  1.00  0.00    -0.094 A  
HETATM   25  C   UNL     1      -7.777  11.164  67.853  1.00  0.00    -0.105 A  
HETATM   26  C   UNL     1      -9.072  11.643  67.643  1.00  0.00    -0.174 A  
HETATM   27 CL   UNL     1      -9.353  12.695  66.303  1.00  0.00    -0.203 Cl 
ENDBRANCH  17  18
ENDBRANCH  16  17
ENDBRANCH   9  16
ENDBRANCH   6   9
TORSDOF 6
ENDMDL
MODEL      179
REMARK 921   NORMALIZED FREE ENERGY PREDICTED BY IDOCK:   -4.60 KCAL/MOL
REMARK 922        TOTAL FREE ENERGY PREDICTED BY IDOCK:   -7.27 KCAL/MOL
REMARK 923 INTER-LIGAND FREE ENERGY PREDICTED BY IDOCK:   -6.47 KCAL/MOL
REMARK 924 INTRA-LIGAND FREE ENERGY PREDICTED BY IDOCK:   -0.79 KCAL/MOL
REMARK 927      BINDING AFFINITY PREDICTED BY RF-SCORE:    0.00 PKD
ROOT
HETATM    1 CL   UNL     1     -12.237  14.356  65.232  1.00  0.00    -0.392 Cl 
HETATM    2  C   UNL     1     -11.702  12.931  66.032  1.00  0.00    -0.404 A  
HETATM    3  C   UNL     1     -10.931  11.995  65.346  1.00  0.00    -0.347 A  
HETATM    4  C   UNL     1     -10.492  10.839  65.998  1.00  0.00    -0.208 A  
HETATM    5 CL   UNL     1      -9.553   9.714  65.084  1.00  0.00    -0.353 Cl 
HETATM    6  C   UNL     1     -10.811  10.612  67.347  1.00  0.00    -0.353 A  
HETATM    7  C   UNL     1     -11.582  11.582  68.021  1.00  0.00    -0.370 A  
HETATM    8  C   UNL     1     -12.038  12.725  67.365  1.00  0.00    -0.222 A  
ENDROOT
BRANCH   6   9
HETATM    9  C   UNL     1     -10.332   9.377  68.106  1.00  0.00    -0.211 C  
BRANCH   9  10
HETATM   10  C   UNL     1     -10.533   8.138  67.212  1.00  0.00    -0.309 C  
BRANCH  10  11
HETATM   11  N   UNL     1     -10.369   6.887  67.924  1.00  0.00    -0.179 NA 
HETATM   12  C   UNL     1      -9.504   5.874  67.613  1.00  0.00    -0.110 A  
HETATM   13  C   UNL     1     -11.001   6.547  69.090  1.00  0.00    -0.323 A  
HETATM   14  N   UNL     1     -10.619   5.366  69.513  1.00  0.00    -0.287 NA 
HETATM   15  C   UNL     1      -9.688   4.938  68.603  1.00  0.00    -0.160 A  
ENDBRANCH  10  11
ENDBRANCH   9  10
BRANCH   9  16
HETATM   16  O   UNL     1      -8.931   9.502  68.408  1.00  0.00    -0.127 OA 
BRANCH  16  17
HETATM   17  C   UNL     1      -8.670   9.819  69.782  1.00  0.00    -0.212 C  
BRANCH  17  18
HETATM   18  C   UNL     1      -8.318   8.579  70.547  1.00  0.00    -0.137 A  
HETATM   19  C   UNL     1      -7.201   7.814  70.276  1.00  0.00    -0.062 A  
HETATM   20  S   UNL     1      -7.057   6.462  71.290  1.00  0.00    -0.079 SA 
HETATM   21  C   UNL     1      -8.508   6.842  72.145  1.00  0.00    -0.113 A  
HETATM   22  C   UNL     1      -9.086   8.022  71.646  1.00  0.00    -0.194 A  
HETATM   23  C   UNL     1     -10.288   8.475  72.256  1.00  0.00    -0.402 A  
HETATM   24  C   UNL     1     -10.875   7.772  73.313  1.00  0.00    -0.312 A  
HETATM   25  C   UNL     1     -10.287   6.606  73.781  1.00  0.00    -0.373 A  
HETATM   26  C   UNL     1      -9.106   6.131  73.208  1.00  0.00    -0.129 A  
HETATM   27 CL   UNL     1      -8.419   4.674  73.830  1.00  0.00    -0.104 Cl 
ENDBRANCH  17  18
ENDBRANCH  16  17
ENDBRANCH   9  16
ENDBRANCH   6   9
TORSDOF 6
ENDMDL
MODEL      180
REMARK 921   NORMALIZED FREE ENERGY PREDICTED BY IDOCK:   -4.60 KCAL/MOL
REMARK 922        TOTAL FREE ENERGY PREDICTED BY IDOCK:   -7.26 KCAL/MOL
REMARK 923 INTER-LIGAND FREE ENERGY PREDICTED BY IDOCK:   -6.84 KCAL/MOL
REMARK 924 INTRA-LIGAND FREE ENERGY PREDICTED BY IDOCK:   -0.42 KCAL/MOL
REMARK 927      BINDING AFFINITY PREDICTED BY RF-SCORE:    0.00 PKD
ROOT
HETATM    1 CL   UNL     1     -11.735   5.331  73.046  1.00  0.00    -0.308 Cl 
HETATM    2  C   UNL     1     -11.056   6.592  72.094  1.00  0.00    -0.254 A  
HETATM    3  C   UNL     1     -11.025   6.477  70.707  1.00  0.00    -0.328 A  
HETATM    4  C   UNL     1     -10.477   7.505  69.933  1.00  0.00    -0.229 A  
HETATM    5 CL   UNL     1     -10.457   7.291  68.220  1.00  0.00    -0.236 Cl 
HETATM    6  C   UNL     1      -9.964   8.663  70.540  1.00  0.00    -0.220 A  
HETATM    7  C   UNL     1     -10.021   8.759  71.946  1.00  0.00    -0.401 A  
HETATM    8  C   UNL     1     -10.547   7.725  72.719  1.00  0.00    -0.401 A  
ENDROOT
BRANCH   6   9
HETATM    9  C   UNL     1      -9.381   9.821  69.734  1.00  0.00    -0.226 C  
BRANCH   9  10
HETATM   10  C   UNL     1      -8.078   9.348  69.061  1.00  0.00    -0.106 C  
BRANCH  10  11
HETATM   11  N   UNL     1      -6.976   9.198  69.990  1.00  0.00    -0.048 NA 
HETATM   12  C   UNL     1      -6.497  10.145  70.852  1.00  0.00     0.039 A  
HETATM   13  C   UNL     1      -6.283   8.040  70.220  1.00  0.00    -0.032 A  
HETATM   14  N   UNL     1      -5.368   8.208  71.145  1.00  0.00    -0.029 NA 
HETATM   15  C   UNL     1      -5.493   9.512  71.546  1.00  0.00    -0.072 A  
ENDBRANCH  10  11
ENDBRANCH   9  10
BRANCH   9  16
HETATM   16  O   UNL     1     -10.309  10.219  68.709  1.00  0.00    -0.175 OA 
BRANCH  16  17
HETATM   17  C   UNL     1     -11.356  11.073  69.187  1.00  0.00    -0.280 C  
BRANCH  17  18
HETATM   18  C   UNL     1     -11.333  12.386  68.464  1.00  0.00    -0.336 A  
HETATM   19  C   UNL     1     -11.470  13.603  69.102  1.00  0.00    -0.297 A  
HETATM   20  S   UNL     1     -11.419  14.923  68.037  1.00  0.00    -0.344 SA 
HETATM   21  C   UNL     1     -11.213  13.909  66.655  1.00  0.00    -0.320 A  
HETATM   22  C   UNL     1     -11.174  12.555  67.030  1.00  0.00    -0.353 A  
HETATM   23  C   UNL     1     -10.999  11.591  66.001  1.00  0.00    -0.316 A  
HETATM   24  C   UNL     1     -10.873  11.974  64.662  1.00  0.00    -0.357 A  
HETATM   25  C   UNL     1     -10.922  13.316  64.317  1.00  0.00    -0.418 A  
HETATM   26  C   UNL     1     -11.092  14.293  65.301  1.00  0.00    -0.335 A  
HETATM   27 CL   UNL     1     -11.147  15.949  64.816  1.00  0.00    -0.454 Cl 
ENDBRANCH  17  18
ENDBRANCH  16  17
ENDBRANCH   9  16
ENDBRANCH   6   9
TORSDOF 6
ENDMDL
MODEL      181
REMARK 921   NORMALIZED FREE ENERGY PREDICTED BY IDOCK:   -4.57 KCAL/MOL
REMARK 922        TOTAL FREE ENERGY PREDICTED BY IDOCK:   -7.22 KCAL/MOL
REMARK 923 INTER-LIGAND FREE ENERGY PREDICTED BY IDOCK:   -6.48 KCAL/MOL
REMARK 924 INTRA-LIGAND FREE ENERGY PREDICTED BY IDOCK:   -0.74 KCAL/MOL
REMARK 927      BINDING AFFINITY PREDICTED BY RF-SCORE:    0.00 PKD
ROOT
HETATM    1 CL   UNL     1      -6.193  10.071  64.005  1.00  0.00    -0.126 Cl 
HETATM    2  C   UNL     1      -7.336   9.868  65.274  1.00  0.00    -0.131 A  
HETATM    3  C   UNL     1      -8.606  10.429  65.163  1.00  0.00    -0.189 A  
HETATM    4  C   UNL     1      -9.536  10.260  66.194  1.00  0.00    -0.181 A  
HETATM    5 CL   UNL     1     -11.086  10.994  65.997  1.00  0.00    -0.135 Cl 
HETATM    6  C   UNL     1      -9.208   9.520  67.341  1.00  0.00    -0.152 A  
HETATM    7  C   UNL     1      -7.919   8.952  67.421  1.00  0.00    -0.101 A  
HETATM    8  C   UNL     1      -6.983   9.139  66.404  1.00  0.00    -0.080 A  
ENDROOT
BRANCH   6   9
HETATM    9  C   UNL     1     -10.199   9.288  68.478  1.00  0.00    -0.201 C  
BRANCH   9  10
HETATM   10  C   UNL     1      -9.462   8.600  69.645  1.00  0.00    -0.162 C  
BRANCH  10  11
HETATM   11  N   UNL     1     -10.348   8.175  70.709  1.00  0.00    -0.195 NA 
HETATM   12  C   UNL     1     -11.257   7.155  70.660  1.00  0.00    -0.280 A  
HETATM   13  C   UNL     1     -10.357   8.677  71.983  1.00  0.00    -0.346 A  
HETATM   14  N   UNL     1     -11.245   8.064  72.730  1.00  0.00    -0.400 NA 
HETATM   15  C   UNL     1     -11.809   7.115  71.919  1.00  0.00    -0.300 A  
ENDBRANCH  10  11
ENDBRANCH   9  10
BRANCH   9  16
HETATM   16  O   UNL     1     -10.716  10.548  68.942  1.00  0.00    -0.192 OA 
BRANCH  16  17
HETATM   17  C   UNL     1     -12.125  10.525  69.205  1.00  0.00    -0.048 C  
BRANCH  17  18
HETATM   18  C   UNL     1     -12.487  11.577  70.210  1.00  0.00    -0.284 A  
HETATM   19  C   UNL     1     -13.076  11.292  71.425  1.00  0.00    -0.295 A  
HETATM   20  S   UNL     1     -13.387  12.675  72.356  1.00  0.00    -0.090 SA 
HETATM   21  C   UNL     1     -12.743  13.733  71.154  1.00  0.00    -0.362 A  
HETATM   22  C   UNL     1     -12.281  13.005  70.044  1.00  0.00    -0.306 A  
HETATM   23  C   UNL     1     -11.711  13.737  68.967  1.00  0.00    -0.372 A  
HETATM   24  C   UNL     1     -11.614  15.132  69.009  1.00  0.00    -0.350 A  
HETATM   25  C   UNL     1     -12.085  15.827  70.112  1.00  0.00    -0.355 A  
HETATM   26  C   UNL     1     -12.651  15.142  71.190  1.00  0.00    -0.367 A  
HETATM   27 CL   UNL     1     -13.222  16.058  72.538  1.00  0.00    -0.479 Cl 
ENDBRANCH  17  18
ENDBRANCH  16  17
ENDBRANCH   9  16
ENDBRANCH   6   9
TORSDOF 6
ENDMDL
MODEL      182
REMARK 921   NORMALIZED FREE ENERGY PREDICTED BY IDOCK:   -4.55 KCAL/MOL
REMARK 922        TOTAL FREE ENERGY PREDICTED BY IDOCK:   -7.20 KCAL/MOL
REMARK 923 INTER-LIGAND FREE ENERGY PREDICTED BY IDOCK:   -6.40 KCAL/MOL
REMARK 924 INTRA-LIGAND FREE ENERGY PREDICTED BY IDOCK:   -0.80 KCAL/MOL
REMARK 927      BINDING AFFINITY PREDICTED BY RF-SCORE:    0.00 PKD
ROOT
HETATM    1 CL   UNL     1      -5.168  13.519  70.149  1.00  0.00    -0.094 Cl 
HETATM    2  C   UNL     1      -6.421  12.434  69.690  1.00  0.00    -0.063 A  
HETATM    3  C   UNL     1      -6.520  11.187  70.301  1.00  0.00    -0.039 A  
HETATM    4  C   UNL     1      -7.541  10.307  69.930  1.00  0.00    -0.143 A  
HETATM    5 CL   UNL     1      -7.596   8.771  70.718  1.00  0.00    -0.082 Cl 
HETATM    6  C   UNL     1      -8.481  10.671  68.952  1.00  0.00    -0.154 A  
HETATM    7  C   UNL     1      -8.365  11.945  68.359  1.00  0.00    -0.157 A  
HETATM    8  C   UNL     1      -7.333  12.815  68.712  1.00  0.00    -0.067 A  
ENDROOT
BRANCH   6   9
HETATM    9  C   UNL     1      -9.627   9.753  68.535  1.00  0.00    -0.149 C  
BRANCH   9  10
HETATM   10  C   UNL     1     -10.672   9.722  69.668  1.00  0.00    -0.242 C  
BRANCH  10  11
HETATM   11  N   UNL     1     -11.057   8.379  70.053  1.00  0.00    -0.200 NA 
HETATM   12  C   UNL     1     -10.814   7.226  69.359  1.00  0.00    -0.190 A  
HETATM   13  C   UNL     1     -11.660   8.032  71.232  1.00  0.00    -0.276 A  
HETATM   14  N   UNL     1     -11.849   6.736  71.308  1.00  0.00    -0.330 NA 
HETATM   15  C   UNL     1     -11.326   6.224  70.150  1.00  0.00    -0.406 A  
ENDBRANCH  10  11
ENDBRANCH   9  10
BRANCH   9  16
HETATM   16  O   UNL     1     -10.256  10.265  67.347  1.00  0.00    -0.194 OA 
BRANCH  16  17
HETATM   17  C   UNL     1     -11.482  10.961  67.604  1.00  0.00    -0.200 C  
BRANCH  17  18
HETATM   18  C   UNL     1     -11.297  12.437  67.415  1.00  0.00    -0.381 A  
HETATM   19  C   UNL     1     -10.885  13.000  66.224  1.00  0.00    -0.278 A  
HETATM   20  S   UNL     1     -10.748  14.689  66.298  1.00  0.00    -0.325 SA 
HETATM   21  C   UNL     1     -11.236  14.741  67.953  1.00  0.00    -0.306 A  
HETATM   22  C   UNL     1     -11.514  13.450  68.432  1.00  0.00    -0.351 A  
HETATM   23  C   UNL     1     -11.939  13.325  69.783  1.00  0.00    -0.391 A  
HETATM   24  C   UNL     1     -12.075  14.448  70.606  1.00  0.00    -0.404 A  
HETATM   25  C   UNL     1     -11.788  15.711  70.111  1.00  0.00    -0.381 A  
HETATM   26  C   UNL     1     -11.369  15.872  68.789  1.00  0.00    -0.378 A  
HETATM   27 CL   UNL     1     -11.024  17.467  68.225  1.00  0.00    -0.214 Cl 
ENDBRANCH  17  18
ENDBRANCH  16  17
ENDBRANCH   9  16
ENDBRANCH   6   9
TORSDOF 6
ENDMDL
MODEL      183
REMARK 921   NORMALIZED FREE ENERGY PREDICTED BY IDOCK:   -4.54 KCAL/MOL
REMARK 922        TOTAL FREE ENERGY PREDICTED BY IDOCK:   -7.18 KCAL/MOL
REMARK 923 INTER-LIGAND FREE ENERGY PREDICTED BY IDOCK:   -6.38 KCAL/MOL
REMARK 924 INTRA-LIGAND FREE ENERGY PREDICTED BY IDOCK:   -0.80 KCAL/MOL
REMARK 927      BINDING AFFINITY PREDICTED BY RF-SCORE:    0.00 PKD
ROOT
HETATM    1 CL   UNL     1     -12.884  12.547  62.850  1.00  0.00     0.225 Cl 
HETATM    2  C   UNL     1     -11.807  12.310  64.169  1.00  0.00    -0.419 A  
HETATM    3  C   UNL     1     -10.691  11.490  64.018  1.00  0.00    -0.445 A  
HETATM    4  C   UNL     1      -9.813  11.301  65.090  1.00  0.00    -0.252 A  
HETATM    5 CL   UNL     1      -8.459  10.261  64.839  1.00  0.00    -0.173 Cl 
HETATM    6  C   UNL     1     -10.037  11.940  66.321  1.00  0.00    -0.249 A  
HETATM    7  C   UNL     1     -11.167  12.775  66.442  1.00  0.00    -0.339 A  
HETATM    8  C   UNL     1     -12.055  12.946  65.380  1.00  0.00    -0.501 A  
ENDROOT
BRANCH   6   9
HETATM    9  C   UNL     1      -9.092  11.784  67.509  1.00  0.00    -0.175 C  
BRANCH   9  10
HETATM   10  C   UNL     1      -8.913  13.159  68.183  1.00  0.00    -0.195 C  
BRANCH  10  11
HETATM   11  N   UNL     1      -7.583  13.709  68.016  1.00  0.00    -0.123 NA 
HETATM   12  C   UNL     1      -6.398  13.082  68.286  1.00  0.00    -0.089 A  
HETATM   13  C   UNL     1      -7.291  14.930  67.472  1.00  0.00    -0.204 A  
HETATM   14  N   UNL     1      -5.995  15.131  67.419  1.00  0.00    -0.334 NA 
HETATM   15  C   UNL     1      -5.430  13.989  67.921  1.00  0.00    -0.082 A  
ENDBRANCH  10  11
ENDBRANCH   9  10
BRANCH   9  16
HETATM   16  O   UNL     1      -9.658  10.874  68.469  1.00  0.00    -0.172 OA 
BRANCH  16  17
HETATM   17  C   UNL     1      -8.774  10.568  69.555  1.00  0.00    -0.020 C  
BRANCH  17  18
HETATM   18  C   UNL     1      -9.163   9.270  70.197  1.00  0.00    -0.254 A  
HETATM   19  C   UNL     1      -8.328   8.172  70.247  1.00  0.00    -0.124 A  
HETATM   20  S   UNL     1      -9.030   6.835  71.020  1.00  0.00    -0.145 SA 
HETATM   21  C   UNL     1     -10.506   7.678  71.323  1.00  0.00    -0.206 A  
HETATM   22  C   UNL     1     -10.439   8.993  70.832  1.00  0.00    -0.321 A  
HETATM   23  C   UNL     1     -11.579   9.823  71.012  1.00  0.00    -0.455 A  
HETATM   24  C   UNL     1     -12.727   9.347  71.654  1.00  0.00    -0.459 A  
HETATM   25  C   UNL     1     -12.771   8.043  72.123  1.00  0.00    -0.293 A  
HETATM   26  C   UNL     1     -11.669   7.199  71.964  1.00  0.00    -0.289 A  
HETATM   27 CL   UNL     1     -11.778   5.584  72.565  1.00  0.00    -0.290 Cl 
ENDBRANCH  17  18
ENDBRANCH  16  17
ENDBRANCH   9  16
ENDBRANCH   6   9
TORSDOF 6
ENDMDL
MODEL      184
REMARK 921   NORMALIZED FREE ENERGY PREDICTED BY IDOCK:   -4.53 KCAL/MOL
REMARK 922        TOTAL FREE ENERGY PREDICTED BY IDOCK:   -7.17 KCAL/MOL
REMARK 923 INTER-LIGAND FREE ENERGY PREDICTED BY IDOCK:   -6.29 KCAL/MOL
REMARK 924 INTRA-LIGAND FREE ENERGY PREDICTED BY IDOCK:   -0.88 KCAL/MOL
REMARK 927      BINDING AFFINITY PREDICTED BY RF-SCORE:    0.00 PKD
ROOT
HETATM    1 CL   UNL     1     -11.896   8.016  72.439  1.00  0.00    -0.418 Cl 
HETATM    2  C   UNL     1     -10.920   7.954  71.025  1.00  0.00    -0.244 A  
HETATM    3  C   UNL     1     -11.270   7.109  69.975  1.00  0.00    -0.271 A  
HETATM    4  C   UNL     1     -10.479   7.062  68.823  1.00  0.00    -0.206 A  
HETATM    5 CL   UNL     1     -10.961   5.981  67.566  1.00  0.00    -0.382 Cl 
HETATM    6  C   UNL     1      -9.336   7.870  68.705  1.00  0.00    -0.146 A  
HETATM    7  C   UNL     1      -9.013   8.727  69.778  1.00  0.00    -0.146 A  
HETATM    8  C   UNL     1      -9.789   8.757  70.936  1.00  0.00    -0.278 A  
ENDROOT
BRANCH   6   9
HETATM    9  C   UNL     1      -8.458   7.872  67.456  1.00  0.00    -0.123 C  
BRANCH   9  10
HETATM   10  C   UNL     1      -7.990   6.430  67.178  1.00  0.00    -0.112 C  
BRANCH  10  11
HETATM   11  N   UNL     1      -7.148   5.890  68.227  1.00  0.00    -0.075 NA 
HETATM   12  C   UNL     1      -7.377   4.760  68.961  1.00  0.00    -0.053 A  
HETATM   13  C   UNL     1      -5.927   6.384  68.597  1.00  0.00    -0.021 A  
HETATM   14  N   UNL     1      -5.388   5.659  69.549  1.00  0.00    -0.004 NA 
HETATM   15  C   UNL     1      -6.280   4.646  69.782  1.00  0.00    -0.026 A  
ENDBRANCH  10  11
ENDBRANCH   9  10
BRANCH   9  16
HETATM   16  O   UNL     1      -9.218   8.333  66.325  1.00  0.00    -0.181 OA 
BRANCH  16  17
HETATM   17  C   UNL     1      -8.551   9.349  65.565  1.00  0.00    -0.151 C  
BRANCH  17  18
HETATM   18  C   UNL     1      -9.513  10.432  65.181  1.00  0.00    -0.303 A  
HETATM   19  C   UNL     1      -9.788  10.770  63.871  1.00  0.00    -0.332 A  
HETATM   20  S   UNL     1     -10.904  12.039  63.729  1.00  0.00    -0.465 SA 
HETATM   21  C   UNL     1     -11.069  12.199  65.441  1.00  0.00    -0.317 A  
HETATM   22  C   UNL     1     -10.266  11.259  66.109  1.00  0.00    -0.291 A  
HETATM   23  C   UNL     1     -10.297  11.256  67.530  1.00  0.00    -0.224 A  
HETATM   24  C   UNL     1     -11.098  12.158  68.238  1.00  0.00    -0.288 A  
HETATM   25  C   UNL     1     -11.876  13.081  67.555  1.00  0.00    -0.408 A  
HETATM   26  C   UNL     1     -11.871  13.112  66.159  1.00  0.00    -0.401 A  
HETATM   27 CL   UNL     1     -12.858  14.282  65.360  1.00  0.00    -0.420 Cl 
ENDBRANCH  17  18
ENDBRANCH  16  17
ENDBRANCH   9  16
ENDBRANCH   6   9
TORSDOF 6
ENDMDL
MODEL      185
REMARK 921   NORMALIZED FREE ENERGY PREDICTED BY IDOCK:   -4.52 KCAL/MOL
REMARK 922        TOTAL FREE ENERGY PREDICTED BY IDOCK:   -7.15 KCAL/MOL
REMARK 923 INTER-LIGAND FREE ENERGY PREDICTED BY IDOCK:   -6.53 KCAL/MOL
REMARK 924 INTRA-LIGAND FREE ENERGY PREDICTED BY IDOCK:   -0.62 KCAL/MOL
REMARK 927      BINDING AFFINITY PREDICTED BY RF-SCORE:    0.00 PKD
ROOT
HETATM    1 CL   UNL     1     -12.314  13.440  63.091  1.00  0.00    -0.340 Cl 
HETATM    2  C   UNL     1     -11.933  13.386  64.767  1.00  0.00    -0.390 A  
HETATM    3  C   UNL     1     -11.595  14.557  65.441  1.00  0.00    -0.355 A  
HETATM    4  C   UNL     1     -11.290  14.514  66.805  1.00  0.00    -0.352 A  
HETATM    5 CL   UNL     1     -10.865  15.999  67.576  1.00  0.00    -0.313 Cl 
HETATM    6  C   UNL     1     -11.329  13.300  67.510  1.00  0.00    -0.329 A  
HETATM    7  C   UNL     1     -11.688  12.132  66.805  1.00  0.00    -0.377 A  
HETATM    8  C   UNL     1     -11.971  12.171  65.440  1.00  0.00    -0.296 A  
ENDROOT
BRANCH   6   9
HETATM    9  C   UNL     1     -11.030  13.209  69.004  1.00  0.00    -0.197 C  
BRANCH   9  10
HETATM   10  C   UNL     1     -12.364  13.151  69.773  1.00  0.00    -0.102 C  
BRANCH  10  11
HETATM   11  N   UNL     1     -12.441  14.110  70.857  1.00  0.00    -0.343 NA 
HETATM   12  C   UNL     1     -11.618  15.182  71.062  1.00  0.00    -0.347 A  
HETATM   13  C   UNL     1     -13.416  14.148  71.817  1.00  0.00    -0.390 A  
HETATM   14  N   UNL     1     -13.237  15.154  72.640  1.00  0.00    -0.394 NA 
HETATM   15  C   UNL     1     -12.123  15.805  72.180  1.00  0.00    -0.478 A  
ENDBRANCH  10  11
ENDBRANCH   9  10
BRANCH   9  16
HETATM   16  O   UNL     1     -10.288  12.008  69.282  1.00  0.00     0.001 OA 
BRANCH  16  17
HETATM   17  C   UNL     1     -11.045  11.023  69.997  1.00  0.00    -0.161 C  
BRANCH  17  18
HETATM   18  C   UNL     1     -10.578   9.643  69.641  1.00  0.00    -0.252 A  
HETATM   19  C   UNL     1     -11.263   8.498  69.994  1.00  0.00    -0.086 A  
HETATM   20  S   UNL     1     -10.500   7.077  69.471  1.00  0.00    -0.227 SA 
HETATM   21  C   UNL     1      -9.197   7.944  68.742  1.00  0.00    -0.143 A  
HETATM   22  C   UNL     1      -9.369   9.329  68.900  1.00  0.00    -0.150 A  
HETATM   23  C   UNL     1      -8.379  10.184  68.344  1.00  0.00    -0.113 A  
HETATM   24  C   UNL     1      -7.271   9.665  67.666  1.00  0.00    -0.089 A  
HETATM   25  C   UNL     1      -7.120   8.293  67.531  1.00  0.00    -0.083 A  
HETATM   26  C   UNL     1      -8.074   7.422  68.063  1.00  0.00    -0.124 A  
HETATM   27 CL   UNL     1      -7.836   5.723  67.866  1.00  0.00    -0.097 Cl 
ENDBRANCH  17  18
ENDBRANCH  16  17
ENDBRANCH   9  16
ENDBRANCH   6   9
TORSDOF 6
ENDMDL
MODEL      186
REMARK 921   NORMALIZED FREE ENERGY PREDICTED BY IDOCK:   -4.51 KCAL/MOL
REMARK 922        TOTAL FREE ENERGY PREDICTED BY IDOCK:   -7.14 KCAL/MOL
REMARK 923 INTER-LIGAND FREE ENERGY PREDICTED BY IDOCK:   -6.14 KCAL/MOL
REMARK 924 INTRA-LIGAND FREE ENERGY PREDICTED BY IDOCK:   -1.00 KCAL/MOL
REMARK 927      BINDING AFFINITY PREDICTED BY RF-SCORE:    0.00 PKD
ROOT
HETATM    1 CL   UNL     1      -7.307   8.773  62.549  1.00  0.00    -0.100 Cl 
HETATM    2  C   UNL     1      -7.933   9.660  63.883  1.00  0.00    -0.143 A  
HETATM    3  C   UNL     1      -7.068  10.153  64.857  1.00  0.00    -0.131 A  
HETATM    4  C   UNL     1      -7.577  10.878  65.940  1.00  0.00    -0.057 A  
HETATM    5 CL   UNL     1      -6.451  11.448  67.118  1.00  0.00    -0.096 Cl 
HETATM    6  C   UNL     1      -8.955  11.125  66.053  1.00  0.00    -0.210 A  
HETATM    7  C   UNL     1      -9.806  10.625  65.045  1.00  0.00    -0.353 A  
HETATM    8  C   UNL     1      -9.301   9.883  63.977  1.00  0.00    -0.280 A  
ENDROOT
BRANCH   6   9
HETATM    9  C   UNL     1      -9.551  11.933  67.202  1.00  0.00    -0.186 C  
BRANCH   9  10
HETATM   10  C   UNL     1      -9.908  13.340  66.684  1.00  0.00    -0.276 C  
BRANCH  10  11
HETATM   11  N   UNL     1     -10.431  14.214  67.715  1.00  0.00    -0.244 NA 
HETATM   12  C   UNL     1      -9.788  14.610  68.855  1.00  0.00    -0.211 A  
HETATM   13  C   UNL     1     -11.635  14.862  67.672  1.00  0.00    -0.339 A  
HETATM   14  N   UNL     1     -11.812  15.611  68.734  1.00  0.00    -0.362 NA 
HETATM   15  C   UNL     1     -10.669  15.464  69.476  1.00  0.00    -0.267 A  
ENDBRANCH  10  11
ENDBRANCH   9  10
BRANCH   9  16
HETATM   16  O   UNL     1     -10.754  11.299  67.673  1.00  0.00    -0.201 OA 
BRANCH  16  17
HETATM   17  C   UNL     1     -10.679  10.882  69.043  1.00  0.00    -0.224 C  
BRANCH  17  18
HETATM   18  C   UNL     1     -10.562   9.390  69.130  1.00  0.00    -0.234 A  
HETATM   19  C   UNL     1     -10.578   8.564  68.024  1.00  0.00    -0.137 A  
HETATM   20  S   UNL     1     -10.440   6.920  68.418  1.00  0.00    -0.213 SA 
HETATM   21  C   UNL     1     -10.357   7.245  70.111  1.00  0.00    -0.212 A  
HETATM   22  C   UNL     1     -10.424   8.627  70.358  1.00  0.00    -0.233 A  
HETATM   23  C   UNL     1     -10.359   9.059  71.711  1.00  0.00    -0.407 A  
HETATM   24  C   UNL     1     -10.233   8.142  72.759  1.00  0.00    -0.372 A  
HETATM   25  C   UNL     1     -10.176   6.783  72.489  1.00  0.00    -0.200 A  
HETATM   26  C   UNL     1     -10.236   6.321  71.173  1.00  0.00    -0.198 A  
HETATM   27 CL   UNL     1     -10.162   4.619  70.894  1.00  0.00    -0.256 Cl 
ENDBRANCH  17  18
ENDBRANCH  16  17
ENDBRANCH   9  16
ENDBRANCH   6   9
TORSDOF 6
ENDMDL
MODEL      187
REMARK 921   NORMALIZED FREE ENERGY PREDICTED BY IDOCK:   -4.48 KCAL/MOL
REMARK 922        TOTAL FREE ENERGY PREDICTED BY IDOCK:   -7.09 KCAL/MOL
REMARK 923 INTER-LIGAND FREE ENERGY PREDICTED BY IDOCK:   -6.22 KCAL/MOL
REMARK 924 INTRA-LIGAND FREE ENERGY PREDICTED BY IDOCK:   -0.88 KCAL/MOL
REMARK 927      BINDING AFFINITY PREDICTED BY RF-SCORE:    0.00 PKD
ROOT
HETATM    1 CL   UNL     1      -7.770  17.585  65.872  1.00  0.00    -0.225 Cl 
HETATM    2  C   UNL     1      -8.315  16.077  66.490  1.00  0.00    -0.313 A  
HETATM    3  C   UNL     1      -7.532  15.374  67.403  1.00  0.00    -0.239 A  
HETATM    4  C   UNL     1      -7.978  14.150  67.909  1.00  0.00    -0.156 A  
HETATM    5 CL   UNL     1      -6.950  13.325  69.025  1.00  0.00    -0.100 Cl 
HETATM    6  C   UNL     1      -9.218  13.620  67.515  1.00  0.00    -0.218 A  
HETATM    7  C   UNL     1      -9.997  14.359  66.600  1.00  0.00    -0.278 A  
HETATM    8  C   UNL     1      -9.542  15.570  66.078  1.00  0.00    -0.380 A  
ENDROOT
BRANCH   6   9
HETATM    9  C   UNL     1      -9.756  12.301  68.062  1.00  0.00    -0.205 C  
BRANCH   9  10
HETATM   10  C   UNL     1     -11.297  12.360  68.067  1.00  0.00    -0.287 C  
BRANCH  10  11
HETATM   11  N   UNL     1     -11.862  12.411  69.400  1.00  0.00    -0.312 NA 
HETATM   12  C   UNL     1     -12.277  13.527  70.072  1.00  0.00    -0.312 A  
HETATM   13  C   UNL     1     -12.157  11.325  70.180  1.00  0.00    -0.366 A  
HETATM   14  N   UNL     1     -12.695  11.689  71.320  1.00  0.00    -0.383 NA 
HETATM   15  C   UNL     1     -12.776  13.056  71.264  1.00  0.00    -0.293 A  
ENDBRANCH  10  11
ENDBRANCH   9  10
BRANCH   9  16
HETATM   16  O   UNL     1      -9.342  11.215  67.214  1.00  0.00    -0.159 OA 
BRANCH  16  17
HETATM   17  C   UNL     1      -8.404  10.329  67.839  1.00  0.00    -0.114 C  
BRANCH  17  18
HETATM   18  C   UNL     1      -8.231   9.086  67.019  1.00  0.00    -0.109 A  
HETATM   19  C   UNL     1      -7.204   8.914  66.113  1.00  0.00    -0.090 A  
HETATM   20  S   UNL     1      -7.261   7.417  65.317  1.00  0.00    -0.072 SA 
HETATM   21  C   UNL     1      -8.688   6.928  66.159  1.00  0.00    -0.145 A  
HETATM   22  C   UNL     1      -9.102   7.924  67.059  1.00  0.00    -0.162 A  
HETATM   23  C   UNL     1     -10.263   7.667  67.837  1.00  0.00    -0.250 A  
HETATM   24  C   UNL     1     -10.969   6.466  67.711  1.00  0.00    -0.425 A  
HETATM   25  C   UNL     1     -10.544   5.502  66.810  1.00  0.00    -0.360 A  
HETATM   26  C   UNL     1      -9.406   5.719  66.029  1.00  0.00    -0.117 A  
HETATM   27 CL   UNL     1      -8.922   4.485  64.922  1.00  0.00    -0.147 Cl 
ENDBRANCH  17  18
ENDBRANCH  16  17
ENDBRANCH   9  16
ENDBRANCH   6   9
TORSDOF 6
ENDMDL
MODEL      188
REMARK 921   NORMALIZED FREE ENERGY PREDICTED BY IDOCK:   -4.47 KCAL/MOL
REMARK 922        TOTAL FREE ENERGY PREDICTED BY IDOCK:   -7.09 KCAL/MOL
REMARK 923 INTER-LIGAND FREE ENERGY PREDICTED BY IDOCK:   -6.73 KCAL/MOL
REMARK 924 INTRA-LIGAND FREE ENERGY PREDICTED BY IDOCK:   -0.36 KCAL/MOL
REMARK 927      BINDING AFFINITY PREDICTED BY RF-SCORE:    0.00 PKD
ROOT
HETATM    1 CL   UNL     1      -6.836   9.775  64.076  1.00  0.00    -0.115 Cl 
HETATM    2  C   UNL     1      -8.051   9.915  65.284  1.00  0.00    -0.139 A  
HETATM    3  C   UNL     1      -7.834  10.720  66.401  1.00  0.00    -0.148 A  
HETATM    4  C   UNL     1      -8.825  10.836  67.380  1.00  0.00    -0.129 A  
HETATM    5 CL   UNL     1      -8.483  11.838  68.745  1.00  0.00    -0.057 Cl 
HETATM    6  C   UNL     1     -10.048  10.159  67.248  1.00  0.00    -0.254 A  
HETATM    7  C   UNL     1     -10.246   9.362  66.100  1.00  0.00    -0.264 A  
HETATM    8  C   UNL     1      -9.250   9.227  65.134  1.00  0.00    -0.264 A  
ENDROOT
BRANCH   6   9
HETATM    9  C   UNL     1     -11.167  10.278  68.278  1.00  0.00    -0.232 C  
BRANCH   9  10
HETATM   10  C   UNL     1     -10.550  10.210  69.689  1.00  0.00    -0.257 C  
BRANCH  10  11
HETATM   11  N   UNL     1     -10.039   8.896  70.026  1.00  0.00    -0.186 NA 
HETATM   12  C   UNL     1      -8.792   8.600  70.502  1.00  0.00    -0.163 A  
HETATM   13  C   UNL     1     -10.761   7.734  70.005  1.00  0.00    -0.244 A  
HETATM   14  N   UNL     1     -10.035   6.714  70.399  1.00  0.00    -0.175 NA 
HETATM   15  C   UNL     1      -8.809   7.241  70.712  1.00  0.00    -0.150 A  
ENDBRANCH  10  11
ENDBRANCH   9  10
BRANCH   9  16
HETATM   16  O   UNL     1     -11.835  11.544  68.131  1.00  0.00    -0.510 OA 
BRANCH  16  17
HETATM   17  C   UNL     1     -12.144  12.175  69.380  1.00  0.00    -0.190 C  
BRANCH  17  18
HETATM   18  C   UNL     1     -11.792  13.631  69.333  1.00  0.00    -0.392 A  
HETATM   19  C   UNL     1     -11.978  14.489  70.399  1.00  0.00    -0.318 A  
HETATM   20  S   UNL     1     -11.504  16.082  70.062  1.00  0.00    -0.302 SA 
HETATM   21  C   UNL     1     -11.026  15.690  68.451  1.00  0.00    -0.308 A  
HETATM   22  C   UNL     1     -11.226  14.324  68.189  1.00  0.00    -0.295 A  
HETATM   23  C   UNL     1     -10.871  13.840  66.901  1.00  0.00    -0.286 A  
HETATM   24  C   UNL     1     -10.341  14.694  65.927  1.00  0.00    -0.334 A  
HETATM   25  C   UNL     1     -10.160  16.039  66.208  1.00  0.00    -0.329 A  
HETATM   26  C   UNL     1     -10.497  16.550  67.463  1.00  0.00    -0.310 A  
HETATM   27 CL   UNL     1     -10.252  18.234  67.758  1.00  0.00    -0.377 Cl 
ENDBRANCH  17  18
ENDBRANCH  16  17
ENDBRANCH   9  16
ENDBRANCH   6   9
TORSDOF 6
ENDMDL
MODEL      189
REMARK 921   NORMALIZED FREE ENERGY PREDICTED BY IDOCK:   -4.46 KCAL/MOL
REMARK 922        TOTAL FREE ENERGY PREDICTED BY IDOCK:   -7.07 KCAL/MOL
REMARK 923 INTER-LIGAND FREE ENERGY PREDICTED BY IDOCK:   -6.18 KCAL/MOL
REMARK 924 INTRA-LIGAND FREE ENERGY PREDICTED BY IDOCK:   -0.90 KCAL/MOL
REMARK 927      BINDING AFFINITY PREDICTED BY RF-SCORE:    0.00 PKD
ROOT
HETATM    1 CL   UNL     1      -5.673  13.154  70.478  1.00  0.00    -0.173 Cl 
HETATM    2  C   UNL     1      -6.549  12.164  69.378  1.00  0.00    -0.090 A  
HETATM    3  C   UNL     1      -6.318  10.792  69.341  1.00  0.00    -0.068 A  
HETATM    4  C   UNL     1      -7.033   9.987  68.450  1.00  0.00    -0.067 A  
HETATM    5 CL   UNL     1      -6.685   8.295  68.446  1.00  0.00    -0.063 Cl 
HETATM    6  C   UNL     1      -7.997  10.546  67.594  1.00  0.00    -0.106 A  
HETATM    7  C   UNL     1      -8.221  11.937  67.662  1.00  0.00    -0.148 A  
HETATM    8  C   UNL     1      -7.491  12.743  68.535  1.00  0.00    -0.120 A  
ENDROOT
BRANCH   6   9
HETATM    9  C   UNL     1      -8.820   9.702  66.625  1.00  0.00    -0.138 C  
BRANCH   9  10
HETATM   10  C   UNL     1      -9.760   8.791  67.438  1.00  0.00    -0.174 C  
BRANCH  10  11
HETATM   11  N   UNL     1      -9.868   7.451  66.896  1.00  0.00    -0.199 NA 
HETATM   12  C   UNL     1      -8.898   6.758  66.227  1.00  0.00    -0.147 A  
HETATM   13  C   UNL     1     -10.945   6.619  67.043  1.00  0.00    -0.393 A  
HETATM   14  N   UNL     1     -10.731   5.457  66.473  1.00  0.00    -0.297 NA 
HETATM   15  C   UNL     1      -9.461   5.531  65.964  1.00  0.00    -0.130 A  
ENDBRANCH  10  11
ENDBRANCH   9  10
BRANCH   9  16
HETATM   16  O   UNL     1      -9.621  10.558  65.790  1.00  0.00    -0.187 OA 
BRANCH  16  17
HETATM   17  C   UNL     1     -10.996  10.619  66.188  1.00  0.00     0.085 C  
BRANCH  17  18
HETATM   18  C   UNL     1     -11.312  11.961  66.776  1.00  0.00    -0.393 A  
HETATM   19  C   UNL     1     -11.310  13.129  66.040  1.00  0.00    -0.308 A  
HETATM   20  S   UNL     1     -11.691  14.500  66.963  1.00  0.00    -0.372 SA 
HETATM   21  C   UNL     1     -11.873  13.578  68.412  1.00  0.00    -0.373 A  
HETATM   22  C   UNL     1     -11.649  12.213  68.166  1.00  0.00    -0.397 A  
HETATM   23  C   UNL     1     -11.771  11.317  69.263  1.00  0.00    -0.403 A  
HETATM   24  C   UNL     1     -12.101  11.778  70.542  1.00  0.00    -0.439 A  
HETATM   25  C   UNL     1     -12.310  13.131  70.759  1.00  0.00    -0.404 A  
HETATM   26  C   UNL     1     -12.200  14.041  69.705  1.00  0.00    -0.341 A  
HETATM   27 CL   UNL     1     -12.469  15.715  70.033  1.00  0.00    -0.331 Cl 
ENDBRANCH  17  18
ENDBRANCH  16  17
ENDBRANCH   9  16
ENDBRANCH   6   9
TORSDOF 6
ENDMDL
MODEL      190
REMARK 921   NORMALIZED FREE ENERGY PREDICTED BY IDOCK:   -4.46 KCAL/MOL
REMARK 922        TOTAL FREE ENERGY PREDICTED BY IDOCK:   -7.07 KCAL/MOL
REMARK 923 INTER-LIGAND FREE ENERGY PREDICTED BY IDOCK:   -6.29 KCAL/MOL
REMARK 924 INTRA-LIGAND FREE ENERGY PREDICTED BY IDOCK:   -0.78 KCAL/MOL
REMARK 927      BINDING AFFINITY PREDICTED BY RF-SCORE:    0.00 PKD
ROOT
HETATM    1 CL   UNL     1     -10.454   6.710  73.975  1.00  0.00    -0.362 Cl 
HETATM    2  C   UNL     1      -9.932   7.458  72.518  1.00  0.00    -0.184 A  
HETATM    3  C   UNL     1      -9.005   6.817  71.699  1.00  0.00    -0.136 A  
HETATM    4  C   UNL     1      -8.585   7.424  70.512  1.00  0.00    -0.139 A  
HETATM    5 CL   UNL     1      -7.423   6.581  69.553  1.00  0.00    -0.091 Cl 
HETATM    6  C   UNL     1      -9.096   8.674  70.126  1.00  0.00    -0.163 A  
HETATM    7  C   UNL     1     -10.044   9.294  70.967  1.00  0.00    -0.373 A  
HETATM    8  C   UNL     1     -10.447   8.700  72.162  1.00  0.00    -0.411 A  
ENDROOT
BRANCH   6   9
HETATM    9  C   UNL     1      -8.686   9.361  68.826  1.00  0.00    -0.131 C  
BRANCH   9  10
HETATM   10  C   UNL     1      -7.150   9.485  68.795  1.00  0.00    -0.068 C  
BRANCH  10  11
HETATM   11  N   UNL     1      -6.682  10.843  68.988  1.00  0.00    -0.063 NA 
HETATM   12  C   UNL     1      -6.654  11.839  68.052  1.00  0.00    -0.060 A  
HETATM   13  C   UNL     1      -6.267  11.379  70.177  1.00  0.00    -0.138 A  
HETATM   14  N   UNL     1      -5.940  12.642  70.042  1.00  0.00    -0.148 NA 
HETATM   15  C   UNL     1      -6.177  12.940  68.726  1.00  0.00    -0.076 A  
ENDBRANCH  10  11
ENDBRANCH   9  10
BRANCH   9  16
HETATM   16  O   UNL     1      -9.105   8.569  67.700  1.00  0.00    -0.134 OA 
BRANCH  16  17
HETATM   17  C   UNL     1     -10.437   8.861  67.261  1.00  0.00    -0.277 C  
BRANCH  17  18
HETATM   18  C   UNL     1     -10.451  10.103  66.421  1.00  0.00    -0.210 A  
HETATM   19  C   UNL     1      -9.982  10.143  65.123  1.00  0.00    -0.309 A  
HETATM   20  S   UNL     1     -10.108  11.680  64.417  1.00  0.00    -0.292 SA 
HETATM   21  C   UNL     1     -10.801  12.371  65.839  1.00  0.00    -0.270 A  
HETATM   22  C   UNL     1     -10.940  11.402  66.847  1.00  0.00    -0.355 A  
HETATM   23  C   UNL     1     -11.507  11.815  68.084  1.00  0.00    -0.382 A  
HETATM   24  C   UNL     1     -11.910  13.138  68.291  1.00  0.00    -0.384 A  
HETATM   25  C   UNL     1     -11.755  14.077  67.282  1.00  0.00    -0.420 A  
HETATM   26  C   UNL     1     -11.202  13.708  66.053  1.00  0.00    -0.296 A  
HETATM   27 CL   UNL     1     -11.031  14.918  64.833  1.00  0.00    -0.412 Cl 
ENDBRANCH  17  18
ENDBRANCH  16  17
ENDBRANCH   9  16
ENDBRANCH   6   9
TORSDOF 6
ENDMDL
MODEL      191
REMARK 921   NORMALIZED FREE ENERGY PREDICTED BY IDOCK:   -4.45 KCAL/MOL
REMARK 922        TOTAL FREE ENERGY PREDICTED BY IDOCK:   -7.05 KCAL/MOL
REMARK 923 INTER-LIGAND FREE ENERGY PREDICTED BY IDOCK:   -6.56 KCAL/MOL
REMARK 924 INTRA-LIGAND FREE ENERGY PREDICTED BY IDOCK:   -0.49 KCAL/MOL
REMARK 927      BINDING AFFINITY PREDICTED BY RF-SCORE:    0.00 PKD
ROOT
HETATM    1 CL   UNL     1     -10.714   5.407  72.192  1.00  0.00    -0.282 Cl 
HETATM    2  C   UNL     1     -10.541   6.777  71.167  1.00  0.00    -0.224 A  
HETATM    3  C   UNL     1     -10.681   6.637  69.788  1.00  0.00    -0.304 A  
HETATM    4  C   UNL     1     -10.544   7.752  68.956  1.00  0.00    -0.166 A  
HETATM    5 CL   UNL     1     -10.715   7.505  67.256  1.00  0.00    -0.383 Cl 
HETATM    6  C   UNL     1     -10.276   9.021  69.495  1.00  0.00    -0.205 A  
HETATM    7  C   UNL     1     -10.153   9.136  70.896  1.00  0.00    -0.356 A  
HETATM    8  C   UNL     1     -10.267   8.021  71.725  1.00  0.00    -0.260 A  
ENDROOT
BRANCH   6   9
HETATM    9  C   UNL     1     -10.146  10.270  68.628  1.00  0.00    -0.174 C  
BRANCH   9  10
HETATM   10  C   UNL     1      -8.913  10.112  67.716  1.00  0.00    -0.128 C  
BRANCH  10  11
HETATM   11  N   UNL     1      -7.937  11.170  67.886  1.00  0.00    -0.110 NA 
HETATM   12  C   UNL     1      -8.076  12.479  67.517  1.00  0.00    -0.176 A  
HETATM   13  C   UNL     1      -6.736  11.046  68.530  1.00  0.00    -0.061 A  
HETATM   14  N   UNL     1      -6.089  12.187  68.556  1.00  0.00    -0.050 NA 
HETATM   15  C   UNL     1      -6.913  13.086  67.930  1.00  0.00    -0.127 A  
ENDBRANCH  10  11
ENDBRANCH   9  10
BRANCH   9  16
HETATM   16  O   UNL     1     -11.313  10.414  67.799  1.00  0.00    -0.353 OA 
BRANCH  16  17
HETATM   17  C   UNL     1     -11.693  11.779  67.582  1.00  0.00    -0.250 C  
BRANCH  17  18
HETATM   18  C   UNL     1     -11.895  12.481  68.891  1.00  0.00    -0.346 A  
HETATM   19  C   UNL     1     -12.492  11.886  69.984  1.00  0.00    -0.021 A  
HETATM   20  S   UNL     1     -12.600  12.917  71.328  1.00  0.00    -0.150 SA 
HETATM   21  C   UNL     1     -11.846  14.225  70.492  1.00  0.00    -0.294 A  
HETATM   22  C   UNL     1     -11.505  13.850  69.181  1.00  0.00    -0.345 A  
HETATM   23  C   UNL     1     -10.865  14.820  68.363  1.00  0.00    -0.248 A  
HETATM   24  C   UNL     1     -10.585  16.103  68.845  1.00  0.00    -0.275 A  
HETATM   25  C   UNL     1     -10.938  16.451  70.140  1.00  0.00    -0.291 A  
HETATM   26  C   UNL     1     -11.568  15.524  70.973  1.00  0.00    -0.382 A  
HETATM   27 CL   UNL     1     -11.987  16.011  72.576  1.00  0.00    -0.603 Cl 
ENDBRANCH  17  18
ENDBRANCH  16  17
ENDBRANCH   9  16
ENDBRANCH   6   9
TORSDOF 6
ENDMDL
MODEL      192
REMARK 921   NORMALIZED FREE ENERGY PREDICTED BY IDOCK:   -4.43 KCAL/MOL
REMARK 922        TOTAL FREE ENERGY PREDICTED BY IDOCK:   -7.04 KCAL/MOL
REMARK 923 INTER-LIGAND FREE ENERGY PREDICTED BY IDOCK:   -7.15 KCAL/MOL
REMARK 924 INTRA-LIGAND FREE ENERGY PREDICTED BY IDOCK:    0.11 KCAL/MOL
REMARK 927      BINDING AFFINITY PREDICTED BY RF-SCORE:    0.00 PKD
ROOT
HETATM    1 CL   UNL     1     -11.570  16.231  71.928  1.00  0.00    -0.505 Cl 
HETATM    2  C   UNL     1     -11.266  15.597  70.359  1.00  0.00    -0.357 A  
HETATM    3  C   UNL     1     -10.029  15.029  70.065  1.00  0.00     0.033 A  
HETATM    4  C   UNL     1      -9.784  14.509  68.790  1.00  0.00    -0.210 A  
HETATM    5 CL   UNL     1      -8.224  13.834  68.489  1.00  0.00    -0.146 Cl 
HETATM    6  C   UNL     1     -10.779  14.543  67.799  1.00  0.00    -0.256 A  
HETATM    7  C   UNL     1     -12.028  15.111  68.129  1.00  0.00    -0.151 A  
HETATM    8  C   UNL     1     -12.265  15.650  69.393  1.00  0.00    -0.201 A  
ENDROOT
BRANCH   6   9
HETATM    9  C   UNL     1     -10.566  13.964  66.403  1.00  0.00    -0.280 C  
BRANCH   9  10
HETATM   10  C   UNL     1     -10.327  15.125  65.418  1.00  0.00    -0.388 C  
BRANCH  10  11
HETATM   11  N   UNL     1      -9.678  16.268  66.028  1.00  0.00    -0.325 NA 
HETATM   12  C   UNL     1     -10.289  17.373  66.553  1.00  0.00    -0.312 A  
HETATM   13  C   UNL     1      -8.334  16.389  66.258  1.00  0.00    -0.327 A  
HETATM   14  N   UNL     1      -8.054  17.520  66.859  1.00  0.00    -0.216 NA 
HETATM   15  C   UNL     1      -9.261  18.140  67.049  1.00  0.00    -0.270 A  
ENDBRANCH  10  11
ENDBRANCH   9  10
BRANCH   9  16
HETATM   16  O   UNL     1      -9.406  13.112  66.399  1.00  0.00    -0.246 OA 
BRANCH  16  17
HETATM   17  C   UNL     1      -9.717  11.725  66.214  1.00  0.00    -0.222 C  
BRANCH  17  18
HETATM   18  C   UNL     1      -9.401  10.948  67.457  1.00  0.00    -0.164 A  
HETATM   19  C   UNL     1      -8.209  10.280  67.648  1.00  0.00    -0.114 A  
HETATM   20  S   UNL     1      -8.128   9.474  69.139  1.00  0.00    -0.110 SA 
HETATM   21  C   UNL     1      -9.710   9.988  69.599  1.00  0.00    -0.229 A  
HETATM   22  C   UNL     1     -10.285  10.790  68.598  1.00  0.00    -0.198 A  
HETATM   23  C   UNL     1     -11.590  11.301  68.833  1.00  0.00    -0.386 A  
HETATM   24  C   UNL     1     -12.279  11.016  70.016  1.00  0.00    -0.418 A  
HETATM   25  C   UNL     1     -11.693  10.215  70.984  1.00  0.00    -0.470 A  
HETATM   26  C   UNL     1     -10.411   9.696  70.790  1.00  0.00    -0.305 A  
HETATM   27 CL   UNL     1      -9.729   8.704  72.028  1.00  0.00    -0.374 Cl 
ENDBRANCH  17  18
ENDBRANCH  16  17
ENDBRANCH   9  16
ENDBRANCH   6   9
TORSDOF 6
ENDMDL
MODEL      193
REMARK 921   NORMALIZED FREE ENERGY PREDICTED BY IDOCK:   -4.43 KCAL/MOL
REMARK 922        TOTAL FREE ENERGY PREDICTED BY IDOCK:   -7.03 KCAL/MOL
REMARK 923 INTER-LIGAND FREE ENERGY PREDICTED BY IDOCK:   -6.41 KCAL/MOL
REMARK 924 INTRA-LIGAND FREE ENERGY PREDICTED BY IDOCK:   -0.62 KCAL/MOL
REMARK 927      BINDING AFFINITY PREDICTED BY RF-SCORE:    0.00 PKD
ROOT
HETATM    1 CL   UNL     1     -10.517  19.757  66.630  1.00  0.00    -0.586 Cl 
HETATM    2  C   UNL     1     -10.399  18.081  66.998  1.00  0.00    -0.369 A  
HETATM    3  C   UNL     1     -10.721  17.624  68.273  1.00  0.00    -0.285 A  
HETATM    4  C   UNL     1     -10.629  16.261  68.570  1.00  0.00    -0.294 A  
HETATM    5 CL   UNL     1     -11.030  15.764  70.174  1.00  0.00    -0.328 Cl 
HETATM    6  C   UNL     1     -10.224  15.339  67.590  1.00  0.00    -0.242 A  
HETATM    7  C   UNL     1      -9.916  15.829  66.303  1.00  0.00    -0.315 A  
HETATM    8  C   UNL     1      -9.986  17.191  66.013  1.00  0.00    -0.270 A  
ENDROOT
BRANCH   6   9
HETATM    9  C   UNL     1     -10.135  13.840  67.861  1.00  0.00    -0.246 C  
BRANCH   9  10
HETATM   10  C   UNL     1     -11.559  13.294  68.088  1.00  0.00    -0.338 C  
BRANCH  10  11
HETATM   11  N   UNL     1     -11.626  12.291  69.131  1.00  0.00    -0.297 NA 
HETATM   12  C   UNL     1     -12.246  12.411  70.344  1.00  0.00    -0.287 A  
HETATM   13  C   UNL     1     -11.148  11.012  69.036  1.00  0.00    -0.244 A  
HETATM   14  N   UNL     1     -11.392  10.329  70.130  1.00  0.00    -0.294 NA 
HETATM   15  C   UNL     1     -12.075  11.188  70.950  1.00  0.00    -0.322 A  
ENDBRANCH  10  11
ENDBRANCH   9  10
BRANCH   9  16
HETATM   16  O   UNL     1      -9.563  13.170  66.724  1.00  0.00    -0.236 OA 
BRANCH  16  17
HETATM   17  C   UNL     1      -8.341  12.483  67.022  1.00  0.00    -0.144 C  
BRANCH  17  18
HETATM   18  C   UNL     1      -8.409  11.062  66.548  1.00  0.00    -0.163 A  
HETATM   19  C   UNL     1      -8.591  10.715  65.225  1.00  0.00    -0.169 A  
HETATM   20  S   UNL     1      -8.643   9.037  64.977  1.00  0.00    -0.174 SA 
HETATM   21  C   UNL     1      -8.427   8.697  66.656  1.00  0.00    -0.112 A  
HETATM   22  C   UNL     1      -8.304   9.887  67.394  1.00  0.00    -0.118 A  
HETATM   23  C   UNL     1      -8.112   9.774  68.798  1.00  0.00    -0.102 A  
HETATM   24  C   UNL     1      -8.048   8.524  69.423  1.00  0.00    -0.112 A  
HETATM   25  C   UNL     1      -8.179   7.366  68.672  1.00  0.00    -0.125 A  
HETATM   26  C   UNL     1      -8.368   7.437  67.291  1.00  0.00    -0.119 A  
HETATM   27 CL   UNL     1      -8.527   5.963  66.405  1.00  0.00    -0.117 Cl 
ENDBRANCH  17  18
ENDBRANCH  16  17
ENDBRANCH   9  16
ENDBRANCH   6   9
TORSDOF 6
ENDMDL
MODEL      194
REMARK 921   NORMALIZED FREE ENERGY PREDICTED BY IDOCK:   -4.41 KCAL/MOL
REMARK 922        TOTAL FREE ENERGY PREDICTED BY IDOCK:   -7.00 KCAL/MOL
REMARK 923 INTER-LIGAND FREE ENERGY PREDICTED BY IDOCK:   -6.73 KCAL/MOL
REMARK 924 INTRA-LIGAND FREE ENERGY PREDICTED BY IDOCK:   -0.28 KCAL/MOL
REMARK 927      BINDING AFFINITY PREDICTED BY RF-SCORE:    0.00 PKD
ROOT
HETATM    1 CL   UNL     1      -5.558  16.184  69.424  1.00  0.00    -0.118 Cl 
HETATM    2  C   UNL     1      -7.004  15.544  68.748  1.00  0.00    -0.118 A  
HETATM    3  C   UNL     1      -8.219  15.730  69.402  1.00  0.00    -0.211 A  
HETATM    4  C   UNL     1      -9.395  15.212  68.849  1.00  0.00    -0.207 A  
HETATM    5 CL   UNL     1     -10.865  15.467  69.719  1.00  0.00    -0.272 Cl 
HETATM    6  C   UNL     1      -9.368  14.512  67.632  1.00  0.00    -0.202 A  
HETATM    7  C   UNL     1      -8.125  14.351  66.985  1.00  0.00    -0.095 A  
HETATM    8  C   UNL     1      -6.949  14.847  67.546  1.00  0.00    -0.203 A  
ENDROOT
BRANCH   6   9
HETATM    9  C   UNL     1     -10.629  13.954  66.979  1.00  0.00    -0.279 C  
BRANCH   9  10
HETATM   10  C   UNL     1     -10.434  13.949  65.450  1.00  0.00    -0.345 C  
BRANCH  10  11
HETATM   11  N   UNL     1     -11.426  13.160  64.749  1.00  0.00    -0.312 NA 
HETATM   12  C   UNL     1     -11.197  12.251  63.754  1.00  0.00    -0.440 A  
HETATM   13  C   UNL     1     -12.765  13.132  65.034  1.00  0.00    -0.392 A  
HETATM   14  N   UNL     1     -13.402  12.292  64.253  1.00  0.00    -0.622 NA 
HETATM   15  C   UNL     1     -12.437  11.737  63.453  1.00  0.00    -0.372 A  
ENDBRANCH  10  11
ENDBRANCH   9  10
BRANCH   9  16
HETATM   16  O   UNL     1     -10.849  12.601  67.417  1.00  0.00    -0.234 OA 
BRANCH  16  17
HETATM   17  C   UNL     1      -9.671  11.971  67.938  1.00  0.00    -0.194 C  
BRANCH  17  18
HETATM   18  C   UNL     1     -10.024  11.053  69.069  1.00  0.00    -0.184 A  
HETATM   19  C   UNL     1     -11.309  10.909  69.553  1.00  0.00    -0.283 A  
HETATM   20  S   UNL     1     -11.416   9.814  70.844  1.00  0.00    -0.398 SA 
HETATM   21  C   UNL     1      -9.722   9.484  70.816  1.00  0.00    -0.219 A  
HETATM   22  C   UNL     1      -9.087  10.217  69.798  1.00  0.00    -0.166 A  
HETATM   23  C   UNL     1      -7.685  10.047  69.640  1.00  0.00    -0.158 A  
HETATM   24  C   UNL     1      -6.962   9.183  70.469  1.00  0.00    -0.082 A  
HETATM   25  C   UNL     1      -7.610   8.478  71.471  1.00  0.00    -0.131 A  
HETATM   26  C   UNL     1      -8.987   8.618  71.656  1.00  0.00    -0.235 A  
HETATM   27 CL   UNL     1      -9.744   7.717  72.920  1.00  0.00    -0.255 Cl 
ENDBRANCH  17  18
ENDBRANCH  16  17
ENDBRANCH   9  16
ENDBRANCH   6   9
TORSDOF 6
ENDMDL
MODEL      195
REMARK 921   NORMALIZED FREE ENERGY PREDICTED BY IDOCK:   -4.40 KCAL/MOL
REMARK 922        TOTAL FREE ENERGY PREDICTED BY IDOCK:   -6.99 KCAL/MOL
REMARK 923 INTER-LIGAND FREE ENERGY PREDICTED BY IDOCK:   -6.98 KCAL/MOL
REMARK 924 INTRA-LIGAND FREE ENERGY PREDICTED BY IDOCK:   -0.01 KCAL/MOL
REMARK 927      BINDING AFFINITY PREDICTED BY RF-SCORE:    0.00 PKD
ROOT
HETATM    1 CL   UNL     1     -10.226   5.214  70.558  1.00  0.00    -0.326 Cl 
HETATM    2  C   UNL     1      -9.937   6.808  69.981  1.00  0.00    -0.176 A  
HETATM    3  C   UNL     1     -10.127   7.105  68.633  1.00  0.00    -0.177 A  
HETATM    4  C   UNL     1      -9.896   8.402  68.165  1.00  0.00    -0.169 A  
HETATM    5 CL   UNL     1     -10.137   8.697  66.481  1.00  0.00    -0.357 Cl 
HETATM    6  C   UNL     1      -9.484   9.418  69.042  1.00  0.00    -0.160 A  
HETATM    7  C   UNL     1      -9.313   9.093  70.404  1.00  0.00    -0.272 A  
HETATM    8  C   UNL     1      -9.521   7.794  70.868  1.00  0.00    -0.165 A  
ENDROOT
BRANCH   6   9
HETATM    9  C   UNL     1      -9.246  10.853  68.581  1.00  0.00    -0.187 C  
BRANCH   9  10
HETATM   10  C   UNL     1      -8.001  10.881  67.673  1.00  0.00    -0.114 C  
BRANCH  10  11
HETATM   11  N   UNL     1      -6.925  11.693  68.204  1.00  0.00    -0.067 NA 
HETATM   12  C   UNL     1      -6.220  11.469  69.354  1.00  0.00    -0.094 A  
HETATM   13  C   UNL     1      -6.374  12.784  67.587  1.00  0.00    -0.153 A  
HETATM   14  N   UNL     1      -5.391  13.287  68.295  1.00  0.00    -0.084 NA 
HETATM   15  C   UNL     1      -5.285  12.477  69.395  1.00  0.00    -0.071 A  
ENDBRANCH  10  11
ENDBRANCH   9  10
BRANCH   9  16
HETATM   16  O   UNL     1     -10.377  11.317  67.822  1.00  0.00    -0.175 OA 
BRANCH  16  17
HETATM   17  C   UNL     1     -10.316  12.713  67.502  1.00  0.00    -0.218 C  
BRANCH  17  18
HETATM   18  C   UNL     1     -11.016  13.522  68.552  1.00  0.00    -0.291 A  
HETATM   19  C   UNL     1     -11.027  14.902  68.560  1.00  0.00    -0.255 A  
HETATM   20  S   UNL     1     -11.883  15.554  69.872  1.00  0.00    -0.376 SA 
HETATM   21  C   UNL     1     -12.278  13.995  70.499  1.00  0.00    -0.365 A  
HETATM   22  C   UNL     1     -11.753  12.980  69.680  1.00  0.00    -0.364 A  
HETATM   23  C   UNL     1     -12.000  11.633  70.060  1.00  0.00    -0.429 A  
HETATM   24  C   UNL     1     -12.739  11.327  71.207  1.00  0.00    -0.510 A  
HETATM   25  C   UNL     1     -13.240  12.347  72.003  1.00  0.00    -0.514 A  
HETATM   26  C   UNL     1     -13.017  13.683  71.661  1.00  0.00    -0.362 A  
HETATM   27 CL   UNL     1     -13.662  14.913  72.687  1.00  0.00    -0.547 Cl 
ENDBRANCH  17  18
ENDBRANCH  16  17
ENDBRANCH   9  16
ENDBRANCH   6   9
TORSDOF 6
ENDMDL
MODEL      196
REMARK 921   NORMALIZED FREE ENERGY PREDICTED BY IDOCK:   -4.39 KCAL/MOL
REMARK 922        TOTAL FREE ENERGY PREDICTED BY IDOCK:   -6.98 KCAL/MOL
REMARK 923 INTER-LIGAND FREE ENERGY PREDICTED BY IDOCK:   -5.30 KCAL/MOL
REMARK 924 INTRA-LIGAND FREE ENERGY PREDICTED BY IDOCK:   -1.68 KCAL/MOL
REMARK 927      BINDING AFFINITY PREDICTED BY RF-SCORE:    0.00 PKD
ROOT
HETATM    1 CL   UNL     1     -12.530  14.075  65.128  1.00  0.00    -0.462 Cl 
HETATM    2  C   UNL     1     -11.831  12.817  66.069  1.00  0.00    -0.439 A  
HETATM    3  C   UNL     1     -11.087  11.815  65.449  1.00  0.00    -0.336 A  
HETATM    4  C   UNL     1     -10.515  10.795  66.216  1.00  0.00    -0.226 A  
HETATM    5 CL   UNL     1      -9.619   9.577  65.382  1.00  0.00    -0.354 Cl 
HETATM    6  C   UNL     1     -10.671  10.773  67.611  1.00  0.00    -0.305 A  
HETATM    7  C   UNL     1     -11.418  11.808  68.214  1.00  0.00    -0.370 A  
HETATM    8  C   UNL     1     -12.007  12.813  67.448  1.00  0.00    -0.335 A  
ENDROOT
BRANCH   6   9
HETATM    9  C   UNL     1     -10.043   9.695  68.490  1.00  0.00    -0.175 C  
BRANCH   9  10
HETATM   10  C   UNL     1      -9.623  10.332  69.829  1.00  0.00    -0.108 C  
BRANCH  10  11
HETATM   11  N   UNL     1      -8.851   9.438  70.669  1.00  0.00    -0.238 NA 
HETATM   12  C   UNL     1      -7.495   9.264  70.650  1.00  0.00    -0.136 A  
HETATM   13  C   UNL     1      -9.352   8.678  71.691  1.00  0.00    -0.263 A  
HETATM   14  N   UNL     1      -8.401   8.003  72.293  1.00  0.00    -0.131 NA 
HETATM   15  C   UNL     1      -7.242   8.360  71.655  1.00  0.00    -0.091 A  
ENDBRANCH  10  11
ENDBRANCH   9  10
BRANCH   9  16
HETATM   16  O   UNL     1     -11.004   8.658  68.756  1.00  0.00    -0.032 OA 
BRANCH  16  17
HETATM   17  C   UNL     1     -10.733   7.436  68.059  1.00  0.00    -0.127 C  
BRANCH  17  18
HETATM   18  C   UNL     1     -10.063   6.451  68.970  1.00  0.00    -0.193 A  
HETATM   19  C   UNL     1     -10.744   5.712  69.916  1.00  0.00    -0.329 A  
HETATM   20  S   UNL     1      -9.735   4.687  70.815  1.00  0.00    -0.213 SA 
HETATM   21  C   UNL     1      -8.320   5.198  69.967  1.00  0.00    -0.089 A  
HETATM   22  C   UNL     1      -8.642   6.151  68.986  1.00  0.00    -0.121 A  
HETATM   23  C   UNL     1      -7.581   6.666  68.193  1.00  0.00    -0.104 A  
HETATM   24  C   UNL     1      -6.262   6.240  68.383  1.00  0.00    -0.032 A  
HETATM   25  C   UNL     1      -5.969   5.304  69.363  1.00  0.00    -0.021 A  
HETATM   26  C   UNL     1      -6.986   4.775  70.161  1.00  0.00    -0.048 A  
HETATM   27 CL   UNL     1      -6.565   3.614  71.367  1.00  0.00    -0.025 Cl 
ENDBRANCH  17  18
ENDBRANCH  16  17
ENDBRANCH   9  16
ENDBRANCH   6   9
TORSDOF 6
ENDMDL
MODEL      197
REMARK 921   NORMALIZED FREE ENERGY PREDICTED BY IDOCK:   -4.38 KCAL/MOL
REMARK 922        TOTAL FREE ENERGY PREDICTED BY IDOCK:   -6.97 KCAL/MOL
REMARK 923 INTER-LIGAND FREE ENERGY PREDICTED BY IDOCK:   -6.55 KCAL/MOL
REMARK 924 INTRA-LIGAND FREE ENERGY PREDICTED BY IDOCK:   -0.42 KCAL/MOL
REMARK 927      BINDING AFFINITY PREDICTED BY RF-SCORE:    0.00 PKD
ROOT
HETATM    1 CL   UNL     1      -7.205   5.936  72.636  1.00  0.00    -0.088 Cl 
HETATM    2  C   UNL     1      -7.942   6.475  71.179  1.00  0.00    -0.112 A  
HETATM    3  C   UNL     1      -9.316   6.336  71.002  1.00  0.00    -0.170 A  
HETATM    4  C   UNL     1      -9.915   6.779  69.818  1.00  0.00    -0.177 A  
HETATM    5 CL   UNL     1     -11.621   6.563  69.658  1.00  0.00    -0.416 Cl 
HETATM    6  C   UNL     1      -9.147   7.374  68.805  1.00  0.00    -0.131 A  
HETATM    7  C   UNL     1      -7.759   7.514  69.017  1.00  0.00    -0.117 A  
HETATM    8  C   UNL     1      -7.158   7.053  70.187  1.00  0.00    -0.067 A  
ENDROOT
BRANCH   6   9
HETATM    9  C   UNL     1      -9.762   7.895  67.509  1.00  0.00    -0.159 C  
BRANCH   9  10
HETATM   10  C   UNL     1     -10.539   6.748  66.834  1.00  0.00    -0.304 C  
BRANCH  10  11
HETATM   11  N   UNL     1      -9.678   5.757  66.220  1.00  0.00    -0.145 NA 
HETATM   12  C   UNL     1      -8.527   5.993  65.521  1.00  0.00    -0.151 A  
HETATM   13  C   UNL     1      -9.834   4.401  66.317  1.00  0.00    -0.231 A  
HETATM   14  N   UNL     1      -8.874   3.765  65.687  1.00  0.00    -0.119 NA 
HETATM   15  C   UNL     1      -8.055   4.744  65.189  1.00  0.00    -0.106 A  
ENDBRANCH  10  11
ENDBRANCH   9  10
BRANCH   9  16
HETATM   16  O   UNL     1     -10.681   8.964  67.798  1.00  0.00    -0.223 OA 
BRANCH  16  17
HETATM   17  C   UNL     1     -10.045  10.136  68.324  1.00  0.00    -0.156 C  
BRANCH  17  18
HETATM   18  C   UNL     1     -10.634  11.371  67.711  1.00  0.00    -0.231 A  
HETATM   19  C   UNL     1     -11.166  12.405  68.455  1.00  0.00    -0.279 A  
HETATM   20  S   UNL     1     -11.774  13.669  67.501  1.00  0.00    -0.384 SA 
HETATM   21  C   UNL     1     -11.350  12.874  66.028  1.00  0.00    -0.317 A  
HETATM   22  C   UNL     1     -10.730  11.640  66.287  1.00  0.00    -0.317 A  
HETATM   23  C   UNL     1     -10.311  10.866  65.171  1.00  0.00    -0.344 A  
HETATM   24  C   UNL     1     -10.511  11.315  63.862  1.00  0.00    -0.452 A  
HETATM   25  C   UNL     1     -11.132  12.533  63.633  1.00  0.00    -0.523 A  
HETATM   26  C   UNL     1     -11.556  13.322  64.705  1.00  0.00    -0.350 A  
HETATM   27 CL   UNL     1     -12.325  14.830  64.362  1.00  0.00    -0.478 Cl 
ENDBRANCH  17  18
ENDBRANCH  16  17
ENDBRANCH   9  16
ENDBRANCH   6   9
TORSDOF 6
ENDMDL
MODEL      198
REMARK 921   NORMALIZED FREE ENERGY PREDICTED BY IDOCK:   -4.38 KCAL/MOL
REMARK 922        TOTAL FREE ENERGY PREDICTED BY IDOCK:   -6.96 KCAL/MOL
REMARK 923 INTER-LIGAND FREE ENERGY PREDICTED BY IDOCK:   -5.86 KCAL/MOL
REMARK 924 INTRA-LIGAND FREE ENERGY PREDICTED BY IDOCK:   -1.11 KCAL/MOL
REMARK 927      BINDING AFFINITY PREDICTED BY RF-SCORE:    0.00 PKD
ROOT
HETATM    1 CL   UNL     1      -9.327   2.830  68.312  1.00  0.00    -0.257 Cl 
HETATM    2  C   UNL     1      -9.417   4.522  68.605  1.00  0.00    -0.158 A  
HETATM    3  C   UNL     1      -9.891   5.375  67.611  1.00  0.00    -0.176 A  
HETATM    4  C   UNL     1      -9.968   6.751  67.851  1.00  0.00    -0.141 A  
HETATM    5 CL   UNL     1     -10.550   7.753  66.571  1.00  0.00    -0.090 Cl 
HETATM    6  C   UNL     1      -9.584   7.285  69.092  1.00  0.00    -0.155 A  
HETATM    7  C   UNL     1      -9.121   6.395  70.084  1.00  0.00    -0.154 A  
HETATM    8  C   UNL     1      -9.022   5.027  69.838  1.00  0.00    -0.142 A  
ENDROOT
BRANCH   6   9
HETATM    9  C   UNL     1      -9.677   8.775  69.407  1.00  0.00    -0.172 C  
BRANCH   9  10
HETATM   10  C   UNL     1      -9.797   8.951  70.934  1.00  0.00    -0.242 C  
BRANCH  10  11
HETATM   11  N   UNL     1     -11.165   9.097  71.387  1.00  0.00    -0.320 NA 
HETATM   12  C   UNL     1     -11.887   8.193  72.116  1.00  0.00    -0.359 A  
HETATM   13  C   UNL     1     -11.939  10.215  71.230  1.00  0.00    -0.382 A  
HETATM   14  N   UNL     1     -13.120  10.058  71.780  1.00  0.00    -0.426 NA 
HETATM   15  C   UNL     1     -13.099   8.805  72.335  1.00  0.00    -0.391 A  
ENDBRANCH  10  11
ENDBRANCH   9  10
BRANCH   9  16
HETATM   16  O   UNL     1      -8.485   9.445  68.961  1.00  0.00    -0.122 OA 
BRANCH  16  17
HETATM   17  C   UNL     1      -8.186  10.634  69.704  1.00  0.00     0.064 C  
BRANCH  17  18
HETATM   18  C   UNL     1      -8.207  11.833  68.805  1.00  0.00    -0.027 A  
HETATM   19  C   UNL     1      -7.065  12.492  68.395  1.00  0.00    -0.107 A  
HETATM   20  S   UNL     1      -7.386  13.822  67.393  1.00  0.00    -0.021 SA 
HETATM   21  C   UNL     1      -9.093  13.575  67.469  1.00  0.00    -0.214 A  
HETATM   22  C   UNL     1      -9.401  12.456  68.261  1.00  0.00    -0.199 A  
HETATM   23  C   UNL     1     -10.772  12.114  68.415  1.00  0.00    -0.252 A  
HETATM   24  C   UNL     1     -11.780  12.866  67.801  1.00  0.00    -0.412 A  
HETATM   25  C   UNL     1     -11.450  13.970  67.030  1.00  0.00    -0.370 A  
HETATM   26  C   UNL     1     -10.113  14.336  66.856  1.00  0.00    -0.264 A  
HETATM   27 CL   UNL     1      -9.759  15.721  65.887  1.00  0.00    -0.368 Cl 
ENDBRANCH  17  18
ENDBRANCH  16  17
ENDBRANCH   9  16
ENDBRANCH   6   9
TORSDOF 6
ENDMDL
MODEL      199
REMARK 921   NORMALIZED FREE ENERGY PREDICTED BY IDOCK:   -4.37 KCAL/MOL
REMARK 922        TOTAL FREE ENERGY PREDICTED BY IDOCK:   -6.95 KCAL/MOL
REMARK 923 INTER-LIGAND FREE ENERGY PREDICTED BY IDOCK:   -6.70 KCAL/MOL
REMARK 924 INTRA-LIGAND FREE ENERGY PREDICTED BY IDOCK:   -0.24 KCAL/MOL
REMARK 927      BINDING AFFINITY PREDICTED BY RF-SCORE:    0.00 PKD
ROOT
HETATM    1 CL   UNL     1      -8.868   3.782  66.885  1.00  0.00    -0.122 Cl 
HETATM    2  C   UNL     1      -9.362   5.358  67.364  1.00  0.00    -0.113 A  
HETATM    3  C   UNL     1      -8.572   6.098  68.241  1.00  0.00    -0.116 A  
HETATM    4  C   UNL     1      -8.971   7.381  68.626  1.00  0.00    -0.131 A  
HETATM    5 CL   UNL     1      -7.953   8.237  69.727  1.00  0.00    -0.104 Cl 
HETATM    6  C   UNL     1     -10.160   7.942  68.130  1.00  0.00    -0.228 A  
HETATM    7  C   UNL     1     -10.933   7.175  67.233  1.00  0.00    -0.333 A  
HETATM    8  C   UNL     1     -10.547   5.887  66.866  1.00  0.00    -0.384 A  
ENDROOT
BRANCH   6   9
HETATM    9  C   UNL     1     -10.621   9.348  68.503  1.00  0.00    -0.197 C  
BRANCH   9  10
HETATM   10  C   UNL     1     -10.331   9.583  69.998  1.00  0.00    -0.247 C  
BRANCH  10  11
HETATM   11  N   UNL     1     -11.489   9.376  70.844  1.00  0.00    -0.293 NA 
HETATM   12  C   UNL     1     -12.651  10.098  70.835  1.00  0.00    -0.360 A  
HETATM   13  C   UNL     1     -11.644   8.355  71.743  1.00  0.00    -0.308 A  
HETATM   14  N   UNL     1     -12.815   8.411  72.332  1.00  0.00    -0.313 NA 
HETATM   15  C   UNL     1     -13.450   9.490  71.774  1.00  0.00    -0.402 A  
ENDBRANCH  10  11
ENDBRANCH   9  10
BRANCH   9  16
HETATM   16  O   UNL     1      -9.891  10.322  67.736  1.00  0.00    -0.163 OA 
BRANCH  16  17
HETATM   17  C   UNL     1      -8.991  11.111  68.524  1.00  0.00    -0.168 C  
BRANCH  17  18
HETATM   18  C   UNL     1      -9.111  12.561  68.161  1.00  0.00    -0.204 A  
HETATM   19  C   UNL     1      -8.203  13.216  67.354  1.00  0.00    -0.187 A  
HETATM   20  S   UNL     1      -8.578  14.853  67.121  1.00  0.00    -0.236 SA 
HETATM   21  C   UNL     1      -9.990  14.759  68.110  1.00  0.00    -0.221 A  
HETATM   22  C   UNL     1     -10.166  13.455  68.604  1.00  0.00    -0.187 A  
HETATM   23  C   UNL     1     -11.295  13.211  69.432  1.00  0.00    -0.276 A  
HETATM   24  C   UNL     1     -12.198  14.232  69.746  1.00  0.00    -0.390 A  
HETATM   25  C   UNL     1     -11.997  15.512  69.252  1.00  0.00    -0.338 A  
HETATM   26  C   UNL     1     -10.899  15.789  68.434  1.00  0.00    -0.297 A  
HETATM   27 CL   UNL     1     -10.696  17.401  67.848  1.00  0.00    -0.384 Cl 
ENDBRANCH  17  18
ENDBRANCH  16  17
ENDBRANCH   9  16
ENDBRANCH   6   9
TORSDOF 6
ENDMDL
MODEL      200
REMARK 921   NORMALIZED FREE ENERGY PREDICTED BY IDOCK:   -4.35 KCAL/MOL
REMARK 922        TOTAL FREE ENERGY PREDICTED BY IDOCK:   -6.92 KCAL/MOL
REMARK 923 INTER-LIGAND FREE ENERGY PREDICTED BY IDOCK:   -6.57 KCAL/MOL
REMARK 924 INTRA-LIGAND FREE ENERGY PREDICTED BY IDOCK:   -0.35 KCAL/MOL
REMARK 927      BINDING AFFINITY PREDICTED BY RF-SCORE:    0.00 PKD
ROOT
HETATM    1 CL   UNL     1      -8.670   8.116  65.318  1.00  0.00    -0.139 Cl 
HETATM    2  C   UNL     1      -9.368   9.658  65.620  1.00  0.00    -0.237 A  
HETATM    3  C   UNL     1      -9.866  10.416  64.563  1.00  0.00    -0.405 A  
HETATM    4  C   UNL     1     -10.437  11.668  64.810  1.00  0.00    -0.295 A  
HETATM    5 CL   UNL     1     -11.020  12.561  63.452  1.00  0.00    -0.467 Cl 
HETATM    6  C   UNL     1     -10.528  12.170  66.118  1.00  0.00    -0.281 A  
HETATM    7  C   UNL     1     -10.028  11.375  67.172  1.00  0.00    -0.217 A  
HETATM    8  C   UNL     1      -9.438  10.136  66.924  1.00  0.00    -0.203 A  
ENDROOT
BRANCH   6   9
HETATM    9  C   UNL     1     -11.167  13.518  66.437  1.00  0.00    -0.307 C  
BRANCH   9  10
HETATM   10  C   UNL     1     -12.250  13.309  67.514  1.00  0.00    -0.164 C  
BRANCH  10  11
HETATM   11  N   UNL     1     -12.038  14.112  68.702  1.00  0.00    -0.325 NA 
HETATM   12  C   UNL     1     -11.814  13.654  69.971  1.00  0.00    -0.308 A  
HETATM   13  C   UNL     1     -11.939  15.477  68.731  1.00  0.00    -0.243 A  
HETATM   14  N   UNL     1     -11.707  15.913  69.946  1.00  0.00    -0.336 NA 
HETATM   15  C   UNL     1     -11.626  14.789  70.726  1.00  0.00    -0.267 A  
ENDBRANCH  10  11
ENDBRANCH   9  10
BRANCH   9  16
HETATM   16  O   UNL     1     -10.174  14.421  66.955  1.00  0.00    -0.258 OA 
BRANCH  16  17
HETATM   17  C   UNL     1      -9.427  15.094  65.934  1.00  0.00    -0.299 C  
BRANCH  17  18
HETATM   18  C   UNL     1      -8.513  16.116  66.540  1.00  0.00    -0.346 A  
HETATM   19  C   UNL     1      -8.323  17.374  66.004  1.00  0.00    -0.106 A  
HETATM   20  S   UNL     1      -7.226  18.317  66.889  1.00  0.00    -0.213 SA 
HETATM   21  C   UNL     1      -6.949  17.064  68.044  1.00  0.00    -0.165 A  
HETATM   22  C   UNL     1      -7.719  15.928  67.741  1.00  0.00    -0.156 A  
HETATM   23  C   UNL     1      -7.608  14.807  68.609  1.00  0.00    -0.126 A  
HETATM   24  C   UNL     1      -6.763  14.834  69.723  1.00  0.00    -0.173 A  
HETATM   25  C   UNL     1      -6.009  15.965  69.995  1.00  0.00    -0.156 A  
HETATM   26  C   UNL     1      -6.092  17.086  69.166  1.00  0.00    -0.197 A  
HETATM   27 CL   UNL     1      -5.130  18.467  69.551  1.00  0.00    -0.181 Cl 
ENDBRANCH  17  18
ENDBRANCH  16  17
ENDBRANCH   9  16
ENDBRANCH   6   9
TORSDOF 6
ENDMDL
MODEL      201
REMARK 921   NORMALIZED FREE ENERGY PREDICTED BY IDOCK:   -4.32 KCAL/MOL
REMARK 922        TOTAL FREE ENERGY PREDICTED BY IDOCK:   -6.88 KCAL/MOL
REMARK 923 INTER-LIGAND FREE ENERGY PREDICTED BY IDOCK:   -6.51 KCAL/MOL
REMARK 924 INTRA-LIGAND FREE ENERGY PREDICTED BY IDOCK:   -0.37 KCAL/MOL
REMARK 927      BINDING AFFINITY PREDICTED BY RF-SCORE:    0.00 PKD
ROOT
HETATM    1 CL   UNL     1     -10.712  17.517  65.632  1.00  0.00    -0.218 Cl 
HETATM    2  C   UNL     1     -10.418  15.835  65.833  1.00  0.00    -0.352 A  
HETATM    3  C   UNL     1     -10.795  14.939  64.835  1.00  0.00    -0.431 A  
HETATM    4  C   UNL     1     -10.552  13.572  64.996  1.00  0.00    -0.372 A  
HETATM    5 CL   UNL     1     -11.058  12.516  63.727  1.00  0.00    -0.463 Cl 
HETATM    6  C   UNL     1      -9.919  13.088  66.153  1.00  0.00    -0.278 A  
HETATM    7  C   UNL     1      -9.536  14.019  67.141  1.00  0.00    -0.241 A  
HETATM    8  C   UNL     1      -9.798  15.380  66.991  1.00  0.00    -0.236 A  
ENDROOT
BRANCH   6   9
HETATM    9  C   UNL     1      -9.610  11.607  66.359  1.00  0.00    -0.217 C  
BRANCH   9  10
HETATM   10  C   UNL     1      -8.359  11.484  67.252  1.00  0.00    -0.154 C  
BRANCH  10  11
HETATM   11  N   UNL     1      -7.456  10.433  66.828  1.00  0.00    -0.106 NA 
HETATM   12  C   UNL     1      -6.717   9.613  67.635  1.00  0.00    -0.066 A  
HETATM   13  C   UNL     1      -7.259  10.028  65.535  1.00  0.00    -0.133 A  
HETATM   14  N   UNL     1      -6.411   9.030  65.472  1.00  0.00    -0.066 NA 
HETATM   15  C   UNL     1      -6.068   8.762  66.771  1.00  0.00    -0.058 A  
ENDBRANCH  10  11
ENDBRANCH   9  10
BRANCH   9  16
HETATM   16  O   UNL     1     -10.712  10.965  67.024  1.00  0.00    -0.247 OA 
BRANCH  16  17
HETATM   17  C   UNL     1     -10.731  11.185  68.440  1.00  0.00    -0.198 C  
BRANCH  17  18
HETATM   18  C   UNL     1     -10.701   9.878  69.174  1.00  0.00    -0.247 A  
HETATM   19  C   UNL     1     -10.770   9.781  70.549  1.00  0.00    -0.317 A  
HETATM   20  S   UNL     1     -10.701   8.181  71.108  1.00  0.00    -0.227 SA 
HETATM   21  C   UNL     1     -10.568   7.538  69.511  1.00  0.00    -0.236 A  
HETATM   22  C   UNL     1     -10.590   8.568  68.556  1.00  0.00    -0.154 A  
HETATM   23  C   UNL     1     -10.497   8.199  67.186  1.00  0.00    -0.396 A  
HETATM   24  C   UNL     1     -10.386   6.858  66.803  1.00  0.00    -0.287 A  
HETATM   25  C   UNL     1     -10.359   5.861  67.766  1.00  0.00    -0.262 A  
HETATM   26  C   UNL     1     -10.449   6.186  69.122  1.00  0.00    -0.251 A  
HETATM   27 CL   UNL     1     -10.409   4.905  70.279  1.00  0.00    -0.302 Cl 
ENDBRANCH  17  18
ENDBRANCH  16  17
ENDBRANCH   9  16
ENDBRANCH   6   9
TORSDOF 6
ENDMDL
MODEL      202
REMARK 921   NORMALIZED FREE ENERGY PREDICTED BY IDOCK:   -4.32 KCAL/MOL
REMARK 922        TOTAL FREE ENERGY PREDICTED BY IDOCK:   -6.88 KCAL/MOL
REMARK 923 INTER-LIGAND FREE ENERGY PREDICTED BY IDOCK:   -6.80 KCAL/MOL
REMARK 924 INTRA-LIGAND FREE ENERGY PREDICTED BY IDOCK:   -0.08 KCAL/MOL
REMARK 927      BINDING AFFINITY PREDICTED BY RF-SCORE:    0.00 PKD
ROOT
HETATM    1 CL   UNL     1     -12.563  16.034  72.331  1.00  0.00    -0.520 Cl 
HETATM    2  C   UNL     1     -12.268  14.886  71.086  1.00  0.00    -0.320 A  
HETATM    3  C   UNL     1     -11.625  15.279  69.915  1.00  0.00    -0.335 A  
HETATM    4  C   UNL     1     -11.382  14.344  68.904  1.00  0.00    -0.274 A  
HETATM    5 CL   UNL     1     -10.594  14.903  67.473  1.00  0.00    -0.262 Cl 
HETATM    6  C   UNL     1     -11.769  13.003  69.059  1.00  0.00    -0.376 A  
HETATM    7  C   UNL     1     -12.407  12.630  70.261  1.00  0.00    -0.269 A  
HETATM    8  C   UNL     1     -12.670  13.566  71.260  1.00  0.00    -0.432 A  
ENDROOT
BRANCH   6   9
HETATM    9  C   UNL     1     -11.500  11.943  67.995  1.00  0.00    -0.323 C  
BRANCH   9  10
HETATM   10  C   UNL     1     -10.111  12.203  67.378  1.00  0.00    -0.199 C  
BRANCH  10  11
HETATM   11  N   UNL     1      -9.962  11.645  66.050  1.00  0.00    -0.220 NA 
HETATM   12  C   UNL     1     -10.883  11.679  65.039  1.00  0.00    -0.288 A  
HETATM   13  C   UNL     1      -8.827  11.061  65.556  1.00  0.00    -0.169 A  
HETATM   14  N   UNL     1      -8.986  10.687  64.309  1.00  0.00    -0.200 NA 
HETATM   15  C   UNL     1     -10.260  11.067  63.976  1.00  0.00    -0.358 A  
ENDBRANCH  10  11
ENDBRANCH   9  10
BRANCH   9  16
HETATM   16  O   UNL     1     -11.498  10.636  68.595  1.00  0.00    -0.274 OA 
BRANCH  16  17
HETATM   17  C   UNL     1     -10.216  10.244  69.102  1.00  0.00    -0.218 C  
BRANCH  17  18
HETATM   18  C   UNL     1     -10.196   8.773  69.396  1.00  0.00    -0.210 A  
HETATM   19  C   UNL     1     -10.588   8.239  70.607  1.00  0.00    -0.215 A  
HETATM   20  S   UNL     1     -10.450   6.549  70.664  1.00  0.00    -0.222 SA 
HETATM   21  C   UNL     1      -9.847   6.457  69.050  1.00  0.00    -0.138 A  
HETATM   22  C   UNL     1      -9.767   7.737  68.473  1.00  0.00    -0.165 A  
HETATM   23  C   UNL     1      -9.294   7.829  67.136  1.00  0.00    -0.185 A  
HETATM   24  C   UNL     1      -8.920   6.688  66.420  1.00  0.00    -0.161 A  
HETATM   25  C   UNL     1      -9.001   5.437  67.014  1.00  0.00    -0.112 A  
HETATM   26  C   UNL     1      -9.462   5.308  68.326  1.00  0.00    -0.124 A  
HETATM   27 CL   UNL     1      -9.541   3.727  69.017  1.00  0.00    -0.233 Cl 
ENDBRANCH  17  18
ENDBRANCH  16  17
ENDBRANCH   9  16
ENDBRANCH   6   9
TORSDOF 6
ENDMDL
MODEL      203
REMARK 921   NORMALIZED FREE ENERGY PREDICTED BY IDOCK:   -4.31 KCAL/MOL
REMARK 922        TOTAL FREE ENERGY PREDICTED BY IDOCK:   -6.87 KCAL/MOL
REMARK 923 INTER-LIGAND FREE ENERGY PREDICTED BY IDOCK:   -6.31 KCAL/MOL
REMARK 924 INTRA-LIGAND FREE ENERGY PREDICTED BY IDOCK:   -0.56 KCAL/MOL
REMARK 927      BINDING AFFINITY PREDICTED BY RF-SCORE:    0.00 PKD
ROOT
HETATM    1 CL   UNL     1      -5.177  14.606  69.911  1.00  0.00    -0.093 Cl 
HETATM    2  C   UNL     1      -6.256  13.370  69.395  1.00  0.00    -0.109 A  
HETATM    3  C   UNL     1      -6.107  12.071  69.877  1.00  0.00    -0.150 A  
HETATM    4  C   UNL     1      -6.987  11.068  69.461  1.00  0.00    -0.126 A  
HETATM    5 CL   UNL     1      -6.736   9.477  70.085  1.00  0.00    -0.067 Cl 
HETATM    6  C   UNL     1      -8.032  11.355  68.567  1.00  0.00    -0.143 A  
HETATM    7  C   UNL     1      -8.167  12.682  68.107  1.00  0.00    -0.170 A  
HETATM    8  C   UNL     1      -7.277  13.678  68.504  1.00  0.00    -0.109 A  
ENDROOT
BRANCH   6   9
HETATM    9  C   UNL     1      -9.032  10.298  68.107  1.00  0.00    -0.130 C  
BRANCH   9  10
HETATM   10  C   UNL     1      -9.747   9.722  69.345  1.00  0.00    -0.202 C  
BRANCH  10  11
HETATM   11  N   UNL     1      -9.845   8.277  69.328  1.00  0.00    -0.182 NA 
HETATM   12  C   UNL     1      -9.786   7.464  68.230  1.00  0.00    -0.160 A  
HETATM   13  C   UNL     1      -9.925   7.473  70.433  1.00  0.00    -0.184 A  
HETATM   14  N   UNL     1      -9.962   6.205  70.099  1.00  0.00    -0.170 NA 
HETATM   15  C   UNL     1      -9.875   6.187  68.732  1.00  0.00    -0.136 A  
ENDBRANCH  10  11
ENDBRANCH   9  10
BRANCH   9  16
HETATM   16  O   UNL     1     -10.016  10.897  67.246  1.00  0.00    -0.179 OA 
BRANCH  16  17
HETATM   17  C   UNL     1     -11.334  10.911  67.809  1.00  0.00    -0.292 C  
BRANCH  17  18
HETATM   18  C   UNL     1     -11.632  12.250  68.414  1.00  0.00    -0.377 A  
HETATM   19  C   UNL     1     -11.412  13.443  67.755  1.00  0.00    -0.316 A  
HETATM   20  S   UNL     1     -11.827  14.802  68.681  1.00  0.00    -0.269 SA 
HETATM   21  C   UNL     1     -12.322  13.840  70.027  1.00  0.00    -0.300 A  
HETATM   22  C   UNL     1     -12.173  12.472  69.743  1.00  0.00    -0.199 A  
HETATM   23  C   UNL     1     -12.548  11.545  70.754  1.00  0.00    -0.390 A  
HETATM   24  C   UNL     1     -13.047  11.979  71.987  1.00  0.00    -0.456 A  
HETATM   25  C   UNL     1     -13.177  13.335  72.244  1.00  0.00    -0.567 A  
HETATM   26  C   UNL     1     -12.819  14.275  71.275  1.00  0.00    -0.352 A  
HETATM   27 CL   UNL     1     -13.001  15.951  71.649  1.00  0.00    -0.478 Cl 
ENDBRANCH  17  18
ENDBRANCH  16  17
ENDBRANCH   9  16
ENDBRANCH   6   9
TORSDOF 6
ENDMDL
MODEL      204
REMARK 921   NORMALIZED FREE ENERGY PREDICTED BY IDOCK:   -4.28 KCAL/MOL
REMARK 922        TOTAL FREE ENERGY PREDICTED BY IDOCK:   -6.83 KCAL/MOL
REMARK 923 INTER-LIGAND FREE ENERGY PREDICTED BY IDOCK:   -5.62 KCAL/MOL
REMARK 924 INTRA-LIGAND FREE ENERGY PREDICTED BY IDOCK:   -1.21 KCAL/MOL
REMARK 927      BINDING AFFINITY PREDICTED BY RF-SCORE:    0.00 PKD
ROOT
HETATM    1 CL   UNL     1      -7.201   8.589  72.314  1.00  0.00    -0.113 Cl 
HETATM    2  C   UNL     1      -7.950   8.350  70.785  1.00  0.00    -0.106 A  
HETATM    3  C   UNL     1      -7.170   8.254  69.635  1.00  0.00    -0.061 A  
HETATM    4  C   UNL     1      -7.780   8.055  68.392  1.00  0.00    -0.117 A  
HETATM    5 CL   UNL     1      -6.754   7.959  67.006  1.00  0.00    -0.066 Cl 
HETATM    6  C   UNL     1      -9.175   7.940  68.289  1.00  0.00    -0.137 A  
HETATM    7  C   UNL     1      -9.940   8.028  69.471  1.00  0.00    -0.186 A  
HETATM    8  C   UNL     1      -9.334   8.248  70.708  1.00  0.00    -0.183 A  
ENDROOT
BRANCH   6   9
HETATM    9  C   UNL     1      -9.881   7.696  66.958  1.00  0.00    -0.215 C  
BRANCH   9  10
HETATM   10  C   UNL     1     -10.931   6.584  67.152  1.00  0.00    -0.408 C  
BRANCH  10  11
HETATM   11  N   UNL     1     -10.405   5.254  66.921  1.00  0.00    -0.242 NA 
HETATM   12  C   UNL     1     -10.153   4.672  65.709  1.00  0.00    -0.244 A  
HETATM   13  C   UNL     1      -9.987   4.385  67.892  1.00  0.00    -0.023 A  
HETATM   14  N   UNL     1      -9.525   3.273  67.371  1.00  0.00    -0.198 NA 
HETATM   15  C   UNL     1      -9.622   3.440  66.015  1.00  0.00    -0.053 A  
ENDBRANCH  10  11
ENDBRANCH   9  10
BRANCH   9  16
HETATM   16  O   UNL     1     -10.556   8.894  66.534  1.00  0.00    -0.188 OA 
BRANCH  16  17
HETATM   17  C   UNL     1      -9.798   9.675  65.601  1.00  0.00    -0.299 C  
BRANCH  17  18
HETATM   18  C   UNL     1      -9.409  10.988  66.212  1.00  0.00    -0.206 A  
HETATM   19  C   UNL     1      -8.164  11.229  66.757  1.00  0.00    -0.158 A  
HETATM   20  S   UNL     1      -8.004  12.795  67.387  1.00  0.00    -0.167 SA 
HETATM   21  C   UNL     1      -9.619  13.225  66.957  1.00  0.00    -0.243 A  
HETATM   22  C   UNL     1     -10.267  12.155  66.317  1.00  0.00    -0.249 A  
HETATM   23  C   UNL     1     -11.608  12.356  65.892  1.00  0.00    -0.449 A  
HETATM   24  C   UNL     1     -12.261  13.575  66.103  1.00  0.00    -0.484 A  
HETATM   25  C   UNL     1     -11.602  14.613  66.744  1.00  0.00    -0.370 A  
HETATM   26  C   UNL     1     -10.283  14.452  67.175  1.00  0.00    -0.257 A  
HETATM   27 CL   UNL     1      -9.511  15.778  67.969  1.00  0.00    -0.201 Cl 
ENDBRANCH  17  18
ENDBRANCH  16  17
ENDBRANCH   9  16
ENDBRANCH   6   9
TORSDOF 6
ENDMDL
MODEL      205
REMARK 921   NORMALIZED FREE ENERGY PREDICTED BY IDOCK:   -4.26 KCAL/MOL
REMARK 922        TOTAL FREE ENERGY PREDICTED BY IDOCK:   -6.80 KCAL/MOL
REMARK 923 INTER-LIGAND FREE ENERGY PREDICTED BY IDOCK:   -6.05 KCAL/MOL
REMARK 924 INTRA-LIGAND FREE ENERGY PREDICTED BY IDOCK:   -0.74 KCAL/MOL
REMARK 927      BINDING AFFINITY PREDICTED BY RF-SCORE:    0.00 PKD
ROOT
HETATM    1 CL   UNL     1      -6.334   4.665  66.110  1.00  0.00    -0.035 Cl 
HETATM    2  C   UNL     1      -7.382   5.396  67.262  1.00  0.00    -0.083 A  
HETATM    3  C   UNL     1      -8.691   5.714  66.907  1.00  0.00    -0.113 A  
HETATM    4  C   UNL     1      -9.544   6.305  67.845  1.00  0.00    -0.118 A  
HETATM    5 CL   UNL     1     -11.149   6.687  67.335  1.00  0.00    -0.424 Cl 
HETATM    6  C   UNL     1      -9.100   6.571  69.150  1.00  0.00    -0.136 A  
HETATM    7  C   UNL     1      -7.774   6.226  69.486  1.00  0.00    -0.099 A  
HETATM    8  C   UNL     1      -6.916   5.658  68.545  1.00  0.00    -0.064 A  
ENDROOT
BRANCH   6   9
HETATM    9  C   UNL     1     -10.003   7.189  70.214  1.00  0.00    -0.187 C  
BRANCH   9  10
HETATM   10  C   UNL     1      -9.250   7.197  71.559  1.00  0.00    -0.145 C  
BRANCH  10  11
HETATM   11  N   UNL     1      -9.763   6.229  72.507  1.00  0.00    -0.156 NA 
HETATM   12  C   UNL     1     -10.979   5.605  72.464  1.00  0.00    -0.264 A  
HETATM   13  C   UNL     1      -9.068   5.709  73.565  1.00  0.00    -0.131 A  
HETATM   14  N   UNL     1      -9.785   4.826  74.219  1.00  0.00    -0.133 NA 
HETATM   15  C   UNL     1     -10.974   4.752  73.542  1.00  0.00    -0.324 A  
ENDBRANCH  10  11
ENDBRANCH   9  10
BRANCH   9  16
HETATM   16  O   UNL     1     -10.321   8.547  69.858  1.00  0.00    -0.200 OA 
BRANCH  16  17
HETATM   17  C   UNL     1     -11.495   9.048  70.510  1.00  0.00    -0.212 C  
BRANCH  17  18
HETATM   18  C   UNL     1     -11.707  10.492  70.169  1.00  0.00    -0.410 A  
HETATM   19  C   UNL     1     -12.203  11.416  71.067  1.00  0.00    -0.285 A  
HETATM   20  S   UNL     1     -12.351  12.972  70.408  1.00  0.00    -0.213 SA 
HETATM   21  C   UNL     1     -11.753  12.470  68.868  1.00  0.00    -0.322 A  
HETATM   22  C   UNL     1     -11.432  11.102  68.880  1.00  0.00    -0.363 A  
HETATM   23  C   UNL     1     -10.917  10.536  67.682  1.00  0.00    -0.375 A  
HETATM   24  C   UNL     1     -10.736  11.313  66.533  1.00  0.00    -0.323 A  
HETATM   25  C   UNL     1     -11.068  12.659  66.545  1.00  0.00    -0.320 A  
HETATM   26  C   UNL     1     -11.576  13.250  67.704  1.00  0.00    -0.346 A  
HETATM   27 CL   UNL     1     -11.974  14.930  67.664  1.00  0.00    -0.272 Cl 
ENDBRANCH  17  18
ENDBRANCH  16  17
ENDBRANCH   9  16
ENDBRANCH   6   9
TORSDOF 6
ENDMDL
MODEL      206
REMARK 921   NORMALIZED FREE ENERGY PREDICTED BY IDOCK:   -4.26 KCAL/MOL
REMARK 922        TOTAL FREE ENERGY PREDICTED BY IDOCK:   -6.80 KCAL/MOL
REMARK 923 INTER-LIGAND FREE ENERGY PREDICTED BY IDOCK:   -5.36 KCAL/MOL
REMARK 924 INTRA-LIGAND FREE ENERGY PREDICTED BY IDOCK:   -1.44 KCAL/MOL
REMARK 927      BINDING AFFINITY PREDICTED BY RF-SCORE:    0.00 PKD
ROOT
HETATM    1 CL   UNL     1     -14.195   8.982  72.538  1.00  0.00    -0.468 Cl 
HETATM    2  C   UNL     1     -12.822   8.164  71.901  1.00  0.00    -0.335 A  
HETATM    3  C   UNL     1     -11.541   8.638  72.175  1.00  0.00    -0.440 A  
HETATM    4  C   UNL     1     -10.426   7.969  71.660  1.00  0.00    -0.219 A  
HETATM    5 CL   UNL     1      -8.868   8.618  72.026  1.00  0.00    -0.285 Cl 
HETATM    6  C   UNL     1     -10.581   6.814  70.876  1.00  0.00    -0.252 A  
HETATM    7  C   UNL     1     -11.889   6.350  70.627  1.00  0.00    -0.318 A  
HETATM    8  C   UNL     1     -13.003   7.028  71.120  1.00  0.00    -0.293 A  
ENDROOT
BRANCH   6   9
HETATM    9  C   UNL     1      -9.392   6.038  70.317  1.00  0.00    -0.159 C  
BRANCH   9  10
HETATM   10  C   UNL     1      -9.620   4.535  70.569  1.00  0.00    -0.204 C  
BRANCH  10  11
HETATM   11  N   UNL     1      -9.170   4.099  71.875  1.00  0.00    -0.121 NA 
HETATM   12  C   UNL     1      -7.947   4.335  72.441  1.00  0.00    -0.088 A  
HETATM   13  C   UNL     1      -9.936   3.447  72.803  1.00  0.00    -0.151 A  
HETATM   14  N   UNL     1      -9.261   3.220  73.905  1.00  0.00    -0.088 NA 
HETATM   15  C   UNL     1      -8.023   3.768  73.692  1.00  0.00    -0.086 A  
ENDBRANCH  10  11
ENDBRANCH   9  10
BRANCH   9  16
HETATM   16  O   UNL     1      -9.290   6.255  68.898  1.00  0.00    -0.129 OA 
BRANCH  16  17
HETATM   17  C   UNL     1      -8.325   7.253  68.541  1.00  0.00    -0.125 C  
BRANCH  17  18
HETATM   18  C   UNL     1      -9.009   8.534  68.171  1.00  0.00    -0.142 A  
HETATM   19  C   UNL     1     -10.257   8.583  67.583  1.00  0.00    -0.236 A  
HETATM   20  S   UNL     1     -10.781  10.164  67.263  1.00  0.00    -0.224 SA 
HETATM   21  C   UNL     1      -9.337  10.863  67.900  1.00  0.00    -0.156 A  
HETATM   22  C   UNL     1      -8.464   9.866  68.368  1.00  0.00    -0.111 A  
HETATM   23  C   UNL     1      -7.229  10.284  68.933  1.00  0.00    -0.086 A  
HETATM   24  C   UNL     1      -6.893  11.639  69.020  1.00  0.00    -0.105 A  
HETATM   25  C   UNL     1      -7.768  12.603  68.544  1.00  0.00    -0.114 A  
HETATM   26  C   UNL     1      -8.992  12.230  67.983  1.00  0.00    -0.190 A  
HETATM   27 CL   UNL     1     -10.044  13.472  67.405  1.00  0.00    -0.235 Cl 
ENDBRANCH  17  18
ENDBRANCH  16  17
ENDBRANCH   9  16
ENDBRANCH   6   9
TORSDOF 6
ENDMDL
MODEL      207
REMARK 921   NORMALIZED FREE ENERGY PREDICTED BY IDOCK:   -4.23 KCAL/MOL
REMARK 922        TOTAL FREE ENERGY PREDICTED BY IDOCK:   -6.75 KCAL/MOL
REMARK 923 INTER-LIGAND FREE ENERGY PREDICTED BY IDOCK:   -6.14 KCAL/MOL
REMARK 924 INTRA-LIGAND FREE ENERGY PREDICTED BY IDOCK:   -0.62 KCAL/MOL
REMARK 927      BINDING AFFINITY PREDICTED BY RF-SCORE:    0.00 PKD
ROOT
HETATM    1 CL   UNL     1     -11.346  14.914  65.906  1.00  0.00    -0.332 Cl 
HETATM    2  C   UNL     1     -10.852  13.427  66.613  1.00  0.00    -0.282 A  
HETATM    3  C   UNL     1      -9.503  13.080  66.633  1.00  0.00    -0.256 A  
HETATM    4  C   UNL     1      -9.101  11.873  67.212  1.00  0.00    -0.178 A  
HETATM    5 CL   UNL     1      -7.415  11.499  67.190  1.00  0.00    -0.135 Cl 
HETATM    6  C   UNL     1     -10.043  11.004  67.787  1.00  0.00    -0.201 A  
HETATM    7  C   UNL     1     -11.401  11.387  67.765  1.00  0.00    -0.354 A  
HETATM    8  C   UNL     1     -11.805  12.580  67.168  1.00  0.00    -0.386 A  
ENDROOT
BRANCH   6   9
HETATM    9  C   UNL     1      -9.647   9.690  68.454  1.00  0.00    -0.144 C  
BRANCH   9  10
HETATM   10  C   UNL     1      -9.403   9.950  69.953  1.00  0.00    -0.216 C  
BRANCH  10  11
HETATM   11  N   UNL     1     -10.500   9.517  70.795  1.00  0.00    -0.296 NA 
HETATM   12  C   UNL     1     -11.729  10.106  70.905  1.00  0.00    -0.378 A  
HETATM   13  C   UNL     1     -10.515   8.382  71.560  1.00  0.00    -0.239 A  
HETATM   14  N   UNL     1     -11.662   8.239  72.179  1.00  0.00    -0.340 NA 
HETATM   15  C   UNL     1     -12.426   9.304  71.779  1.00  0.00    -0.381 A  
ENDBRANCH  10  11
ENDBRANCH   9  10
BRANCH   9  16
HETATM   16  O   UNL     1     -10.714   8.733  68.322  1.00  0.00    -0.173 OA 
BRANCH  16  17
HETATM   17  C   UNL     1     -10.636   7.954  67.121  1.00  0.00    -0.313 C  
BRANCH  17  18
HETATM   18  C   UNL     1      -9.578   6.900  67.249  1.00  0.00    -0.173 A  
HETATM   19  C   UNL     1      -8.527   6.772  66.363  1.00  0.00    -0.126 A  
HETATM   20  S   UNL     1      -7.489   5.485  66.742  1.00  0.00    -0.088 SA 
HETATM   21  C   UNL     1      -8.416   5.032  68.125  1.00  0.00    -0.099 A  
HETATM   22  C   UNL     1      -9.518   5.889  68.290  1.00  0.00    -0.123 A  
HETATM   23  C   UNL     1     -10.378   5.651  69.396  1.00  0.00    -0.343 A  
HETATM   24  C   UNL     1     -10.139   4.601  70.288  1.00  0.00    -0.276 A  
HETATM   25  C   UNL     1      -9.049   3.764  70.099  1.00  0.00    -0.195 A  
HETATM   26  C   UNL     1      -8.181   3.968  69.024  1.00  0.00    -0.069 A  
HETATM   27 CL   UNL     1      -6.840   2.896  68.835  1.00  0.00    -0.040 Cl 
ENDBRANCH  17  18
ENDBRANCH  16  17
ENDBRANCH   9  16
ENDBRANCH   6   9
TORSDOF 6
ENDMDL
MODEL      208
REMARK 921   NORMALIZED FREE ENERGY PREDICTED BY IDOCK:   -4.22 KCAL/MOL
REMARK 922        TOTAL FREE ENERGY PREDICTED BY IDOCK:   -6.75 KCAL/MOL
REMARK 923 INTER-LIGAND FREE ENERGY PREDICTED BY IDOCK:   -5.93 KCAL/MOL
REMARK 924 INTRA-LIGAND FREE ENERGY PREDICTED BY IDOCK:   -0.82 KCAL/MOL
REMARK 927      BINDING AFFINITY PREDICTED BY RF-SCORE:    0.00 PKD
ROOT
HETATM    1 CL   UNL     1     -13.239  13.972  65.344  1.00  0.00    -0.252 Cl 
HETATM    2  C   UNL     1     -11.748  13.617  66.123  1.00  0.00    -0.364 A  
HETATM    3  C   UNL     1     -11.322  14.393  67.199  1.00  0.00    -0.356 A  
HETATM    4  C   UNL     1     -10.112  14.101  67.835  1.00  0.00    -0.235 A  
HETATM    5 CL   UNL     1      -9.637  15.112  69.151  1.00  0.00    -0.227 Cl 
HETATM    6  C   UNL     1      -9.320  13.022  67.408  1.00  0.00    -0.209 A  
HETATM    7  C   UNL     1      -9.781  12.245  66.325  1.00  0.00    -0.254 A  
HETATM    8  C   UNL     1     -10.978  12.549  65.676  1.00  0.00    -0.323 A  
ENDROOT
BRANCH   6   9
HETATM    9  C   UNL     1      -8.005  12.651  68.089  1.00  0.00    -0.158 C  
BRANCH   9  10
HETATM   10  C   UNL     1      -7.813  11.124  67.993  1.00  0.00    -0.114 C  
BRANCH  10  11
HETATM   11  N   UNL     1      -8.471  10.397  69.060  1.00  0.00    -0.146 NA 
HETATM   12  C   UNL     1      -7.868   9.745  70.100  1.00  0.00    -0.183 A  
HETATM   13  C   UNL     1      -9.824  10.318  69.251  1.00  0.00    -0.228 A  
HETATM   14  N   UNL     1     -10.115   9.622  70.324  1.00  0.00    -0.260 NA 
HETATM   15  C   UNL     1      -8.907   9.261  70.861  1.00  0.00    -0.188 A  
ENDBRANCH  10  11
ENDBRANCH   9  10
BRANCH   9  16
HETATM   16  O   UNL     1      -6.907  13.294  67.418  1.00  0.00    -0.164 OA 
BRANCH  16  17
HETATM   17  C   UNL     1      -5.791  13.562  68.276  1.00  0.00    -0.100 C  
BRANCH  17  18
HETATM   18  C   UNL     1      -5.852  14.968  68.791  1.00  0.00    -0.085 A  
HETATM   19  C   UNL     1      -5.276  15.363  69.982  1.00  0.00    -0.106 A  
HETATM   20  S   UNL     1      -5.512  17.008  70.323  1.00  0.00    -0.212 SA 
HETATM   21  C   UNL     1      -6.413  17.267  68.873  1.00  0.00    -0.202 A  
HETATM   22  C   UNL     1      -6.514  16.079  68.130  1.00  0.00    -0.132 A  
HETATM   23  C   UNL     1      -7.223  16.130  66.899  1.00  0.00    -0.240 A  
HETATM   24  C   UNL     1      -7.800  17.321  66.444  1.00  0.00    -0.345 A  
HETATM   25  C   UNL     1      -7.692  18.478  67.200  1.00  0.00    -0.232 A  
HETATM   26  C   UNL     1      -7.002  18.465  68.415  1.00  0.00    -0.253 A  
HETATM   27 CL   UNL     1      -6.899  19.935  69.316  1.00  0.00    -0.361 Cl 
ENDBRANCH  17  18
ENDBRANCH  16  17
ENDBRANCH   9  16
ENDBRANCH   6   9
TORSDOF 6
ENDMDL
MODEL      209
REMARK 921   NORMALIZED FREE ENERGY PREDICTED BY IDOCK:   -4.21 KCAL/MOL
REMARK 922        TOTAL FREE ENERGY PREDICTED BY IDOCK:   -6.74 KCAL/MOL
REMARK 923 INTER-LIGAND FREE ENERGY PREDICTED BY IDOCK:   -5.68 KCAL/MOL
REMARK 924 INTRA-LIGAND FREE ENERGY PREDICTED BY IDOCK:   -1.05 KCAL/MOL
REMARK 927      BINDING AFFINITY PREDICTED BY RF-SCORE:    0.00 PKD
ROOT
HETATM    1 CL   UNL     1      -6.088   5.983  64.974  1.00  0.00    -0.025 Cl 
HETATM    2  C   UNL     1      -7.173   6.434  66.229  1.00  0.00    -0.072 A  
HETATM    3  C   UNL     1      -8.547   6.287  66.048  1.00  0.00    -0.146 A  
HETATM    4  C   UNL     1      -9.428   6.650  67.071  1.00  0.00    -0.144 A  
HETATM    5 CL   UNL     1     -11.118   6.456  66.774  1.00  0.00    -0.366 Cl 
HETATM    6  C   UNL     1      -8.944   7.152  68.290  1.00  0.00    -0.125 A  
HETATM    7  C   UNL     1      -7.549   7.277  68.451  1.00  0.00    -0.118 A  
HETATM    8  C   UNL     1      -6.670   6.937  67.423  1.00  0.00    -0.067 A  
ENDROOT
BRANCH   6   9
HETATM    9  C   UNL     1      -9.868   7.535  69.443  1.00  0.00    -0.166 C  
BRANCH   9  10
HETATM   10  C   UNL     1      -9.015   7.750  70.709  1.00  0.00    -0.148 C  
BRANCH  10  11
HETATM   11  N   UNL     1      -9.608   7.179  71.902  1.00  0.00    -0.150 NA 
HETATM   12  C   UNL     1      -9.125   7.264  73.178  1.00  0.00    -0.153 A  
HETATM   13  C   UNL     1     -10.810   6.525  71.956  1.00  0.00    -0.234 A  
HETATM   14  N   UNL     1     -11.097   6.157  73.183  1.00  0.00    -0.225 NA 
HETATM   15  C   UNL     1     -10.058   6.612  73.951  1.00  0.00    -0.324 A  
ENDBRANCH  10  11
ENDBRANCH   9  10
BRANCH   9  16
HETATM   16  O   UNL     1     -10.550   8.764  69.137  1.00  0.00    -0.224 OA 
BRANCH  16  17
HETATM   17  C   UNL     1      -9.698   9.916  69.179  1.00  0.00    -0.198 C  
BRANCH  17  18
HETATM   18  C   UNL     1      -9.905  10.765  67.961  1.00  0.00    -0.180 A  
HETATM   19  C   UNL     1      -9.507  10.383  66.696  1.00  0.00    -0.165 A  
HETATM   20  S   UNL     1      -9.855  11.543  65.509  1.00  0.00    -0.241 SA 
HETATM   21  C   UNL     1     -10.558  12.628  66.653  1.00  0.00    -0.248 A  
HETATM   22  C   UNL     1     -10.529  12.077  67.946  1.00  0.00    -0.221 A  
HETATM   23  C   UNL     1     -11.082  12.848  69.004  1.00  0.00    -0.284 A  
HETATM   24  C   UNL     1     -11.634  14.112  68.768  1.00  0.00    -0.362 A  
HETATM   25  C   UNL     1     -11.644  14.636  67.484  1.00  0.00    -0.396 A  
HETATM   26  C   UNL     1     -11.110  13.906  66.419  1.00  0.00    -0.309 A  
HETATM   27 CL   UNL     1     -11.147  14.608  64.842  1.00  0.00    -0.391 Cl 
ENDBRANCH  17  18
ENDBRANCH  16  17
ENDBRANCH   9  16
ENDBRANCH   6   9
TORSDOF 6
ENDMDL
MODEL      210
REMARK 921   NORMALIZED FREE ENERGY PREDICTED BY IDOCK:   -4.21 KCAL/MOL
REMARK 922        TOTAL FREE ENERGY PREDICTED BY IDOCK:   -6.73 KCAL/MOL
REMARK 923 INTER-LIGAND FREE ENERGY PREDICTED BY IDOCK:   -6.15 KCAL/MOL
REMARK 924 INTRA-LIGAND FREE ENERGY PREDICTED BY IDOCK:   -0.58 KCAL/MOL
REMARK 927      BINDING AFFINITY PREDICTED BY RF-SCORE:    0.00 PKD
ROOT
HETATM    1 CL   UNL     1      -8.916   5.936  73.812  1.00  0.00    -0.127 Cl 
HETATM    2  C   UNL     1      -9.120   6.779  72.327  1.00  0.00    -0.132 A  
HETATM    3  C   UNL     1     -10.188   7.658  72.167  1.00  0.00    -0.256 A  
HETATM    4  C   UNL     1     -10.351   8.346  70.961  1.00  0.00    -0.198 A  
HETATM    5 CL   UNL     1     -11.705   9.409  70.825  1.00  0.00    -0.339 Cl 
HETATM    6  C   UNL     1      -9.440   8.170  69.907  1.00  0.00    -0.160 A  
HETATM    7  C   UNL     1      -8.360   7.284  70.101  1.00  0.00    -0.137 A  
HETATM    8  C   UNL     1      -8.210   6.580  71.296  1.00  0.00    -0.121 A  
ENDROOT
BRANCH   6   9
HETATM    9  C   UNL     1      -9.564   8.920  68.583  1.00  0.00    -0.153 C  
BRANCH   9  10
HETATM   10  C   UNL     1     -10.587   8.187  67.693  1.00  0.00    -0.188 C  
BRANCH  10  11
HETATM   11  N   UNL     1      -9.998   7.127  66.900  1.00  0.00    -0.210 NA 
HETATM   12  C   UNL     1      -8.885   7.216  66.110  1.00  0.00    -0.150 A  
HETATM   13  C   UNL     1     -10.416   5.824  66.880  1.00  0.00    -0.285 A  
HETATM   14  N   UNL     1      -9.661   5.093  66.095  1.00  0.00    -0.167 NA 
HETATM   15  C   UNL     1      -8.705   5.947  65.612  1.00  0.00    -0.146 A  
ENDBRANCH  10  11
ENDBRANCH   9  10
BRANCH   9  16
HETATM   16  O   UNL     1     -10.038  10.257  68.821  1.00  0.00    -0.170 OA 
BRANCH  16  17
HETATM   17  C   UNL     1     -10.598  10.880  67.657  1.00  0.00    -0.224 C  
BRANCH  17  18
HETATM   18  C   UNL     1     -10.371  12.361  67.695  1.00  0.00    -0.223 A  
HETATM   19  C   UNL     1      -9.472  13.009  66.872  1.00  0.00    -0.242 A  
HETATM   20  S   UNL     1      -9.411  14.683  67.140  1.00  0.00    -0.233 SA 
HETATM   21  C   UNL     1     -10.599  14.613  68.390  1.00  0.00    -0.241 A  
HETATM   22  C   UNL     1     -11.042  13.293  68.583  1.00  0.00    -0.301 A  
HETATM   23  C   UNL     1     -12.033  13.070  69.578  1.00  0.00    -0.350 A  
HETATM   24  C   UNL     1     -12.546  14.125  70.339  1.00  0.00    -0.397 A  
HETATM   25  C   UNL     1     -12.086  15.417  70.134  1.00  0.00    -0.400 A  
HETATM   26  C   UNL     1     -11.115  15.675  69.165  1.00  0.00    -0.284 A  
HETATM   27 CL   UNL     1     -10.577  17.302  68.952  1.00  0.00    -0.314 Cl 
ENDBRANCH  17  18
ENDBRANCH  16  17
ENDBRANCH   9  16
ENDBRANCH   6   9
TORSDOF 6
ENDMDL
MODEL      211
REMARK 921   NORMALIZED FREE ENERGY PREDICTED BY IDOCK:   -4.19 KCAL/MOL
REMARK 922        TOTAL FREE ENERGY PREDICTED BY IDOCK:   -6.71 KCAL/MOL
REMARK 923 INTER-LIGAND FREE ENERGY PREDICTED BY IDOCK:   -5.61 KCAL/MOL
REMARK 924 INTRA-LIGAND FREE ENERGY PREDICTED BY IDOCK:   -1.09 KCAL/MOL
REMARK 927      BINDING AFFINITY PREDICTED BY RF-SCORE:    0.00 PKD
ROOT
HETATM    1 CL   UNL     1      -7.736  14.192  67.361  1.00  0.00    -0.201 Cl 
HETATM    2  C   UNL     1      -8.248  12.701  68.047  1.00  0.00    -0.167 A  
HETATM    3  C   UNL     1      -7.303  11.755  68.440  1.00  0.00    -0.094 A  
HETATM    4  C   UNL     1      -7.720  10.544  69.002  1.00  0.00    -0.125 A  
HETATM    5 CL   UNL     1      -6.498   9.411  69.452  1.00  0.00    -0.043 Cl 
HETATM    6  C   UNL     1      -9.085  10.272  69.187  1.00  0.00    -0.199 A  
HETATM    7  C   UNL     1     -10.019  11.254  68.794  1.00  0.00    -0.203 A  
HETATM    8  C   UNL     1      -9.605  12.452  68.212  1.00  0.00    -0.211 A  
ENDROOT
BRANCH   6   9
HETATM    9  C   UNL     1      -9.584   8.977  69.821  1.00  0.00    -0.175 C  
BRANCH   9  10
HETATM   10  C   UNL     1      -9.914   9.246  71.303  1.00  0.00    -0.271 C  
BRANCH  10  11
HETATM   11  N   UNL     1     -11.335   9.349  71.563  1.00  0.00    -0.379 NA 
HETATM   12  C   UNL     1     -12.126  10.447  71.366  1.00  0.00    -0.327 A  
HETATM   13  C   UNL     1     -12.145   8.324  71.971  1.00  0.00    -0.348 A  
HETATM   14  N   UNL     1     -13.392   8.717  72.084  1.00  0.00    -0.383 NA 
HETATM   15  C   UNL     1     -13.393  10.034  71.709  1.00  0.00    -0.393 A  
ENDBRANCH  10  11
ENDBRANCH   9  10
BRANCH   9  16
HETATM   16  O   UNL     1     -10.783   8.537  69.158  1.00  0.00    -0.202 OA 
BRANCH  16  17
HETATM   17  C   UNL     1     -10.638   7.275  68.494  1.00  0.00    -0.175 C  
BRANCH  17  18
HETATM   18  C   UNL     1      -9.458   7.303  67.569  1.00  0.00    -0.151 A  
HETATM   19  C   UNL     1      -8.399   6.423  67.668  1.00  0.00    -0.117 A  
HETATM   20  S   UNL     1      -7.198   6.691  66.501  1.00  0.00    -0.074 SA 
HETATM   21  C   UNL     1      -8.052   8.020  65.804  1.00  0.00    -0.121 A  
HETATM   22  C   UNL     1      -9.268   8.238  66.474  1.00  0.00    -0.236 A  
HETATM   23  C   UNL     1     -10.095   9.297  66.011  1.00  0.00    -0.262 A  
HETATM   24  C   UNL     1      -9.712  10.095  64.928  1.00  0.00    -0.392 A  
HETATM   25  C   UNL     1      -8.504   9.864  64.289  1.00  0.00    -0.178 A  
HETATM   26  C   UNL     1      -7.665   8.832  64.715  1.00  0.00    -0.113 A  
HETATM   27 CL   UNL     1      -6.172   8.589  63.883  1.00  0.00    -0.072 Cl 
ENDBRANCH  17  18
ENDBRANCH  16  17
ENDBRANCH   9  16
ENDBRANCH   6   9
TORSDOF 6
ENDMDL
MODEL      212
REMARK 921   NORMALIZED FREE ENERGY PREDICTED BY IDOCK:   -4.18 KCAL/MOL
REMARK 922        TOTAL FREE ENERGY PREDICTED BY IDOCK:   -6.70 KCAL/MOL
REMARK 923 INTER-LIGAND FREE ENERGY PREDICTED BY IDOCK:   -5.90 KCAL/MOL
REMARK 924 INTRA-LIGAND FREE ENERGY PREDICTED BY IDOCK:   -0.79 KCAL/MOL
REMARK 927      BINDING AFFINITY PREDICTED BY RF-SCORE:    0.00 PKD
ROOT
HETATM    1 CL   UNL     1     -12.259  14.276  69.437  1.00  0.00    -0.349 Cl 
HETATM    2  C   UNL     1     -11.670  13.109  68.319  1.00  0.00    -0.349 A  
HETATM    3  C   UNL     1     -12.133  13.108  67.006  1.00  0.00    -0.366 A  
HETATM    4  C   UNL     1     -11.651  12.161  66.096  1.00  0.00    -0.354 A  
HETATM    5 CL   UNL     1     -12.279  12.207  64.488  1.00  0.00    -0.431 Cl 
HETATM    6  C   UNL     1     -10.692  11.213  66.489  1.00  0.00    -0.314 A  
HETATM    7  C   UNL     1     -10.231  11.246  67.822  1.00  0.00    -0.203 A  
HETATM    8  C   UNL     1     -10.728  12.175  68.735  1.00  0.00    -0.252 A  
ENDROOT
BRANCH   6   9
HETATM    9  C   UNL     1     -10.118  10.179  65.524  1.00  0.00    -0.268 C  
BRANCH   9  10
HETATM   10  C   UNL     1      -8.884  10.786  64.827  1.00  0.00    -0.149 C  
BRANCH  10  11
HETATM   11  N   UNL     1      -8.172   9.835  63.997  1.00  0.00    -0.146 NA 
HETATM   12  C   UNL     1      -8.664   9.164  62.912  1.00  0.00    -0.171 A  
HETATM   13  C   UNL     1      -6.847   9.514  64.115  1.00  0.00    -0.102 A  
HETATM   14  N   UNL     1      -6.481   8.652  63.197  1.00  0.00    -0.090 NA 
HETATM   15  C   UNL     1      -7.602   8.428  62.442  1.00  0.00    -0.115 A  
ENDBRANCH  10  11
ENDBRANCH   9  10
BRANCH   9  16
HETATM   16  O   UNL     1      -9.705   9.008  66.251  1.00  0.00    -0.235 OA 
BRANCH  16  17
HETATM   17  C   UNL     1     -10.799   8.203  66.706  1.00  0.00     0.214 C  
BRANCH  17  18
HETATM   18  C   UNL     1     -10.294   7.003  67.449  1.00  0.00    -0.313 A  
HETATM   19  C   UNL     1      -9.522   6.021  66.863  1.00  0.00    -0.134 A  
HETATM   20  S   UNL     1      -9.102   4.774  67.934  1.00  0.00    -0.122 SA 
HETATM   21  C   UNL     1      -9.952   5.503  69.248  1.00  0.00    -0.196 A  
HETATM   22  C   UNL     1     -10.545   6.713  68.850  1.00  0.00    -0.264 A  
HETATM   23  C   UNL     1     -11.277   7.441  69.826  1.00  0.00    -0.110 A  
HETATM   24  C   UNL     1     -11.405   6.970  71.137  1.00  0.00    -0.319 A  
HETATM   25  C   UNL     1     -10.816   5.770  71.503  1.00  0.00    -0.316 A  
HETATM   26  C   UNL     1     -10.088   5.027  70.571  1.00  0.00    -0.253 A  
HETATM   27 CL   UNL     1      -9.377   3.538  71.081  1.00  0.00    -0.197 Cl 
ENDBRANCH  17  18
ENDBRANCH  16  17
ENDBRANCH   9  16
ENDBRANCH   6   9
TORSDOF 6
ENDMDL
MODEL      213
REMARK 921   NORMALIZED FREE ENERGY PREDICTED BY IDOCK:   -4.18 KCAL/MOL
REMARK 922        TOTAL FREE ENERGY PREDICTED BY IDOCK:   -6.69 KCAL/MOL
REMARK 923 INTER-LIGAND FREE ENERGY PREDICTED BY IDOCK:   -6.51 KCAL/MOL
REMARK 924 INTRA-LIGAND FREE ENERGY PREDICTED BY IDOCK:   -0.18 KCAL/MOL
REMARK 927      BINDING AFFINITY PREDICTED BY RF-SCORE:    0.00 PKD
ROOT
HETATM    1 CL   UNL     1      -5.285  11.993  71.113  1.00  0.00    -0.136 Cl 
HETATM    2  C   UNL     1      -6.297  12.179  69.735  1.00  0.00    -0.102 A  
HETATM    3  C   UNL     1      -7.305  11.251  69.482  1.00  0.00     0.027 A  
HETATM    4  C   UNL     1      -8.130  11.405  68.364  1.00  0.00    -0.145 A  
HETATM    5 CL   UNL     1      -9.349  10.211  68.102  1.00  0.00    -0.136 Cl 
HETATM    6  C   UNL     1      -7.963  12.495  67.494  1.00  0.00    -0.175 A  
HETATM    7  C   UNL     1      -6.943  13.426  67.782  1.00  0.00    -0.159 A  
HETATM    8  C   UNL     1      -6.105  13.261  68.884  1.00  0.00    -0.083 A  
ENDROOT
BRANCH   6   9
HETATM    9  C   UNL     1      -8.857  12.718  66.277  1.00  0.00     0.140 C  
BRANCH   9  10
HETATM   10  C   UNL     1      -9.578  11.396  65.946  1.00  0.00    -0.227 C  
BRANCH  10  11
HETATM   11  N   UNL     1      -9.373  10.961  64.579  1.00  0.00    -0.217 NA 
HETATM   12  C   UNL     1      -9.561  11.703  63.446  1.00  0.00    -0.287 A  
HETATM   13  C   UNL     1      -8.869   9.746  64.199  1.00  0.00    -0.231 A  
HETATM   14  N   UNL     1      -8.764   9.660  62.894  1.00  0.00    -0.210 NA 
HETATM   15  C   UNL     1      -9.190  10.871  62.415  1.00  0.00    -0.262 A  
ENDBRANCH  10  11
ENDBRANCH   9  10
BRANCH   9  16
HETATM   16  O   UNL     1      -9.847  13.718  66.574  1.00  0.00    -0.273 OA 
BRANCH  16  17
HETATM   17  C   UNL     1     -11.121  13.170  66.939  1.00  0.00    -0.282 C  
BRANCH  17  18
HETATM   18  C   UNL     1     -11.589  13.751  68.239  1.00  0.00    -0.373 A  
HETATM   19  C   UNL     1     -11.672  15.109  68.473  1.00  0.00    -0.325 A  
HETATM   20  S   UNL     1     -12.221  15.483  70.035  1.00  0.00    -0.304 SA 
HETATM   21  C   UNL     1     -12.368  13.820  70.473  1.00  0.00    -0.359 A  
HETATM   22  C   UNL     1     -12.002  12.987  69.402  1.00  0.00    -0.338 A  
HETATM   23  C   UNL     1     -12.078  11.582  69.605  1.00  0.00    -0.363 A  
HETATM   24  C   UNL     1     -12.501  11.047  70.826  1.00  0.00    -0.491 A  
HETATM   25  C   UNL     1     -12.850  11.891  71.870  1.00  0.00    -0.341 A  
HETATM   26  C   UNL     1     -12.788  13.277  71.708  1.00  0.00    -0.269 A  
HETATM   27 CL   UNL     1     -13.232  14.281  73.041  1.00  0.00    -0.592 Cl 
ENDBRANCH  17  18
ENDBRANCH  16  17
ENDBRANCH   9  16
ENDBRANCH   6   9
TORSDOF 6
ENDMDL
MODEL      214
REMARK 921   NORMALIZED FREE ENERGY PREDICTED BY IDOCK:   -4.17 KCAL/MOL
REMARK 922        TOTAL FREE ENERGY PREDICTED BY IDOCK:   -6.67 KCAL/MOL
REMARK 923 INTER-LIGAND FREE ENERGY PREDICTED BY IDOCK:   -6.18 KCAL/MOL
REMARK 924 INTRA-LIGAND FREE ENERGY PREDICTED BY IDOCK:   -0.50 KCAL/MOL
REMARK 927      BINDING AFFINITY PREDICTED BY RF-SCORE:    0.00 PKD
ROOT
HETATM    1 CL   UNL     1      -8.965   2.127  63.935  1.00  0.00    -0.092 Cl 
HETATM    2  C   UNL     1      -9.186   3.599  64.797  1.00  0.00    -0.145 A  
HETATM    3  C   UNL     1      -8.123   4.489  64.938  1.00  0.00    -0.100 A  
HETATM    4  C   UNL     1      -8.304   5.687  65.635  1.00  0.00    -0.135 A  
HETATM    5 CL   UNL     1      -6.941   6.737  65.785  1.00  0.00    -0.062 Cl 
HETATM    6  C   UNL     1      -9.553   6.014  66.187  1.00  0.00    -0.091 A  
HETATM    7  C   UNL     1     -10.615   5.101  66.017  1.00  0.00    -0.236 A  
HETATM    8  C   UNL     1     -10.430   3.895  65.342  1.00  0.00     0.080 A  
ENDROOT
BRANCH   6   9
HETATM    9  C   UNL     1      -9.804   7.322  66.932  1.00  0.00    -0.214 C  
BRANCH   9  10
HETATM   10  C   UNL     1      -9.053   7.276  68.278  1.00  0.00    -0.134 C  
BRANCH  10  11
HETATM   11  N   UNL     1      -9.850   6.733  69.359  1.00  0.00    -0.155 NA 
HETATM   12  C   UNL     1     -11.064   7.189  69.791  1.00  0.00    -0.210 A  
HETATM   13  C   UNL     1      -9.553   5.605  70.076  1.00  0.00    -0.166 A  
HETATM   14  N   UNL     1     -10.484   5.344  70.962  1.00  0.00    -0.241 NA 
HETATM   15  C   UNL     1     -11.430   6.321  70.794  1.00  0.00    -0.316 A  
ENDBRANCH  10  11
ENDBRANCH   9  10
BRANCH   9  16
HETATM   16  O   UNL     1      -9.298   8.428  66.162  1.00  0.00    -0.200 OA 
BRANCH  16  17
HETATM   17  C   UNL     1      -9.377   9.684  66.849  1.00  0.00    -0.146 C  
BRANCH  17  18
HETATM   18  C   UNL     1      -9.955  10.736  65.951  1.00  0.00    -0.304 A  
HETATM   19  C   UNL     1      -9.823  10.713  64.577  1.00  0.00    -0.327 A  
HETATM   20  S   UNL     1     -10.565  12.035  63.815  1.00  0.00    -0.475 SA 
HETATM   21  C   UNL     1     -11.099  12.708  65.312  1.00  0.00    -0.295 A  
HETATM   22  C   UNL     1     -10.708  11.897  66.391  1.00  0.00    -0.303 A  
HETATM   23  C   UNL     1     -11.082  12.313  67.698  1.00  0.00    -0.318 A  
HETATM   24  C   UNL     1     -11.812  13.489  67.903  1.00  0.00    -0.397 A  
HETATM   25  C   UNL     1     -12.179  14.276  66.821  1.00  0.00    -0.384 A  
HETATM   26  C   UNL     1     -11.830  13.898  65.523  1.00  0.00    -0.362 A  
HETATM   27 CL   UNL     1     -12.312  14.915  64.213  1.00  0.00    -0.448 Cl 
ENDBRANCH  17  18
ENDBRANCH  16  17
ENDBRANCH   9  16
ENDBRANCH   6   9
TORSDOF 6
ENDMDL
MODEL      215
REMARK 921   NORMALIZED FREE ENERGY PREDICTED BY IDOCK:   -4.15 KCAL/MOL
REMARK 922        TOTAL FREE ENERGY PREDICTED BY IDOCK:   -6.66 KCAL/MOL
REMARK 923 INTER-LIGAND FREE ENERGY PREDICTED BY IDOCK:   -5.52 KCAL/MOL
REMARK 924 INTRA-LIGAND FREE ENERGY PREDICTED BY IDOCK:   -1.13 KCAL/MOL
REMARK 927      BINDING AFFINITY PREDICTED BY RF-SCORE:    0.00 PKD
ROOT
HETATM    1 CL   UNL     1      -9.281   4.912  66.308  1.00  0.00    -0.135 Cl 
HETATM    2  C   UNL     1      -9.323   6.630  66.269  1.00  0.00    -0.105 A  
HETATM    3  C   UNL     1      -8.304   7.337  65.635  1.00  0.00    -0.142 A  
HETATM    4  C   UNL     1      -8.342   8.735  65.600  1.00  0.00    -0.138 A  
HETATM    5 CL   UNL     1      -7.039   9.548  64.812  1.00  0.00    -0.103 Cl 
HETATM    6  C   UNL     1      -9.405   9.438  66.188  1.00  0.00    -0.262 A  
HETATM    7  C   UNL     1     -10.431   8.696  66.811  1.00  0.00    -0.298 A  
HETATM    8  C   UNL     1     -10.383   7.304  66.866  1.00  0.00    -0.358 A  
ENDROOT
BRANCH   6   9
HETATM    9  C   UNL     1      -9.501  10.961  66.150  1.00  0.00    -0.200 C  
BRANCH   9  10
HETATM   10  C   UNL     1     -10.971  11.370  66.372  1.00  0.00    -0.260 C  
BRANCH  10  11
HETATM   11  N   UNL     1     -11.348  12.566  65.646  1.00  0.00    -0.320 NA 
HETATM   12  C   UNL     1     -10.528  13.357  64.889  1.00  0.00    -0.390 A  
HETATM   13  C   UNL     1     -12.620  13.057  65.529  1.00  0.00    -0.362 A  
HETATM   14  N   UNL     1     -12.649  14.132  64.778  1.00  0.00    -0.656 NA 
HETATM   15  C   UNL     1     -11.355  14.328  64.374  1.00  0.00    -0.273 A  
ENDBRANCH  10  11
ENDBRANCH   9  10
BRANCH   9  16
HETATM   16  O   UNL     1      -8.704  11.528  67.205  1.00  0.00    -0.150 OA 
BRANCH  16  17
HETATM   17  C   UNL     1      -9.134  11.142  68.516  1.00  0.00    -0.175 C  
BRANCH  17  18
HETATM   18  C   UNL     1      -8.121  10.242  69.157  1.00  0.00    -0.138 A  
HETATM   19  C   UNL     1      -6.780  10.261  68.830  1.00  0.00    -0.057 A  
HETATM   20  S   UNL     1      -5.866   9.128  69.701  1.00  0.00    -0.033 SA 
HETATM   21  C   UNL     1      -7.246   8.550  70.563  1.00  0.00    -0.045 A  
HETATM   22  C   UNL     1      -8.403   9.248  70.177  1.00  0.00    -0.189 A  
HETATM   23  C   UNL     1      -9.627   8.893  70.806  1.00  0.00    -0.283 A  
HETATM   24  C   UNL     1      -9.679   7.884  71.773  1.00  0.00    -0.219 A  
HETATM   25  C   UNL     1      -8.524   7.205  72.130  1.00  0.00    -0.118 A  
HETATM   26  C   UNL     1      -7.303   7.527  71.534  1.00  0.00    -0.075 A  
HETATM   27 CL   UNL     1      -5.896   6.649  72.016  1.00  0.00    -0.037 Cl 
ENDBRANCH  17  18
ENDBRANCH  16  17
ENDBRANCH   9  16
ENDBRANCH   6   9
TORSDOF 6
ENDMDL
MODEL      216
REMARK 921   NORMALIZED FREE ENERGY PREDICTED BY IDOCK:   -4.13 KCAL/MOL
REMARK 922        TOTAL FREE ENERGY PREDICTED BY IDOCK:   -6.63 KCAL/MOL
REMARK 923 INTER-LIGAND FREE ENERGY PREDICTED BY IDOCK:   -5.49 KCAL/MOL
REMARK 924 INTRA-LIGAND FREE ENERGY PREDICTED BY IDOCK:   -1.13 KCAL/MOL
REMARK 927      BINDING AFFINITY PREDICTED BY RF-SCORE:    0.00 PKD
ROOT
HETATM    1 CL   UNL     1     -10.091   3.340  72.127  1.00  0.00    -0.227 Cl 
HETATM    2  C   UNL     1      -9.762   4.415  70.826  1.00  0.00    -0.201 A  
HETATM    3  C   UNL     1      -8.509   4.409  70.218  1.00  0.00    -0.094 A  
HETATM    4  C   UNL     1      -8.244   5.281  69.157  1.00  0.00    -0.092 A  
HETATM    5 CL   UNL     1      -6.666   5.232  68.459  1.00  0.00    -0.052 Cl 
HETATM    6  C   UNL     1      -9.234   6.159  68.686  1.00  0.00    -0.123 A  
HETATM    7  C   UNL     1     -10.499   6.133  69.312  1.00  0.00    -0.314 A  
HETATM    8  C   UNL     1     -10.756   5.281  70.384  1.00  0.00    -0.216 A  
ENDROOT
BRANCH   6   9
HETATM    9  C   UNL     1      -8.998   7.108  67.514  1.00  0.00    -0.121 C  
BRANCH   9  10
HETATM   10  C   UNL     1      -9.902   6.679  66.341  1.00  0.00    -0.039 C  
BRANCH  10  11
HETATM   11  N   UNL     1      -9.254   5.760  65.427  1.00  0.00     0.013 NA 
HETATM   12  C   UNL     1      -8.063   5.950  64.782  1.00  0.00    -0.132 A  
HETATM   13  C   UNL     1      -9.693   4.500  65.123  1.00  0.00    -0.152 A  
HETATM   14  N   UNL     1      -8.874   3.897  64.295  1.00  0.00    -0.119 NA 
HETATM   15  C   UNL     1      -7.856   4.788  64.076  1.00  0.00    -0.086 A  
ENDBRANCH  10  11
ENDBRANCH   9  10
BRANCH   9  16
HETATM   16  O   UNL     1      -9.347   8.451  67.894  1.00  0.00    -0.135 OA 
BRANCH  16  17
HETATM   17  C   UNL     1     -10.471   8.974  67.174  1.00  0.00    -0.263 C  
BRANCH  17  18
HETATM   18  C   UNL     1     -10.967  10.233  67.820  1.00  0.00    -0.360 A  
HETATM   19  C   UNL     1     -11.000  11.452  67.173  1.00  0.00    -0.285 A  
HETATM   20  S   UNL     1     -11.596  12.707  68.146  1.00  0.00    -0.354 SA 
HETATM   21  C   UNL     1     -11.834  11.660  69.498  1.00  0.00    -0.348 A  
HETATM   22  C   UNL     1     -11.461  10.343  69.181  1.00  0.00    -0.261 A  
HETATM   23  C   UNL     1     -11.606   9.355  70.192  1.00  0.00    -0.117 A  
HETATM   24  C   UNL     1     -12.102   9.681  71.459  1.00  0.00    -0.482 A  
HETATM   25  C   UNL     1     -12.457  10.990  71.749  1.00  0.00    -0.195 A  
HETATM   26  C   UNL     1     -12.328  11.988  70.780  1.00  0.00    -0.308 A  
HETATM   27 CL   UNL     1     -12.783  13.601  71.195  1.00  0.00    -0.430 Cl 
ENDBRANCH  17  18
ENDBRANCH  16  17
ENDBRANCH   9  16
ENDBRANCH   6   9
TORSDOF 6
ENDMDL
MODEL      217
REMARK 921   NORMALIZED FREE ENERGY PREDICTED BY IDOCK:   -4.11 KCAL/MOL
REMARK 922        TOTAL FREE ENERGY PREDICTED BY IDOCK:   -6.60 KCAL/MOL
REMARK 923 INTER-LIGAND FREE ENERGY PREDICTED BY IDOCK:   -5.61 KCAL/MOL
REMARK 924 INTRA-LIGAND FREE ENERGY PREDICTED BY IDOCK:   -0.98 KCAL/MOL
REMARK 927      BINDING AFFINITY PREDICTED BY RF-SCORE:    0.00 PKD
ROOT
HETATM    1 CL   UNL     1      -6.456   2.087  64.375  1.00  0.00    -0.019 Cl 
HETATM    2  C   UNL     1      -7.461   3.171  65.254  1.00  0.00    -0.076 A  
HETATM    3  C   UNL     1      -8.774   3.389  64.845  1.00  0.00    -0.112 A  
HETATM    4  C   UNL     1      -9.592   4.267  65.563  1.00  0.00    -0.188 A  
HETATM    5 CL   UNL     1     -11.204   4.503  64.991  1.00  0.00    -0.034 Cl 
HETATM    6  C   UNL     1      -9.108   4.927  66.704  1.00  0.00    -0.119 A  
HETATM    7  C   UNL     1      -7.778   4.676  67.104  1.00  0.00    -0.090 A  
HETATM    8  C   UNL     1      -6.955   3.818  66.375  1.00  0.00    -0.059 A  
ENDROOT
BRANCH   6   9
HETATM    9  C   UNL     1      -9.973   5.872  67.533  1.00  0.00    -0.143 C  
BRANCH   9  10
HETATM   10  C   UNL     1      -9.270   6.130  68.881  1.00  0.00    -0.125 C  
BRANCH  10  11
HETATM   11  N   UNL     1     -10.195   6.297  69.984  1.00  0.00    -0.180 NA 
HETATM   12  C   UNL     1     -11.514   6.646  69.902  1.00  0.00    -0.354 A  
HETATM   13  C   UNL     1      -9.914   6.045  71.300  1.00  0.00    -0.184 A  
HETATM   14  N   UNL     1     -10.964   6.252  72.060  1.00  0.00    -0.244 NA 
HETATM   15  C   UNL     1     -11.965   6.625  71.201  1.00  0.00    -0.357 A  
ENDBRANCH  10  11
ENDBRANCH   9  10
BRANCH   9  16
HETATM   16  O   UNL     1     -10.123   7.127  66.847  1.00  0.00    -0.207 OA 
BRANCH  16  17
HETATM   17  C   UNL     1      -9.132   8.098  67.209  1.00  0.00    -0.138 C  
BRANCH  17  18
HETATM   18  C   UNL     1      -9.774   9.427  67.475  1.00  0.00    -0.198 A  
HETATM   19  C   UNL     1      -9.966   9.933  68.745  1.00  0.00    -0.173 A  
HETATM   20  S   UNL     1     -10.726  11.450  68.749  1.00  0.00    -0.211 SA 
HETATM   21  C   UNL     1     -10.838  11.493  67.027  1.00  0.00    -0.273 A  
HETATM   22  C   UNL     1     -10.275  10.337  66.461  1.00  0.00    -0.289 A  
HETATM   23  C   UNL     1     -10.283  10.227  65.044  1.00  0.00    -0.277 A  
HETATM   24  C   UNL     1     -10.832  11.232  64.241  1.00  0.00    -0.398 A  
HETATM   25  C   UNL     1     -11.389  12.360  64.825  1.00  0.00    -0.360 A  
HETATM   26  C   UNL     1     -11.399  12.503  66.214  1.00  0.00    -0.338 A  
HETATM   27 CL   UNL     1     -12.106  13.927  66.889  1.00  0.00    -0.470 Cl 
ENDBRANCH  17  18
ENDBRANCH  16  17
ENDBRANCH   9  16
ENDBRANCH   6   9
TORSDOF 6
ENDMDL
MODEL      218
REMARK 921   NORMALIZED FREE ENERGY PREDICTED BY IDOCK:   -4.11 KCAL/MOL
REMARK 922        TOTAL FREE ENERGY PREDICTED BY IDOCK:   -6.59 KCAL/MOL
REMARK 923 INTER-LIGAND FREE ENERGY PREDICTED BY IDOCK:   -6.17 KCAL/MOL
REMARK 924 INTRA-LIGAND FREE ENERGY PREDICTED BY IDOCK:   -0.42 KCAL/MOL
REMARK 927      BINDING AFFINITY PREDICTED BY RF-SCORE:    0.00 PKD
ROOT
HETATM    1 CL   UNL     1     -11.519   5.986  71.638  1.00  0.00    -0.324 Cl 
HETATM    2  C   UNL     1     -10.766   6.846  70.353  1.00  0.00    -0.246 A  
HETATM    3  C   UNL     1      -9.872   7.875  70.634  1.00  0.00    -0.187 A  
HETATM    4  C   UNL     1      -9.257   8.571  69.589  1.00  0.00    -0.157 A  
HETATM    5 CL   UNL     1      -8.170   9.846  70.009  1.00  0.00    -0.198 Cl 
HETATM    6  C   UNL     1      -9.523   8.237  68.251  1.00  0.00    -0.146 A  
HETATM    7  C   UNL     1     -10.422   7.180  67.995  1.00  0.00    -0.251 A  
HETATM    8  C   UNL     1     -11.053   6.501  69.037  1.00  0.00    -0.375 A  
ENDROOT
BRANCH   6   9
HETATM    9  C   UNL     1      -8.854   8.951  67.079  1.00  0.00    -0.126 C  
BRANCH   9  10
HETATM   10  C   UNL     1      -8.795   7.984  65.880  1.00  0.00    -0.153 C  
BRANCH  10  11
HETATM   11  N   UNL     1      -7.560   8.082  65.127  1.00  0.00    -0.092 NA 
HETATM   12  C   UNL     1      -6.483   8.872  65.420  1.00  0.00    -0.067 A  
HETATM   13  C   UNL     1      -7.234   7.327  64.033  1.00  0.00    -0.077 A  
HETATM   14  N   UNL     1      -6.034   7.619  63.593  1.00  0.00    -0.052 NA 
HETATM   15  C   UNL     1      -5.556   8.577  64.448  1.00  0.00    -0.063 A  
ENDBRANCH  10  11
ENDBRANCH   9  10
BRANCH   9  16
HETATM   16  O   UNL     1      -9.630  10.102  66.701  1.00  0.00    -0.171 OA 
BRANCH  16  17
HETATM   17  C   UNL     1     -10.149  10.027  65.367  1.00  0.00    -0.247 C  
BRANCH  17  18
HETATM   18  C   UNL     1     -10.658  11.367  64.927  1.00  0.00    -0.368 A  
HETATM   19  C   UNL     1     -11.611  11.528  63.943  1.00  0.00    -0.212 A  
HETATM   20  S   UNL     1     -11.990  13.154  63.640  1.00  0.00    -0.479 SA 
HETATM   21  C   UNL     1     -10.873  13.723  64.827  1.00  0.00    -0.401 A  
HETATM   22  C   UNL     1     -10.224  12.648  65.458  1.00  0.00    -0.298 A  
HETATM   23  C   UNL     1      -9.275  12.954  66.471  1.00  0.00    -0.186 A  
HETATM   24  C   UNL     1      -8.997  14.277  66.828  1.00  0.00    -0.249 A  
HETATM   25  C   UNL     1      -9.646  15.320  66.185  1.00  0.00    -0.353 A  
HETATM   26  C   UNL     1     -10.584  15.058  65.185  1.00  0.00    -0.418 A  
HETATM   27 CL   UNL     1     -11.362  16.395  64.416  1.00  0.00    -0.279 Cl 
ENDBRANCH  17  18
ENDBRANCH  16  17
ENDBRANCH   9  16
ENDBRANCH   6   9
TORSDOF 6
ENDMDL
MODEL      219
REMARK 921   NORMALIZED FREE ENERGY PREDICTED BY IDOCK:   -4.09 KCAL/MOL
REMARK 922        TOTAL FREE ENERGY PREDICTED BY IDOCK:   -6.57 KCAL/MOL
REMARK 923 INTER-LIGAND FREE ENERGY PREDICTED BY IDOCK:   -6.11 KCAL/MOL
REMARK 924 INTRA-LIGAND FREE ENERGY PREDICTED BY IDOCK:   -0.46 KCAL/MOL
REMARK 927      BINDING AFFINITY PREDICTED BY RF-SCORE:    0.00 PKD
ROOT
HETATM    1 CL   UNL     1     -10.774   7.179  73.706  1.00  0.00    -0.327 Cl 
HETATM    2  C   UNL     1     -10.371   7.932  72.214  1.00  0.00    -0.253 A  
HETATM    3  C   UNL     1     -11.125   9.009  71.753  1.00  0.00    -0.444 A  
HETATM    4  C   UNL     1     -10.794   9.623  70.541  1.00  0.00    -0.309 A  
HETATM    5 CL   UNL     1     -11.779  10.943  70.021  1.00  0.00    -0.392 Cl 
HETATM    6  C   UNL     1      -9.700   9.174  69.784  1.00  0.00    -0.191 A  
HETATM    7  C   UNL     1      -8.947   8.090  70.282  1.00  0.00    -0.147 A  
HETATM    8  C   UNL     1      -9.289   7.462  71.479  1.00  0.00    -0.154 A  
ENDROOT
BRANCH   6   9
HETATM    9  C   UNL     1      -9.287   9.831  68.470  1.00  0.00    -0.142 C  
BRANCH   9  10
HETATM   10  C   UNL     1     -10.190   9.294  67.343  1.00  0.00    -0.243 C  
BRANCH  10  11
HETATM   11  N   UNL     1      -9.562   8.254  66.553  1.00  0.00    -0.228 NA 
HETATM   12  C   UNL     1      -8.597   8.420  65.599  1.00  0.00    -0.174 A  
HETATM   13  C   UNL     1      -9.773   6.909  66.699  1.00  0.00    -0.163 A  
HETATM   14  N   UNL     1      -9.031   6.217  65.867  1.00  0.00    -0.142 NA 
HETATM   15  C   UNL     1      -8.295   7.145  65.179  1.00  0.00    -0.076 A  
ENDBRANCH  10  11
ENDBRANCH   9  10
BRANCH   9  16
HETATM   16  O   UNL     1      -9.464  11.257  68.559  1.00  0.00    -0.182 OA 
BRANCH  16  17
HETATM   17  C   UNL     1      -8.505  11.999  67.795  1.00  0.00    -0.157 C  
BRANCH  17  18
HETATM   18  C   UNL     1      -9.191  13.042  66.965  1.00  0.00    -0.232 A  
HETATM   19  C   UNL     1      -9.802  12.766  65.758  1.00  0.00    -0.214 A  
HETATM   20  S   UNL     1     -10.487  14.136  65.029  1.00  0.00    -0.427 SA 
HETATM   21  C   UNL     1      -9.985  15.175  66.313  1.00  0.00    -0.288 A  
HETATM   22  C   UNL     1      -9.300  14.450  67.303  1.00  0.00    -0.211 A  
HETATM   23  C   UNL     1      -8.828  15.166  68.436  1.00  0.00    -0.174 A  
HETATM   24  C   UNL     1      -9.036  16.544  68.561  1.00  0.00    -0.231 A  
HETATM   25  C   UNL     1      -9.709  17.237  67.567  1.00  0.00    -0.264 A  
HETATM   26  C   UNL     1     -10.188  16.567  66.439  1.00  0.00    -0.316 A  
HETATM   27 CL   UNL     1     -11.017  17.480  65.231  1.00  0.00    -0.026 Cl 
ENDBRANCH  17  18
ENDBRANCH  16  17
ENDBRANCH   9  16
ENDBRANCH   6   9
TORSDOF 6
ENDMDL
MODEL      220
REMARK 921   NORMALIZED FREE ENERGY PREDICTED BY IDOCK:   -4.08 KCAL/MOL
REMARK 922        TOTAL FREE ENERGY PREDICTED BY IDOCK:   -6.55 KCAL/MOL
REMARK 923 INTER-LIGAND FREE ENERGY PREDICTED BY IDOCK:   -5.80 KCAL/MOL
REMARK 924 INTRA-LIGAND FREE ENERGY PREDICTED BY IDOCK:   -0.76 KCAL/MOL
REMARK 927      BINDING AFFINITY PREDICTED BY RF-SCORE:    0.00 PKD
ROOT
HETATM    1 CL   UNL     1     -12.990  14.136  65.738  1.00  0.00    -0.405 Cl 
HETATM    2  C   UNL     1     -11.922  12.791  65.646  1.00  0.00    -0.452 A  
HETATM    3  C   UNL     1     -11.368  12.426  64.421  1.00  0.00    -0.396 A  
HETATM    4  C   UNL     1     -10.497  11.335  64.348  1.00  0.00    -0.345 A  
HETATM    5 CL   UNL     1      -9.858  10.927  62.796  1.00  0.00    -0.293 Cl 
HETATM    6  C   UNL     1     -10.162  10.606  65.500  1.00  0.00    -0.329 A  
HETATM    7  C   UNL     1     -10.727  11.007  66.729  1.00  0.00    -0.319 A  
HETATM    8  C   UNL     1     -11.613  12.080  66.800  1.00  0.00    -0.391 A  
ENDROOT
BRANCH   6   9
HETATM    9  C   UNL     1      -9.194   9.425  65.471  1.00  0.00    -0.232 C  
BRANCH   9  10
HETATM   10  C   UNL     1      -7.752   9.969  65.437  1.00  0.00    -0.137 C  
BRANCH  10  11
HETATM   11  N   UNL     1      -6.928   9.342  64.424  1.00  0.00    -0.091 NA 
HETATM   12  C   UNL     1      -6.573   8.023  64.358  1.00  0.00    -0.061 A  
HETATM   13  C   UNL     1      -6.437   9.959  63.305  1.00  0.00    -0.125 A  
HETATM   14  N   UNL     1      -5.759   9.122  62.557  1.00  0.00    -0.086 NA 
HETATM   15  C   UNL     1      -5.838   7.914  63.200  1.00  0.00    -0.063 A  
ENDBRANCH  10  11
ENDBRANCH   9  10
BRANCH   9  16
HETATM   16  O   UNL     1      -9.357   8.630  66.659  1.00  0.00    -0.165 OA 
BRANCH  16  17
HETATM   17  C   UNL     1      -8.131   8.405  67.367  1.00  0.00    -0.106 C  
BRANCH  17  18
HETATM   18  C   UNL     1      -8.365   8.446  68.847  1.00  0.00    -0.119 A  
HETATM   19  C   UNL     1      -7.806   9.399  69.675  1.00  0.00    -0.105 A  
HETATM   20  S   UNL     1      -8.231   9.197  71.305  1.00  0.00     0.092 SA 
HETATM   21  C   UNL     1      -9.192   7.803  70.970  1.00  0.00    -0.151 A  
HETATM   22  C   UNL     1      -9.186   7.510  69.596  1.00  0.00    -0.146 A  
HETATM   23  C   UNL     1      -9.942   6.390  69.157  1.00  0.00    -0.173 A  
HETATM   24  C   UNL     1     -10.665   5.605  70.061  1.00  0.00    -0.390 A  
HETATM   25  C   UNL     1     -10.649   5.910  71.413  1.00  0.00    -0.309 A  
HETATM   26  C   UNL     1      -9.918   7.004  71.881  1.00  0.00    -0.167 A  
HETATM   27 CL   UNL     1      -9.931   7.338  73.575  1.00  0.00    -0.331 Cl 
ENDBRANCH  17  18
ENDBRANCH  16  17
ENDBRANCH   9  16
ENDBRANCH   6   9
TORSDOF 6
ENDMDL
MODEL      221
REMARK 921   NORMALIZED FREE ENERGY PREDICTED BY IDOCK:   -4.06 KCAL/MOL
REMARK 922        TOTAL FREE ENERGY PREDICTED BY IDOCK:   -6.52 KCAL/MOL
REMARK 923 INTER-LIGAND FREE ENERGY PREDICTED BY IDOCK:   -5.49 KCAL/MOL
REMARK 924 INTRA-LIGAND FREE ENERGY PREDICTED BY IDOCK:   -1.03 KCAL/MOL
REMARK 927      BINDING AFFINITY PREDICTED BY RF-SCORE:    0.00 PKD
ROOT
HETATM    1 CL   UNL     1      -9.050   8.202  73.369  1.00  0.00    -0.332 Cl 
HETATM    2  C   UNL     1      -9.240   8.313  71.663  1.00  0.00    -0.185 A  
HETATM    3  C   UNL     1      -8.118   8.325  70.837  1.00  0.00    -0.105 A  
HETATM    4  C   UNL     1      -8.274   8.411  69.450  1.00  0.00    -0.116 A  
HETATM    5 CL   UNL     1      -6.841   8.436  68.487  1.00  0.00    -0.063 Cl 
HETATM    6  C   UNL     1      -9.553   8.474  68.875  1.00  0.00    -0.160 A  
HETATM    7  C   UNL     1     -10.672   8.446  69.734  1.00  0.00    -0.211 A  
HETATM    8  C   UNL     1     -10.517   8.383  71.119  1.00  0.00    -0.263 A  
ENDROOT
BRANCH   6   9
HETATM    9  C   UNL     1      -9.771   8.541  67.366  1.00  0.00    -0.170 C  
BRANCH   9  10
HETATM   10  C   UNL     1     -10.599   7.315  66.931  1.00  0.00    -0.305 C  
BRANCH  10  11
HETATM   11  N   UNL     1      -9.783   6.192  66.517  1.00  0.00    -0.159 NA 
HETATM   12  C   UNL     1      -8.435   6.200  66.286  1.00  0.00    -0.132 A  
HETATM   13  C   UNL     1     -10.220   4.903  66.372  1.00  0.00    -0.278 A  
HETATM   14  N   UNL     1      -9.240   4.103  66.024  1.00  0.00    -0.139 NA 
HETATM   15  C   UNL     1      -8.125   4.898  65.969  1.00  0.00    -0.108 A  
ENDBRANCH  10  11
ENDBRANCH   9  10
BRANCH   9  16
HETATM   16  O   UNL     1     -10.504   9.732  67.030  1.00  0.00    -0.238 OA 
BRANCH  16  17
HETATM   17  C   UNL     1      -9.664  10.863  66.766  1.00  0.00    -0.190 C  
BRANCH  17  18
HETATM   18  C   UNL     1     -10.228  12.095  67.408  1.00  0.00    -0.211 A  
HETATM   19  C   UNL     1     -11.568  12.250  67.701  1.00  0.00    -0.354 A  
HETATM   20  S   UNL     1     -11.926  13.747  68.413  1.00  0.00    -0.304 SA 
HETATM   21  C   UNL     1     -10.279  14.264  68.356  1.00  0.00    -0.245 A  
HETATM   22  C   UNL     1      -9.463  13.268  67.795  1.00  0.00    -0.208 A  
HETATM   23  C   UNL     1      -8.072  13.540  67.686  1.00  0.00    -0.180 A  
HETATM   24  C   UNL     1      -7.535  14.756  68.119  1.00  0.00    -0.119 A  
HETATM   25  C   UNL     1      -8.364  15.727  68.662  1.00  0.00    -0.183 A  
HETATM   26  C   UNL     1      -9.735  15.495  68.786  1.00  0.00    -0.213 A  
HETATM   27 CL   UNL     1     -10.721  16.738  69.467  1.00  0.00    -0.324 Cl 
ENDBRANCH  17  18
ENDBRANCH  16  17
ENDBRANCH   9  16
ENDBRANCH   6   9
TORSDOF 6
ENDMDL
MODEL      222
REMARK 921   NORMALIZED FREE ENERGY PREDICTED BY IDOCK:   -4.05 KCAL/MOL
REMARK 922        TOTAL FREE ENERGY PREDICTED BY IDOCK:   -6.52 KCAL/MOL
REMARK 923 INTER-LIGAND FREE ENERGY PREDICTED BY IDOCK:   -5.43 KCAL/MOL
REMARK 924 INTRA-LIGAND FREE ENERGY PREDICTED BY IDOCK:   -1.09 KCAL/MOL
REMARK 927      BINDING AFFINITY PREDICTED BY RF-SCORE:    0.00 PKD
ROOT
HETATM    1 CL   UNL     1      -9.709   3.875  65.848  1.00  0.00    -0.184 Cl 
HETATM    2  C   UNL     1      -9.577   5.564  66.144  1.00  0.00    -0.139 A  
HETATM    3  C   UNL     1      -8.440   6.255  65.733  1.00  0.00    -0.148 A  
HETATM    4  C   UNL     1      -8.335   7.629  65.971  1.00  0.00    -0.135 A  
HETATM    5 CL   UNL     1      -6.892   8.421  65.448  1.00  0.00    -0.065 Cl 
HETATM    6  C   UNL     1      -9.371   8.327  66.612  1.00  0.00    -0.246 A  
HETATM    7  C   UNL     1     -10.517   7.604  67.005  1.00  0.00    -0.419 A  
HETATM    8  C   UNL     1     -10.613   6.230  66.789  1.00  0.00    -0.335 A  
ENDROOT
BRANCH   6   9
HETATM    9  C   UNL     1      -9.311   9.831  66.868  1.00  0.00    -0.149 C  
BRANCH   9  10
HETATM   10  C   UNL     1     -10.477  10.507  66.119  1.00  0.00    -0.168 C  
BRANCH  10  11
HETATM   11  N   UNL     1     -11.000  11.670  66.807  1.00  0.00    -0.278 NA 
HETATM   12  C   UNL     1     -12.005  11.690  67.734  1.00  0.00    -0.047 A  
HETATM   13  C   UNL     1     -10.507  12.943  66.702  1.00  0.00    -0.263 A  
HETATM   14  N   UNL     1     -11.165  13.774  67.475  1.00  0.00    -0.284 NA 
HETATM   15  C   UNL     1     -12.098  13.006  68.123  1.00  0.00    -0.157 A  
ENDBRANCH  10  11
ENDBRANCH   9  10
BRANCH   9  16
HETATM   16  O   UNL     1      -9.456  10.094  68.275  1.00  0.00    -0.138 OA 
BRANCH  16  17
HETATM   17  C   UNL     1      -8.244   9.909  69.017  1.00  0.00    -0.124 C  
BRANCH  17  18
HETATM   18  C   UNL     1      -8.310   8.647  69.823  1.00  0.00    -0.123 A  
HETATM   19  C   UNL     1      -7.429   7.597  69.657  1.00  0.00    -0.091 A  
HETATM   20  S   UNL     1      -7.746   6.291  70.692  1.00  0.00    -0.107 SA 
HETATM   21  C   UNL     1      -9.100   7.082  71.415  1.00  0.00    -0.147 A  
HETATM   22  C   UNL     1      -9.289   8.358  70.856  1.00  0.00    -0.201 A  
HETATM   23  C   UNL     1     -10.364   9.142  71.354  1.00  0.00    -0.409 A  
HETATM   24  C   UNL     1     -11.205   8.662  72.363  1.00  0.00    -0.339 A  
HETATM   25  C   UNL     1     -11.002   7.397  72.892  1.00  0.00    -0.408 A  
HETATM   26  C   UNL     1      -9.955   6.597  72.429  1.00  0.00    -0.166 A  
HETATM   27 CL   UNL     1      -9.748   5.029  73.122  1.00  0.00    -0.162 Cl 
ENDBRANCH  17  18
ENDBRANCH  16  17
ENDBRANCH   9  16
ENDBRANCH   6   9
TORSDOF 6
ENDMDL
MODEL      223
REMARK 921   NORMALIZED FREE ENERGY PREDICTED BY IDOCK:   -4.05 KCAL/MOL
REMARK 922        TOTAL FREE ENERGY PREDICTED BY IDOCK:   -6.52 KCAL/MOL
REMARK 923 INTER-LIGAND FREE ENERGY PREDICTED BY IDOCK:   -5.53 KCAL/MOL
REMARK 924 INTRA-LIGAND FREE ENERGY PREDICTED BY IDOCK:   -0.99 KCAL/MOL
REMARK 927      BINDING AFFINITY PREDICTED BY RF-SCORE:    0.00 PKD
ROOT
HETATM    1 CL   UNL     1     -14.017   8.719  72.338  1.00  0.00    -0.482 Cl 
HETATM    2  C   UNL     1     -12.503   8.009  71.937  1.00  0.00    -0.330 A  
HETATM    3  C   UNL     1     -12.334   7.378  70.707  1.00  0.00    -0.167 A  
HETATM    4  C   UNL     1     -11.101   6.805  70.380  1.00  0.00    -0.308 A  
HETATM    5 CL   UNL     1     -10.966   6.026  68.845  1.00  0.00    -0.406 Cl 
HETATM    6  C   UNL     1     -10.022   6.866  71.276  1.00  0.00    -0.189 A  
HETATM    7  C   UNL     1     -10.217   7.522  72.509  1.00  0.00    -0.283 A  
HETATM    8  C   UNL     1     -11.452   8.075  72.846  1.00  0.00    -0.329 A  
ENDROOT
BRANCH   6   9
HETATM    9  C   UNL     1      -8.652   6.278  70.950  1.00  0.00    -0.135 C  
BRANCH   9  10
HETATM   10  C   UNL     1      -8.809   4.763  70.709  1.00  0.00    -0.121 C  
BRANCH  10  11
HETATM   11  N   UNL     1      -7.882   3.962  71.483  1.00  0.00    -0.060 NA 
HETATM   12  C   UNL     1      -6.628   3.567  71.106  1.00  0.00    -0.030 A  
HETATM   13  C   UNL     1      -8.081   3.538  72.769  1.00  0.00    -0.080 A  
HETATM   14  N   UNL     1      -7.046   2.864  73.214  1.00  0.00    -0.038 NA 
HETATM   15  C   UNL     1      -6.137   2.877  72.190  1.00  0.00    -0.013 A  
ENDBRANCH  10  11
ENDBRANCH   9  10
BRANCH   9  16
HETATM   16  O   UNL     1      -8.132   6.881  69.752  1.00  0.00    -0.121 OA 
BRANCH  16  17
HETATM   17  C   UNL     1      -8.137   8.314  69.787  1.00  0.00    -0.118 C  
BRANCH  17  18
HETATM   18  C   UNL     1      -8.614   8.869  68.479  1.00  0.00    -0.133 A  
HETATM   19  C   UNL     1      -8.071   8.509  67.262  1.00  0.00    -0.105 A  
HETATM   20  S   UNL     1      -8.796   9.300  65.948  1.00  0.00    -0.179 SA 
HETATM   21  C   UNL     1      -9.881  10.177  66.966  1.00  0.00    -0.191 A  
HETATM   22  C   UNL     1      -9.682   9.840  68.315  1.00  0.00    -0.160 A  
HETATM   23  C   UNL     1     -10.508  10.474  69.282  1.00  0.00    -0.258 A  
HETATM   24  C   UNL     1     -11.485  11.401  68.904  1.00  0.00    -0.363 A  
HETATM   25  C   UNL     1     -11.657  11.722  67.566  1.00  0.00    -0.361 A  
HETATM   26  C   UNL     1     -10.864  11.118  66.588  1.00  0.00    -0.253 A  
HETATM   27 CL   UNL     1     -11.120  11.555  64.937  1.00  0.00    -0.319 Cl 
ENDBRANCH  17  18
ENDBRANCH  16  17
ENDBRANCH   9  16
ENDBRANCH   6   9
TORSDOF 6
ENDMDL
MODEL      224
REMARK 921   NORMALIZED FREE ENERGY PREDICTED BY IDOCK:   -4.03 KCAL/MOL
REMARK 922        TOTAL FREE ENERGY PREDICTED BY IDOCK:   -6.49 KCAL/MOL
REMARK 923 INTER-LIGAND FREE ENERGY PREDICTED BY IDOCK:   -6.08 KCAL/MOL
REMARK 924 INTRA-LIGAND FREE ENERGY PREDICTED BY IDOCK:   -0.41 KCAL/MOL
REMARK 927      BINDING AFFINITY PREDICTED BY RF-SCORE:    0.00 PKD
ROOT
HETATM    1 CL   UNL     1     -12.451  15.390  64.322  1.00  0.00    -0.177 Cl 
HETATM    2  C   UNL     1     -11.736  14.052  65.132  1.00  0.00    -0.350 A  
HETATM    3  C   UNL     1     -10.846  14.269  66.182  1.00  0.00    -0.310 A  
HETATM    4  C   UNL     1     -10.268  13.180  66.843  1.00  0.00    -0.245 A  
HETATM    5 CL   UNL     1      -9.163  13.520  68.125  1.00  0.00    -0.204 Cl 
HETATM    6  C   UNL     1     -10.584  11.864  66.468  1.00  0.00    -0.278 A  
HETATM    7  C   UNL     1     -11.499  11.674  65.411  1.00  0.00    -0.170 A  
HETATM    8  C   UNL     1     -12.058  12.759  64.736  1.00  0.00    -0.488 A  
ENDROOT
BRANCH   6   9
HETATM    9  C   UNL     1      -9.999  10.647  67.178  1.00  0.00    -0.195 C  
BRANCH   9  10
HETATM   10  C   UNL     1      -8.516  10.508  66.780  1.00  0.00    -0.127 C  
BRANCH  10  11
HETATM   11  N   UNL     1      -7.663  10.113  67.883  1.00  0.00    -0.089 NA 
HETATM   12  C   UNL     1      -6.974  10.944  68.723  1.00  0.00    -0.078 A  
HETATM   13  C   UNL     1      -7.473   8.831  68.322  1.00  0.00    -0.092 A  
HETATM   14  N   UNL     1      -6.675   8.796  69.363  1.00  0.00    -0.048 NA 
HETATM   15  C   UNL     1      -6.360  10.104  69.622  1.00  0.00    -0.057 A  
ENDBRANCH  10  11
ENDBRANCH   9  10
BRANCH   9  16
HETATM   16  O   UNL     1     -10.075  10.828  68.604  1.00  0.00    -0.168 OA 
BRANCH  16  17
HETATM   17  C   UNL     1     -11.352  10.480  69.155  1.00  0.00    -0.257 C  
BRANCH  17  18
HETATM   18  C   UNL     1     -11.211   9.352  70.132  1.00  0.00    -0.253 A  
HETATM   19  C   UNL     1     -11.380   9.505  71.493  1.00  0.00    -0.385 A  
HETATM   20  S   UNL     1     -11.148   8.065  72.359  1.00  0.00    -0.378 SA 
HETATM   21  C   UNL     1     -10.800   7.161  70.930  1.00  0.00    -0.244 A  
HETATM   22  C   UNL     1     -10.878   7.980  69.791  1.00  0.00    -0.194 A  
HETATM   23  C   UNL     1     -10.626   7.378  68.528  1.00  0.00    -0.188 A  
HETATM   24  C   UNL     1     -10.309   6.019  68.423  1.00  0.00    -0.252 A  
HETATM   25  C   UNL     1     -10.231   5.235  69.564  1.00  0.00    -0.338 A  
HETATM   26  C   UNL     1     -10.474   5.791  70.821  1.00  0.00    -0.258 A  
HETATM   27 CL   UNL     1     -10.362   4.769  72.208  1.00  0.00    -0.260 Cl 
ENDBRANCH  17  18
ENDBRANCH  16  17
ENDBRANCH   9  16
ENDBRANCH   6   9
TORSDOF 6
ENDMDL
MODEL      225
REMARK 921   NORMALIZED FREE ENERGY PREDICTED BY IDOCK:   -4.00 KCAL/MOL
REMARK 922        TOTAL FREE ENERGY PREDICTED BY IDOCK:   -6.45 KCAL/MOL
REMARK 923 INTER-LIGAND FREE ENERGY PREDICTED BY IDOCK:   -5.54 KCAL/MOL
REMARK 924 INTRA-LIGAND FREE ENERGY PREDICTED BY IDOCK:   -0.91 KCAL/MOL
REMARK 927      BINDING AFFINITY PREDICTED BY RF-SCORE:    0.00 PKD
ROOT
HETATM    1 CL   UNL     1     -12.472  14.684  64.144  1.00  0.00    -0.358 Cl 
HETATM    2  C   UNL     1     -11.591  13.250  64.494  1.00  0.00    -0.369 A  
HETATM    3  C   UNL     1     -10.918  12.580  63.475  1.00  0.00    -0.472 A  
HETATM    4  C   UNL     1     -10.198  11.416  63.762  1.00  0.00    -0.382 A  
HETATM    5 CL   UNL     1      -9.400  10.628  62.449  1.00  0.00    -0.291 Cl 
HETATM    6  C   UNL     1     -10.134  10.917  65.073  1.00  0.00    -0.362 A  
HETATM    7  C   UNL     1     -10.813  11.624  66.088  1.00  0.00    -0.343 A  
HETATM    8  C   UNL     1     -11.550  12.772  65.799  1.00  0.00    -0.419 A  
ENDROOT
BRANCH   6   9
HETATM    9  C   UNL     1      -9.338   9.667  65.436  1.00  0.00    -0.259 C  
BRANCH   9  10
HETATM   10  C   UNL     1      -7.872  10.070  65.688  1.00  0.00    -0.138 C  
BRANCH  10  11
HETATM   11  N   UNL     1      -6.940   9.433  64.780  1.00  0.00    -0.095 NA 
HETATM   12  C   UNL     1      -5.902  10.030  64.120  1.00  0.00    -0.128 A  
HETATM   13  C   UNL     1      -6.893   8.094  64.499  1.00  0.00    -0.068 A  
HETATM   14  N   UNL     1      -5.915   7.814  63.670  1.00  0.00    -0.057 NA 
HETATM   15  C   UNL     1      -5.291   9.010  63.428  1.00  0.00    -0.067 A  
ENDBRANCH  10  11
ENDBRANCH   9  10
BRANCH   9  16
HETATM   16  O   UNL     1      -9.867   9.083  66.640  1.00  0.00    -0.203 OA 
BRANCH  16  17
HETATM   17  C   UNL     1      -8.921   9.040  67.716  1.00  0.00    -0.127 C  
BRANCH  17  18
HETATM   18  C   UNL     1      -9.336   8.024  68.738  1.00  0.00    -0.147 A  
HETATM   19  C   UNL     1     -10.601   7.474  68.788  1.00  0.00    -0.156 A  
HETATM   20  S   UNL     1     -10.795   6.362  70.053  1.00  0.00    -0.342 SA 
HETATM   21  C   UNL     1      -9.172   6.574  70.602  1.00  0.00    -0.162 A  
HETATM   22  C   UNL     1      -8.488   7.497  69.793  1.00  0.00    -0.135 A  
HETATM   23  C   UNL     1      -7.131   7.774  70.112  1.00  0.00    -0.054 A  
HETATM   24  C   UNL     1      -6.499   7.152  71.194  1.00  0.00    -0.044 A  
HETATM   25  C   UNL     1      -7.199   6.251  71.982  1.00  0.00    -0.091 A  
HETATM   26  C   UNL     1      -8.533   5.953  71.698  1.00  0.00    -0.128 A  
HETATM   27 CL   UNL     1      -9.357   4.824  72.712  1.00  0.00    -0.143 Cl 
ENDBRANCH  17  18
ENDBRANCH  16  17
ENDBRANCH   9  16
ENDBRANCH   6   9
TORSDOF 6
ENDMDL
MODEL      226
REMARK 921   NORMALIZED FREE ENERGY PREDICTED BY IDOCK:   -4.00 KCAL/MOL
REMARK 922        TOTAL FREE ENERGY PREDICTED BY IDOCK:   -6.44 KCAL/MOL
REMARK 923 INTER-LIGAND FREE ENERGY PREDICTED BY IDOCK:   -6.21 KCAL/MOL
REMARK 924 INTRA-LIGAND FREE ENERGY PREDICTED BY IDOCK:   -0.24 KCAL/MOL
REMARK 927      BINDING AFFINITY PREDICTED BY RF-SCORE:    0.00 PKD
ROOT
HETATM    1 CL   UNL     1      -7.142   7.089  64.422  1.00  0.00    -0.055 Cl 
HETATM    2  C   UNL     1      -7.932   8.414  65.182  1.00  0.00    -0.136 A  
HETATM    3  C   UNL     1      -8.857   9.174  64.470  1.00  0.00    -0.165 A  
HETATM    4  C   UNL     1      -9.502  10.249  65.089  1.00  0.00    -0.252 A  
HETATM    5 CL   UNL     1     -10.626  11.157  64.144  1.00  0.00    -0.428 Cl 
HETATM    6  C   UNL     1      -9.236  10.567  66.431  1.00  0.00    -0.190 A  
HETATM    7  C   UNL     1      -8.305   9.773  67.132  1.00  0.00    -0.121 A  
HETATM    8  C   UNL     1      -7.644   8.715  66.508  1.00  0.00    -0.088 A  
ENDROOT
BRANCH   6   9
HETATM    9  C   UNL     1      -9.936  11.714  67.155  1.00  0.00    -0.199 C  
BRANCH   9  10
HETATM   10  C   UNL     1     -10.977  11.123  68.126  1.00  0.00    -0.238 C  
BRANCH  10  11
HETATM   11  N   UNL     1     -11.488  12.092  69.075  1.00  0.00    -0.276 NA 
HETATM   12  C   UNL     1     -11.324  13.449  69.030  1.00  0.00    -0.287 A  
HETATM   13  C   UNL     1     -12.301  11.809  70.139  1.00  0.00    -0.195 A  
HETATM   14  N   UNL     1     -12.628  12.899  70.793  1.00  0.00    -0.280 NA 
HETATM   15  C   UNL     1     -12.028  13.924  70.111  1.00  0.00    -0.332 A  
ENDBRANCH  10  11
ENDBRANCH   9  10
BRANCH   9  16
HETATM   16  O   UNL     1      -8.977  12.470  67.916  1.00  0.00    -0.172 OA 
BRANCH  16  17
HETATM   17  C   UNL     1      -8.109  13.271  67.105  1.00  0.00    -0.088 C  
BRANCH  17  18
HETATM   18  C   UNL     1      -8.828  14.492  66.615  1.00  0.00    -0.214 A  
HETATM   19  C   UNL     1      -9.705  14.476  65.549  1.00  0.00    -0.197 A  
HETATM   20  S   UNL     1     -10.365  16.000  65.206  1.00  0.00    -0.202 SA 
HETATM   21  C   UNL     1      -9.489  16.762  66.484  1.00  0.00    -0.266 A  
HETATM   22  C   UNL     1      -8.700  15.826  67.175  1.00  0.00    -0.228 A  
HETATM   23  C   UNL     1      -7.922  16.298  68.266  1.00  0.00    -0.166 A  
HETATM   24  C   UNL     1      -7.939  17.646  68.639  1.00  0.00    -0.275 A  
HETATM   25  C   UNL     1      -8.720  18.551  67.935  1.00  0.00    -0.301 A  
HETATM   26  C   UNL     1      -9.498  18.123  66.858  1.00  0.00    -0.286 A  
HETATM   27 CL   UNL     1     -10.451  19.293  66.017  1.00  0.00    -0.571 Cl 
ENDBRANCH  17  18
ENDBRANCH  16  17
ENDBRANCH   9  16
ENDBRANCH   6   9
TORSDOF 6
ENDMDL
MODEL      227
REMARK 921   NORMALIZED FREE ENERGY PREDICTED BY IDOCK:   -3.99 KCAL/MOL
REMARK 922        TOTAL FREE ENERGY PREDICTED BY IDOCK:   -6.44 KCAL/MOL
REMARK 923 INTER-LIGAND FREE ENERGY PREDICTED BY IDOCK:   -5.57 KCAL/MOL
REMARK 924 INTRA-LIGAND FREE ENERGY PREDICTED BY IDOCK:   -0.87 KCAL/MOL
REMARK 927      BINDING AFFINITY PREDICTED BY RF-SCORE:    0.00 PKD
ROOT
HETATM    1 CL   UNL     1      -7.058  18.509  65.960  1.00  0.00    -0.298 Cl 
HETATM    2  C   UNL     1      -7.758  17.077  66.606  1.00  0.00    -0.267 A  
HETATM    3  C   UNL     1      -7.158  16.436  67.688  1.00  0.00    -0.157 A  
HETATM    4  C   UNL     1      -7.731  15.275  68.216  1.00  0.00    -0.112 A  
HETATM    5 CL   UNL     1      -6.928  14.523  69.547  1.00  0.00    -0.156 Cl 
HETATM    6  C   UNL     1      -8.914  14.748  67.673  1.00  0.00    -0.183 A  
HETATM    7  C   UNL     1      -9.507  15.425  66.587  1.00  0.00    -0.281 A  
HETATM    8  C   UNL     1      -8.925  16.571  66.046  1.00  0.00    -0.276 A  
ENDROOT
BRANCH   6   9
HETATM    9  C   UNL     1      -9.588  13.499  68.234  1.00  0.00    -0.218 C  
BRANCH   9  10
HETATM   10  C   UNL     1     -11.107  13.604  67.990  1.00  0.00    -0.262 C  
BRANCH  10  11
HETATM   11  N   UNL     1     -11.832  14.140  69.124  1.00  0.00    -0.321 NA 
HETATM   12  C   UNL     1     -12.284  13.444  70.210  1.00  0.00    -0.335 A  
HETATM   13  C   UNL     1     -12.110  15.464  69.335  1.00  0.00    -0.280 A  
HETATM   14  N   UNL     1     -12.746  15.642  70.469  1.00  0.00    -0.419 NA 
HETATM   15  C   UNL     1     -12.859  14.394  71.022  1.00  0.00    -0.353 A  
ENDBRANCH  10  11
ENDBRANCH   9  10
BRANCH   9  16
HETATM   16  O   UNL     1      -9.095  12.330  67.555  1.00  0.00    -0.170 OA 
BRANCH  16  17
HETATM   17  C   UNL     1      -8.677  11.287  68.444  1.00  0.00    -0.159 C  
BRANCH  17  18
HETATM   18  C   UNL     1      -9.010   9.943  67.870  1.00  0.00    -0.129 A  
HETATM   19  C   UNL     1     -10.302   9.530  67.614  1.00  0.00    -0.244 A  
HETATM   20  S   UNL     1     -10.386   7.960  66.977  1.00  0.00    -0.340 SA 
HETATM   21  C   UNL     1      -8.672   7.759  67.021  1.00  0.00    -0.129 A  
HETATM   22  C   UNL     1      -8.047   8.916  67.518  1.00  0.00    -0.109 A  
HETATM   23  C   UNL     1      -6.628   8.911  67.607  1.00  0.00    -0.061 A  
HETATM   24  C   UNL     1      -5.881   7.795  67.216  1.00  0.00    -0.037 A  
HETATM   25  C   UNL     1      -6.523   6.663  66.736  1.00  0.00    -0.043 A  
HETATM   26  C   UNL     1      -7.915   6.632  66.633  1.00  0.00    -0.105 A  
HETATM   27 CL   UNL     1      -8.662   5.197  66.030  1.00  0.00    -0.126 Cl 
ENDBRANCH  17  18
ENDBRANCH  16  17
ENDBRANCH   9  16
ENDBRANCH   6   9
TORSDOF 6
ENDMDL
MODEL      228
REMARK 921   NORMALIZED FREE ENERGY PREDICTED BY IDOCK:   -3.99 KCAL/MOL
REMARK 922        TOTAL FREE ENERGY PREDICTED BY IDOCK:   -6.43 KCAL/MOL
REMARK 923 INTER-LIGAND FREE ENERGY PREDICTED BY IDOCK:   -6.10 KCAL/MOL
REMARK 924 INTRA-LIGAND FREE ENERGY PREDICTED BY IDOCK:   -0.33 KCAL/MOL
REMARK 927      BINDING AFFINITY PREDICTED BY RF-SCORE:    0.00 PKD
ROOT
HETATM    1 CL   UNL     1     -12.735   6.202  72.199  1.00  0.00    -0.050 Cl 
HETATM    2  C   UNL     1     -11.448   6.518  71.104  1.00  0.00    -0.326 A  
HETATM    3  C   UNL     1     -11.716   6.712  69.752  1.00  0.00    -0.279 A  
HETATM    4  C   UNL     1     -10.669   6.973  68.863  1.00  0.00    -0.200 A  
HETATM    5 CL   UNL     1     -11.070   7.189  67.197  1.00  0.00    -0.346 Cl 
HETATM    6  C   UNL     1      -9.343   7.054  69.320  1.00  0.00    -0.145 A  
HETATM    7  C   UNL     1      -9.102   6.867  70.697  1.00  0.00    -0.155 A  
HETATM    8  C   UNL     1     -10.143   6.584  71.581  1.00  0.00    -0.202 A  
ENDROOT
BRANCH   6   9
HETATM    9  C   UNL     1      -8.173   7.363  68.391  1.00  0.00    -0.125 C  
BRANCH   9  10
HETATM   10  C   UNL     1      -8.444   6.712  67.020  1.00  0.00    -0.113 C  
BRANCH  10  11
HETATM   11  N   UNL     1      -8.185   5.286  67.004  1.00  0.00    -0.108 NA 
HETATM   12  C   UNL     1      -8.992   4.313  66.480  1.00  0.00    -0.120 A  
HETATM   13  C   UNL     1      -7.037   4.682  67.438  1.00  0.00    -0.065 A  
HETATM   14  N   UNL     1      -7.084   3.383  67.259  1.00  0.00    -0.057 NA 
HETATM   15  C   UNL     1      -8.294   3.142  66.663  1.00  0.00    -0.096 A  
ENDBRANCH  10  11
ENDBRANCH   9  10
BRANCH   9  16
HETATM   16  O   UNL     1      -8.056   8.785  68.207  1.00  0.00    -0.111 OA 
BRANCH  16  17
HETATM   17  C   UNL     1      -8.369   9.217  66.877  1.00  0.00    -0.119 C  
BRANCH  17  18
HETATM   18  C   UNL     1      -9.402  10.302  66.907  1.00  0.00    -0.183 A  
HETATM   19  C   UNL     1      -9.865  10.873  68.076  1.00  0.00    -0.171 A  
HETATM   20  S   UNL     1     -11.041  12.067  67.814  1.00  0.00    -0.269 SA 
HETATM   21  C   UNL     1     -10.985  11.866  66.100  1.00  0.00    -0.308 A  
HETATM   22  C   UNL     1     -10.047  10.883  65.743  1.00  0.00    -0.308 A  
HETATM   23  C   UNL     1      -9.877  10.606  64.359  1.00  0.00    -0.395 A  
HETATM   24  C   UNL     1     -10.618  11.287  63.388  1.00  0.00    -0.393 A  
HETATM   25  C   UNL     1     -11.544  12.247  63.767  1.00  0.00    -0.555 A  
HETATM   26  C   UNL     1     -11.737  12.547  65.117  1.00  0.00    -0.378 A  
HETATM   27 CL   UNL     1     -12.903  13.751  65.533  1.00  0.00    -0.526 Cl 
ENDBRANCH  17  18
ENDBRANCH  16  17
ENDBRANCH   9  16
ENDBRANCH   6   9
TORSDOF 6
ENDMDL
MODEL      229
REMARK 921   NORMALIZED FREE ENERGY PREDICTED BY IDOCK:   -3.99 KCAL/MOL
REMARK 922        TOTAL FREE ENERGY PREDICTED BY IDOCK:   -6.43 KCAL/MOL
REMARK 923 INTER-LIGAND FREE ENERGY PREDICTED BY IDOCK:   -6.15 KCAL/MOL
REMARK 924 INTRA-LIGAND FREE ENERGY PREDICTED BY IDOCK:   -0.29 KCAL/MOL
REMARK 927      BINDING AFFINITY PREDICTED BY RF-SCORE:    0.00 PKD
ROOT
HETATM    1 CL   UNL     1      -7.865   5.415  73.600  1.00  0.00    -0.102 Cl 
HETATM    2  C   UNL     1      -8.333   5.794  71.989  1.00  0.00    -0.122 A  
HETATM    3  C   UNL     1      -9.678   5.985  71.682  1.00  0.00    -0.180 A  
HETATM    4  C   UNL     1     -10.058   6.297  70.373  1.00  0.00    -0.185 A  
HETATM    5 CL   UNL     1     -11.743   6.506  70.059  1.00  0.00    -0.459 Cl 
HETATM    6  C   UNL     1      -9.095   6.432  69.360  1.00  0.00    -0.140 A  
HETATM    7  C   UNL     1      -7.739   6.247  69.702  1.00  0.00    -0.099 A  
HETATM    8  C   UNL     1      -7.361   5.914  71.002  1.00  0.00    -0.082 A  
ENDROOT
BRANCH   6   9
HETATM    9  C   UNL     1      -9.460   6.798  67.924  1.00  0.00    -0.118 C  
BRANCH   9  10
HETATM   10  C   UNL     1     -10.493   5.780  67.402  1.00  0.00    -0.254 C  
BRANCH  10  11
HETATM   11  N   UNL     1      -9.889   4.576  66.868  1.00  0.00    -0.208 NA 
HETATM   12  C   UNL     1      -9.662   4.289  65.550  1.00  0.00    -0.203 A  
HETATM   13  C   UNL     1      -9.362   3.554  67.610  1.00  0.00    -0.204 A  
HETATM   14  N   UNL     1      -8.853   2.620  66.843  1.00  0.00    -0.125 NA 
HETATM   15  C   UNL     1      -9.032   3.067  65.560  1.00  0.00    -0.145 A  
ENDBRANCH  10  11
ENDBRANCH   9  10
BRANCH   9  16
HETATM   16  O   UNL     1     -10.051   8.109  67.888  1.00  0.00    -0.177 OA 
BRANCH  16  17
HETATM   17  C   UNL     1      -9.146   9.132  67.455  1.00  0.00    -0.127 C  
BRANCH  17  18
HETATM   18  C   UNL     1      -9.872  10.169  66.651  1.00  0.00    -0.253 A  
HETATM   19  C   UNL     1      -9.965  10.129  65.274  1.00  0.00    -0.311 A  
HETATM   20  S   UNL     1     -10.833  11.436  64.628  1.00  0.00    -0.256 SA 
HETATM   21  C   UNL     1     -11.122  12.124  66.184  1.00  0.00    -0.312 A  
HETATM   22  C   UNL     1     -10.553  11.330  67.195  1.00  0.00    -0.274 A  
HETATM   23  C   UNL     1     -10.713  11.761  68.540  1.00  0.00    -0.251 A  
HETATM   24  C   UNL     1     -11.410  12.934  68.847  1.00  0.00    -0.335 A  
HETATM   25  C   UNL     1     -11.955  13.704  67.831  1.00  0.00    -0.382 A  
HETATM   26  C   UNL     1     -11.819  13.312  66.498  1.00  0.00    -0.398 A  
HETATM   27 CL   UNL     1     -12.517  14.309  65.272  1.00  0.00    -0.445 Cl 
ENDBRANCH  17  18
ENDBRANCH  16  17
ENDBRANCH   9  16
ENDBRANCH   6   9
TORSDOF 6
ENDMDL
MODEL      230
REMARK 921   NORMALIZED FREE ENERGY PREDICTED BY IDOCK:   -3.98 KCAL/MOL
REMARK 922        TOTAL FREE ENERGY PREDICTED BY IDOCK:   -6.42 KCAL/MOL
REMARK 923 INTER-LIGAND FREE ENERGY PREDICTED BY IDOCK:   -5.38 KCAL/MOL
REMARK 924 INTRA-LIGAND FREE ENERGY PREDICTED BY IDOCK:   -1.05 KCAL/MOL
REMARK 927      BINDING AFFINITY PREDICTED BY RF-SCORE:    0.00 PKD
ROOT
HETATM    1 CL   UNL     1     -10.611   4.543  72.361  1.00  0.00    -0.240 Cl 
HETATM    2  C   UNL     1      -9.928   4.934  70.832  1.00  0.00    -0.217 A  
HETATM    3  C   UNL     1      -8.583   4.670  70.583  1.00  0.00    -0.120 A  
HETATM    4  C   UNL     1      -8.029   4.984  69.338  1.00  0.00    -0.075 A  
HETATM    5 CL   UNL     1      -6.353   4.644  69.102  1.00  0.00    -0.031 Cl 
HETATM    6  C   UNL     1      -8.818   5.554  68.326  1.00  0.00    -0.104 A  
HETATM    7  C   UNL     1     -10.180   5.798  68.601  1.00  0.00    -0.254 A  
HETATM    8  C   UNL     1     -10.727   5.506  69.849  1.00  0.00    -0.358 A  
ENDROOT
BRANCH   6   9
HETATM    9  C   UNL     1      -8.262   5.888  66.944  1.00  0.00    -0.105 C  
BRANCH   9  10
HETATM   10  C   UNL     1      -9.372   5.664  65.898  1.00  0.00    -0.103 C  
BRANCH  10  11
HETATM   11  N   UNL     1      -9.066   4.605  64.957  1.00  0.00    -0.154 NA 
HETATM   12  C   UNL     1      -9.009   4.710  63.595  1.00  0.00    -0.105 A  
HETATM   13  C   UNL     1      -8.695   3.331  65.290  1.00  0.00    -0.119 A  
HETATM   14  N   UNL     1      -8.446   2.612  64.221  1.00  0.00    -0.086 NA 
HETATM   15  C   UNL     1      -8.637   3.460  63.161  1.00  0.00    -0.089 A  
ENDBRANCH  10  11
ENDBRANCH   9  10
BRANCH   9  16
HETATM   16  O   UNL     1      -7.861   7.269  66.898  1.00  0.00    -0.107 OA 
BRANCH  16  17
HETATM   17  C   UNL     1      -8.675   8.071  66.033  1.00  0.00    -0.157 C  
BRANCH  17  18
HETATM   18  C   UNL     1      -9.345   9.165  66.810  1.00  0.00    -0.213 A  
HETATM   19  C   UNL     1      -9.342   9.224  68.189  1.00  0.00    -0.134 A  
HETATM   20  S   UNL     1     -10.187  10.562  68.801  1.00  0.00    -0.202 SA 
HETATM   21  C   UNL     1     -10.605  11.127  67.224  1.00  0.00    -0.239 A  
HETATM   22  C   UNL     1     -10.076  10.280  66.234  1.00  0.00    -0.300 A  
HETATM   23  C   UNL     1     -10.326  10.617  64.876  1.00  0.00    -0.347 A  
HETATM   24  C   UNL     1     -11.074  11.750  64.536  1.00  0.00    -0.376 A  
HETATM   25  C   UNL     1     -11.591  12.565  65.532  1.00  0.00    -0.429 A  
HETATM   26  C   UNL     1     -11.364  12.266  66.877  1.00  0.00    -0.333 A  
HETATM   27 CL   UNL     1     -12.033  13.314  68.076  1.00  0.00    -0.380 Cl 
ENDBRANCH  17  18
ENDBRANCH  16  17
ENDBRANCH   9  16
ENDBRANCH   6   9
TORSDOF 6
ENDMDL
MODEL      231
REMARK 921   NORMALIZED FREE ENERGY PREDICTED BY IDOCK:   -3.98 KCAL/MOL
REMARK 922        TOTAL FREE ENERGY PREDICTED BY IDOCK:   -6.42 KCAL/MOL
REMARK 923 INTER-LIGAND FREE ENERGY PREDICTED BY IDOCK:   -6.41 KCAL/MOL
REMARK 924 INTRA-LIGAND FREE ENERGY PREDICTED BY IDOCK:   -0.01 KCAL/MOL
REMARK 927      BINDING AFFINITY PREDICTED BY RF-SCORE:    0.00 PKD
ROOT
HETATM    1 CL   UNL     1      -8.220  18.742  68.668  1.00  0.00    -0.369 Cl 
HETATM    2  C   UNL     1      -9.085  17.268  68.482  1.00  0.00    -0.269 A  
HETATM    3  C   UNL     1      -8.399  16.056  68.464  1.00  0.00    -0.191 A  
HETATM    4  C   UNL     1      -9.104  14.857  68.318  1.00  0.00    -0.179 A  
HETATM    5 CL   UNL     1      -8.190  13.393  68.288  1.00  0.00    -0.156 Cl 
HETATM    6  C   UNL     1     -10.503  14.858  68.199  1.00  0.00    -0.242 A  
HETATM    7  C   UNL     1     -11.173  16.099  68.235  1.00  0.00    -0.343 A  
HETATM    8  C   UNL     1     -10.469  17.296  68.358  1.00  0.00    -0.381 A  
ENDROOT
BRANCH   6   9
HETATM    9  C   UNL     1     -11.316  13.573  68.065  1.00  0.00    -0.285 C  
BRANCH   9  10
HETATM   10  C   UNL     1     -12.461  13.815  67.061  1.00  0.00    -0.103 C  
BRANCH  10  11
HETATM   11  N   UNL     1     -12.082  13.550  65.688  1.00  0.00    -0.402 NA 
HETATM   12  C   UNL     1     -12.692  12.683  64.823  1.00  0.00    -0.379 A  
HETATM   13  C   UNL     1     -11.093  14.196  64.997  1.00  0.00    -0.370 A  
HETATM   14  N   UNL     1     -11.013  13.763  63.761  1.00  0.00     0.230 NA 
HETATM   15  C   UNL     1     -12.003  12.824  63.641  1.00  0.00    -0.539 A  
ENDBRANCH  10  11
ENDBRANCH   9  10
BRANCH   9  16
HETATM   16  O   UNL     1     -10.480  12.516  67.561  1.00  0.00    -0.216 OA 
BRANCH  16  17
HETATM   17  C   UNL     1     -11.052  11.212  67.717  1.00  0.00    -0.285 C  
BRANCH  17  18
HETATM   18  C   UNL     1     -10.024  10.153  67.454  1.00  0.00    -0.238 A  
HETATM   19  C   UNL     1      -9.457   9.385  68.451  1.00  0.00    -0.141 A  
HETATM   20  S   UNL     1      -8.314   8.275  67.868  1.00  0.00    -0.129 SA 
HETATM   21  C   UNL     1      -8.527   8.785  66.233  1.00  0.00    -0.124 A  
HETATM   22  C   UNL     1      -9.491   9.804  66.149  1.00  0.00    -0.261 A  
HETATM   23  C   UNL     1      -9.787  10.326  64.861  1.00  0.00    -0.404 A  
HETATM   24  C   UNL     1      -9.141   9.845  63.717  1.00  0.00    -0.293 A  
HETATM   25  C   UNL     1      -8.188   8.844  63.828  1.00  0.00    -0.172 A  
HETATM   26  C   UNL     1      -7.871   8.306  65.077  1.00  0.00    -0.126 A  
HETATM   27 CL   UNL     1      -6.676   7.062  65.157  1.00  0.00    -0.046 Cl 
ENDBRANCH  17  18
ENDBRANCH  16  17
ENDBRANCH   9  16
ENDBRANCH   6   9
TORSDOF 6
ENDMDL
MODEL      232
REMARK 921   NORMALIZED FREE ENERGY PREDICTED BY IDOCK:   -3.97 KCAL/MOL
REMARK 922        TOTAL FREE ENERGY PREDICTED BY IDOCK:   -6.41 KCAL/MOL
REMARK 923 INTER-LIGAND FREE ENERGY PREDICTED BY IDOCK:   -5.41 KCAL/MOL
REMARK 924 INTRA-LIGAND FREE ENERGY PREDICTED BY IDOCK:   -1.01 KCAL/MOL
REMARK 927      BINDING AFFINITY PREDICTED BY RF-SCORE:    0.00 PKD
ROOT
HETATM    1 CL   UNL     1     -12.328  13.634  63.439  1.00  0.00    -0.359 Cl 
HETATM    2  C   UNL     1     -11.565  12.490  64.471  1.00  0.00    -0.348 A  
HETATM    3  C   UNL     1     -10.682  11.553  63.938  1.00  0.00    -0.458 A  
HETATM    4  C   UNL     1     -10.058  10.626  64.778  1.00  0.00    -0.344 A  
HETATM    5 CL   UNL     1      -8.988   9.483  64.050  1.00  0.00    -0.252 Cl 
HETATM    6  C   UNL     1     -10.302  10.633  66.161  1.00  0.00    -0.291 A  
HETATM    7  C   UNL     1     -11.190  11.602  66.675  1.00  0.00    -0.362 A  
HETATM    8  C   UNL     1     -11.830  12.512  65.835  1.00  0.00    -0.489 A  
ENDROOT
BRANCH   6   9
HETATM    9  C   UNL     1      -9.623   9.658  67.119  1.00  0.00    -0.166 C  
BRANCH   9  10
HETATM   10  C   UNL     1      -8.941  10.463  68.243  1.00  0.00    -0.135 C  
BRANCH  10  11
HETATM   11  N   UNL     1      -7.540  10.133  68.412  1.00  0.00    -0.086 NA 
HETATM   12  C   UNL     1      -6.505  11.013  68.567  1.00  0.00    -0.054 A  
HETATM   13  C   UNL     1      -7.030   8.869  68.531  1.00  0.00    -0.065 A  
HETATM   14  N   UNL     1      -5.731   8.893  68.712  1.00  0.00    -0.040 NA 
HETATM   15  C   UNL     1      -5.393  10.221  68.738  1.00  0.00    -0.038 A  
ENDBRANCH  10  11
ENDBRANCH   9  10
BRANCH   9  16
HETATM   16  O   UNL     1     -10.606   8.788  67.710  1.00  0.00    -0.239 OA 
BRANCH  16  17
HETATM   17  C   UNL     1     -10.633   7.479  67.127  1.00  0.00    -0.345 C  
BRANCH  17  18
HETATM   18  C   UNL     1     -10.257   6.445  68.145  1.00  0.00    -0.196 A  
HETATM   19  C   UNL     1     -10.893   6.316  69.363  1.00  0.00    -0.340 A  
HETATM   20  S   UNL     1     -10.252   5.071  70.321  1.00  0.00    -0.229 SA 
HETATM   21  C   UNL     1      -9.074   4.647  69.133  1.00  0.00    -0.117 A  
HETATM   22  C   UNL     1      -9.194   5.466  67.997  1.00  0.00    -0.119 A  
HETATM   23  C   UNL     1      -8.296   5.234  66.920  1.00  0.00    -0.107 A  
HETATM   24  C   UNL     1      -7.326   4.228  66.988  1.00  0.00    -0.073 A  
HETATM   25  C   UNL     1      -7.224   3.439  68.124  1.00  0.00    -0.051 A  
HETATM   26  C   UNL     1      -8.090   3.637  69.201  1.00  0.00    -0.057 A  
HETATM   27 CL   UNL     1      -7.918   2.626  70.591  1.00  0.00    -0.046 Cl 
ENDBRANCH  17  18
ENDBRANCH  16  17
ENDBRANCH   9  16
ENDBRANCH   6   9
TORSDOF 6
ENDMDL
MODEL      233
REMARK 921   NORMALIZED FREE ENERGY PREDICTED BY IDOCK:   -3.96 KCAL/MOL
REMARK 922        TOTAL FREE ENERGY PREDICTED BY IDOCK:   -6.39 KCAL/MOL
REMARK 923 INTER-LIGAND FREE ENERGY PREDICTED BY IDOCK:   -5.21 KCAL/MOL
REMARK 924 INTRA-LIGAND FREE ENERGY PREDICTED BY IDOCK:   -1.19 KCAL/MOL
REMARK 927      BINDING AFFINITY PREDICTED BY RF-SCORE:    0.00 PKD
ROOT
HETATM    1 CL   UNL     1     -13.004  13.735  65.153  1.00  0.00    -0.368 Cl 
HETATM    2  C   UNL     1     -11.584  13.246  65.990  1.00  0.00    -0.349 A  
HETATM    3  C   UNL     1     -11.340  11.893  66.216  1.00  0.00    -0.394 A  
HETATM    4  C   UNL     1     -10.183  11.496  66.893  1.00  0.00    -0.217 A  
HETATM    5 CL   UNL     1      -9.950   9.805  67.152  1.00  0.00    -0.237 Cl 
HETATM    6  C   UNL     1      -9.251  12.448  67.340  1.00  0.00    -0.184 A  
HETATM    7  C   UNL     1      -9.517  13.810  67.085  1.00  0.00    -0.244 A  
HETATM    8  C   UNL     1     -10.682  14.208  66.430  1.00  0.00    -0.288 A  
ENDROOT
BRANCH   6   9
HETATM    9  C   UNL     1      -7.962  12.059  68.059  1.00  0.00    -0.149 C  
BRANCH   9  10
HETATM   10  C   UNL     1      -6.903  11.681  67.004  1.00  0.00    -0.144 C  
BRANCH  10  11
HETATM   11  N   UNL     1      -6.382  10.340  67.172  1.00  0.00    -0.066 NA 
HETATM   12  C   UNL     1      -5.787   9.566  66.214  1.00  0.00    -0.058 A  
HETATM   13  C   UNL     1      -6.323   9.653  68.354  1.00  0.00    -0.051 A  
HETATM   14  N   UNL     1      -5.764   8.477  68.195  1.00  0.00    -0.035 NA 
HETATM   15  C   UNL     1      -5.425   8.412  66.869  1.00  0.00    -0.037 A  
ENDBRANCH  10  11
ENDBRANCH   9  10
BRANCH   9  16
HETATM   16  O   UNL     1      -7.472  13.175  68.822  1.00  0.00    -0.108 OA 
BRANCH  16  17
HETATM   17  C   UNL     1      -6.278  13.756  68.281  1.00  0.00    -0.110 C  
BRANCH  17  18
HETATM   18  C   UNL     1      -6.132  15.176  68.739  1.00  0.00    -0.087 A  
HETATM   19  C   UNL     1      -5.489  15.531  69.908  1.00  0.00    -0.117 A  
HETATM   20  S   UNL     1      -5.484  17.204  70.183  1.00  0.00    -0.237 SA 
HETATM   21  C   UNL     1      -6.359  17.532  68.732  1.00  0.00    -0.197 A  
HETATM   22  C   UNL     1      -6.639  16.342  68.039  1.00  0.00    -0.146 A  
HETATM   23  C   UNL     1      -7.350  16.446  66.813  1.00  0.00    -0.261 A  
HETATM   24  C   UNL     1      -7.759  17.687  66.315  1.00  0.00    -0.324 A  
HETATM   25  C   UNL     1      -7.478  18.846  67.022  1.00  0.00    -0.226 A  
HETATM   26  C   UNL     1      -6.779  18.783  68.230  1.00  0.00    -0.232 A  
HETATM   27 CL   UNL     1      -6.456  20.257  69.070  1.00  0.00    -0.340 Cl 
ENDBRANCH  17  18
ENDBRANCH  16  17
ENDBRANCH   9  16
ENDBRANCH   6   9
TORSDOF 6
ENDMDL
MODEL      234
REMARK 921   NORMALIZED FREE ENERGY PREDICTED BY IDOCK:   -3.95 KCAL/MOL
REMARK 922        TOTAL FREE ENERGY PREDICTED BY IDOCK:   -6.38 KCAL/MOL
REMARK 923 INTER-LIGAND FREE ENERGY PREDICTED BY IDOCK:   -5.34 KCAL/MOL
REMARK 924 INTRA-LIGAND FREE ENERGY PREDICTED BY IDOCK:   -1.03 KCAL/MOL
REMARK 927      BINDING AFFINITY PREDICTED BY RF-SCORE:    0.00 PKD
ROOT
HETATM    1 CL   UNL     1      -6.276   7.265  64.435  1.00  0.00    -0.037 Cl 
HETATM    2  C   UNL     1      -7.389   7.396  65.739  1.00  0.00    -0.074 A  
HETATM    3  C   UNL     1      -8.541   6.614  65.752  1.00  0.00    -0.147 A  
HETATM    4  C   UNL     1      -9.443   6.717  66.815  1.00  0.00    -0.162 A  
HETATM    5 CL   UNL     1     -10.858   5.730  66.760  1.00  0.00    -0.363 Cl 
HETATM    6  C   UNL     1      -9.196   7.597  67.882  1.00  0.00    -0.139 A  
HETATM    7  C   UNL     1      -8.014   8.367  67.850  1.00  0.00    -0.115 A  
HETATM    8  C   UNL     1      -7.125   8.280  66.779  1.00  0.00    -0.077 A  
ENDROOT
BRANCH   6   9
HETATM    9  C   UNL     1     -10.139   7.723  69.076  1.00  0.00    -0.196 C  
BRANCH   9  10
HETATM   10  C   UNL     1      -9.309   8.081  70.325  1.00  0.00    -0.159 C  
BRANCH  10  11
HETATM   11  N   UNL     1      -9.078   6.950  71.200  1.00  0.00    -0.150 NA 
HETATM   12  C   UNL     1     -10.025   6.230  71.876  1.00  0.00    -0.172 A  
HETATM   13  C   UNL     1      -7.866   6.356  71.428  1.00  0.00    -0.104 A  
HETATM   14  N   UNL     1      -7.982   5.330  72.238  1.00  0.00    -0.105 NA 
HETATM   15  C   UNL     1      -9.319   5.241  72.522  1.00  0.00    -0.139 A  
ENDBRANCH  10  11
ENDBRANCH   9  10
BRANCH   9  16
HETATM   16  O   UNL     1     -11.089   8.777  68.839  1.00  0.00     0.026 OA 
BRANCH  16  17
HETATM   17  C   UNL     1     -11.191   9.708  69.925  1.00  0.00    -0.207 C  
BRANCH  17  18
HETATM   18  C   UNL     1     -10.979  11.109  69.435  1.00  0.00    -0.298 A  
HETATM   19  C   UNL     1     -10.143  11.424  68.383  1.00  0.00    -0.201 A  
HETATM   20  S   UNL     1     -10.084  13.087  68.053  1.00  0.00    -0.240 SA 
HETATM   21  C   UNL     1     -11.187  13.465  69.326  1.00  0.00    -0.219 A  
HETATM   22  C   UNL     1     -11.602  12.297  69.990  1.00  0.00    -0.236 A  
HETATM   23  C   UNL     1     -12.523  12.442  71.063  1.00  0.00    -0.353 A  
HETATM   24  C   UNL     1     -12.999  13.700  71.446  1.00  0.00    -0.427 A  
HETATM   25  C   UNL     1     -12.568  14.837  70.779  1.00  0.00    -0.412 A  
HETATM   26  C   UNL     1     -11.664  14.734  69.720  1.00  0.00    -0.310 A  
HETATM   27 CL   UNL     1     -11.160  16.183  68.926  1.00  0.00    -0.326 Cl 
ENDBRANCH  17  18
ENDBRANCH  16  17
ENDBRANCH   9  16
ENDBRANCH   6   9
TORSDOF 6
ENDMDL
MODEL      235
REMARK 921   NORMALIZED FREE ENERGY PREDICTED BY IDOCK:   -3.94 KCAL/MOL
REMARK 922        TOTAL FREE ENERGY PREDICTED BY IDOCK:   -6.36 KCAL/MOL
REMARK 923 INTER-LIGAND FREE ENERGY PREDICTED BY IDOCK:   -5.81 KCAL/MOL
REMARK 924 INTRA-LIGAND FREE ENERGY PREDICTED BY IDOCK:   -0.55 KCAL/MOL
REMARK 927      BINDING AFFINITY PREDICTED BY RF-SCORE:    0.00 PKD
ROOT
HETATM    1 CL   UNL     1     -12.304  15.449  64.082  1.00  0.00    -0.228 Cl 
HETATM    2  C   UNL     1     -11.564  14.026  64.701  1.00  0.00    -0.392 A  
HETATM    3  C   UNL     1     -10.684  14.110  65.776  1.00  0.00    -0.301 A  
HETATM    4  C   UNL     1     -10.086  12.951  66.281  1.00  0.00    -0.276 A  
HETATM    5 CL   UNL     1      -8.993  13.130  67.606  1.00  0.00    -0.181 Cl 
HETATM    6  C   UNL     1     -10.371  11.695  65.722  1.00  0.00    -0.292 A  
HETATM    7  C   UNL     1     -11.277  11.637  64.642  1.00  0.00    -0.320 A  
HETATM    8  C   UNL     1     -11.856  12.795  64.124  1.00  0.00    -0.482 A  
ENDROOT
BRANCH   6   9
HETATM    9  C   UNL     1      -9.763  10.402  66.258  1.00  0.00    -0.205 C  
BRANCH   9  10
HETATM   10  C   UNL     1      -8.276  10.351  65.855  1.00  0.00    -0.150 C  
BRANCH  10  11
HETATM   11  N   UNL     1      -7.844   9.036  65.427  1.00  0.00    -0.098 NA 
HETATM   12  C   UNL     1      -7.323   8.047  66.215  1.00  0.00    -0.078 A  
HETATM   13  C   UNL     1      -7.971   8.532  64.161  1.00  0.00    -0.150 A  
HETATM   14  N   UNL     1      -7.524   7.300  64.091  1.00  0.00    -0.091 NA 
HETATM   15  C   UNL     1      -7.120   6.988  65.362  1.00  0.00    -0.068 A  
ENDBRANCH  10  11
ENDBRANCH   9  10
BRANCH   9  16
HETATM   16  O   UNL     1      -9.850  10.378  67.694  1.00  0.00    -0.165 OA 
BRANCH  16  17
HETATM   17  C   UNL     1     -11.040   9.745  68.183  1.00  0.00    -0.110 C  
BRANCH  17  18
HETATM   18  C   UNL     1     -10.765   8.313  68.531  1.00  0.00    -0.065 A  
HETATM   19  C   UNL     1     -10.635   7.316  67.585  1.00  0.00    -0.246 A  
HETATM   20  S   UNL     1     -10.340   5.789  68.262  1.00  0.00    -0.215 SA 
HETATM   21  C   UNL     1     -10.380   6.402  69.876  1.00  0.00    -0.196 A  
HETATM   22  C   UNL     1     -10.610   7.789  69.877  1.00  0.00    -0.239 A  
HETATM   23  C   UNL     1     -10.661   8.447  71.135  1.00  0.00    -0.280 A  
HETATM   24  C   UNL     1     -10.491   7.740  72.331  1.00  0.00    -0.321 A  
HETATM   25  C   UNL     1     -10.274   6.371  72.302  1.00  0.00    -0.205 A  
HETATM   26  C   UNL     1     -10.215   5.691  71.084  1.00  0.00    -0.220 A  
HETATM   27 CL   UNL     1      -9.943   3.986  71.107  1.00  0.00    -0.238 Cl 
ENDBRANCH  17  18
ENDBRANCH  16  17
ENDBRANCH   9  16
ENDBRANCH   6   9
TORSDOF 6
ENDMDL
MODEL      236
REMARK 921   NORMALIZED FREE ENERGY PREDICTED BY IDOCK:   -3.93 KCAL/MOL
REMARK 922        TOTAL FREE ENERGY PREDICTED BY IDOCK:   -6.35 KCAL/MOL
REMARK 923 INTER-LIGAND FREE ENERGY PREDICTED BY IDOCK:   -5.43 KCAL/MOL
REMARK 924 INTRA-LIGAND FREE ENERGY PREDICTED BY IDOCK:   -0.93 KCAL/MOL
REMARK 927      BINDING AFFINITY PREDICTED BY RF-SCORE:    0.00 PKD
ROOT
HETATM    1 CL   UNL     1      -8.567   2.848  65.099  1.00  0.00    -0.100 Cl 
HETATM    2  C   UNL     1      -8.446   4.396  65.839  1.00  0.00    -0.114 A  
HETATM    3  C   UNL     1      -9.092   4.641  67.048  1.00  0.00    -0.126 A  
HETATM    4  C   UNL     1      -8.990   5.898  67.651  1.00  0.00    -0.107 A  
HETATM    5 CL   UNL     1      -9.828   6.139  69.142  1.00  0.00    -0.165 Cl 
HETATM    6  C   UNL     1      -8.230   6.919  67.057  1.00  0.00    -0.120 A  
HETATM    7  C   UNL     1      -7.576   6.639  65.839  1.00  0.00    -0.087 A  
HETATM    8  C   UNL     1      -7.696   5.392  65.225  1.00  0.00    -0.089 A  
ENDROOT
BRANCH   6   9
HETATM    9  C   UNL     1      -8.069   8.297  67.693  1.00  0.00    -0.126 C  
BRANCH   9  10
HETATM   10  C   UNL     1      -6.572   8.541  67.971  1.00  0.00    -0.058 C  
BRANCH  10  11
HETATM   11  N   UNL     1      -6.323   9.740  68.745  1.00  0.00    -0.046 NA 
HETATM   12  C   UNL     1      -6.673   9.961  70.048  1.00  0.00    -0.100 A  
HETATM   13  C   UNL     1      -5.610  10.827  68.317  1.00  0.00    -0.043 A  
HETATM   14  N   UNL     1      -5.522  11.740  69.256  1.00  0.00    -0.052 NA 
HETATM   15  C   UNL     1      -6.178  11.212  70.338  1.00  0.00    -0.094 A  
ENDBRANCH  10  11
ENDBRANCH   9  10
BRANCH   9  16
HETATM   16  O   UNL     1      -8.537   9.312  66.787  1.00  0.00    -0.125 OA 
BRANCH  16  17
HETATM   17  C   UNL     1      -9.961   9.313  66.618  1.00  0.00    -0.264 C  
BRANCH  17  18
HETATM   18  C   UNL     1     -10.387  10.475  65.772  1.00  0.00    -0.270 A  
HETATM   19  C   UNL     1     -10.262  10.496  64.398  1.00  0.00    -0.267 A  
HETATM   20  S   UNL     1     -10.812  11.940  63.700  1.00  0.00    -0.466 SA 
HETATM   21  C   UNL     1     -11.244  12.614  65.229  1.00  0.00    -0.300 A  
HETATM   22  C   UNL     1     -10.969  11.710  66.269  1.00  0.00    -0.338 A  
HETATM   23  C   UNL     1     -11.279  12.116  67.595  1.00  0.00    -0.345 A  
HETATM   24  C   UNL     1     -11.836  13.372  67.857  1.00  0.00    -0.392 A  
HETATM   25  C   UNL     1     -12.090  14.249  66.814  1.00  0.00    -0.446 A  
HETATM   26  C   UNL     1     -11.800  13.884  65.498  1.00  0.00    -0.362 A  
HETATM   27 CL   UNL     1     -12.137  15.016  64.238  1.00  0.00    -0.423 Cl 
ENDBRANCH  17  18
ENDBRANCH  16  17
ENDBRANCH   9  16
ENDBRANCH   6   9
TORSDOF 6
ENDMDL
MODEL      237
REMARK 921   NORMALIZED FREE ENERGY PREDICTED BY IDOCK:   -3.92 KCAL/MOL
REMARK 922        TOTAL FREE ENERGY PREDICTED BY IDOCK:   -6.34 KCAL/MOL
REMARK 923 INTER-LIGAND FREE ENERGY PREDICTED BY IDOCK:   -5.69 KCAL/MOL
REMARK 924 INTRA-LIGAND FREE ENERGY PREDICTED BY IDOCK:   -0.64 KCAL/MOL
REMARK 927      BINDING AFFINITY PREDICTED BY RF-SCORE:    0.00 PKD
ROOT
HETATM    1 CL   UNL     1     -12.720  14.231  65.579  1.00  0.00    -0.461 Cl 
HETATM    2  C   UNL     1     -11.836  12.951  66.311  1.00  0.00    -0.416 A  
HETATM    3  C   UNL     1     -10.910  12.228  65.563  1.00  0.00    -0.319 A  
HETATM    4  C   UNL     1     -10.188  11.190  66.160  1.00  0.00    -0.244 A  
HETATM    5 CL   UNL     1      -9.068  10.325  65.170  1.00  0.00    -0.211 Cl 
HETATM    6  C   UNL     1     -10.378  10.871  67.514  1.00  0.00    -0.237 A  
HETATM    7  C   UNL     1     -11.312  11.629  68.252  1.00  0.00    -0.348 A  
HETATM    8  C   UNL     1     -12.048  12.650  67.651  1.00  0.00    -0.166 A  
ENDROOT
BRANCH   6   9
HETATM    9  C   UNL     1      -9.593   9.765  68.214  1.00  0.00    -0.143 C  
BRANCH   9  10
HETATM   10  C   UNL     1      -9.284  10.214  69.656  1.00  0.00    -0.183 C  
BRANCH  10  11
HETATM   11  N   UNL     1      -9.936   9.399  70.661  1.00  0.00    -0.268 NA 
HETATM   12  C   UNL     1     -11.209   9.550  71.138  1.00  0.00    -0.376 A  
HETATM   13  C   UNL     1      -9.407   8.278  71.240  1.00  0.00    -0.173 A  
HETATM   14  N   UNL     1     -10.251   7.733  72.085  1.00  0.00    -0.201 NA 
HETATM   15  C   UNL     1     -11.375   8.515  72.028  1.00  0.00    -0.355 A  
ENDBRANCH  10  11
ENDBRANCH   9  10
BRANCH   9  16
HETATM   16  O   UNL     1     -10.383   8.564  68.267  1.00  0.00    -0.204 OA 
BRANCH  16  17
HETATM   17  C   UNL     1     -10.570   7.946  66.987  1.00  0.00    -0.311 C  
BRANCH  17  18
HETATM   18  C   UNL     1      -9.823   6.648  66.918  1.00  0.00    -0.222 A  
HETATM   19  C   UNL     1     -10.411   5.424  67.164  1.00  0.00    -0.235 A  
HETATM   20  S   UNL     1      -9.328   4.125  67.027  1.00  0.00    -0.188 SA 
HETATM   21  C   UNL     1      -8.004   5.160  66.631  1.00  0.00    -0.104 A  
HETATM   22  C   UNL     1      -8.414   6.504  66.597  1.00  0.00    -0.116 A  
HETATM   23  C   UNL     1      -7.436   7.483  66.275  1.00  0.00    -0.083 A  
HETATM   24  C   UNL     1      -6.112   7.123  66.003  1.00  0.00    -0.037 A  
HETATM   25  C   UNL     1      -5.731   5.790  66.051  1.00  0.00    -0.013 A  
HETATM   26  C   UNL     1      -6.665   4.800  66.363  1.00  0.00    -0.054 A  
HETATM   27 CL   UNL     1      -6.137   3.157  66.410  1.00  0.00    -0.024 Cl 
ENDBRANCH  17  18
ENDBRANCH  16  17
ENDBRANCH   9  16
ENDBRANCH   6   9
TORSDOF 6
ENDMDL
MODEL      238
REMARK 921   NORMALIZED FREE ENERGY PREDICTED BY IDOCK:   -3.92 KCAL/MOL
REMARK 922        TOTAL FREE ENERGY PREDICTED BY IDOCK:   -6.34 KCAL/MOL
REMARK 923 INTER-LIGAND FREE ENERGY PREDICTED BY IDOCK:   -5.92 KCAL/MOL
REMARK 924 INTRA-LIGAND FREE ENERGY PREDICTED BY IDOCK:   -0.41 KCAL/MOL
REMARK 927      BINDING AFFINITY PREDICTED BY RF-SCORE:    0.00 PKD
ROOT
HETATM    1 CL   UNL     1     -11.887   8.679  72.406  1.00  0.00    -0.432 Cl 
HETATM    2  C   UNL     1     -10.704   8.855  71.170  1.00  0.00    -0.263 A  
HETATM    3  C   UNL     1     -11.078   8.768  69.832  1.00  0.00    -0.129 A  
HETATM    4  C   UNL     1     -10.116   8.915  68.827  1.00  0.00    -0.200 A  
HETATM    5 CL   UNL     1     -10.645   8.781  67.189  1.00  0.00    -0.349 Cl 
HETATM    6  C   UNL     1      -8.772   9.162  69.152  1.00  0.00    -0.138 A  
HETATM    7  C   UNL     1      -8.424   9.259  70.516  1.00  0.00    -0.251 A  
HETATM    8  C   UNL     1      -9.378   9.090  71.518  1.00  0.00    -0.294 A  
ENDROOT
BRANCH   6   9
HETATM    9  C   UNL     1      -7.694   9.356  68.090  1.00  0.00    -0.083 C  
BRANCH   9  10
HETATM   10  C   UNL     1      -6.895   8.045  67.951  1.00  0.00    -0.073 C  
BRANCH  10  11
HETATM   11  N   UNL     1      -7.467   7.126  66.988  1.00  0.00    -0.095 NA 
HETATM   12  C   UNL     1      -8.332   6.099  67.248  1.00  0.00    -0.105 A  
HETATM   13  C   UNL     1      -7.300   7.191  65.631  1.00  0.00    -0.079 A  
HETATM   14  N   UNL     1      -7.973   6.245  65.021  1.00  0.00    -0.115 NA 
HETATM   15  C   UNL     1      -8.620   5.561  66.016  1.00  0.00    -0.134 A  
ENDBRANCH  10  11
ENDBRANCH   9  10
BRANCH   9  16
HETATM   16  O   UNL     1      -8.305   9.657  66.822  1.00  0.00    -0.116 OA 
BRANCH  16  17
HETATM   17  C   UNL     1      -7.797  10.851  66.213  1.00  0.00    -0.158 C  
BRANCH  17  18
HETATM   18  C   UNL     1      -8.405  12.063  66.851  1.00  0.00    -0.159 A  
HETATM   19  C   UNL     1      -7.739  12.849  67.770  1.00  0.00    -0.151 A  
HETATM   20  S   UNL     1      -8.671  14.147  68.338  1.00  0.00    -0.167 SA 
HETATM   21  C   UNL     1     -10.029  13.707  67.368  1.00  0.00    -0.234 A  
HETATM   22  C   UNL     1      -9.746  12.562  66.602  1.00  0.00    -0.244 A  
HETATM   23  C   UNL     1     -10.767  12.076  65.741  1.00  0.00    -0.319 A  
HETATM   24  C   UNL     1     -12.009  12.713  65.658  1.00  0.00    -0.507 A  
HETATM   25  C   UNL     1     -12.266  13.836  66.430  1.00  0.00    -0.480 A  
HETATM   26  C   UNL     1     -11.287  14.343  67.287  1.00  0.00    -0.342 A  
HETATM   27 CL   UNL     1     -11.662  15.744  68.225  1.00  0.00    -0.306 Cl 
ENDBRANCH  17  18
ENDBRANCH  16  17
ENDBRANCH   9  16
ENDBRANCH   6   9
TORSDOF 6
ENDMDL
MODEL      239
REMARK 921   NORMALIZED FREE ENERGY PREDICTED BY IDOCK:   -3.91 KCAL/MOL
REMARK 922        TOTAL FREE ENERGY PREDICTED BY IDOCK:   -6.32 KCAL/MOL
REMARK 923 INTER-LIGAND FREE ENERGY PREDICTED BY IDOCK:   -5.44 KCAL/MOL
REMARK 924 INTRA-LIGAND FREE ENERGY PREDICTED BY IDOCK:   -0.88 KCAL/MOL
REMARK 927      BINDING AFFINITY PREDICTED BY RF-SCORE:    0.00 PKD
ROOT
HETATM    1 CL   UNL     1      -5.861  10.182  64.866  1.00  0.00    -0.111 Cl 
HETATM    2  C   UNL     1      -6.805   9.203  65.918  1.00  0.00    -0.087 A  
HETATM    3  C   UNL     1      -8.196   9.260  65.862  1.00  0.00    -0.116 A  
HETATM    4  C   UNL     1      -8.963   8.461  66.715  1.00  0.00    -0.145 A  
HETATM    5 CL   UNL     1     -10.680   8.592  66.602  1.00  0.00    -0.150 Cl 
HETATM    6  C   UNL     1      -8.346   7.588  67.626  1.00  0.00    -0.118 A  
HETATM    7  C   UNL     1      -6.936   7.540  67.652  1.00  0.00    -0.080 A  
HETATM    8  C   UNL     1      -6.171   8.354  66.818  1.00  0.00    -0.055 A  
ENDROOT
BRANCH   6   9
HETATM    9  C   UNL     1      -9.143   6.678  68.557  1.00  0.00    -0.128 C  
BRANCH   9  10
HETATM   10  C   UNL     1      -8.198   5.598  69.120  1.00  0.00    -0.100 C  
BRANCH  10  11
HETATM   11  N   UNL     1      -8.436   4.282  68.562  1.00  0.00    -0.091 NA 
HETATM   12  C   UNL     1      -7.600   3.576  67.741  1.00  0.00    -0.069 A  
HETATM   13  C   UNL     1      -9.514   3.485  68.839  1.00  0.00    -0.140 A  
HETATM   14  N   UNL     1      -9.431   2.336  68.212  1.00  0.00    -0.209 NA 
HETATM   15  C   UNL     1      -8.245   2.380  67.528  1.00  0.00    -0.071 A  
ENDBRANCH  10  11
ENDBRANCH   9  10
BRANCH   9  16
HETATM   16  O   UNL     1      -9.671   7.443  69.655  1.00  0.00    -0.163 OA 
BRANCH  16  17
HETATM   17  C   UNL     1     -10.928   6.953  70.139  1.00  0.00    -0.281 C  
BRANCH  17  18
HETATM   18  C   UNL     1     -11.671   8.038  70.858  1.00  0.00    -0.265 A  
HETATM   19  C   UNL     1     -12.513   7.799  71.925  1.00  0.00    -0.314 A  
HETATM   20  S   UNL     1     -13.231   9.209  72.537  1.00  0.00    -0.301 SA 
HETATM   21  C   UNL     1     -12.439  10.216  71.380  1.00  0.00    -0.423 A  
HETATM   22  C   UNL     1     -11.614   9.453  70.536  1.00  0.00    -0.291 A  
HETATM   23  C   UNL     1     -10.884  10.142  69.530  1.00  0.00    -0.289 A  
HETATM   24  C   UNL     1     -10.982  11.530  69.385  1.00  0.00    -0.233 A  
HETATM   25  C   UNL     1     -11.809  12.259  70.226  1.00  0.00    -0.324 A  
HETATM   26  C   UNL     1     -12.541  11.616  71.227  1.00  0.00    -0.320 A  
HETATM   27 CL   UNL     1     -13.556  12.573  72.246  1.00  0.00    -0.574 Cl 
ENDBRANCH  17  18
ENDBRANCH  16  17
ENDBRANCH   9  16
ENDBRANCH   6   9
TORSDOF 6
ENDMDL
MODEL      240
REMARK 921   NORMALIZED FREE ENERGY PREDICTED BY IDOCK:   -3.91 KCAL/MOL
REMARK 922        TOTAL FREE ENERGY PREDICTED BY IDOCK:   -6.32 KCAL/MOL
REMARK 923 INTER-LIGAND FREE ENERGY PREDICTED BY IDOCK:   -6.01 KCAL/MOL
REMARK 924 INTRA-LIGAND FREE ENERGY PREDICTED BY IDOCK:   -0.31 KCAL/MOL
REMARK 927      BINDING AFFINITY PREDICTED BY RF-SCORE:    0.00 PKD
ROOT
HETATM    1 CL   UNL     1      -8.912   1.518  66.871  1.00  0.00    -0.130 Cl 
HETATM    2  C   UNL     1      -9.166   3.035  67.641  1.00  0.00    -0.197 A  
HETATM    3  C   UNL     1      -9.045   4.215  66.911  1.00  0.00    -0.152 A  
HETATM    4  C   UNL     1      -9.256   5.448  67.536  1.00  0.00    -0.112 A  
HETATM    5 CL   UNL     1      -9.075   6.871  66.576  1.00  0.00    -0.168 Cl 
HETATM    6  C   UNL     1      -9.602   5.512  68.896  1.00  0.00    -0.178 A  
HETATM    7  C   UNL     1      -9.731   4.301  69.608  1.00  0.00    -0.284 A  
HETATM    8  C   UNL     1      -9.498   3.072  68.990  1.00  0.00    -0.172 A  
ENDROOT
BRANCH   6   9
HETATM    9  C   UNL     1      -9.868   6.833  69.613  1.00  0.00    -0.165 C  
BRANCH   9  10
HETATM   10  C   UNL     1      -8.526   7.565  69.814  1.00  0.00    -0.135 C  
BRANCH  10  11
HETATM   11  N   UNL     1      -8.145   7.686  71.207  1.00  0.00    -0.094 NA 
HETATM   12  C   UNL     1      -6.880   7.604  71.720  1.00  0.00    -0.061 A  
HETATM   13  C   UNL     1      -8.991   7.992  72.239  1.00  0.00    -0.171 A  
HETATM   14  N   UNL     1      -8.345   8.068  73.378  1.00  0.00    -0.199 NA 
HETATM   15  C   UNL     1      -7.031   7.830  73.068  1.00  0.00    -0.078 A  
ENDBRANCH  10  11
ENDBRANCH   9  10
BRANCH   9  16
HETATM   16  O   UNL     1     -10.726   7.662  68.809  1.00  0.00    -0.177 OA 
BRANCH  16  17
HETATM   17  C   UNL     1     -10.334   9.040  68.791  1.00  0.00    -0.215 C  
BRANCH  17  18
HETATM   18  C   UNL     1     -11.208   9.845  69.704  1.00  0.00    -0.251 A  
HETATM   19  C   UNL     1     -12.007   9.281  70.678  1.00  0.00    -0.152 A  
HETATM   20  S   UNL     1     -12.899  10.427  71.555  1.00  0.00    -0.496 SA 
HETATM   21  C   UNL     1     -12.250  11.748  70.653  1.00  0.00    -0.349 A  
HETATM   22  C   UNL     1     -11.338  11.292  69.687  1.00  0.00    -0.359 A  
HETATM   23  C   UNL     1     -10.708  12.265  68.864  1.00  0.00    -0.210 A  
HETATM   24  C   UNL     1     -10.986  13.628  69.011  1.00  0.00    -0.271 A  
HETATM   25  C   UNL     1     -11.897  14.051  69.967  1.00  0.00    -0.388 A  
HETATM   26  C   UNL     1     -12.535  13.124  70.794  1.00  0.00    -0.308 A  
HETATM   27 CL   UNL     1     -13.660  13.706  71.967  1.00  0.00    -0.543 Cl 
ENDBRANCH  17  18
ENDBRANCH  16  17
ENDBRANCH   9  16
ENDBRANCH   6   9
TORSDOF 6
ENDMDL
MODEL      241
REMARK 921   NORMALIZED FREE ENERGY PREDICTED BY IDOCK:   -3.90 KCAL/MOL
REMARK 922        TOTAL FREE ENERGY PREDICTED BY IDOCK:   -6.32 KCAL/MOL
REMARK 923 INTER-LIGAND FREE ENERGY PREDICTED BY IDOCK:   -5.49 KCAL/MOL
REMARK 924 INTRA-LIGAND FREE ENERGY PREDICTED BY IDOCK:   -0.83 KCAL/MOL
REMARK 927      BINDING AFFINITY PREDICTED BY RF-SCORE:    0.00 PKD
ROOT
HETATM    1 CL   UNL     1     -12.411  14.867  68.556  1.00  0.00    -0.052 Cl 
HETATM    2  C   UNL     1     -11.762  13.475  67.784  1.00  0.00    -0.359 A  
HETATM    3  C   UNL     1     -11.926  13.300  66.412  1.00  0.00    -0.465 A  
HETATM    4  C   UNL     1     -11.394  12.170  65.784  1.00  0.00    -0.354 A  
HETATM    5 CL   UNL     1     -11.647  12.009  64.083  1.00  0.00    -0.445 Cl 
HETATM    6  C   UNL     1     -10.682  11.209  66.520  1.00  0.00    -0.314 A  
HETATM    7  C   UNL     1     -10.519  11.418  67.905  1.00  0.00    -0.212 A  
HETATM    8  C   UNL     1     -11.069  12.533  68.536  1.00  0.00    -0.297 A  
ENDROOT
BRANCH   6   9
HETATM    9  C   UNL     1     -10.061   9.974  65.872  1.00  0.00    -0.249 C  
BRANCH   9  10
HETATM   10  C   UNL     1      -8.540  10.190  65.754  1.00  0.00    -0.149 C  
BRANCH  10  11
HETATM   11  N   UNL     1      -8.017   9.874  64.440  1.00  0.00    -0.139 NA 
HETATM   12  C   UNL     1      -6.714   9.956  64.035  1.00  0.00    -0.126 A  
HETATM   13  C   UNL     1      -8.741   9.353  63.401  1.00  0.00    -0.204 A  
HETATM   14  N   UNL     1      -7.984   9.139  62.352  1.00  0.00    -0.120 NA 
HETATM   15  C   UNL     1      -6.721   9.509  62.734  1.00  0.00    -0.099 A  
ENDBRANCH  10  11
ENDBRANCH   9  10
BRANCH   9  16
HETATM   16  O   UNL     1     -10.298   8.818  66.695  1.00  0.00    -0.279 OA 
BRANCH  16  17
HETATM   17  C   UNL     1      -9.109   8.299  67.305  1.00  0.00    -0.137 C  
BRANCH  17  18
HETATM   18  C   UNL     1      -9.322   6.881  67.743  1.00  0.00    -0.120 A  
HETATM   19  C   UNL     1      -9.769   6.538  69.003  1.00  0.00    -0.135 A  
HETATM   20  S   UNL     1      -9.907   4.863  69.229  1.00  0.00    -0.196 SA 
HETATM   21  C   UNL     1      -9.360   4.516  67.628  1.00  0.00    -0.147 A  
HETATM   22  C   UNL     1      -9.087   5.703  66.927  1.00  0.00    -0.116 A  
HETATM   23  C   UNL     1      -8.634   5.585  65.585  1.00  0.00    -0.148 A  
HETATM   24  C   UNL     1      -8.464   4.334  64.984  1.00  0.00    -0.117 A  
HETATM   25  C   UNL     1      -8.734   3.178  65.700  1.00  0.00    -0.126 A  
HETATM   26  C   UNL     1      -9.182   3.254  67.021  1.00  0.00    -0.180 A  
HETATM   27 CL   UNL     1      -9.502   1.783  67.867  1.00  0.00    -0.203 Cl 
ENDBRANCH  17  18
ENDBRANCH  16  17
ENDBRANCH   9  16
ENDBRANCH   6   9
TORSDOF 6
ENDMDL
MODEL      242
REMARK 921   NORMALIZED FREE ENERGY PREDICTED BY IDOCK:   -3.90 KCAL/MOL
REMARK 922        TOTAL FREE ENERGY PREDICTED BY IDOCK:   -6.31 KCAL/MOL
REMARK 923 INTER-LIGAND FREE ENERGY PREDICTED BY IDOCK:   -5.92 KCAL/MOL
REMARK 924 INTRA-LIGAND FREE ENERGY PREDICTED BY IDOCK:   -0.39 KCAL/MOL
REMARK 927      BINDING AFFINITY PREDICTED BY RF-SCORE:    0.00 PKD
ROOT
HETATM    1 CL   UNL     1      -9.034   3.788  66.500  1.00  0.00    -0.130 Cl 
HETATM    2  C   UNL     1      -9.444   5.374  67.023  1.00  0.00    -0.132 A  
HETATM    3  C   UNL     1      -8.455   6.221  67.518  1.00  0.00    -0.108 A  
HETATM    4  C   UNL     1      -8.788   7.512  67.940  1.00  0.00    -0.126 A  
HETATM    5 CL   UNL     1      -7.516   8.503  68.557  1.00  0.00    -0.092 Cl 
HETATM    6  C   UNL     1     -10.113   7.972  67.860  1.00  0.00    -0.243 A  
HETATM    7  C   UNL     1     -11.091   7.098  67.342  1.00  0.00    -0.208 A  
HETATM    8  C   UNL     1     -10.763   5.803  66.942  1.00  0.00    -0.381 A  
ENDROOT
BRANCH   6   9
HETATM    9  C   UNL     1     -10.517   9.382  68.283  1.00  0.00    -0.217 C  
BRANCH   9  10
HETATM   10  C   UNL     1      -9.964   9.651  69.697  1.00  0.00    -0.221 C  
BRANCH  10  11
HETATM   11  N   UNL     1     -10.673   8.930  70.734  1.00  0.00    -0.218 NA 
HETATM   12  C   UNL     1     -12.017   8.965  70.985  1.00  0.00    -0.261 A  
HETATM   13  C   UNL     1     -10.116   8.017  71.588  1.00  0.00    -0.184 A  
HETATM   14  N   UNL     1     -11.018   7.502  72.391  1.00  0.00    -0.263 NA 
HETATM   15  C   UNL     1     -12.204   8.084  72.024  1.00  0.00    -0.331 A  
ENDBRANCH  10  11
ENDBRANCH   9  10
BRANCH   9  16
HETATM   16  O   UNL     1      -9.951  10.346  67.378  1.00  0.00    -0.176 OA 
BRANCH  16  17
HETATM   17  C   UNL     1      -9.241  11.401  68.039  1.00  0.00    -0.171 C  
BRANCH  17  18
HETATM   18  C   UNL     1      -9.874  12.727  67.740  1.00  0.00    -0.220 A  
HETATM   19  C   UNL     1     -11.067  12.858  67.057  1.00  0.00    -0.275 A  
HETATM   20  S   UNL     1     -11.542  14.473  66.849  1.00  0.00    -0.377 SA 
HETATM   21  C   UNL     1     -10.149  15.077  67.672  1.00  0.00    -0.231 A  
HETATM   22  C   UNL     1      -9.332  14.022  68.112  1.00  0.00    -0.201 A  
HETATM   23  C   UNL     1      -8.145  14.357  68.817  1.00  0.00    -0.127 A  
HETATM   24  C   UNL     1      -7.801  15.691  69.064  1.00  0.00    -0.204 A  
HETATM   25  C   UNL     1      -8.621  16.714  68.613  1.00  0.00    -0.253 A  
HETATM   26  C   UNL     1      -9.796  16.422  67.917  1.00  0.00    -0.238 A  
HETATM   27 CL   UNL     1     -10.779  17.735  67.376  1.00  0.00    -0.332 Cl 
ENDBRANCH  17  18
ENDBRANCH  16  17
ENDBRANCH   9  16
ENDBRANCH   6   9
TORSDOF 6
ENDMDL
MODEL      243
REMARK 921   NORMALIZED FREE ENERGY PREDICTED BY IDOCK:   -3.89 KCAL/MOL
REMARK 922        TOTAL FREE ENERGY PREDICTED BY IDOCK:   -6.30 KCAL/MOL
REMARK 923 INTER-LIGAND FREE ENERGY PREDICTED BY IDOCK:   -5.56 KCAL/MOL
REMARK 924 INTRA-LIGAND FREE ENERGY PREDICTED BY IDOCK:   -0.74 KCAL/MOL
REMARK 927      BINDING AFFINITY PREDICTED BY RF-SCORE:    0.00 PKD
ROOT
HETATM    1 CL   UNL     1      -5.959   6.584  72.707  1.00  0.00    -0.042 Cl 
HETATM    2  C   UNL     1      -7.110   7.478  71.795  1.00  0.00    -0.063 A  
HETATM    3  C   UNL     1      -8.459   7.434  72.142  1.00  0.00    -0.124 A  
HETATM    4  C   UNL     1      -9.394   8.165  71.403  1.00  0.00    -0.155 A  
HETATM    5 CL   UNL     1     -11.050   8.053  71.878  1.00  0.00    -0.310 Cl 
HETATM    6  C   UNL     1      -8.988   8.956  70.316  1.00  0.00    -0.201 A  
HETATM    7  C   UNL     1      -7.615   8.993  69.995  1.00  0.00    -0.072 A  
HETATM    8  C   UNL     1      -6.684   8.247  70.718  1.00  0.00    -0.038 A  
ENDROOT
BRANCH   6   9
HETATM    9  C   UNL     1      -9.969   9.791  69.498  1.00  0.00    -0.214 C  
BRANCH   9  10
HETATM   10  C   UNL     1     -10.832   8.842  68.643  1.00  0.00     0.009 C  
BRANCH  10  11
HETATM   11  N   UNL     1     -10.080   8.161  67.609  1.00  0.00    -0.192 NA 
HETATM   12  C   UNL     1      -9.416   8.740  66.563  1.00  0.00    -0.219 A  
HETATM   13  C   UNL     1      -9.837   6.815  67.559  1.00  0.00    -0.132 A  
HETATM   14  N   UNL     1      -9.094   6.503  66.524  1.00  0.00    -0.148 NA 
HETATM   15  C   UNL     1      -8.825   7.692  65.898  1.00  0.00    -0.130 A  
ENDBRANCH  10  11
ENDBRANCH   9  10
BRANCH   9  16
HETATM   16  O   UNL     1     -10.835  10.530  70.378  1.00  0.00    -0.263 OA 
BRANCH  16  17
HETATM   17  C   UNL     1     -12.015  11.027  69.733  1.00  0.00    -0.356 C  
BRANCH  17  18
HETATM   18  C   UNL     1     -11.866  12.485  69.421  1.00  0.00    -0.368 A  
HETATM   19  C   UNL     1     -12.090  13.484  70.347  1.00  0.00    -0.345 A  
HETATM   20  S   UNL     1     -11.860  15.042  69.716  1.00  0.00    -0.341 SA 
HETATM   21  C   UNL     1     -11.450  14.440  68.151  1.00  0.00    -0.310 A  
HETATM   22  C   UNL     1     -11.483  13.035  68.132  1.00  0.00    -0.356 A  
HETATM   23  C   UNL     1     -11.158  12.385  66.911  1.00  0.00    -0.335 A  
HETATM   24  C   UNL     1     -10.820  13.116  65.768  1.00  0.00    -0.289 A  
HETATM   25  C   UNL     1     -10.802  14.502  65.810  1.00  0.00    -0.317 A  
HETATM   26  C   UNL     1     -11.114  15.176  66.993  1.00  0.00    -0.328 A  
HETATM   27 CL   UNL     1     -11.078  16.902  66.990  1.00  0.00     0.076 Cl 
ENDBRANCH  17  18
ENDBRANCH  16  17
ENDBRANCH   9  16
ENDBRANCH   6   9
TORSDOF 6
ENDMDL
MODEL      244
REMARK 921   NORMALIZED FREE ENERGY PREDICTED BY IDOCK:   -3.88 KCAL/MOL
REMARK 922        TOTAL FREE ENERGY PREDICTED BY IDOCK:   -6.29 KCAL/MOL
REMARK 923 INTER-LIGAND FREE ENERGY PREDICTED BY IDOCK:   -5.11 KCAL/MOL
REMARK 924 INTRA-LIGAND FREE ENERGY PREDICTED BY IDOCK:   -1.18 KCAL/MOL
REMARK 927      BINDING AFFINITY PREDICTED BY RF-SCORE:    0.00 PKD
ROOT
HETATM    1 CL   UNL     1      -5.149  10.560  67.666  1.00  0.00    -0.037 Cl 
HETATM    2  C   UNL     1      -6.450   9.914  68.587  1.00  0.00    -0.046 A  
HETATM    3  C   UNL     1      -7.018   8.694  68.228  1.00  0.00    -0.073 A  
HETATM    4  C   UNL     1      -8.073   8.167  68.979  1.00  0.00    -0.115 A  
HETATM    5 CL   UNL     1      -8.739   6.658  68.470  1.00  0.00    -0.124 Cl 
HETATM    6  C   UNL     1      -8.563   8.850  70.104  1.00  0.00    -0.161 A  
HETATM    7  C   UNL     1      -7.961  10.077  70.452  1.00  0.00     0.086 A  
HETATM    8  C   UNL     1      -6.924  10.614  69.690  1.00  0.00    -0.134 A  
ENDROOT
BRANCH   6   9
HETATM    9  C   UNL     1      -9.695   8.300  70.968  1.00  0.00    -0.163 C  
BRANCH   9  10
HETATM   10  C   UNL     1      -9.196   8.189  72.423  1.00  0.00    -0.226 C  
BRANCH  10  11
HETATM   11  N   UNL     1      -9.267   6.841  72.950  1.00  0.00    -0.135 NA 
HETATM   12  C   UNL     1     -10.297   5.954  72.794  1.00  0.00    -0.196 A  
HETATM   13  C   UNL     1      -8.266   6.199  73.626  1.00  0.00    -0.114 A  
HETATM   14  N   UNL     1      -8.613   4.974  73.942  1.00  0.00    -0.106 NA 
HETATM   15  C   UNL     1      -9.874   4.810  73.429  1.00  0.00    -0.141 A  
ENDBRANCH  10  11
ENDBRANCH   9  10
BRANCH   9  16
HETATM   16  O   UNL     1     -10.817   9.200  70.936  1.00  0.00    -0.234 OA 
BRANCH  16  17
HETATM   17  C   UNL     1     -11.570   9.129  69.719  1.00  0.00     0.235 C  
BRANCH  17  18
HETATM   18  C   UNL     1     -11.437  10.407  68.945  1.00  0.00    -0.251 A  
HETATM   19  C   UNL     1     -10.954  10.462  67.653  1.00  0.00    -0.312 A  
HETATM   20  S   UNL     1     -10.900  12.038  67.028  1.00  0.00    -0.267 SA 
HETATM   21  C   UNL     1     -11.524  12.727  68.483  1.00  0.00    -0.309 A  
HETATM   22  C   UNL     1     -11.781  11.729  69.438  1.00  0.00    -0.405 A  
HETATM   23  C   UNL     1     -12.308  12.138  70.693  1.00  0.00    -0.385 A  
HETATM   24  C   UNL     1     -12.562  13.485  70.968  1.00  0.00    -0.438 A  
HETATM   25  C   UNL     1     -12.293  14.452  70.011  1.00  0.00    -0.391 A  
HETATM   26  C   UNL     1     -11.775  14.088  68.766  1.00  0.00    -0.353 A  
HETATM   27 CL   UNL     1     -11.457  15.332  67.612  1.00  0.00    -0.319 Cl 
ENDBRANCH  17  18
ENDBRANCH  16  17
ENDBRANCH   9  16
ENDBRANCH   6   9
TORSDOF 6
ENDMDL
MODEL      245
REMARK 921   NORMALIZED FREE ENERGY PREDICTED BY IDOCK:   -3.88 KCAL/MOL
REMARK 922        TOTAL FREE ENERGY PREDICTED BY IDOCK:   -6.28 KCAL/MOL
REMARK 923 INTER-LIGAND FREE ENERGY PREDICTED BY IDOCK:   -5.47 KCAL/MOL
REMARK 924 INTRA-LIGAND FREE ENERGY PREDICTED BY IDOCK:   -0.82 KCAL/MOL
REMARK 927      BINDING AFFINITY PREDICTED BY RF-SCORE:    0.00 PKD
ROOT
HETATM    1 CL   UNL     1     -12.585   6.516  72.306  1.00  0.00    -0.157 Cl 
HETATM    2  C   UNL     1     -11.306   7.382  71.550  1.00  0.00    -0.256 A  
HETATM    3  C   UNL     1     -11.437   7.803  70.228  1.00  0.00    -0.117 A  
HETATM    4  C   UNL     1     -10.398   8.511  69.616  1.00  0.00    -0.218 A  
HETATM    5 CL   UNL     1     -10.620   8.989  67.972  1.00  0.00    -0.269 Cl 
HETATM    6  C   UNL     1      -9.223   8.814  70.322  1.00  0.00    -0.191 A  
HETATM    7  C   UNL     1      -9.123   8.387  71.663  1.00  0.00    -0.268 A  
HETATM    8  C   UNL     1     -10.149   7.662  72.268  1.00  0.00    -0.260 A  
ENDROOT
BRANCH   6   9
HETATM    9  C   UNL     1      -8.076   9.607  69.702  1.00  0.00    -0.141 C  
BRANCH   9  10
HETATM   10  C   UNL     1      -7.609   8.884  68.423  1.00  0.00    -0.091 C  
BRANCH  10  11
HETATM   11  N   UNL     1      -7.002   7.594  68.685  1.00  0.00    -0.072 NA 
HETATM   12  C   UNL     1      -7.326   6.403  68.097  1.00  0.00    -0.089 A  
HETATM   13  C   UNL     1      -5.934   7.372  69.510  1.00  0.00    -0.027 A  
HETATM   14  N   UNL     1      -5.587   6.107  69.512  1.00  0.00    -0.012 NA 
HETATM   15  C   UNL     1      -6.445   5.495  68.636  1.00  0.00    -0.043 A  
ENDBRANCH  10  11
ENDBRANCH   9  10
BRANCH   9  16
HETATM   16  O   UNL     1      -8.529  10.925  69.344  1.00  0.00    -0.061 OA 
BRANCH  16  17
HETATM   17  C   UNL     1      -7.987  11.397  68.104  1.00  0.00    -0.133 C  
BRANCH  17  18
HETATM   18  C   UNL     1      -9.073  11.968  67.242  1.00  0.00    -0.178 A  
HETATM   19  C   UNL     1      -9.951  12.940  67.677  1.00  0.00    -0.218 A  
HETATM   20  S   UNL     1     -11.084  13.391  66.498  1.00  0.00    -0.302 SA 
HETATM   21  C   UNL     1     -10.443  12.285  65.337  1.00  0.00    -0.269 A  
HETATM   22  C   UNL     1      -9.348  11.583  65.869  1.00  0.00    -0.242 A  
HETATM   23  C   UNL     1      -8.701  10.636  65.029  1.00  0.00    -0.186 A  
HETATM   24  C   UNL     1      -9.140  10.410  63.720  1.00  0.00    -0.273 A  
HETATM   25  C   UNL     1     -10.228  11.111  63.222  1.00  0.00    -0.403 A  
HETATM   26  C   UNL     1     -10.887  12.050  64.018  1.00  0.00    -0.378 A  
HETATM   27 CL   UNL     1     -12.237  12.893  63.347  1.00  0.00    -0.613 Cl 
ENDBRANCH  17  18
ENDBRANCH  16  17
ENDBRANCH   9  16
ENDBRANCH   6   9
TORSDOF 6
ENDMDL
MODEL      246
REMARK 921   NORMALIZED FREE ENERGY PREDICTED BY IDOCK:   -3.87 KCAL/MOL
REMARK 922        TOTAL FREE ENERGY PREDICTED BY IDOCK:   -6.27 KCAL/MOL
REMARK 923 INTER-LIGAND FREE ENERGY PREDICTED BY IDOCK:   -5.54 KCAL/MOL
REMARK 924 INTRA-LIGAND FREE ENERGY PREDICTED BY IDOCK:   -0.74 KCAL/MOL
REMARK 927      BINDING AFFINITY PREDICTED BY RF-SCORE:    0.00 PKD
ROOT
HETATM    1 CL   UNL     1      -5.676   9.622  64.466  1.00  0.00    -0.075 Cl 
HETATM    2  C   UNL     1      -6.529   8.897  65.771  1.00  0.00    -0.060 A  
HETATM    3  C   UNL     1      -7.881   8.591  65.634  1.00  0.00    -0.102 A  
HETATM    4  C   UNL     1      -8.573   7.998  66.694  1.00  0.00    -0.136 A  
HETATM    5 CL   UNL     1     -10.250   7.659  66.462  1.00  0.00    -0.248 Cl 
HETATM    6  C   UNL     1      -7.918   7.695  67.899  1.00  0.00    -0.118 A  
HETATM    7  C   UNL     1      -6.545   8.004  68.005  1.00  0.00    -0.057 A  
HETATM    8  C   UNL     1      -5.859   8.616  66.957  1.00  0.00    -0.042 A  
ENDROOT
BRANCH   6   9
HETATM    9  C   UNL     1      -8.627   7.024  69.072  1.00  0.00    -0.129 C  
BRANCH   9  10
HETATM   10  C   UNL     1      -7.564   6.521  70.069  1.00  0.00    -0.100 C  
BRANCH  10  11
HETATM   11  N   UNL     1      -7.603   7.211  71.343  1.00  0.00    -0.087 NA 
HETATM   12  C   UNL     1      -8.142   6.746  72.510  1.00  0.00    -0.104 A  
HETATM   13  C   UNL     1      -7.023   8.422  71.608  1.00  0.00    -0.086 A  
HETATM   14  N   UNL     1      -7.196   8.770  72.862  1.00  0.00    -0.346 NA 
HETATM   15  C   UNL     1      -7.890   7.735  73.433  1.00  0.00    -0.142 A  
ENDBRANCH  10  11
ENDBRANCH   9  10
BRANCH   9  16
HETATM   16  O   UNL     1      -9.471   7.976  69.743  1.00  0.00    -0.159 OA 
BRANCH  16  17
HETATM   17  C   UNL     1     -10.847   7.579  69.798  1.00  0.00    -0.225 C  
BRANCH  17  18
HETATM   18  C   UNL     1     -11.659   8.606  70.529  1.00  0.00    -0.158 A  
HETATM   19  C   UNL     1     -12.525   8.293  71.557  1.00  0.00    -0.312 A  
HETATM   20  S   UNL     1     -13.323   9.648  72.193  1.00  0.00    -0.411 SA 
HETATM   21  C   UNL     1     -12.537  10.729  71.100  1.00  0.00    -0.428 A  
HETATM   22  C   UNL     1     -11.653  10.033  70.259  1.00  0.00    -0.354 A  
HETATM   23  C   UNL     1     -10.920  10.788  69.304  1.00  0.00    -0.292 A  
HETATM   24  C   UNL     1     -11.073  12.175  69.204  1.00  0.00    -0.263 A  
HETATM   25  C   UNL     1     -11.957  12.837  70.042  1.00  0.00    -0.371 A  
HETATM   26  C   UNL     1     -12.694  12.128  70.993  1.00  0.00    -0.228 A  
HETATM   27 CL   UNL     1     -13.782  13.004  72.009  1.00  0.00    -0.503 Cl 
ENDBRANCH  17  18
ENDBRANCH  16  17
ENDBRANCH   9  16
ENDBRANCH   6   9
TORSDOF 6
ENDMDL
MODEL      247
REMARK 921   NORMALIZED FREE ENERGY PREDICTED BY IDOCK:   -3.84 KCAL/MOL
REMARK 922        TOTAL FREE ENERGY PREDICTED BY IDOCK:   -6.23 KCAL/MOL
REMARK 923 INTER-LIGAND FREE ENERGY PREDICTED BY IDOCK:   -6.32 KCAL/MOL
REMARK 924 INTRA-LIGAND FREE ENERGY PREDICTED BY IDOCK:    0.09 KCAL/MOL
REMARK 927      BINDING AFFINITY PREDICTED BY RF-SCORE:    0.00 PKD
ROOT
HETATM    1 CL   UNL     1      -5.132  11.575  71.450  1.00  0.00    -0.094 Cl 
HETATM    2  C   UNL     1      -6.269  11.436  70.168  1.00  0.00    -0.138 A  
HETATM    3  C   UNL     1      -7.191  10.392  70.164  1.00  0.00    -0.093 A  
HETATM    4  C   UNL     1      -8.118  10.282  69.124  1.00  0.00    -0.138 A  
HETATM    5 CL   UNL     1      -9.222   8.955  69.175  1.00  0.00    -0.144 Cl 
HETATM    6  C   UNL     1      -8.140  11.223  68.081  1.00  0.00    -0.134 A  
HETATM    7  C   UNL     1      -7.205  12.278  68.117  1.00  0.00    -0.101 A  
HETATM    8  C   UNL     1      -6.265  12.375  69.143  1.00  0.00    -0.090 A  
ENDROOT
BRANCH   6   9
HETATM    9  C   UNL     1      -9.151  11.158  66.940  1.00  0.00    -0.159 C  
BRANCH   9  10
HETATM   10  C   UNL     1      -9.512   9.682  66.682  1.00  0.00    -0.170 C  
BRANCH  10  11
HETATM   11  N   UNL     1      -8.789   9.103  65.567  1.00  0.00    -0.179 NA 
HETATM   12  C   UNL     1      -8.152   7.894  65.543  1.00  0.00    -0.130 A  
HETATM   13  C   UNL     1      -8.700   9.643  64.312  1.00  0.00    -0.206 A  
HETATM   14  N   UNL     1      -8.010   8.869  63.508  1.00  0.00    -0.150 NA 
HETATM   15  C   UNL     1      -7.666   7.778  64.261  1.00  0.00    -0.124 A  
ENDBRANCH  10  11
ENDBRANCH   9  10
BRANCH   9  16
HETATM   16  O   UNL     1     -10.350  11.865  67.307  1.00  0.00    -0.202 OA 
BRANCH  16  17
HETATM   17  C   UNL     1     -11.391  11.008  67.794  1.00  0.00    -0.292 C  
BRANCH  17  18
HETATM   18  C   UNL     1     -11.885  11.489  69.125  1.00  0.00    -0.406 A  
HETATM   19  C   UNL     1     -12.336  10.641  70.116  1.00  0.00    -0.295 A  
HETATM   20  S   UNL     1     -12.846  11.458  71.512  1.00  0.00    -0.333 SA 
HETATM   21  C   UNL     1     -12.485  13.007  70.840  1.00  0.00    -0.310 A  
HETATM   22  C   UNL     1     -11.961  12.878  69.543  1.00  0.00    -0.346 A  
HETATM   23  C   UNL     1     -11.603  14.070  68.855  1.00  0.00    -0.351 A  
HETATM   24  C   UNL     1     -11.769  15.326  69.448  1.00  0.00    -0.361 A  
HETATM   25  C   UNL     1     -12.296  15.426  70.726  1.00  0.00    -0.447 A  
HETATM   26  C   UNL     1     -12.658  14.277  71.433  1.00  0.00    -0.360 A  
HETATM   27 CL   UNL     1     -13.310  14.460  73.022  1.00  0.00    -0.570 Cl 
ENDBRANCH  17  18
ENDBRANCH  16  17
ENDBRANCH   9  16
ENDBRANCH   6   9
TORSDOF 6
ENDMDL
MODEL      248
REMARK 921   NORMALIZED FREE ENERGY PREDICTED BY IDOCK:   -3.81 KCAL/MOL
REMARK 922        TOTAL FREE ENERGY PREDICTED BY IDOCK:   -6.19 KCAL/MOL
REMARK 923 INTER-LIGAND FREE ENERGY PREDICTED BY IDOCK:   -5.54 KCAL/MOL
REMARK 924 INTRA-LIGAND FREE ENERGY PREDICTED BY IDOCK:   -0.64 KCAL/MOL
REMARK 927      BINDING AFFINITY PREDICTED BY RF-SCORE:    0.00 PKD
ROOT
HETATM    1 CL   UNL     1      -9.247   1.618  67.208  1.00  0.00    -0.133 Cl 
HETATM    2  C   UNL     1      -9.098   3.329  67.133  1.00  0.00    -0.176 A  
HETATM    3  C   UNL     1      -8.483   3.927  66.035  1.00  0.00    -0.110 A  
HETATM    4  C   UNL     1      -8.366   5.319  65.973  1.00  0.00    -0.118 A  
HETATM    5 CL   UNL     1      -7.579   5.992  64.591  1.00  0.00    -0.084 Cl 
HETATM    6  C   UNL     1      -8.873   6.128  67.003  1.00  0.00    -0.110 A  
HETATM    7  C   UNL     1      -9.504   5.497  68.095  1.00  0.00    -0.133 A  
HETATM    8  C   UNL     1      -9.601   4.108  68.169  1.00  0.00    -0.195 A  
ENDROOT
BRANCH   6   9
HETATM    9  C   UNL     1      -8.792   7.651  66.964  1.00  0.00    -0.128 C  
BRANCH   9  10
HETATM   10  C   UNL     1      -7.334   8.076  67.230  1.00  0.00    -0.089 C  
BRANCH  10  11
HETATM   11  N   UNL     1      -7.204   9.026  68.316  1.00  0.00    -0.078 NA 
HETATM   12  C   UNL     1      -6.635  10.267  68.255  1.00  0.00    -0.057 A  
HETATM   13  C   UNL     1      -7.715   8.866  69.576  1.00  0.00    -0.088 A  
HETATM   14  N   UNL     1      -7.468   9.914  70.327  1.00  0.00    -0.167 NA 
HETATM   15  C   UNL     1      -6.799  10.792  69.516  1.00  0.00    -0.116 A  
ENDBRANCH  10  11
ENDBRANCH   9  10
BRANCH   9  16
HETATM   16  O   UNL     1      -9.178   8.129  65.663  1.00  0.00    -0.108 OA 
BRANCH  16  17
HETATM   17  C   UNL     1      -8.561   9.372  65.305  1.00  0.00    -0.162 C  
BRANCH  17  18
HETATM   18  C   UNL     1      -9.603  10.405  64.997  1.00  0.00    -0.339 A  
HETATM   19  C   UNL     1      -9.993  10.727  63.712  1.00  0.00    -0.351 A  
HETATM   20  S   UNL     1     -11.180  11.938  63.659  1.00  0.00    -0.443 SA 
HETATM   21  C   UNL     1     -11.222  12.091  65.378  1.00  0.00    -0.322 A  
HETATM   22  C   UNL     1     -10.323  11.193  65.981  1.00  0.00    -0.308 A  
HETATM   23  C   UNL     1     -10.247  11.192  67.401  1.00  0.00    -0.221 A  
HETATM   24  C   UNL     1     -11.036  12.053  68.170  1.00  0.00    -0.294 A  
HETATM   25  C   UNL     1     -11.909  12.934  67.550  1.00  0.00    -0.407 A  
HETATM   26  C   UNL     1     -12.012  12.963  66.158  1.00  0.00    -0.429 A  
HETATM   27 CL   UNL     1     -13.114  14.081  65.438  1.00  0.00    -0.377 Cl 
ENDBRANCH  17  18
ENDBRANCH  16  17
ENDBRANCH   9  16
ENDBRANCH   6   9
TORSDOF 6
ENDMDL
MODEL      249
REMARK 921   NORMALIZED FREE ENERGY PREDICTED BY IDOCK:   -3.80 KCAL/MOL
REMARK 922        TOTAL FREE ENERGY PREDICTED BY IDOCK:   -6.18 KCAL/MOL
REMARK 923 INTER-LIGAND FREE ENERGY PREDICTED BY IDOCK:   -5.29 KCAL/MOL
REMARK 924 INTRA-LIGAND FREE ENERGY PREDICTED BY IDOCK:   -0.89 KCAL/MOL
REMARK 927      BINDING AFFINITY PREDICTED BY RF-SCORE:    0.00 PKD
ROOT
HETATM    1 CL   UNL     1      -6.288   7.283  64.440  1.00  0.00    -0.040 Cl 
HETATM    2  C   UNL     1      -7.393   7.610  65.716  1.00  0.00    -0.070 A  
HETATM    3  C   UNL     1      -8.589   6.901  65.799  1.00  0.00    -0.139 A  
HETATM    4  C   UNL     1      -9.486   7.165  66.839  1.00  0.00    -0.159 A  
HETATM    5 CL   UNL     1     -10.956   6.260  66.874  1.00  0.00    -0.437 Cl 
HETATM    6  C   UNL     1      -9.190   8.132  67.813  1.00  0.00    -0.143 A  
HETATM    7  C   UNL     1      -7.965   8.825  67.712  1.00  0.00    -0.106 A  
HETATM    8  C   UNL     1      -7.081   8.579  66.662  1.00  0.00    -0.077 A  
ENDROOT
BRANCH   6   9
HETATM    9  C   UNL     1     -10.126   8.434  68.980  1.00  0.00    -0.203 C  
BRANCH   9  10
HETATM   10  C   UNL     1      -9.281   8.898  70.184  1.00  0.00    -0.180 C  
BRANCH  10  11
HETATM   11  N   UNL     1      -9.667   8.267  71.430  1.00  0.00    -0.171 NA 
HETATM   12  C   UNL     1     -10.870   8.385  72.069  1.00  0.00    -0.320 A  
HETATM   13  C   UNL     1      -8.910   7.371  72.134  1.00  0.00    -0.124 A  
HETATM   14  N   UNL     1      -9.544   6.945  73.201  1.00  0.00    -0.150 NA 
HETATM   15  C   UNL     1     -10.764   7.568  73.170  1.00  0.00    -0.398 A  
ENDBRANCH  10  11
ENDBRANCH   9  10
BRANCH   9  16
HETATM   16  O   UNL     1     -11.031   9.492  68.620  1.00  0.00    -0.174 OA 
BRANCH  16  17
HETATM   17  C   UNL     1     -11.031  10.584  69.549  1.00  0.00    -0.264 C  
BRANCH  17  18
HETATM   18  C   UNL     1     -10.835  11.884  68.829  1.00  0.00    -0.270 A  
HETATM   19  C   UNL     1     -11.872  12.738  68.513  1.00  0.00    -0.306 A  
HETATM   20  S   UNL     1     -11.362  14.129  67.687  1.00  0.00    -0.338 SA 
HETATM   21  C   UNL     1      -9.706  13.641  67.713  1.00  0.00    -0.225 A  
HETATM   22  C   UNL     1      -9.560  12.408  68.372  1.00  0.00    -0.180 A  
HETATM   23  C   UNL     1      -8.248  11.873  68.484  1.00  0.00    -0.126 A  
HETATM   24  C   UNL     1      -7.142  12.548  67.956  1.00  0.00    -0.103 A  
HETATM   25  C   UNL     1      -7.315  13.760  67.304  1.00  0.00    -0.020 A  
HETATM   26  C   UNL     1      -8.589  14.317  67.175  1.00  0.00    -0.216 A  
HETATM   27 CL   UNL     1      -8.746  15.827  66.353  1.00  0.00    -0.352 Cl 
ENDBRANCH  17  18
ENDBRANCH  16  17
ENDBRANCH   9  16
ENDBRANCH   6   9
TORSDOF 6
ENDMDL
MODEL      250
REMARK 921   NORMALIZED FREE ENERGY PREDICTED BY IDOCK:   -3.80 KCAL/MOL
REMARK 922        TOTAL FREE ENERGY PREDICTED BY IDOCK:   -6.17 KCAL/MOL
REMARK 923 INTER-LIGAND FREE ENERGY PREDICTED BY IDOCK:   -4.58 KCAL/MOL
REMARK 924 INTRA-LIGAND FREE ENERGY PREDICTED BY IDOCK:   -1.59 KCAL/MOL
REMARK 927      BINDING AFFINITY PREDICTED BY RF-SCORE:    0.00 PKD
ROOT
HETATM    1 CL   UNL     1      -5.527  10.181  70.419  1.00  0.00    -0.048 Cl 
HETATM    2  C   UNL     1      -6.853   9.094  70.285  1.00  0.00    -0.055 A  
HETATM    3  C   UNL     1      -6.629   7.762  69.944  1.00  0.00    -0.037 A  
HETATM    4  C   UNL     1      -7.708   6.878  69.840  1.00  0.00    -0.109 A  
HETATM    5 CL   UNL     1      -7.361   5.245  69.400  1.00  0.00    -0.060 Cl 
HETATM    6  C   UNL     1      -9.019   7.315  70.086  1.00  0.00    -0.148 A  
HETATM    7  C   UNL     1      -9.215   8.666  70.443  1.00  0.00    -0.189 A  
HETATM    8  C   UNL     1      -8.143   9.553  70.525  1.00  0.00    -0.199 A  
ENDROOT
BRANCH   6   9
HETATM    9  C   UNL     1     -10.223   6.379  70.011  1.00  0.00    -0.180 C  
BRANCH   9  10
HETATM   10  C   UNL     1     -10.972   6.428  71.357  1.00  0.00    -0.267 C  
BRANCH  10  11
HETATM   11  N   UNL     1     -10.208   5.874  72.456  1.00  0.00    -0.183 NA 
HETATM   12  C   UNL     1     -10.019   6.436  73.688  1.00  0.00    -0.217 A  
HETATM   13  C   UNL     1      -9.614   4.640  72.469  1.00  0.00    -0.139 A  
HETATM   14  N   UNL     1      -9.027   4.405  73.619  1.00  0.00    -0.100 NA 
HETATM   15  C   UNL     1      -9.274   5.514  74.385  1.00  0.00    -0.124 A  
ENDBRANCH  10  11
ENDBRANCH   9  10
BRANCH   9  16
HETATM   16  O   UNL     1     -11.118   6.817  68.972  1.00  0.00    -0.240 OA 
BRANCH  16  17
HETATM   17  C   UNL     1     -11.001   6.058  67.762  1.00  0.00    -0.234 C  
BRANCH  17  18
HETATM   18  C   UNL     1      -9.943   6.644  66.876  1.00  0.00    -0.238 A  
HETATM   19  C   UNL     1      -9.003   5.881  66.214  1.00  0.00    -0.148 A  
HETATM   20  S   UNL     1      -7.921   6.807  65.293  1.00  0.00    -0.130 SA 
HETATM   21  C   UNL     1      -8.671   8.293  65.751  1.00  0.00    -0.166 A  
HETATM   22  C   UNL     1      -9.762   8.059  66.605  1.00  0.00    -0.313 A  
HETATM   23  C   UNL     1     -10.492   9.188  67.065  1.00  0.00    -0.311 A  
HETATM   24  C   UNL     1     -10.138  10.486  66.683  1.00  0.00    -0.275 A  
HETATM   25  C   UNL     1      -9.052  10.691  65.845  1.00  0.00    -0.201 A  
HETATM   26  C   UNL     1      -8.311   9.605  65.372  1.00  0.00    -0.141 A  
HETATM   27 CL   UNL     1      -6.968   9.917  64.332  1.00  0.00    -0.124 Cl 
ENDBRANCH  17  18
ENDBRANCH  16  17
ENDBRANCH   9  16
ENDBRANCH   6   9
TORSDOF 6
ENDMDL
MODEL      251
REMARK 921   NORMALIZED FREE ENERGY PREDICTED BY IDOCK:   -3.78 KCAL/MOL
REMARK 922        TOTAL FREE ENERGY PREDICTED BY IDOCK:   -6.15 KCAL/MOL
REMARK 923 INTER-LIGAND FREE ENERGY PREDICTED BY IDOCK:   -5.59 KCAL/MOL
REMARK 924 INTRA-LIGAND FREE ENERGY PREDICTED BY IDOCK:   -0.56 KCAL/MOL
REMARK 927      BINDING AFFINITY PREDICTED BY RF-SCORE:    0.00 PKD
ROOT
HETATM    1 CL   UNL     1      -9.636   3.432  70.200  1.00  0.00    -0.243 Cl 
HETATM    2  C   UNL     1      -9.653   5.101  69.785  1.00  0.00    -0.175 A  
HETATM    3  C   UNL     1      -9.853   5.486  68.461  1.00  0.00    -0.193 A  
HETATM    4  C   UNL     1      -9.871   6.844  68.125  1.00  0.00    -0.136 A  
HETATM    5 CL   UNL     1     -10.109   7.251  66.464  1.00  0.00    -0.220 Cl 
HETATM    6  C   UNL     1      -9.701   7.829  69.111  1.00  0.00    -0.161 A  
HETATM    7  C   UNL     1      -9.514   7.410  70.445  1.00  0.00    -0.165 A  
HETATM    8  C   UNL     1      -9.473   6.056  70.778  1.00  0.00    -0.189 A  
ENDROOT
BRANCH   6   9
HETATM    9  C   UNL     1      -9.740   9.321  68.795  1.00  0.00    -0.157 C  
BRANCH   9  10
HETATM   10  C   UNL     1      -8.480   9.689  67.986  1.00  0.00    -0.118 C  
BRANCH  10  11
HETATM   11  N   UNL     1      -7.311   9.901  68.814  1.00  0.00    -0.076 NA 
HETATM   12  C   UNL     1      -7.161  10.844  69.793  1.00  0.00    -0.088 A  
HETATM   13  C   UNL     1      -6.183   9.125  68.810  1.00  0.00    -0.044 A  
HETATM   14  N   UNL     1      -5.313   9.544  69.698  1.00  0.00    -0.034 NA 
HETATM   15  C   UNL     1      -5.910  10.612  70.316  1.00  0.00    -0.096 A  
ENDBRANCH  10  11
ENDBRANCH   9  10
BRANCH   9  16
HETATM   16  O   UNL     1     -10.900   9.622  67.998  1.00  0.00    -0.242 OA 
BRANCH  16  17
HETATM   17  C   UNL     1     -11.532  10.858  68.355  1.00  0.00    -0.304 C  
BRANCH  17  18
HETATM   18  C   UNL     1     -11.323  11.882  67.280  1.00  0.00    -0.393 A  
HETATM   19  C   UNL     1     -11.125  11.557  65.954  1.00  0.00    -0.214 A  
HETATM   20  S   UNL     1     -10.903  12.914  64.960  1.00  0.00    -0.313 SA 
HETATM   21  C   UNL     1     -11.060  14.013  66.282  1.00  0.00    -0.307 A  
HETATM   22  C   UNL     1     -11.295  13.320  67.482  1.00  0.00    -0.329 A  
HETATM   23  C   UNL     1     -11.457  14.089  68.666  1.00  0.00    -0.337 A  
HETATM   24  C   UNL     1     -11.383  15.486  68.640  1.00  0.00    -0.348 A  
HETATM   25  C   UNL     1     -11.143  16.145  67.444  1.00  0.00    -0.134 A  
HETATM   26  C   UNL     1     -10.980  15.423  66.260  1.00  0.00    -0.278 A  
HETATM   27 CL   UNL     1     -10.681  16.295  64.799  1.00  0.00    -0.292 Cl 
ENDBRANCH  17  18
ENDBRANCH  16  17
ENDBRANCH   9  16
ENDBRANCH   6   9
TORSDOF 6
ENDMDL
MODEL      252
REMARK 921   NORMALIZED FREE ENERGY PREDICTED BY IDOCK:   -3.76 KCAL/MOL
REMARK 922        TOTAL FREE ENERGY PREDICTED BY IDOCK:   -6.12 KCAL/MOL
REMARK 923 INTER-LIGAND FREE ENERGY PREDICTED BY IDOCK:   -5.84 KCAL/MOL
REMARK 924 INTRA-LIGAND FREE ENERGY PREDICTED BY IDOCK:   -0.28 KCAL/MOL
REMARK 927      BINDING AFFINITY PREDICTED BY RF-SCORE:    0.00 PKD
ROOT
HETATM    1 CL   UNL     1     -12.254  15.467  64.029  1.00  0.00    -0.127 Cl 
HETATM    2  C   UNL     1     -11.438  14.353  65.054  1.00  0.00    -0.372 A  
HETATM    3  C   UNL     1     -11.248  14.657  66.400  1.00  0.00    -0.336 A  
HETATM    4  C   UNL     1     -10.589  13.749  67.234  1.00  0.00    -0.275 A  
HETATM    5 CL   UNL     1     -10.373  14.196  68.888  1.00  0.00    -0.228 Cl 
HETATM    6  C   UNL     1     -10.123  12.523  66.733  1.00  0.00    -0.233 A  
HETATM    7  C   UNL     1     -10.341  12.235  65.369  1.00  0.00    -0.298 A  
HETATM    8  C   UNL     1     -10.979  13.150  64.532  1.00  0.00    -0.392 A  
ENDROOT
BRANCH   6   9
HETATM    9  C   UNL     1      -9.422  11.491  67.612  1.00  0.00    -0.168 C  
BRANCH   9  10
HETATM   10  C   UNL     1      -7.955  11.922  67.807  1.00  0.00    -0.144 C  
BRANCH  10  11
HETATM   11  N   UNL     1      -7.005  10.873  67.500  1.00  0.00    -0.082 NA 
HETATM   12  C   UNL     1      -6.485   9.957  68.372  1.00  0.00    -0.054 A  
HETATM   13  C   UNL     1      -6.532  10.570  66.251  1.00  0.00    -0.114 A  
HETATM   14  N   UNL     1      -5.715   9.544  66.286  1.00  0.00    -0.052 NA 
HETATM   15  C   UNL     1      -5.679   9.154  67.599  1.00  0.00    -0.042 A  
ENDBRANCH  10  11
ENDBRANCH   9  10
BRANCH   9  16
HETATM   16  O   UNL     1     -10.058  11.433  68.901  1.00  0.00    -0.204 OA 
BRANCH  16  17
HETATM   17  C   UNL     1     -11.177  10.538  68.945  1.00  0.00    -0.266 C  
BRANCH  17  18
HETATM   18  C   UNL     1     -10.711   9.128  69.149  1.00  0.00    -0.190 A  
HETATM   19  C   UNL     1      -9.970   8.433  68.214  1.00  0.00    -0.187 A  
HETATM   20  S   UNL     1      -9.593   6.853  68.703  1.00  0.00    -0.133 SA 
HETATM   21  C   UNL     1     -10.421   7.030  70.207  1.00  0.00    -0.208 A  
HETATM   22  C   UNL     1     -10.974   8.316  70.325  1.00  0.00    -0.233 A  
HETATM   23  C   UNL     1     -11.684   8.622  71.518  1.00  0.00    -0.369 A  
HETATM   24  C   UNL     1     -11.829   7.676  72.538  1.00  0.00    -0.312 A  
HETATM   25  C   UNL     1     -11.280   6.411  72.394  1.00  0.00    -0.313 A  
HETATM   26  C   UNL     1     -10.574   6.075  71.236  1.00  0.00    -0.246 A  
HETATM   27 CL   UNL     1      -9.912   4.484  71.110  1.00  0.00    -0.267 Cl 
ENDBRANCH  17  18
ENDBRANCH  16  17
ENDBRANCH   9  16
ENDBRANCH   6   9
TORSDOF 6
ENDMDL
MODEL      253
REMARK 921   NORMALIZED FREE ENERGY PREDICTED BY IDOCK:   -3.75 KCAL/MOL
REMARK 922        TOTAL FREE ENERGY PREDICTED BY IDOCK:   -6.11 KCAL/MOL
REMARK 923 INTER-LIGAND FREE ENERGY PREDICTED BY IDOCK:   -5.34 KCAL/MOL
REMARK 924 INTRA-LIGAND FREE ENERGY PREDICTED BY IDOCK:   -0.77 KCAL/MOL
REMARK 927      BINDING AFFINITY PREDICTED BY RF-SCORE:    0.00 PKD
ROOT
HETATM    1 CL   UNL     1     -11.184  12.398  63.398  1.00  0.00    -0.516 Cl 
HETATM    2  C   UNL     1     -10.342  11.190  64.287  1.00  0.00    -0.351 A  
HETATM    3  C   UNL     1      -9.575  10.241  63.616  1.00  0.00    -0.334 A  
HETATM    4  C   UNL     1      -8.888   9.261  64.339  1.00  0.00    -0.159 A  
HETATM    5 CL   UNL     1      -7.968   8.106  63.444  1.00  0.00    -0.155 Cl 
HETATM    6  C   UNL     1      -8.952   9.228  65.742  1.00  0.00    -0.234 A  
HETATM    7  C   UNL     1      -9.725  10.211  66.396  1.00  0.00    -0.259 A  
HETATM    8  C   UNL     1     -10.429  11.174  65.674  1.00  0.00    -0.308 A  
ENDROOT
BRANCH   6   9
HETATM    9  C   UNL     1      -8.197   8.195  66.573  1.00  0.00    -0.107 C  
BRANCH   9  10
HETATM   10  C   UNL     1      -8.126   8.689  68.032  1.00  0.00    -0.111 C  
BRANCH  10  11
HETATM   11  N   UNL     1      -7.290   7.860  68.876  1.00  0.00    -0.083 NA 
HETATM   12  C   UNL     1      -6.218   7.109  68.483  1.00  0.00    -0.035 A  
HETATM   13  C   UNL     1      -7.387   7.762  70.238  1.00  0.00    -0.067 A  
HETATM   14  N   UNL     1      -6.467   6.963  70.725  1.00  0.00    -0.047 NA 
HETATM   15  C   UNL     1      -5.734   6.552  69.643  1.00  0.00    -0.014 A  
ENDBRANCH  10  11
ENDBRANCH   9  10
BRANCH   9  16
HETATM   16  O   UNL     1      -8.899   6.939  66.548  1.00  0.00    -0.129 OA 
BRANCH  16  17
HETATM   17  C   UNL     1     -10.154   6.973  67.241  1.00  0.00    -0.204 C  
BRANCH  17  18
HETATM   18  C   UNL     1     -10.086   6.144  68.488  1.00  0.00    -0.193 A  
HETATM   19  C   UNL     1      -9.384   4.959  68.571  1.00  0.00    -0.131 A  
HETATM   20  S   UNL     1      -9.491   4.226  70.097  1.00  0.00    -0.198 SA 
HETATM   21  C   UNL     1     -10.501   5.479  70.722  1.00  0.00    -0.260 A  
HETATM   22  C   UNL     1     -10.738   6.463  69.746  1.00  0.00    -0.341 A  
HETATM   23  C   UNL     1     -11.549   7.571  70.111  1.00  0.00    -0.046 A  
HETATM   24  C   UNL     1     -12.094   7.679  71.395  1.00  0.00    -0.342 A  
HETATM   25  C   UNL     1     -11.851   6.692  72.337  1.00  0.00    -0.226 A  
HETATM   26  C   UNL     1     -11.058   5.588  72.015  1.00  0.00    -0.184 A  
HETATM   27 CL   UNL     1     -10.789   4.388  73.227  1.00  0.00    -0.306 Cl 
ENDBRANCH  17  18
ENDBRANCH  16  17
ENDBRANCH   9  16
ENDBRANCH   6   9
TORSDOF 6
ENDMDL
MODEL      254
REMARK 921   NORMALIZED FREE ENERGY PREDICTED BY IDOCK:   -3.73 KCAL/MOL
REMARK 922        TOTAL FREE ENERGY PREDICTED BY IDOCK:   -6.09 KCAL/MOL
REMARK 923 INTER-LIGAND FREE ENERGY PREDICTED BY IDOCK:   -5.38 KCAL/MOL
REMARK 924 INTRA-LIGAND FREE ENERGY PREDICTED BY IDOCK:   -0.70 KCAL/MOL
REMARK 927      BINDING AFFINITY PREDICTED BY RF-SCORE:    0.00 PKD
ROOT
HETATM    1 CL   UNL     1      -6.212   2.215  63.783  1.00  0.00    -0.014 Cl 
HETATM    2  C   UNL     1      -6.875   3.465  64.760  1.00  0.00    -0.048 A  
HETATM    3  C   UNL     1      -8.253   3.545  64.948  1.00  0.00    -0.090 A  
HETATM    4  C   UNL     1      -8.791   4.560  65.746  1.00  0.00    -0.124 A  
HETATM    5 CL   UNL     1     -10.507   4.609  65.924  1.00  0.00    -0.326 Cl 
HETATM    6  C   UNL     1      -7.955   5.498  66.374  1.00  0.00    -0.105 A  
HETATM    7  C   UNL     1      -6.562   5.385  66.177  1.00  0.00    -0.048 A  
HETATM    8  C   UNL     1      -6.027   4.387  65.363  1.00  0.00    -0.023 A  
ENDROOT
BRANCH   6   9
HETATM    9  C   UNL     1      -8.496   6.604  67.275  1.00  0.00    -0.120 C  
BRANCH   9  10
HETATM   10  C   UNL     1      -9.497   7.454  66.467  1.00  0.00    -0.172 C  
BRANCH  10  11
HETATM   11  N   UNL     1      -9.285   8.880  66.613  1.00  0.00    -0.159 NA 
HETATM   12  C   UNL     1      -8.192   9.493  67.160  1.00  0.00    -0.113 A  
HETATM   13  C   UNL     1     -10.117   9.859  66.140  1.00  0.00    -0.245 A  
HETATM   14  N   UNL     1      -9.637  11.054  66.392  1.00  0.00    -0.193 NA 
HETATM   15  C   UNL     1      -8.441  10.839  67.024  1.00  0.00    -0.128 A  
ENDBRANCH  10  11
ENDBRANCH   9  10
BRANCH   9  16
HETATM   16  O   UNL     1      -9.185   6.028  68.398  1.00  0.00    -0.116 OA 
BRANCH  16  17
HETATM   17  C   UNL     1      -8.876   6.664  69.645  1.00  0.00    -0.143 C  
BRANCH  17  18
HETATM   18  C   UNL     1     -10.127   6.907  70.433  1.00  0.00    -0.201 A  
HETATM   19  C   UNL     1     -10.748   5.931  71.187  1.00  0.00    -0.265 A  
HETATM   20  S   UNL     1     -12.152   6.481  71.963  1.00  0.00    -0.260 SA 
HETATM   21  C   UNL     1     -11.992   8.072  71.311  1.00  0.00    -0.296 A  
HETATM   22  C   UNL     1     -10.845   8.168  70.506  1.00  0.00    -0.247 A  
HETATM   23  C   UNL     1     -10.568   9.424  69.900  1.00  0.00    -0.258 A  
HETATM   24  C   UNL     1     -11.408  10.524  70.098  1.00  0.00    -0.400 A  
HETATM   25  C   UNL     1     -12.538  10.401  70.891  1.00  0.00    -0.478 A  
HETATM   26  C   UNL     1     -12.842   9.183  71.503  1.00  0.00    -0.347 A  
HETATM   27 CL   UNL     1     -14.263   9.085  72.480  1.00  0.00    -0.468 Cl 
ENDBRANCH  17  18
ENDBRANCH  16  17
ENDBRANCH   9  16
ENDBRANCH   6   9
TORSDOF 6
ENDMDL
MODEL      255
REMARK 921   NORMALIZED FREE ENERGY PREDICTED BY IDOCK:   -3.72 KCAL/MOL
REMARK 922        TOTAL FREE ENERGY PREDICTED BY IDOCK:   -6.07 KCAL/MOL
REMARK 923 INTER-LIGAND FREE ENERGY PREDICTED BY IDOCK:   -4.29 KCAL/MOL
REMARK 924 INTRA-LIGAND FREE ENERGY PREDICTED BY IDOCK:   -1.78 KCAL/MOL
REMARK 927      BINDING AFFINITY PREDICTED BY RF-SCORE:    0.00 PKD
ROOT
HETATM    1 CL   UNL     1     -11.282   2.304  73.878  1.00  0.00    -0.276 Cl 
HETATM    2  C   UNL     1     -10.770   3.663  72.956  1.00  0.00    -0.142 A  
HETATM    3  C   UNL     1      -9.885   3.490  71.894  1.00  0.00    -0.237 A  
HETATM    4  C   UNL     1      -9.473   4.595  71.143  1.00  0.00    -0.156 A  
HETATM    5 CL   UNL     1      -8.364   4.311  69.850  1.00  0.00    -0.070 Cl 
HETATM    6  C   UNL     1      -9.949   5.882  71.440  1.00  0.00    -0.228 A  
HETATM    7  C   UNL     1     -10.854   6.026  72.512  1.00  0.00    -0.286 A  
HETATM    8  C   UNL     1     -11.249   4.928  73.276  1.00  0.00    -0.423 A  
ENDROOT
BRANCH   6   9
HETATM    9  C   UNL     1      -9.547   7.112  70.630  1.00  0.00    -0.165 C  
BRANCH   9  10
HETATM   10  C   UNL     1     -10.795   7.988  70.409  1.00  0.00    -0.247 C  
BRANCH  10  11
HETATM   11  N   UNL     1     -10.766   8.719  69.158  1.00  0.00    -0.180 NA 
HETATM   12  C   UNL     1     -10.831  10.076  69.001  1.00  0.00    -0.222 A  
HETATM   13  C   UNL     1     -10.578   8.168  67.920  1.00  0.00    -0.147 A  
HETATM   14  N   UNL     1     -10.562   9.089  66.985  1.00  0.00    -0.242 NA 
HETATM   15  C   UNL     1     -10.716  10.279  67.645  1.00  0.00    -0.288 A  
ENDBRANCH  10  11
ENDBRANCH   9  10
BRANCH   9  16
HETATM   16  O   UNL     1      -8.571   7.879  71.358  1.00  0.00    -0.115 OA 
BRANCH  16  17
HETATM   17  C   UNL     1      -7.256   7.814  70.793  1.00  0.00    -0.057 C  
BRANCH  17  18
HETATM   18  C   UNL     1      -7.164   8.686  69.577  1.00  0.00    -0.060 A  
HETATM   19  C   UNL     1      -7.194  10.065  69.633  1.00  0.00    -0.119 A  
HETATM   20  S   UNL     1      -7.085  10.796  68.106  1.00  0.00    -0.079 SA 
HETATM   21  C   UNL     1      -6.996   9.277  67.291  1.00  0.00    -0.081 A  
HETATM   22  C   UNL     1      -7.040   8.214  68.210  1.00  0.00    -0.081 A  
HETATM   23  C   UNL     1      -6.968   6.892  67.692  1.00  0.00    -0.083 A  
HETATM   24  C   UNL     1      -6.858   6.657  66.318  1.00  0.00    -0.061 A  
HETATM   25  C   UNL     1      -6.825   7.723  65.432  1.00  0.00    -0.048 A  
HETATM   26  C   UNL     1      -6.893   9.035  65.903  1.00  0.00    -0.080 A  
HETATM   27 CL   UNL     1      -6.848  10.325  64.755  1.00  0.00    -0.117 Cl 
ENDBRANCH  17  18
ENDBRANCH  16  17
ENDBRANCH   9  16
ENDBRANCH   6   9
TORSDOF 6
ENDMDL
MODEL      256
REMARK 921   NORMALIZED FREE ENERGY PREDICTED BY IDOCK:   -3.71 KCAL/MOL
REMARK 922        TOTAL FREE ENERGY PREDICTED BY IDOCK:   -6.06 KCAL/MOL
REMARK 923 INTER-LIGAND FREE ENERGY PREDICTED BY IDOCK:   -5.51 KCAL/MOL
REMARK 924 INTRA-LIGAND FREE ENERGY PREDICTED BY IDOCK:   -0.54 KCAL/MOL
REMARK 927      BINDING AFFINITY PREDICTED BY RF-SCORE:    0.00 PKD
ROOT
HETATM    1 CL   UNL     1      -9.630   1.965  68.343  1.00  0.00    -0.233 Cl 
HETATM    2  C   UNL     1      -9.290   3.650  68.388  1.00  0.00    -0.165 A  
HETATM    3  C   UNL     1      -8.641   4.258  67.317  1.00  0.00    -0.105 A  
HETATM    4  C   UNL     1      -8.369   5.629  67.352  1.00  0.00    -0.100 A  
HETATM    5 CL   UNL     1      -7.548   6.316  65.997  1.00  0.00    -0.085 Cl 
HETATM    6  C   UNL     1      -8.755   6.408  68.456  1.00  0.00    -0.121 A  
HETATM    7  C   UNL     1      -9.423   5.769  69.521  1.00  0.00    -0.168 A  
HETATM    8  C   UNL     1      -9.674   4.397  69.496  1.00  0.00    -0.280 A  
ENDROOT
BRANCH   6   9
HETATM    9  C   UNL     1      -8.503   7.912  68.526  1.00  0.00    -0.128 C  
BRANCH   9  10
HETATM   10  C   UNL     1      -6.989   8.167  68.387  1.00  0.00    -0.073 C  
BRANCH  10  11
HETATM   11  N   UNL     1      -6.575   9.451  68.914  1.00  0.00    -0.047 NA 
HETATM   12  C   UNL     1      -5.706  10.333  68.334  1.00  0.00    -0.040 A  
HETATM   13  C   UNL     1      -7.060  10.037  70.052  1.00  0.00    -0.146 A  
HETATM   14  N   UNL     1      -6.521  11.217  70.249  1.00  0.00    -0.246 NA 
HETATM   15  C   UNL     1      -5.679  11.413  69.186  1.00  0.00    -0.045 A  
ENDBRANCH  10  11
ENDBRANCH   9  10
BRANCH   9  16
HETATM   16  O   UNL     1      -9.180   8.572  67.442  1.00  0.00    -0.137 OA 
BRANCH  16  17
HETATM   17  C   UNL     1     -10.605   8.603  67.593  1.00  0.00    -0.203 C  
BRANCH  17  18
HETATM   18  C   UNL     1     -11.022   9.806  68.384  1.00  0.00    -0.200 A  
HETATM   19  C   UNL     1     -11.202   9.786  69.752  1.00  0.00    -0.202 A  
HETATM   20  S   UNL     1     -11.688  11.284  70.383  1.00  0.00    -0.231 SA 
HETATM   21  C   UNL     1     -11.684  12.035  68.828  1.00  0.00    -0.321 A  
HETATM   22  C   UNL     1     -11.295  11.122  67.834  1.00  0.00    -0.378 A  
HETATM   23  C   UNL     1     -11.234  11.593  66.494  1.00  0.00    -0.356 A  
HETATM   24  C   UNL     1     -11.551  12.918  66.176  1.00  0.00    -0.423 A  
HETATM   25  C   UNL     1     -11.939  13.797  67.176  1.00  0.00    -0.442 A  
HETATM   26  C   UNL     1     -12.010  13.370  68.504  1.00  0.00    -0.328 A  
HETATM   27 CL   UNL     1     -12.501  14.507  69.707  1.00  0.00    -0.310 Cl 
ENDBRANCH  17  18
ENDBRANCH  16  17
ENDBRANCH   9  16
ENDBRANCH   6   9
TORSDOF 6
ENDMDL
MODEL      257
REMARK 921   NORMALIZED FREE ENERGY PREDICTED BY IDOCK:   -3.69 KCAL/MOL
REMARK 922        TOTAL FREE ENERGY PREDICTED BY IDOCK:   -6.03 KCAL/MOL
REMARK 923 INTER-LIGAND FREE ENERGY PREDICTED BY IDOCK:   -5.19 KCAL/MOL
REMARK 924 INTRA-LIGAND FREE ENERGY PREDICTED BY IDOCK:   -0.84 KCAL/MOL
REMARK 927      BINDING AFFINITY PREDICTED BY RF-SCORE:    0.00 PKD
ROOT
HETATM    1 CL   UNL     1     -12.398  14.246  65.053  1.00  0.00    -0.436 Cl 
HETATM    2  C   UNL     1     -11.850  12.881  65.945  1.00  0.00    -0.424 A  
HETATM    3  C   UNL     1     -11.045  11.926  65.330  1.00  0.00    -0.354 A  
HETATM    4  C   UNL     1     -10.595  10.819  66.056  1.00  0.00    -0.156 A  
HETATM    5 CL   UNL     1      -9.613   9.666  65.228  1.00  0.00    -0.354 Cl 
HETATM    6  C   UNL     1     -10.938  10.663  67.409  1.00  0.00    -0.361 A  
HETATM    7  C   UNL     1     -11.744  11.652  68.010  1.00  0.00    -0.351 A  
HETATM    8  C   UNL     1     -12.211  12.745  67.280  1.00  0.00    -0.042 A  
ENDROOT
BRANCH   6   9
HETATM    9  C   UNL     1     -10.449   9.485  68.248  1.00  0.00    -0.223 C  
BRANCH   9  10
HETATM   10  C   UNL     1     -10.599   8.193  67.421  1.00  0.00    -0.255 C  
BRANCH  10  11
HETATM   11  N   UNL     1     -10.426   6.988  68.207  1.00  0.00    -0.194 NA 
HETATM   12  C   UNL     1      -9.521   5.988  67.986  1.00  0.00    -0.113 A  
HETATM   13  C   UNL     1     -11.093   6.693  69.366  1.00  0.00    -0.310 A  
HETATM   14  N   UNL     1     -10.694   5.549  69.868  1.00  0.00    -0.323 NA 
HETATM   15  C   UNL     1      -9.716   5.102  69.019  1.00  0.00    -0.161 A  
ENDBRANCH  10  11
ENDBRANCH   9  10
BRANCH   9  16
HETATM   16  O   UNL     1      -9.059   9.662  68.575  1.00  0.00    -0.130 OA 
BRANCH  16  17
HETATM   17  C   UNL     1      -8.838  10.043  69.939  1.00  0.00    -0.147 C  
BRANCH  17  18
HETATM   18  C   UNL     1      -8.512   8.841  70.773  1.00  0.00    -0.202 A  
HETATM   19  C   UNL     1      -9.168   8.535  71.948  1.00  0.00    -0.255 A  
HETATM   20  S   UNL     1      -8.585   7.125  72.690  1.00  0.00    -0.119 SA 
HETATM   21  C   UNL     1      -7.408   6.860  71.455  1.00  0.00    -0.081 A  
HETATM   22  C   UNL     1      -7.483   7.861  70.471  1.00  0.00    -0.073 A  
HETATM   23  C   UNL     1      -6.580   7.778  69.377  1.00  0.00    -0.039 A  
HETATM   24  C   UNL     1      -5.648   6.739  69.283  1.00  0.00    -0.014 A  
HETATM   25  C   UNL     1      -5.589   5.769  70.272  1.00  0.00    -0.012 A  
HETATM   26  C   UNL     1      -6.461   5.817  71.361  1.00  0.00    -0.045 A  
HETATM   27 CL   UNL     1      -6.343   4.583  72.564  1.00  0.00    -0.021 Cl 
ENDBRANCH  17  18
ENDBRANCH  16  17
ENDBRANCH   9  16
ENDBRANCH   6   9
TORSDOF 6
ENDMDL
MODEL      258
REMARK 921   NORMALIZED FREE ENERGY PREDICTED BY IDOCK:   -3.68 KCAL/MOL
REMARK 922        TOTAL FREE ENERGY PREDICTED BY IDOCK:   -6.02 KCAL/MOL
REMARK 923 INTER-LIGAND FREE ENERGY PREDICTED BY IDOCK:   -5.38 KCAL/MOL
REMARK 924 INTRA-LIGAND FREE ENERGY PREDICTED BY IDOCK:   -0.64 KCAL/MOL
REMARK 927      BINDING AFFINITY PREDICTED BY RF-SCORE:    0.00 PKD
ROOT
HETATM    1 CL   UNL     1      -9.571   1.775  68.559  1.00  0.00    -0.225 Cl 
HETATM    2  C   UNL     1      -9.295   3.465  68.408  1.00  0.00    -0.177 A  
HETATM    3  C   UNL     1      -8.666   3.969  67.271  1.00  0.00    -0.120 A  
HETATM    4  C   UNL     1      -8.446   5.344  67.147  1.00  0.00    -0.106 A  
HETATM    5 CL   UNL     1      -7.649   5.898  65.719  1.00  0.00    -0.085 Cl 
HETATM    6  C   UNL     1      -8.862   6.231  68.153  1.00  0.00    -0.113 A  
HETATM    7  C   UNL     1      -9.508   5.694  69.287  1.00  0.00    -0.167 A  
HETATM    8  C   UNL     1      -9.708   4.321  69.422  1.00  0.00    -0.257 A  
ENDROOT
BRANCH   6   9
HETATM    9  C   UNL     1      -8.667   7.741  68.048  1.00  0.00    -0.125 C  
BRANCH   9  10
HETATM   10  C   UNL     1      -7.161   8.052  68.150  1.00  0.00    -0.089 C  
BRANCH  10  11
HETATM   11  N   UNL     1      -6.863   9.147  69.051  1.00  0.00    -0.055 NA 
HETATM   12  C   UNL     1      -7.239  10.454  68.904  1.00  0.00    -0.082 A  
HETATM   13  C   UNL     1      -6.223   9.033  70.255  1.00  0.00    -0.043 A  
HETATM   14  N   UNL     1      -6.135  10.194  70.860  1.00  0.00    -0.222 NA 
HETATM   15  C   UNL     1      -6.764  11.085  70.031  1.00  0.00    -0.094 A  
ENDBRANCH  10  11
ENDBRANCH   9  10
BRANCH   9  16
HETATM   16  O   UNL     1      -9.147   8.208  66.775  1.00  0.00    -0.142 OA 
BRANCH  16  17
HETATM   17  C   UNL     1     -10.542   8.536  66.776  1.00  0.00    -0.157 C  
BRANCH  17  18
HETATM   18  C   UNL     1     -10.732  10.019  66.879  1.00  0.00    -0.211 A  
HETATM   19  C   UNL     1     -11.016  10.665  68.065  1.00  0.00    -0.282 A  
HETATM   20  S   UNL     1     -11.192  12.343  67.886  1.00  0.00    -0.287 SA 
HETATM   21  C   UNL     1     -10.896  12.277  66.186  1.00  0.00    -0.279 A  
HETATM   22  C   UNL     1     -10.652  10.957  65.773  1.00  0.00    -0.230 A  
HETATM   23  C   UNL     1     -10.381  10.737  64.395  1.00  0.00    -0.405 A  
HETATM   24  C   UNL     1     -10.360  11.797  63.482  1.00  0.00    -0.490 A  
HETATM   25  C   UNL     1     -10.612  13.090  63.915  1.00  0.00    -0.292 A  
HETATM   26  C   UNL     1     -10.881  13.344  65.261  1.00  0.00    -0.309 A  
HETATM   27 CL   UNL     1     -11.189  14.973  65.745  1.00  0.00    -0.337 Cl 
ENDBRANCH  17  18
ENDBRANCH  16  17
ENDBRANCH   9  16
ENDBRANCH   6   9
TORSDOF 6
ENDMDL
MODEL      259
REMARK 921   NORMALIZED FREE ENERGY PREDICTED BY IDOCK:   -3.60 KCAL/MOL
REMARK 922        TOTAL FREE ENERGY PREDICTED BY IDOCK:   -5.91 KCAL/MOL
REMARK 923 INTER-LIGAND FREE ENERGY PREDICTED BY IDOCK:   -5.73 KCAL/MOL
REMARK 924 INTRA-LIGAND FREE ENERGY PREDICTED BY IDOCK:   -0.18 KCAL/MOL
REMARK 927      BINDING AFFINITY PREDICTED BY RF-SCORE:    0.00 PKD
ROOT
HETATM    1 CL   UNL     1      -9.517   8.444  72.215  1.00  0.00    -0.342 Cl 
HETATM    2  C   UNL     1      -9.207   9.125  70.666  1.00  0.00    -0.258 A  
HETATM    3  C   UNL     1     -10.215   9.811  69.993  1.00  0.00    -0.308 A  
HETATM    4  C   UNL     1      -9.960  10.368  68.736  1.00  0.00    -0.188 A  
HETATM    5 CL   UNL     1     -11.259  11.192  67.951  1.00  0.00    -0.338 Cl 
HETATM    6  C   UNL     1      -8.692  10.254  68.145  1.00  0.00    -0.123 A  
HETATM    7  C   UNL     1      -7.686   9.566  68.855  1.00  0.00    -0.076 A  
HETATM    8  C   UNL     1      -7.945   8.991  70.098  1.00  0.00    -0.115 A  
ENDROOT
BRANCH   6   9
HETATM    9  C   UNL     1      -8.362  10.869  66.787  1.00  0.00    -0.138 C  
BRANCH   9  10
HETATM   10  C   UNL     1      -9.457  10.463  65.781  1.00  0.00    -0.198 C  
BRANCH  10  11
HETATM   11  N   UNL     1      -8.934  10.131  64.471  1.00  0.00    -0.201 NA 
HETATM   12  C   UNL     1      -9.242  10.742  63.287  1.00  0.00    -0.283 A  
HETATM   13  C   UNL     1      -7.969   9.195  64.215  1.00  0.00    -0.139 A  
HETATM   14  N   UNL     1      -7.677   9.149  62.936  1.00  0.00    -0.112 NA 
HETATM   15  C   UNL     1      -8.462  10.107  62.350  1.00  0.00    -0.171 A  
ENDBRANCH  10  11
ENDBRANCH   9  10
BRANCH   9  16
HETATM   16  O   UNL     1      -8.344  12.304  66.891  1.00  0.00    -0.181 OA 
BRANCH  16  17
HETATM   17  C   UNL     1      -7.697  12.782  68.078  1.00  0.00    -0.137 C  
BRANCH  17  18
HETATM   18  C   UNL     1      -7.900  14.260  68.226  1.00  0.00    -0.141 A  
HETATM   19  C   UNL     1      -6.864  15.172  68.199  1.00  0.00    -0.128 A  
HETATM   20  S   UNL     1      -7.381  16.774  68.402  1.00  0.00    -0.209 SA 
HETATM   21  C   UNL     1      -9.038  16.312  68.543  1.00  0.00    -0.216 A  
HETATM   22  C   UNL     1      -9.180  14.919  68.419  1.00  0.00    -0.189 A  
HETATM   23  C   UNL     1     -10.492  14.380  68.504  1.00  0.00    -0.254 A  
HETATM   24  C   UNL     1     -11.603  15.205  68.706  1.00  0.00    -0.369 A  
HETATM   25  C   UNL     1     -11.436  16.575  68.832  1.00  0.00    -0.131 A  
HETATM   26  C   UNL     1     -10.162  17.141  68.753  1.00  0.00    -0.332 A  
HETATM   27 CL   UNL     1     -10.011  18.854  68.918  1.00  0.00    -0.459 Cl 
ENDBRANCH  17  18
ENDBRANCH  16  17
ENDBRANCH   9  16
ENDBRANCH   6   9
TORSDOF 6
ENDMDL
MODEL      260
REMARK 921   NORMALIZED FREE ENERGY PREDICTED BY IDOCK:   -3.60 KCAL/MOL
REMARK 922        TOTAL FREE ENERGY PREDICTED BY IDOCK:   -5.91 KCAL/MOL
REMARK 923 INTER-LIGAND FREE ENERGY PREDICTED BY IDOCK:   -6.58 KCAL/MOL
REMARK 924 INTRA-LIGAND FREE ENERGY PREDICTED BY IDOCK:    0.67 KCAL/MOL
REMARK 927      BINDING AFFINITY PREDICTED BY RF-SCORE:    0.00 PKD
ROOT
HETATM    1 CL   UNL     1     -11.953  16.105  72.379  1.00  0.00    -0.615 Cl 
HETATM    2  C   UNL     1     -11.894  14.985  71.076  1.00  0.00    -0.323 A  
HETATM    3  C   UNL     1     -11.135  15.273  69.944  1.00  0.00    -0.303 A  
HETATM    4  C   UNL     1     -11.084  14.360  68.887  1.00  0.00    -0.259 A  
HETATM    5 CL   UNL     1     -10.137  14.788  67.508  1.00  0.00    -0.224 Cl 
HETATM    6  C   UNL     1     -11.782  13.143  68.956  1.00  0.00    -0.367 A  
HETATM    7  C   UNL     1     -12.531  12.871  70.120  1.00  0.00    -0.144 A  
HETATM    8  C   UNL     1     -12.601  13.791  71.165  1.00  0.00    -0.452 A  
ENDROOT
BRANCH   6   9
HETATM    9  C   UNL     1     -11.733  12.105  67.838  1.00  0.00    -0.336 C  
BRANCH   9  10
HETATM   10  C   UNL     1     -10.808  12.627  66.720  1.00  0.00    -0.250 C  
BRANCH  10  11
HETATM   11  N   UNL     1     -11.489  12.808  65.453  1.00  0.00    -0.314 NA 
HETATM   12  C   UNL     1     -11.227  13.766  64.513  1.00  0.00    -0.373 A  
HETATM   13  C   UNL     1     -12.460  11.986  64.948  1.00  0.00     0.073 A  
HETATM   14  N   UNL     1     -12.857  12.389  63.764  1.00  0.00    -0.781 NA 
HETATM   15  C   UNL     1     -12.096  13.493  63.483  1.00  0.00    -0.364 A  
ENDBRANCH  10  11
ENDBRANCH   9  10
BRANCH   9  16
HETATM   16  O   UNL     1     -11.193  10.870  68.340  1.00  0.00    -0.241 OA 
BRANCH  16  17
HETATM   17  C   UNL     1      -9.765  10.878  68.460  1.00  0.00    -0.183 C  
BRANCH  17  18
HETATM   18  C   UNL     1      -9.319   9.874  69.480  1.00  0.00    -0.236 A  
HETATM   19  C   UNL     1     -10.195   9.079  70.192  1.00  0.00    -0.197 A  
HETATM   20  S   UNL     1      -9.416   8.043  71.286  1.00  0.00    -0.162 SA 
HETATM   21  C   UNL     1      -7.849   8.624  70.853  1.00  0.00    -0.118 A  
HETATM   22  C   UNL     1      -7.941   9.609  69.854  1.00  0.00    -0.174 A  
HETATM   23  C   UNL     1      -6.730  10.182  69.381  1.00  0.00    -0.065 A  
HETATM   24  C   UNL     1      -5.490   9.783  69.892  1.00  0.00    -0.037 A  
HETATM   25  C   UNL     1      -5.428   8.814  70.883  1.00  0.00    -0.029 A  
HETATM   26  C   UNL     1      -6.597   8.227  71.371  1.00  0.00    -0.051 A  
HETATM   27 CL   UNL     1      -6.461   7.027  72.606  1.00  0.00    -0.053 Cl 
ENDBRANCH  17  18
ENDBRANCH  16  17
ENDBRANCH   9  16
ENDBRANCH   6   9
TORSDOF 6
ENDMDL
MODEL      261
REMARK 921   NORMALIZED FREE ENERGY PREDICTED BY IDOCK:   -3.59 KCAL/MOL
REMARK 922        TOTAL FREE ENERGY PREDICTED BY IDOCK:   -5.90 KCAL/MOL
REMARK 923 INTER-LIGAND FREE ENERGY PREDICTED BY IDOCK:   -5.36 KCAL/MOL
REMARK 924 INTRA-LIGAND FREE ENERGY PREDICTED BY IDOCK:   -0.54 KCAL/MOL
REMARK 927      BINDING AFFINITY PREDICTED BY RF-SCORE:    0.00 PKD
ROOT
HETATM    1 CL   UNL     1     -14.363   8.652  72.343  1.00  0.00    -0.494 Cl 
HETATM    2  C   UNL     1     -12.777   8.270  71.798  1.00  0.00    -0.336 A  
HETATM    3  C   UNL     1     -12.601   7.544  70.623  1.00  0.00     0.083 A  
HETATM    4  C   UNL     1     -11.311   7.238  70.178  1.00  0.00    -0.207 A  
HETATM    5 CL   UNL     1     -11.166   6.322  68.722  1.00  0.00    -0.427 Cl 
HETATM    6  C   UNL     1     -10.184   7.665  70.899  1.00  0.00    -0.202 A  
HETATM    7  C   UNL     1     -10.391   8.411  72.078  1.00  0.00    -0.374 A  
HETATM    8  C   UNL     1     -11.678   8.697  72.535  1.00  0.00    -0.330 A  
ENDROOT
BRANCH   6   9
HETATM    9  C   UNL     1      -8.758   7.377  70.437  1.00  0.00    -0.145 C  
BRANCH   9  10
HETATM   10  C   UNL     1      -8.612   5.861  70.200  1.00  0.00    -0.134 C  
BRANCH  10  11
HETATM   11  N   UNL     1      -7.642   5.534  69.175  1.00  0.00    -0.085 NA 
HETATM   12  C   UNL     1      -7.906   5.156  67.887  1.00  0.00    -0.091 A  
HETATM   13  C   UNL     1      -6.283   5.634  69.306  1.00  0.00    -0.029 A  
HETATM   14  N   UNL     1      -5.671   5.304  68.193  1.00  0.00    -0.016 NA 
HETATM   15  C   UNL     1      -6.670   5.007  67.303  1.00  0.00    -0.055 A  
ENDBRANCH  10  11
ENDBRANCH   9  10
BRANCH   9  16
HETATM   16  O   UNL     1      -8.497   8.062  69.199  1.00  0.00    -0.133 OA 
BRANCH  16  17
HETATM   17  C   UNL     1      -8.455   9.488  69.334  1.00  0.00    -0.146 C  
BRANCH  17  18
HETATM   18  C   UNL     1      -9.258  10.141  68.249  1.00  0.00    -0.130 A  
HETATM   19  C   UNL     1     -10.396  10.882  68.492  1.00  0.00    -0.187 A  
HETATM   20  S   UNL     1     -11.109  11.493  67.079  1.00  0.00    -0.305 SA 
HETATM   21  C   UNL     1      -9.911  10.776  66.064  1.00  0.00    -0.235 A  
HETATM   22  C   UNL     1      -8.960  10.079  66.829  1.00  0.00    -0.151 A  
HETATM   23  C   UNL     1      -7.898   9.438  66.135  1.00  0.00    -0.100 A  
HETATM   24  C   UNL     1      -7.803   9.497  64.741  1.00  0.00    -0.120 A  
HETATM   25  C   UNL     1      -8.758  10.185  64.008  1.00  0.00    -0.224 A  
HETATM   26  C   UNL     1      -9.816  10.828  64.656  1.00  0.00    -0.307 A  
HETATM   27 CL   UNL     1     -10.978  11.670  63.695  1.00  0.00    -0.482 Cl 
ENDBRANCH  17  18
ENDBRANCH  16  17
ENDBRANCH   9  16
ENDBRANCH   6   9
TORSDOF 6
ENDMDL
MODEL      262
REMARK 921   NORMALIZED FREE ENERGY PREDICTED BY IDOCK:   -3.59 KCAL/MOL
REMARK 922        TOTAL FREE ENERGY PREDICTED BY IDOCK:   -5.89 KCAL/MOL
REMARK 923 INTER-LIGAND FREE ENERGY PREDICTED BY IDOCK:   -4.65 KCAL/MOL
REMARK 924 INTRA-LIGAND FREE ENERGY PREDICTED BY IDOCK:   -1.25 KCAL/MOL
REMARK 927      BINDING AFFINITY PREDICTED BY RF-SCORE:    0.00 PKD
ROOT
HETATM    1 CL   UNL     1      -7.824   3.704  71.723  1.00  0.00    -0.061 Cl 
HETATM    2  C   UNL     1      -7.601   4.970  70.581  1.00  0.00    -0.070 A  
HETATM    3  C   UNL     1      -8.528   5.157  69.559  1.00  0.00    -0.093 A  
HETATM    4  C   UNL     1      -8.348   6.190  68.634  1.00  0.00    -0.114 A  
HETATM    5 CL   UNL     1      -9.528   6.356  67.384  1.00  0.00    -0.118 Cl 
HETATM    6  C   UNL     1      -7.245   7.054  68.729  1.00  0.00    -0.091 A  
HETATM    7  C   UNL     1      -6.329   6.850  69.782  1.00  0.00    -0.039 A  
HETATM    8  C   UNL     1      -6.495   5.806  70.691  1.00  0.00    -0.032 A  
ENDROOT
BRANCH   6   9
HETATM    9  C   UNL     1      -7.023   8.210  67.758  1.00  0.00    -0.078 C  
BRANCH   9  10
HETATM   10  C   UNL     1      -6.736   7.632  66.358  1.00  0.00    -0.058 C  
BRANCH  10  11
HETATM   11  N   UNL     1      -7.189   8.490  65.281  1.00  0.00    -0.082 NA 
HETATM   12  C   UNL     1      -8.353   8.370  64.574  1.00  0.00    -0.116 A  
HETATM   13  C   UNL     1      -6.558   9.625  64.851  1.00  0.00    -0.093 A  
HETATM   14  N   UNL     1      -7.230  10.208  63.887  1.00  0.00    -0.126 NA 
HETATM   15  C   UNL     1      -8.349   9.438  63.707  1.00  0.00    -0.183 A  
ENDBRANCH  10  11
ENDBRANCH   9  10
BRANCH   9  16
HETATM   16  O   UNL     1      -8.209   9.021  67.684  1.00  0.00    -0.108 OA 
BRANCH  16  17
HETATM   17  C   UNL     1      -8.261  10.048  68.683  1.00  0.00    -0.111 C  
BRANCH  17  18
HETATM   18  C   UNL     1      -9.651  10.176  69.230  1.00  0.00    -0.239 A  
HETATM   19  C   UNL     1     -10.591  11.045  68.713  1.00  0.00    -0.202 A  
HETATM   20  S   UNL     1     -12.073  10.991  69.535  1.00  0.00    -0.281 SA 
HETATM   21  C   UNL     1     -11.514   9.787  70.639  1.00  0.00    -0.324 A  
HETATM   22  C   UNL     1     -10.185   9.428  70.355  1.00  0.00    -0.310 A  
HETATM   23  C   UNL     1      -9.581   8.437  71.175  1.00  0.00    -0.226 A  
HETATM   24  C   UNL     1     -10.282   7.841  72.228  1.00  0.00    -0.285 A  
HETATM   25  C   UNL     1     -11.590   8.219  72.492  1.00  0.00    -0.454 A  
HETATM   26  C   UNL     1     -12.217   9.189  71.707  1.00  0.00    -0.372 A  
HETATM   27 CL   UNL     1     -13.847   9.622  72.081  1.00  0.00    -0.382 Cl 
ENDBRANCH  17  18
ENDBRANCH  16  17
ENDBRANCH   9  16
ENDBRANCH   6   9
TORSDOF 6
ENDMDL
MODEL      263
REMARK 921   NORMALIZED FREE ENERGY PREDICTED BY IDOCK:   -3.59 KCAL/MOL
REMARK 922        TOTAL FREE ENERGY PREDICTED BY IDOCK:   -5.89 KCAL/MOL
REMARK 923 INTER-LIGAND FREE ENERGY PREDICTED BY IDOCK:   -4.94 KCAL/MOL
REMARK 924 INTRA-LIGAND FREE ENERGY PREDICTED BY IDOCK:   -0.95 KCAL/MOL
REMARK 927      BINDING AFFINITY PREDICTED BY RF-SCORE:    0.00 PKD
ROOT
HETATM    1 CL   UNL     1     -11.884  12.673  63.266  1.00  0.00    -0.559 Cl 
HETATM    2  C   UNL     1     -11.078  11.865  64.552  1.00  0.00    -0.325 A  
HETATM    3  C   UNL     1     -10.340  10.712  64.295  1.00  0.00    -0.325 A  
HETATM    4  C   UNL     1      -9.681  10.058  65.341  1.00  0.00    -0.302 A  
HETATM    5 CL   UNL     1      -8.796   8.627  64.955  1.00  0.00    -0.164 Cl 
HETATM    6  C   UNL     1      -9.745  10.557  66.652  1.00  0.00    -0.232 A  
HETATM    7  C   UNL     1     -10.489  11.734  66.881  1.00  0.00    -0.256 A  
HETATM    8  C   UNL     1     -11.164  12.374  65.843  1.00  0.00    -0.373 A  
ENDROOT
BRANCH   6   9
HETATM    9  C   UNL     1      -9.021   9.892  67.819  1.00  0.00    -0.131 C  
BRANCH   9  10
HETATM   10  C   UNL     1      -8.842  10.928  68.946  1.00  0.00    -0.138 C  
BRANCH  10  11
HETATM   11  N   UNL     1      -7.453  11.196  69.261  1.00  0.00    -0.108 NA 
HETATM   12  C   UNL     1      -6.608  10.398  69.982  1.00  0.00    -0.137 A  
HETATM   13  C   UNL     1      -6.728  12.265  68.809  1.00  0.00    -0.089 A  
HETATM   14  N   UNL     1      -5.487  12.213  69.233  1.00  0.00    -0.064 NA 
HETATM   15  C   UNL     1      -5.401  11.056  69.962  1.00  0.00    -0.056 A  
ENDBRANCH  10  11
ENDBRANCH   9  10
BRANCH   9  16
HETATM   16  O   UNL     1      -9.807   8.797  68.323  1.00  0.00    -0.155 OA 
BRANCH  16  17
HETATM   17  C   UNL     1     -10.167   8.942  69.703  1.00  0.00    -0.206 C  
BRANCH  17  18
HETATM   18  C   UNL     1     -10.370   7.597  70.335  1.00  0.00    -0.214 A  
HETATM   19  C   UNL     1     -11.550   7.217  70.941  1.00  0.00    -0.311 A  
HETATM   20  S   UNL     1     -11.494   5.647  71.582  1.00  0.00     0.126 SA 
HETATM   21  C   UNL     1      -9.862   5.406  71.074  1.00  0.00    -0.187 A  
HETATM   22  C   UNL     1      -9.376   6.540  70.401  1.00  0.00    -0.166 A  
HETATM   23  C   UNL     1      -8.043   6.494  69.911  1.00  0.00    -0.121 A  
HETATM   24  C   UNL     1      -7.242   5.361  70.093  1.00  0.00    -0.067 A  
HETATM   25  C   UNL     1      -7.743   4.258  70.767  1.00  0.00    -0.056 A  
HETATM   26  C   UNL     1      -9.049   4.267  71.262  1.00  0.00    -0.127 A  
HETATM   27 CL   UNL     1      -9.621   2.867  72.096  1.00  0.00    -0.196 Cl 
ENDBRANCH  17  18
ENDBRANCH  16  17
ENDBRANCH   9  16
ENDBRANCH   6   9
TORSDOF 6
ENDMDL
MODEL      264
REMARK 921   NORMALIZED FREE ENERGY PREDICTED BY IDOCK:   -3.56 KCAL/MOL
REMARK 922        TOTAL FREE ENERGY PREDICTED BY IDOCK:   -5.86 KCAL/MOL
REMARK 923 INTER-LIGAND FREE ENERGY PREDICTED BY IDOCK:   -4.73 KCAL/MOL
REMARK 924 INTRA-LIGAND FREE ENERGY PREDICTED BY IDOCK:   -1.13 KCAL/MOL
REMARK 927      BINDING AFFINITY PREDICTED BY RF-SCORE:    0.00 PKD
ROOT
HETATM    1 CL   UNL     1      -9.271   1.791  69.557  1.00  0.00    -0.162 Cl 
HETATM    2  C   UNL     1      -9.601   3.475  69.670  1.00  0.00    -0.114 A  
HETATM    3  C   UNL     1      -9.890   4.206  68.520  1.00  0.00    -0.085 A  
HETATM    4  C   UNL     1     -10.162   5.575  68.613  1.00  0.00    -0.193 A  
HETATM    5 CL   UNL     1     -10.498   6.423  67.147  1.00  0.00    -0.298 Cl 
HETATM    6  C   UNL     1     -10.158   6.223  69.858  1.00  0.00    -0.216 A  
HETATM    7  C   UNL     1      -9.876   5.456  71.008  1.00  0.00    -0.246 A  
HETATM    8  C   UNL     1      -9.582   4.096  70.913  1.00  0.00    -0.250 A  
ENDROOT
BRANCH   6   9
HETATM    9  C   UNL     1     -10.476   7.709  70.010  1.00  0.00    -0.229 C  
BRANCH   9  10
HETATM   10  C   UNL     1     -10.883   7.980  71.472  1.00  0.00    -0.232 C  
BRANCH  10  11
HETATM   11  N   UNL     1     -12.087   8.776  71.592  1.00  0.00    -0.316 NA 
HETATM   12  C   UNL     1     -12.165  10.100  71.925  1.00  0.00    -0.125 A  
HETATM   13  C   UNL     1     -13.355   8.348  71.302  1.00  0.00    -0.117 A  
HETATM   14  N   UNL     1     -14.233   9.308  71.470  1.00  0.00    -0.146 NA 
HETATM   15  C   UNL     1     -13.505  10.402  71.857  1.00  0.00    -0.282 A  
ENDBRANCH  10  11
ENDBRANCH   9  10
BRANCH   9  16
HETATM   16  O   UNL     1      -9.308   8.492  69.706  1.00  0.00    -0.159 OA 
BRANCH  16  17
HETATM   17  C   UNL     1      -9.612   9.819  69.258  1.00  0.00    -0.197 C  
BRANCH  17  18
HETATM   18  C   UNL     1      -9.418   9.928  67.775  1.00  0.00    -0.158 A  
HETATM   19  C   UNL     1     -10.465   9.945  66.875  1.00  0.00    -0.215 A  
HETATM   20  S   UNL     1      -9.954  10.063  65.262  1.00  0.00    -0.219 SA 
HETATM   21  C   UNL     1      -8.285  10.093  65.703  1.00  0.00    -0.150 A  
HETATM   22  C   UNL     1      -8.137  10.022  67.099  1.00  0.00    -0.117 A  
HETATM   23  C   UNL     1      -6.816  10.045  67.623  1.00  0.00    -0.084 A  
HETATM   24  C   UNL     1      -5.703  10.133  66.780  1.00  0.00    -0.050 A  
HETATM   25  C   UNL     1      -5.876  10.193  65.405  1.00  0.00    -0.098 A  
HETATM   26  C   UNL     1      -7.159  10.174  64.854  1.00  0.00    -0.131 A  
HETATM   27 CL   UNL     1      -7.318  10.251  63.136  1.00  0.00    -0.137 Cl 
ENDBRANCH  17  18
ENDBRANCH  16  17
ENDBRANCH   9  16
ENDBRANCH   6   9
TORSDOF 6
ENDMDL
MODEL      265
REMARK 921   NORMALIZED FREE ENERGY PREDICTED BY IDOCK:   -3.54 KCAL/MOL
REMARK 922        TOTAL FREE ENERGY PREDICTED BY IDOCK:   -5.83 KCAL/MOL
REMARK 923 INTER-LIGAND FREE ENERGY PREDICTED BY IDOCK:   -5.13 KCAL/MOL
REMARK 924 INTRA-LIGAND FREE ENERGY PREDICTED BY IDOCK:   -0.70 KCAL/MOL
REMARK 927      BINDING AFFINITY PREDICTED BY RF-SCORE:    0.00 PKD
ROOT
HETATM    1 CL   UNL     1     -13.152  13.598  65.274  1.00  0.00    -0.311 Cl 
HETATM    2  C   UNL     1     -11.708  12.921  65.916  1.00  0.00    -0.399 A  
HETATM    3  C   UNL     1     -11.125  11.814  65.303  1.00  0.00    -0.333 A  
HETATM    4  C   UNL     1      -9.949  11.267  65.824  1.00  0.00    -0.237 A  
HETATM    5 CL   UNL     1      -9.289   9.886  65.024  1.00  0.00    -0.300 Cl 
HETATM    6  C   UNL     1      -9.337  11.828  66.957  1.00  0.00    -0.187 A  
HETATM    7  C   UNL     1      -9.941  12.957  67.549  1.00  0.00    -0.215 A  
HETATM    8  C   UNL     1     -11.126  13.490  67.044  1.00  0.00    -0.310 A  
ENDROOT
BRANCH   6   9
HETATM    9  C   UNL     1      -8.038  11.281  67.543  1.00  0.00    -0.124 C  
BRANCH   9  10
HETATM   10  C   UNL     1      -7.766  11.986  68.886  1.00  0.00     0.014 C  
BRANCH  10  11
HETATM   11  N   UNL     1      -6.715  12.980  68.808  1.00  0.00    -0.095 NA 
HETATM   12  C   UNL     1      -5.967  13.296  67.708  1.00  0.00    -0.145 A  
HETATM   13  C   UNL     1      -6.355  13.837  69.813  1.00  0.00    -0.112 A  
HETATM   14  N   UNL     1      -5.398  14.647  69.429  1.00  0.00    -0.086 NA 
HETATM   15  C   UNL     1      -5.149  14.321  68.121  1.00  0.00    -0.116 A  
ENDBRANCH  10  11
ENDBRANCH   9  10
BRANCH   9  16
HETATM   16  O   UNL     1      -8.167   9.868  67.784  1.00  0.00    -0.113 OA 
BRANCH  16  17
HETATM   17  C   UNL     1      -7.798   9.481  69.114  1.00  0.00    -0.082 C  
BRANCH  17  18
HETATM   18  C   UNL     1      -8.839   8.577  69.704  1.00  0.00    -0.137 A  
HETATM   19  C   UNL     1      -9.920   8.101  68.990  1.00  0.00    -0.189 A  
HETATM   20  S   UNL     1     -10.943   7.110  69.911  1.00  0.00    -0.234 SA 
HETATM   21  C   UNL     1      -9.973   7.281  71.329  1.00  0.00    -0.188 A  
HETATM   22  C   UNL     1      -8.856   8.096  71.074  1.00  0.00    -0.163 A  
HETATM   23  C   UNL     1      -7.951   8.327  72.145  1.00  0.00    -0.186 A  
HETATM   24  C   UNL     1      -8.164   7.765  73.408  1.00  0.00    -0.220 A  
HETATM   25  C   UNL     1      -9.277   6.971  73.636  1.00  0.00    -0.211 A  
HETATM   26  C   UNL     1     -10.188   6.721  72.607  1.00  0.00    -0.186 A  
HETATM   27 CL   UNL     1     -11.559   5.726  72.946  1.00  0.00    -0.260 Cl 
ENDBRANCH  17  18
ENDBRANCH  16  17
ENDBRANCH   9  16
ENDBRANCH   6   9
TORSDOF 6
ENDMDL
MODEL      266
REMARK 921   NORMALIZED FREE ENERGY PREDICTED BY IDOCK:   -3.45 KCAL/MOL
REMARK 922        TOTAL FREE ENERGY PREDICTED BY IDOCK:   -5.71 KCAL/MOL
REMARK 923 INTER-LIGAND FREE ENERGY PREDICTED BY IDOCK:   -6.30 KCAL/MOL
REMARK 924 INTRA-LIGAND FREE ENERGY PREDICTED BY IDOCK:    0.59 KCAL/MOL
REMARK 927      BINDING AFFINITY PREDICTED BY RF-SCORE:    0.00 PKD
ROOT
HETATM    1 CL   UNL     1      -5.511   6.240  72.147  1.00  0.00    -0.030 Cl 
HETATM    2  C   UNL     1      -6.601   7.327  71.383  1.00  0.00    -0.050 A  
HETATM    3  C   UNL     1      -7.878   7.516  71.906  1.00  0.00    -0.094 A  
HETATM    4  C   UNL     1      -8.763   8.403  71.286  1.00  0.00    -0.162 A  
HETATM    5 CL   UNL     1     -10.335   8.578  71.979  1.00  0.00    -0.379 Cl 
HETATM    6  C   UNL     1      -8.375   9.121  70.142  1.00  0.00    -0.174 A  
HETATM    7  C   UNL     1      -7.071   8.921  69.642  1.00  0.00    -0.054 A  
HETATM    8  C   UNL     1      -6.196   8.019  70.246  1.00  0.00    -0.032 A  
ENDROOT
BRANCH   6   9
HETATM    9  C   UNL     1      -9.297  10.119  69.449  1.00  0.00    -0.219 C  
BRANCH   9  10
HETATM   10  C   UNL     1      -9.321   9.805  67.940  1.00  0.00    -0.127 C  
BRANCH  10  11
HETATM   11  N   UNL     1      -9.397   8.387  67.652  1.00  0.00    -0.136 NA 
HETATM   12  C   UNL     1     -10.369   7.519  68.066  1.00  0.00    -0.204 A  
HETATM   13  C   UNL     1      -8.543   7.695  66.837  1.00  0.00    -0.123 A  
HETATM   14  N   UNL     1      -8.891   6.434  66.742  1.00  0.00    -0.121 NA 
HETATM   15  C   UNL     1     -10.026   6.313  67.501  1.00  0.00    -0.134 A  
ENDBRANCH  10  11
ENDBRANCH   9  10
BRANCH   9  16
HETATM   16  O   UNL     1     -10.634   9.991  69.965  1.00  0.00    -0.257 OA 
BRANCH  16  17
HETATM   17  C   UNL     1     -11.577  10.863  69.329  1.00  0.00    -0.318 C  
BRANCH  17  18
HETATM   18  C   UNL     1     -12.158  11.821  70.325  1.00  0.00    -0.426 A  
HETATM   19  C   UNL     1     -12.986  11.429  71.358  1.00  0.00    -0.365 A  
HETATM   20  S   UNL     1     -13.506  12.723  72.323  1.00  0.00    -0.338 SA 
HETATM   21  C   UNL     1     -12.638  13.884  71.385  1.00  0.00    -0.361 A  
HETATM   22  C   UNL     1     -11.942  13.257  70.337  1.00  0.00    -0.350 A  
HETATM   23  C   UNL     1     -11.168  14.081  69.475  1.00  0.00    -0.249 A  
HETATM   24  C   UNL     1     -11.103  15.466  69.661  1.00  0.00    -0.280 A  
HETATM   25  C   UNL     1     -11.806  16.060  70.699  1.00  0.00    -0.342 A  
HETATM   26  C   UNL     1     -12.576  15.283  71.566  1.00  0.00    -0.373 A  
HETATM   27 CL   UNL     1     -13.431  16.075  72.840  1.00  0.00    -0.596 Cl 
ENDBRANCH  17  18
ENDBRANCH  16  17
ENDBRANCH   9  16
ENDBRANCH   6   9
TORSDOF 6
ENDMDL
MODEL      267
REMARK 921   NORMALIZED FREE ENERGY PREDICTED BY IDOCK:   -3.45 KCAL/MOL
REMARK 922        TOTAL FREE ENERGY PREDICTED BY IDOCK:   -5.70 KCAL/MOL
REMARK 923 INTER-LIGAND FREE ENERGY PREDICTED BY IDOCK:   -5.28 KCAL/MOL
REMARK 924 INTRA-LIGAND FREE ENERGY PREDICTED BY IDOCK:   -0.42 KCAL/MOL
REMARK 927      BINDING AFFINITY PREDICTED BY RF-SCORE:    0.00 PKD
ROOT
HETATM    1 CL   UNL     1      -7.695   2.764  66.112  1.00  0.00    -0.076 Cl 
HETATM    2  C   UNL     1      -7.979   4.457  66.212  1.00  0.00    -0.099 A  
HETATM    3  C   UNL     1      -9.240   4.932  66.565  1.00  0.00    -0.135 A  
HETATM    4  C   UNL     1      -9.469   6.309  66.650  1.00  0.00    -0.152 A  
HETATM    5 CL   UNL     1     -11.059   6.828  67.079  1.00  0.00    -0.460 Cl 
HETATM    6  C   UNL     1      -8.436   7.225  66.394  1.00  0.00    -0.129 A  
HETATM    7  C   UNL     1      -7.166   6.716  66.051  1.00  0.00    -0.071 A  
HETATM    8  C   UNL     1      -6.942   5.344  65.944  1.00  0.00    -0.066 A  
ENDROOT
BRANCH   6   9
HETATM    9  C   UNL     1      -8.634   8.734  66.501  1.00  0.00    -0.118 C  
BRANCH   9  10
HETATM   10  C   UNL     1      -9.846   9.137  65.639  1.00  0.00    -0.094 C  
BRANCH  10  11
HETATM   11  N   UNL     1      -9.476   9.819  64.415  1.00  0.00    -0.238 NA 
HETATM   12  C   UNL     1      -8.620   9.365  63.451  1.00  0.00    -0.211 A  
HETATM   13  C   UNL     1      -9.999  11.007  63.979  1.00  0.00    -0.335 A  
HETATM   14  N   UNL     1      -9.495  11.351  62.818  1.00  0.00    -0.355 NA 
HETATM   15  C   UNL     1      -8.637  10.338  62.479  1.00  0.00    -0.199 A  
ENDBRANCH  10  11
ENDBRANCH   9  10
BRANCH   9  16
HETATM   16  O   UNL     1      -8.902   9.097  67.867  1.00  0.00    -0.128 OA 
BRANCH  16  17
HETATM   17  C   UNL     1      -8.308  10.343  68.254  1.00  0.00    -0.119 C  
BRANCH  17  18
HETATM   18  C   UNL     1      -9.369  11.370  68.516  1.00  0.00    -0.180 A  
HETATM   19  C   UNL     1     -10.607  11.061  69.042  1.00  0.00    -0.225 A  
HETATM   20  S   UNL     1     -11.612  12.416  69.220  1.00  0.00    -0.322 SA 
HETATM   21  C   UNL     1     -10.419  13.490  68.585  1.00  0.00    -0.232 A  
HETATM   22  C   UNL     1      -9.246  12.792  68.251  1.00  0.00    -0.186 A  
HETATM   23  C   UNL     1      -8.161  13.543  67.721  1.00  0.00    -0.176 A  
HETATM   24  C   UNL     1      -8.258  14.926  67.537  1.00  0.00    -0.199 A  
HETATM   25  C   UNL     1      -9.430  15.590  67.867  1.00  0.00    -0.201 A  
HETATM   26  C   UNL     1     -10.516  14.886  68.392  1.00  0.00    -0.243 A  
HETATM   27 CL   UNL     1     -11.952  15.762  68.784  1.00  0.00    -0.331 Cl 
ENDBRANCH  17  18
ENDBRANCH  16  17
ENDBRANCH   9  16
ENDBRANCH   6   9
TORSDOF 6
ENDMDL
MODEL      268
REMARK 921   NORMALIZED FREE ENERGY PREDICTED BY IDOCK:   -3.43 KCAL/MOL
REMARK 922        TOTAL FREE ENERGY PREDICTED BY IDOCK:   -5.68 KCAL/MOL
REMARK 923 INTER-LIGAND FREE ENERGY PREDICTED BY IDOCK:   -5.24 KCAL/MOL
REMARK 924 INTRA-LIGAND FREE ENERGY PREDICTED BY IDOCK:   -0.44 KCAL/MOL
REMARK 927      BINDING AFFINITY PREDICTED BY RF-SCORE:    0.00 PKD
ROOT
HETATM    1 CL   UNL     1      -7.937   2.128  74.039  1.00  0.00    -0.052 Cl 
HETATM    2  C   UNL     1      -8.643   3.397  73.118  1.00  0.00    -0.081 A  
HETATM    3  C   UNL     1      -7.889   4.522  72.792  1.00  0.00    -0.088 A  
HETATM    4  C   UNL     1      -8.463   5.552  72.039  1.00  0.00    -0.127 A  
HETATM    5 CL   UNL     1      -7.477   6.924  71.683  1.00  0.00    -0.085 Cl 
HETATM    6  C   UNL     1      -9.793   5.462  71.596  1.00  0.00    -0.223 A  
HETATM    7  C   UNL     1     -10.528   4.305  71.930  1.00  0.00    -0.061 A  
HETATM    8  C   UNL     1      -9.964   3.288  72.699  1.00  0.00    -0.221 A  
ENDROOT
BRANCH   6   9
HETATM    9  C   UNL     1     -10.450   6.549  70.751  1.00  0.00    -0.220 C  
BRANCH   9  10
HETATM   10  C   UNL     1     -10.708   7.780  71.641  1.00  0.00    -0.220 C  
BRANCH  10  11
HETATM   11  N   UNL     1     -12.114   8.019  71.893  1.00  0.00    -0.301 NA 
HETATM   12  C   UNL     1     -12.652   9.019  72.656  1.00  0.00    -0.174 A  
HETATM   13  C   UNL     1     -13.152   7.326  71.330  1.00  0.00    -0.361 A  
HETATM   14  N   UNL     1     -14.311   7.799  71.722  1.00  0.00    -0.450 NA 
HETATM   15  C   UNL     1     -14.012   8.854  72.545  1.00  0.00    -0.396 A  
ENDBRANCH  10  11
ENDBRANCH   9  10
BRANCH   9  16
HETATM   16  O   UNL     1      -9.572   6.934  69.679  1.00  0.00    -0.147 OA 
BRANCH  16  17
HETATM   17  C   UNL     1     -10.249   7.144  68.433  1.00  0.00    -0.174 C  
BRANCH  17  18
HETATM   18  C   UNL     1      -9.267   7.167  67.300  1.00  0.00    -0.145 A  
HETATM   19  C   UNL     1      -8.258   6.236  67.155  1.00  0.00    -0.109 A  
HETATM   20  S   UNL     1      -7.288   6.511  65.791  1.00  0.00    -0.082 SA 
HETATM   21  C   UNL     1      -8.186   7.913  65.331  1.00  0.00    -0.138 A  
HETATM   22  C   UNL     1      -9.238   8.149  66.231  1.00  0.00    -0.245 A  
HETATM   23  C   UNL     1     -10.079   9.268  65.983  1.00  0.00    -0.262 A  
HETATM   24  C   UNL     1      -9.866  10.105  64.883  1.00  0.00    -0.390 A  
HETATM   25  C   UNL     1      -8.816   9.853  64.013  1.00  0.00    -0.253 A  
HETATM   26  C   UNL     1      -7.969   8.763  64.224  1.00  0.00    -0.146 A  
HETATM   27 CL   UNL     1      -6.677   8.497  63.110  1.00  0.00    -0.089 Cl 
ENDBRANCH  17  18
ENDBRANCH  16  17
ENDBRANCH   9  16
ENDBRANCH   6   9
TORSDOF 6
ENDMDL
MODEL      269
REMARK 921   NORMALIZED FREE ENERGY PREDICTED BY IDOCK:   -3.42 KCAL/MOL
REMARK 922        TOTAL FREE ENERGY PREDICTED BY IDOCK:   -5.66 KCAL/MOL
REMARK 923 INTER-LIGAND FREE ENERGY PREDICTED BY IDOCK:   -5.13 KCAL/MOL
REMARK 924 INTRA-LIGAND FREE ENERGY PREDICTED BY IDOCK:   -0.53 KCAL/MOL
REMARK 927      BINDING AFFINITY PREDICTED BY RF-SCORE:    0.00 PKD
ROOT
HETATM    1 CL   UNL     1      -8.352   2.777  64.060  1.00  0.00    -0.085 Cl 
HETATM    2  C   UNL     1      -8.877   4.071  65.064  1.00  0.00    -0.128 A  
HETATM    3  C   UNL     1      -8.018   5.133  65.335  1.00  0.00    -0.110 A  
HETATM    4  C   UNL     1      -8.448   6.187  66.148  1.00  0.00    -0.137 A  
HETATM    5 CL   UNL     1      -7.327   7.464  66.456  1.00  0.00    -0.082 Cl 
HETATM    6  C   UNL     1      -9.744   6.194  66.688  1.00  0.00    -0.196 A  
HETATM    7  C   UNL     1     -10.597   5.112  66.385  1.00  0.00    -0.336 A  
HETATM    8  C   UNL     1     -10.162   4.050  65.593  1.00  0.00    -0.083 A  
ENDROOT
BRANCH   6   9
HETATM    9  C   UNL     1     -10.264   7.336  67.557  1.00  0.00    -0.221 C  
BRANCH   9  10
HETATM   10  C   UNL     1      -9.537   7.293  68.915  1.00  0.00    -0.143 C  
BRANCH  10  11
HETATM   11  N   UNL     1     -10.239   6.514  69.915  1.00  0.00    -0.179 NA 
HETATM   12  C   UNL     1      -9.960   5.231  70.298  1.00  0.00    -0.240 A  
HETATM   13  C   UNL     1     -11.255   6.972  70.710  1.00  0.00    -0.285 A  
HETATM   14  N   UNL     1     -11.662   6.045  71.544  1.00  0.00    -0.193 NA 
HETATM   15  C   UNL     1     -10.864   4.959  71.298  1.00  0.00     0.164 A  
ENDBRANCH  10  11
ENDBRANCH   9  10
BRANCH   9  16
HETATM   16  O   UNL     1      -9.983   8.598  66.926  1.00  0.00    -0.209 OA 
BRANCH  16  17
HETATM   17  C   UNL     1     -10.486   9.725  67.655  1.00  0.00    -0.251 C  
BRANCH  17  18
HETATM   18  C   UNL     1      -9.636  10.934  67.403  1.00  0.00    -0.181 A  
HETATM   19  C   UNL     1      -8.258  10.890  67.337  1.00  0.00    -0.117 A  
HETATM   20  S   UNL     1      -7.555  12.407  67.053  1.00  0.00     0.027 SA 
HETATM   21  C   UNL     1      -9.086  13.203  67.010  1.00  0.00    -0.231 A  
HETATM   22  C   UNL     1     -10.132  12.285  67.204  1.00  0.00    -0.218 A  
HETATM   23  C   UNL     1     -11.461  12.787  67.187  1.00  0.00    -0.394 A  
HETATM   24  C   UNL     1     -11.720  14.147  66.985  1.00  0.00    -0.430 A  
HETATM   25  C   UNL     1     -10.670  15.033  66.803  1.00  0.00    -0.308 A  
HETATM   26  C   UNL     1      -9.350  14.576  66.813  1.00  0.00    -0.261 A  
HETATM   27 CL   UNL     1      -8.081  15.724  66.583  1.00  0.00    -0.300 Cl 
ENDBRANCH  17  18
ENDBRANCH  16  17
ENDBRANCH   9  16
ENDBRANCH   6   9
TORSDOF 6
ENDMDL
MODEL      270
REMARK 921   NORMALIZED FREE ENERGY PREDICTED BY IDOCK:   -3.38 KCAL/MOL
REMARK 922        TOTAL FREE ENERGY PREDICTED BY IDOCK:   -5.60 KCAL/MOL
REMARK 923 INTER-LIGAND FREE ENERGY PREDICTED BY IDOCK:   -5.57 KCAL/MOL
REMARK 924 INTRA-LIGAND FREE ENERGY PREDICTED BY IDOCK:   -0.03 KCAL/MOL
REMARK 927      BINDING AFFINITY PREDICTED BY RF-SCORE:    0.00 PKD
ROOT
HETATM    1 CL   UNL     1      -9.818   3.259  70.120  1.00  0.00    -0.078 Cl 
HETATM    2  C   UNL     1      -9.895   4.972  69.987  1.00  0.00    -0.228 A  
HETATM    3  C   UNL     1     -10.002   5.568  68.732  1.00  0.00    -0.231 A  
HETATM    4  C   UNL     1     -10.070   6.961  68.625  1.00  0.00    -0.162 A  
HETATM    5 CL   UNL     1     -10.186   7.634  67.039  1.00  0.00    -0.342 Cl 
HETATM    6  C   UNL     1     -10.042   7.770  69.772  1.00  0.00    -0.194 A  
HETATM    7  C   UNL     1      -9.947   7.139  71.030  1.00  0.00    -0.192 A  
HETATM    8  C   UNL     1      -9.857   5.752  71.137  1.00  0.00    -0.227 A  
ENDROOT
BRANCH   6   9
HETATM    9  C   UNL     1     -10.140   9.292  69.704  1.00  0.00    -0.197 C  
BRANCH   9  10
HETATM   10  C   UNL     1      -9.025   9.818  68.779  1.00  0.00    -0.133 C  
BRANCH  10  11
HETATM   11  N   UNL     1      -7.697   9.421  69.201  1.00  0.00    -0.077 NA 
HETATM   12  C   UNL     1      -7.012   9.882  70.290  1.00  0.00    -0.146 A  
HETATM   13  C   UNL     1      -6.938   8.442  68.618  1.00  0.00    -0.068 A  
HETATM   14  N   UNL     1      -5.798   8.285  69.247  1.00  0.00    -0.034 NA 
HETATM   15  C   UNL     1      -5.833   9.174  70.289  1.00  0.00    -0.035 A  
ENDBRANCH  10  11
ENDBRANCH   9  10
BRANCH   9  16
HETATM   16  O   UNL     1     -11.413   9.676  69.153  1.00  0.00    -0.014 OA 
BRANCH  16  17
HETATM   17  C   UNL     1     -12.213  10.452  70.053  1.00  0.00    -0.189 C  
BRANCH  17  18
HETATM   18  C   UNL     1     -11.917  11.913  69.891  1.00  0.00    -0.398 A  
HETATM   19  C   UNL     1     -11.216  12.428  68.819  1.00  0.00    -0.273 A  
HETATM   20  S   UNL     1     -11.017  14.111  68.900  1.00  0.00    -0.264 SA 
HETATM   21  C   UNL     1     -11.869  14.226  70.397  1.00  0.00    -0.305 A  
HETATM   22  C   UNL     1     -12.311  12.960  70.818  1.00  0.00    -0.385 A  
HETATM   23  C   UNL     1     -13.040  12.888  72.036  1.00  0.00    -0.483 A  
HETATM   24  C   UNL     1     -13.306  14.035  72.790  1.00  0.00    -0.603 A  
HETATM   25  C   UNL     1     -12.852  15.272  72.357  1.00  0.00    -0.452 A  
HETATM   26  C   UNL     1     -12.133  15.381  71.164  1.00  0.00    -0.363 A  
HETATM   27 CL   UNL     1     -11.590  16.945  70.673  1.00  0.00     0.500 Cl 
ENDBRANCH  17  18
ENDBRANCH  16  17
ENDBRANCH   9  16
ENDBRANCH   6   9
TORSDOF 6
ENDMDL
MODEL      271
REMARK 921   NORMALIZED FREE ENERGY PREDICTED BY IDOCK:   -3.35 KCAL/MOL
REMARK 922        TOTAL FREE ENERGY PREDICTED BY IDOCK:   -5.56 KCAL/MOL
REMARK 923 INTER-LIGAND FREE ENERGY PREDICTED BY IDOCK:   -4.59 KCAL/MOL
REMARK 924 INTRA-LIGAND FREE ENERGY PREDICTED BY IDOCK:   -0.98 KCAL/MOL
REMARK 927      BINDING AFFINITY PREDICTED BY RF-SCORE:    0.00 PKD
ROOT
HETATM    1 CL   UNL     1      -7.996   8.339  62.874  1.00  0.00    -0.157 Cl 
HETATM    2  C   UNL     1      -8.084   9.092  64.417  1.00  0.00    -0.145 A  
HETATM    3  C   UNL     1      -7.105  10.004  64.803  1.00  0.00    -0.137 A  
HETATM    4  C   UNL     1      -7.179  10.620  66.056  1.00  0.00    -0.131 A  
HETATM    5 CL   UNL     1      -5.924  11.729  66.476  1.00  0.00    -0.050 Cl 
HETATM    6  C   UNL     1      -8.240  10.337  66.932  1.00  0.00    -0.123 A  
HETATM    7  C   UNL     1      -9.225   9.420  66.510  1.00  0.00    -0.202 A  
HETATM    8  C   UNL     1      -9.140   8.789  65.270  1.00  0.00    -0.156 A  
ENDROOT
BRANCH   6   9
HETATM    9  C   UNL     1      -8.376  11.006  68.298  1.00  0.00    -0.133 C  
BRANCH   9  10
HETATM   10  C   UNL     1      -8.861  12.454  68.093  1.00  0.00    -0.191 C  
BRANCH  10  11
HETATM   11  N   UNL     1     -10.080  12.544  67.314  1.00  0.00    -0.212 NA 
HETATM   12  C   UNL     1     -10.193  12.962  66.017  1.00  0.00    -0.284 A  
HETATM   13  C   UNL     1     -11.319  12.138  67.728  1.00  0.00    -0.307 A  
HETATM   14  N   UNL     1     -12.217  12.311  66.786  1.00  0.00    -0.470 NA 
HETATM   15  C   UNL     1     -11.528  12.821  65.717  1.00  0.00    -0.348 A  
ENDBRANCH  10  11
ENDBRANCH   9  10
BRANCH   9  16
HETATM   16  O   UNL     1      -9.349  10.304  69.091  1.00  0.00    -0.184 OA 
BRANCH  16  17
HETATM   17  C   UNL     1      -8.803   9.724  70.283  1.00  0.00    -0.142 C  
BRANCH  17  18
HETATM   18  C   UNL     1      -8.250   8.360  69.996  1.00  0.00    -0.121 A  
HETATM   19  C   UNL     1      -6.899   8.078  69.987  1.00  0.00    -0.041 A  
HETATM   20  S   UNL     1      -6.558   6.458  69.620  1.00  0.00    -0.050 SA 
HETATM   21  C   UNL     1      -8.229   6.057  69.449  1.00  0.00    -0.115 A  
HETATM   22  C   UNL     1      -9.039   7.180  69.690  1.00  0.00    -0.140 A  
HETATM   23  C   UNL     1     -10.447   7.009  69.596  1.00  0.00    -0.238 A  
HETATM   24  C   UNL     1     -11.007   5.768  69.274  1.00  0.00    -0.330 A  
HETATM   25  C   UNL     1     -10.185   4.677  69.034  1.00  0.00    -0.032 A  
HETATM   26  C   UNL     1      -8.797   4.807  69.118  1.00  0.00    -0.092 A  
HETATM   27 CL   UNL     1      -7.821   3.416  68.808  1.00  0.00    -0.055 Cl 
ENDBRANCH  17  18
ENDBRANCH  16  17
ENDBRANCH   9  16
ENDBRANCH   6   9
TORSDOF 6
ENDMDL
MODEL      272
REMARK 921   NORMALIZED FREE ENERGY PREDICTED BY IDOCK:   -3.32 KCAL/MOL
REMARK 922        TOTAL FREE ENERGY PREDICTED BY IDOCK:   -5.53 KCAL/MOL
REMARK 923 INTER-LIGAND FREE ENERGY PREDICTED BY IDOCK:   -4.60 KCAL/MOL
REMARK 924 INTRA-LIGAND FREE ENERGY PREDICTED BY IDOCK:   -0.92 KCAL/MOL
REMARK 927      BINDING AFFINITY PREDICTED BY RF-SCORE:    0.00 PKD
ROOT
HETATM    1 CL   UNL     1      -5.521  10.890  68.410  1.00  0.00    -0.043 Cl 
HETATM    2  C   UNL     1      -6.541   9.721  69.151  1.00  0.00    -0.052 A  
HETATM    3  C   UNL     1      -6.620   8.433  68.627  1.00  0.00    -0.055 A  
HETATM    4  C   UNL     1      -7.446   7.482  69.233  1.00  0.00    -0.091 A  
HETATM    5 CL   UNL     1      -7.507   5.909  68.522  1.00  0.00    -0.084 Cl 
HETATM    6  C   UNL     1      -8.195   7.807  70.376  1.00  0.00    -0.121 A  
HETATM    7  C   UNL     1      -8.086   9.115  70.893  1.00  0.00    -0.201 A  
HETATM    8  C   UNL     1      -7.279  10.070  70.276  1.00  0.00    -0.155 A  
ENDROOT
BRANCH   6   9
HETATM    9  C   UNL     1      -9.089   6.794  71.085  1.00  0.00    -0.151 C  
BRANCH   9  10
HETATM   10  C   UNL     1      -8.790   6.843  72.597  1.00  0.00    -0.124 C  
BRANCH  10  11
HETATM   11  N   UNL     1      -7.761   5.909  73.006  1.00  0.00    -0.102 NA 
HETATM   12  C   UNL     1      -6.832   6.094  73.992  1.00  0.00    -0.080 A  
HETATM   13  C   UNL     1      -7.606   4.637  72.525  1.00  0.00    -0.086 A  
HETATM   14  N   UNL     1      -6.610   4.021  73.117  1.00  0.00    -0.040 NA 
HETATM   15  C   UNL     1      -6.122   4.916  74.032  1.00  0.00    -0.042 A  
ENDBRANCH  10  11
ENDBRANCH   9  10
BRANCH   9  16
HETATM   16  O   UNL     1     -10.472   7.134  70.880  1.00  0.00    -0.209 OA 
BRANCH  16  17
HETATM   17  C   UNL     1     -10.844   7.202  69.498  1.00  0.00    -0.225 C  
BRANCH  17  18
HETATM   18  C   UNL     1     -10.995   8.629  69.066  1.00  0.00     0.061 A  
HETATM   19  C   UNL     1     -10.570   9.097  67.838  1.00  0.00    -0.214 A  
HETATM   20  S   UNL     1     -10.855  10.755  67.622  1.00  0.00    -0.299 SA 
HETATM   21  C   UNL     1     -11.566  10.924  69.186  1.00  0.00    -0.319 A  
HETATM   22  C   UNL     1     -11.587   9.691  69.860  1.00  0.00    -0.077 A  
HETATM   23  C   UNL     1     -12.153   9.663  71.164  1.00  0.00    -0.448 A  
HETATM   24  C   UNL     1     -12.668  10.821  71.756  1.00  0.00    -0.464 A  
HETATM   25  C   UNL     1     -12.628  12.027  71.072  1.00  0.00    -0.370 A  
HETATM   26  C   UNL     1     -12.081  12.093  69.789  1.00  0.00    -0.237 A  
HETATM   27 CL   UNL     1     -12.055  13.620  68.984  1.00  0.00    -0.375 Cl 
ENDBRANCH  17  18
ENDBRANCH  16  17
ENDBRANCH   9  16
ENDBRANCH   6   9
TORSDOF 6
ENDMDL
MODEL      273
REMARK 921   NORMALIZED FREE ENERGY PREDICTED BY IDOCK:   -3.31 KCAL/MOL
REMARK 922        TOTAL FREE ENERGY PREDICTED BY IDOCK:   -5.51 KCAL/MOL
REMARK 923 INTER-LIGAND FREE ENERGY PREDICTED BY IDOCK:   -4.13 KCAL/MOL
REMARK 924 INTRA-LIGAND FREE ENERGY PREDICTED BY IDOCK:   -1.38 KCAL/MOL
REMARK 927      BINDING AFFINITY PREDICTED BY RF-SCORE:    0.00 PKD
ROOT
HETATM    1 CL   UNL     1      -8.515   3.381  73.390  1.00  0.00    -0.075 Cl 
HETATM    2  C   UNL     1      -8.773   4.450  72.068  1.00  0.00    -0.113 A  
HETATM    3  C   UNL     1      -7.737   5.264  71.618  1.00  0.00    -0.108 A  
HETATM    4  C   UNL     1      -7.946   6.129  70.540  1.00  0.00    -0.111 A  
HETATM    5 CL   UNL     1      -6.623   7.121  70.043  1.00  0.00    -0.049 Cl 
HETATM    6  C   UNL     1      -9.193   6.182  69.894  1.00  0.00    -0.156 A  
HETATM    7  C   UNL     1     -10.220   5.336  70.362  1.00  0.00    -0.338 A  
HETATM    8  C   UNL     1     -10.019   4.489  71.451  1.00  0.00    -0.259 A  
ENDROOT
BRANCH   6   9
HETATM    9  C   UNL     1      -9.458   7.091  68.698  1.00  0.00    -0.135 C  
BRANCH   9  10
HETATM   10  C   UNL     1     -10.516   6.424  67.795  1.00  0.00    -0.226 C  
BRANCH  10  11
HETATM   11  N   UNL     1      -9.943   5.737  66.655  1.00  0.00    -0.164 NA 
HETATM   12  C   UNL     1     -10.373   4.561  66.107  1.00  0.00    -0.223 A  
HETATM   13  C   UNL     1      -8.918   6.206  65.878  1.00  0.00    -0.121 A  
HETATM   14  N   UNL     1      -8.647   5.378  64.897  1.00  0.00    -0.148 NA 
HETATM   15  C   UNL     1      -9.546   4.352  65.028  1.00  0.00    -0.170 A  
ENDBRANCH  10  11
ENDBRANCH   9  10
BRANCH   9  16
HETATM   16  O   UNL     1      -9.973   8.356  69.149  1.00  0.00    -0.185 OA 
BRANCH  16  17
HETATM   17  C   UNL     1      -9.085   9.454  68.904  1.00  0.00    -0.140 C  
BRANCH  17  18
HETATM   18  C   UNL     1      -9.020   9.757  67.437  1.00  0.00    -0.144 A  
HETATM   19  C   UNL     1     -10.137  10.015  66.668  1.00  0.00    -0.227 A  
HETATM   20  S   UNL     1      -9.770  10.313  65.039  1.00  0.00    -0.323 SA 
HETATM   21  C   UNL     1      -8.076  10.101  65.293  1.00  0.00    -0.151 A  
HETATM   22  C   UNL     1      -7.806   9.813  66.642  1.00  0.00    -0.109 A  
HETATM   23  C   UNL     1      -6.448   9.619  67.016  1.00  0.00    -0.066 A  
HETATM   24  C   UNL     1      -5.418   9.710  66.075  1.00  0.00    -0.043 A  
HETATM   25  C   UNL     1      -5.711   9.989  64.748  1.00  0.00    -0.100 A  
HETATM   26  C   UNL     1      -7.033  10.186  64.344  1.00  0.00    -0.106 A  
HETATM   27 CL   UNL     1      -7.342  10.529  62.680  1.00  0.00    -0.138 Cl 
ENDBRANCH  17  18
ENDBRANCH  16  17
ENDBRANCH   9  16
ENDBRANCH   6   9
TORSDOF 6
ENDMDL
MODEL      274
REMARK 921   NORMALIZED FREE ENERGY PREDICTED BY IDOCK:   -3.30 KCAL/MOL
REMARK 922        TOTAL FREE ENERGY PREDICTED BY IDOCK:   -5.50 KCAL/MOL
REMARK 923 INTER-LIGAND FREE ENERGY PREDICTED BY IDOCK:   -4.37 KCAL/MOL
REMARK 924 INTRA-LIGAND FREE ENERGY PREDICTED BY IDOCK:   -1.13 KCAL/MOL
REMARK 927      BINDING AFFINITY PREDICTED BY RF-SCORE:    0.00 PKD
ROOT
HETATM    1 CL   UNL     1      -9.476   2.491  73.146  1.00  0.00    -0.113 Cl 
HETATM    2  C   UNL     1      -9.024   3.418  71.769  1.00  0.00    -0.105 A  
HETATM    3  C   UNL     1      -8.227   4.549  71.923  1.00  0.00    -0.104 A  
HETATM    4  C   UNL     1      -7.857   5.299  70.803  1.00  0.00    -0.093 A  
HETATM    5 CL   UNL     1      -6.879   6.698  71.066  1.00  0.00    -0.061 Cl 
HETATM    6  C   UNL     1      -8.271   4.919  69.516  1.00  0.00    -0.084 A  
HETATM    7  C   UNL     1      -9.067   3.761  69.388  1.00  0.00    -0.197 A  
HETATM    8  C   UNL     1      -9.455   3.025  70.507  1.00  0.00    -0.221 A  
ENDROOT
BRANCH   6   9
HETATM    9  C   UNL     1      -7.869   5.692  68.263  1.00  0.00    -0.096 C  
BRANCH   9  10
HETATM   10  C   UNL     1      -8.418   4.951  67.027  1.00  0.00    -0.105 C  
BRANCH  10  11
HETATM   11  N   UNL     1      -7.378   4.469  66.141  1.00  0.00    -0.076 NA 
HETATM   12  C   UNL     1      -7.144   3.171  65.783  1.00  0.00    -0.065 A  
HETATM   13  C   UNL     1      -6.503   5.256  65.442  1.00  0.00    -0.039 A  
HETATM   14  N   UNL     1      -5.703   4.532  64.694  1.00  0.00    -0.014 NA 
HETATM   15  C   UNL     1      -6.093   3.234  64.897  1.00  0.00    -0.023 A  
ENDBRANCH  10  11
ENDBRANCH   9  10
BRANCH   9  16
HETATM   16  O   UNL     1      -8.441   7.012  68.297  1.00  0.00    -0.122 OA 
BRANCH  16  17
HETATM   17  C   UNL     1      -9.819   7.047  67.902  1.00  0.00    -0.138 C  
BRANCH  17  18
HETATM   18  C   UNL     1     -10.680   7.498  69.043  1.00  0.00    -0.148 A  
HETATM   19  C   UNL     1     -11.271   6.626  69.935  1.00  0.00    -0.364 A  
HETATM   20  S   UNL     1     -12.201   7.410  71.117  1.00  0.00    -0.303 SA 
HETATM   21  C   UNL     1     -11.852   8.974  70.475  1.00  0.00    -0.073 A  
HETATM   22  C   UNL     1     -11.008   8.878  69.356  1.00  0.00    -0.064 A  
HETATM   23  C   UNL     1     -10.620  10.086  68.717  1.00  0.00    -0.241 A  
HETATM   24  C   UNL     1     -11.064  11.328  69.184  1.00  0.00    -0.312 A  
HETATM   25  C   UNL     1     -11.903  11.395  70.286  1.00  0.00    -0.438 A  
HETATM   26  C   UNL     1     -12.304  10.229  70.940  1.00  0.00    -0.373 A  
HETATM   27 CL   UNL     1     -13.351  10.371  72.307  1.00  0.00    -0.402 Cl 
ENDBRANCH  17  18
ENDBRANCH  16  17
ENDBRANCH   9  16
ENDBRANCH   6   9
TORSDOF 6
ENDMDL
MODEL      275
REMARK 921   NORMALIZED FREE ENERGY PREDICTED BY IDOCK:   -3.29 KCAL/MOL
REMARK 922        TOTAL FREE ENERGY PREDICTED BY IDOCK:   -5.49 KCAL/MOL
REMARK 923 INTER-LIGAND FREE ENERGY PREDICTED BY IDOCK:   -5.00 KCAL/MOL
REMARK 924 INTRA-LIGAND FREE ENERGY PREDICTED BY IDOCK:   -0.49 KCAL/MOL
REMARK 927      BINDING AFFINITY PREDICTED BY RF-SCORE:    0.00 PKD
ROOT
HETATM    1 CL   UNL     1     -10.146   2.986  64.023  1.00  0.00    -0.164 Cl 
HETATM    2  C   UNL     1      -9.774   4.410  64.914  1.00  0.00    -0.145 A  
HETATM    3  C   UNL     1     -10.559   4.772  66.006  1.00  0.00    -0.300 A  
HETATM    4  C   UNL     1     -10.254   5.927  66.733  1.00  0.00    -0.219 A  
HETATM    5 CL   UNL     1     -11.278   6.325  68.066  1.00  0.00    -0.355 Cl 
HETATM    6  C   UNL     1      -9.154   6.725  66.382  1.00  0.00    -0.175 A  
HETATM    7  C   UNL     1      -8.368   6.327  65.280  1.00  0.00    -0.138 A  
HETATM    8  C   UNL     1      -8.685   5.188  64.541  1.00  0.00    -0.106 A  
ENDROOT
BRANCH   6   9
HETATM    9  C   UNL     1      -8.768   7.978  67.162  1.00  0.00    -0.131 C  
BRANCH   9  10
HETATM   10  C   UNL     1      -8.242   7.555  68.548  1.00  0.00    -0.125 C  
BRANCH  10  11
HETATM   11  N   UNL     1      -7.177   6.575  68.481  1.00  0.00    -0.083 NA 
HETATM   12  C   UNL     1      -5.875   6.804  68.133  1.00  0.00    -0.020 A  
HETATM   13  C   UNL     1      -7.284   5.260  68.844  1.00  0.00    -0.062 A  
HETATM   14  N   UNL     1      -6.139   4.633  68.708  1.00  0.00    -0.029 NA 
HETATM   15  C   UNL     1      -5.255   5.583  68.268  1.00  0.00    -0.004 A  
ENDBRANCH  10  11
ENDBRANCH   9  10
BRANCH   9  16
HETATM   16  O   UNL     1      -7.721   8.682  66.471  1.00  0.00    -0.093 OA 
BRANCH  16  17
HETATM   17  C   UNL     1      -8.204   9.720  65.607  1.00  0.00    -0.130 C  
BRANCH  17  18
HETATM   18  C   UNL     1      -8.446  10.978  66.385  1.00  0.00    -0.164 A  
HETATM   19  C   UNL     1      -7.524  11.515  67.261  1.00  0.00    -0.139 A  
HETATM   20  S   UNL     1      -8.067  12.935  68.013  1.00  0.00    -0.171 SA 
HETATM   21  C   UNL     1      -9.585  12.891  67.191  1.00  0.00    -0.225 A  
HETATM   22  C   UNL     1      -9.654  11.782  66.331  1.00  0.00    -0.234 A  
HETATM   23  C   UNL     1     -10.844  11.610  65.572  1.00  0.00    -0.334 A  
HETATM   24  C   UNL     1     -11.908  12.511  65.679  1.00  0.00    -0.493 A  
HETATM   25  C   UNL     1     -11.817  13.594  66.540  1.00  0.00    -0.441 A  
HETATM   26  C   UNL     1     -10.664  13.796  67.301  1.00  0.00    -0.283 A  
HETATM   27 CL   UNL     1     -10.605  15.159  68.359  1.00  0.00    -0.234 Cl 
ENDBRANCH  17  18
ENDBRANCH  16  17
ENDBRANCH   9  16
ENDBRANCH   6   9
TORSDOF 6
ENDMDL
MODEL      276
REMARK 921   NORMALIZED FREE ENERGY PREDICTED BY IDOCK:   -3.24 KCAL/MOL
REMARK 922        TOTAL FREE ENERGY PREDICTED BY IDOCK:   -5.42 KCAL/MOL
REMARK 923 INTER-LIGAND FREE ENERGY PREDICTED BY IDOCK:   -5.39 KCAL/MOL
REMARK 924 INTRA-LIGAND FREE ENERGY PREDICTED BY IDOCK:   -0.03 KCAL/MOL
REMARK 927      BINDING AFFINITY PREDICTED BY RF-SCORE:    0.00 PKD
ROOT
HETATM    1 CL   UNL     1      -9.117   2.182  67.081  1.00  0.00    -0.158 Cl 
HETATM    2  C   UNL     1      -9.317   3.827  67.540  1.00  0.00    -0.197 A  
HETATM    3  C   UNL     1      -8.937   4.844  66.668  1.00  0.00    -0.111 A  
HETATM    4  C   UNL     1      -9.104   6.182  67.041  1.00  0.00    -0.118 A  
HETATM    5 CL   UNL     1      -8.597   7.392  65.918  1.00  0.00    -0.158 Cl 
HETATM    6  C   UNL     1      -9.664   6.515  68.285  1.00  0.00    -0.131 A  
HETATM    7  C   UNL     1     -10.053   5.464  69.142  1.00  0.00    -0.293 A  
HETATM    8  C   UNL     1      -9.866   4.131  68.781  1.00  0.00    -0.087 A  
ENDROOT
BRANCH   6   9
HETATM    9  C   UNL     1      -9.890   7.960  68.722  1.00  0.00    -0.167 C  
BRANCH   9  10
HETATM   10  C   UNL     1      -8.521   8.610  69.004  1.00  0.00    -0.124 C  
BRANCH  10  11
HETATM   11  N   UNL     1      -8.113   8.504  70.391  1.00  0.00    -0.102 NA 
HETATM   12  C   UNL     1      -6.845   8.299  70.858  1.00  0.00    -0.044 A  
HETATM   13  C   UNL     1      -8.930   8.680  71.475  1.00  0.00    -0.234 A  
HETATM   14  N   UNL     1      -8.264   8.559  72.599  1.00  0.00    -0.364 NA 
HETATM   15  C   UNL     1      -6.966   8.323  72.227  1.00  0.00    -0.093 A  
ENDBRANCH  10  11
ENDBRANCH   9  10
BRANCH   9  16
HETATM   16  O   UNL     1     -10.538   8.694  67.668  1.00  0.00    -0.248 OA 
BRANCH  16  17
HETATM   17  C   UNL     1      -9.876   9.922  67.337  1.00  0.00    -0.179 C  
BRANCH  17  18
HETATM   18  C   UNL     1     -10.567  11.081  67.990  1.00  0.00    -0.241 A  
HETATM   19  C   UNL     1     -11.416  10.945  69.070  1.00  0.00    -0.302 A  
HETATM   20  S   UNL     1     -12.067  12.421  69.596  1.00  0.00    -0.147 SA 
HETATM   21  C   UNL     1     -11.232  13.320  68.381  1.00  0.00    -0.280 A  
HETATM   22  C   UNL     1     -10.446  12.470  67.583  1.00  0.00    -0.228 A  
HETATM   23  C   UNL     1      -9.687  13.064  66.538  1.00  0.00    -0.266 A  
HETATM   24  C   UNL     1      -9.722  14.443  66.310  1.00  0.00    -0.330 A  
HETATM   25  C   UNL     1     -10.512  15.258  67.106  1.00  0.00    -0.280 A  
HETATM   26  C   UNL     1     -11.271  14.711  68.143  1.00  0.00    -0.289 A  
HETATM   27 CL   UNL     1     -12.238  15.772  69.103  1.00  0.00    -0.223 Cl 
ENDBRANCH  17  18
ENDBRANCH  16  17
ENDBRANCH   9  16
ENDBRANCH   6   9
TORSDOF 6
ENDMDL
MODEL      277
REMARK 921   NORMALIZED FREE ENERGY PREDICTED BY IDOCK:   -3.21 KCAL/MOL
REMARK 922        TOTAL FREE ENERGY PREDICTED BY IDOCK:   -5.38 KCAL/MOL
REMARK 923 INTER-LIGAND FREE ENERGY PREDICTED BY IDOCK:   -5.00 KCAL/MOL
REMARK 924 INTRA-LIGAND FREE ENERGY PREDICTED BY IDOCK:   -0.38 KCAL/MOL
REMARK 927      BINDING AFFINITY PREDICTED BY RF-SCORE:    0.00 PKD
ROOT
HETATM    1 CL   UNL     1      -8.204   5.220  74.306  1.00  0.00    -0.108 Cl 
HETATM    2  C   UNL     1      -8.467   5.924  72.760  1.00  0.00    -0.122 A  
HETATM    3  C   UNL     1      -9.673   5.714  72.096  1.00  0.00    -0.178 A  
HETATM    4  C   UNL     1      -9.888   6.291  70.840  1.00  0.00    -0.181 A  
HETATM    5 CL   UNL     1     -11.400   5.977  70.067  1.00  0.00    -0.433 Cl 
HETATM    6  C   UNL     1      -8.903   7.092  70.241  1.00  0.00    -0.148 A  
HETATM    7  C   UNL     1      -7.696   7.299  70.942  1.00  0.00    -0.092 A  
HETATM    8  C   UNL     1      -7.472   6.706  72.184  1.00  0.00    -0.094 A  
ENDROOT
BRANCH   6   9
HETATM    9  C   UNL     1      -9.104   7.762  68.885  1.00  0.00    -0.141 C  
BRANCH   9  10
HETATM   10  C   UNL     1      -9.184   6.670  67.800  1.00  0.00    -0.111 C  
BRANCH  10  11
HETATM   11  N   UNL     1      -8.346   6.944  66.650  1.00  0.00    -0.114 NA 
HETATM   12  C   UNL     1      -8.298   6.233  65.483  1.00  0.00    -0.147 A  
HETATM   13  C   UNL     1      -7.517   8.024  66.511  1.00  0.00    -0.088 A  
HETATM   14  N   UNL     1      -6.917   8.018  65.344  1.00  0.00    -0.062 NA 
HETATM   15  C   UNL     1      -7.396   6.910  64.696  1.00  0.00    -0.090 A  
ENDBRANCH  10  11
ENDBRANCH   9  10
BRANCH   9  16
HETATM   16  O   UNL     1     -10.339   8.501  68.883  1.00  0.00    -0.208 OA 
BRANCH  16  17
HETATM   17  C   UNL     1     -10.321   9.644  69.747  1.00  0.00    -0.241 C  
BRANCH  17  18
HETATM   18  C   UNL     1      -9.584  10.778  69.101  1.00  0.00    -0.169 A  
HETATM   19  C   UNL     1      -8.208  10.830  69.006  1.00  0.00    -0.138 A  
HETATM   20  S   UNL     1      -7.645  12.233  68.238  1.00  0.00    -0.140 SA 
HETATM   21  C   UNL     1      -9.241  12.846  67.999  1.00  0.00    -0.212 A  
HETATM   22  C   UNL     1     -10.199  11.952  68.506  1.00  0.00    -0.221 A  
HETATM   23  C   UNL     1     -11.569  12.311  68.377  1.00  0.00    -0.377 A  
HETATM   24  C   UNL     1     -11.949  13.512  67.769  1.00  0.00    -0.369 A  
HETATM   25  C   UNL     1     -10.983  14.380  67.283  1.00  0.00    -0.301 A  
HETATM   26  C   UNL     1      -9.628  14.060  67.391  1.00  0.00    -0.227 A  
HETATM   27 CL   UNL     1      -8.467  15.178  66.770  1.00  0.00    -0.286 Cl 
ENDBRANCH  17  18
ENDBRANCH  16  17
ENDBRANCH   9  16
ENDBRANCH   6   9
TORSDOF 6
ENDMDL
MODEL      278
REMARK 921   NORMALIZED FREE ENERGY PREDICTED BY IDOCK:   -3.16 KCAL/MOL
REMARK 922        TOTAL FREE ENERGY PREDICTED BY IDOCK:   -5.32 KCAL/MOL
REMARK 923 INTER-LIGAND FREE ENERGY PREDICTED BY IDOCK:   -4.94 KCAL/MOL
REMARK 924 INTRA-LIGAND FREE ENERGY PREDICTED BY IDOCK:   -0.38 KCAL/MOL
REMARK 927      BINDING AFFINITY PREDICTED BY RF-SCORE:    0.00 PKD
ROOT
HETATM    1 CL   UNL     1     -12.567  11.774  63.033  1.00  0.00    -0.346 Cl 
HETATM    2  C   UNL     1     -11.676  12.225  64.434  1.00  0.00    -0.365 A  
HETATM    3  C   UNL     1     -10.351  11.819  64.576  1.00  0.00    -0.340 A  
HETATM    4  C   UNL     1      -9.626  12.190  65.713  1.00  0.00    -0.197 A  
HETATM    5 CL   UNL     1      -7.994  11.640  65.833  1.00  0.00     0.253 Cl 
HETATM    6  C   UNL     1     -10.216  12.980  66.713  1.00  0.00    -0.246 A  
HETATM    7  C   UNL     1     -11.555  13.388  66.536  1.00  0.00    -0.394 A  
HETATM    8  C   UNL     1     -12.285  13.000  65.414  1.00  0.00    -0.520 A  
ENDROOT
BRANCH   6   9
HETATM    9  C   UNL     1      -9.455  13.430  67.957  1.00  0.00    -0.218 C  
BRANCH   9  10
HETATM   10  C   UNL     1     -10.110  14.716  68.499  1.00  0.00    -0.238 C  
BRANCH  10  11
HETATM   11  N   UNL     1      -9.254  15.880  68.399  1.00  0.00    -0.192 NA 
HETATM   12  C   UNL     1      -7.956  15.908  67.969  1.00  0.00    -0.136 A  
HETATM   13  C   UNL     1      -9.638  17.172  68.642  1.00  0.00    -0.281 A  
HETATM   14  N   UNL     1      -8.651  18.010  68.430  1.00  0.00    -0.286 NA 
HETATM   15  C   UNL     1      -7.601  17.236  68.009  1.00  0.00    -0.197 A  
ENDBRANCH  10  11
ENDBRANCH   9  10
BRANCH   9  16
HETATM   16  O   UNL     1      -9.531  12.414  68.972  1.00  0.00     0.152 OA 
BRANCH  16  17
HETATM   17  C   UNL     1     -10.331  11.287  68.593  1.00  0.00    -0.201 C  
BRANCH  17  18
HETATM   18  C   UNL     1      -9.848  10.045  69.280  1.00  0.00    -0.227 A  
HETATM   19  C   UNL     1     -10.685   9.179  69.954  1.00  0.00    -0.231 A  
HETATM   20  S   UNL     1      -9.867   7.865  70.647  1.00  0.00    -0.185 SA 
HETATM   21  C   UNL     1      -8.332   8.408  70.072  1.00  0.00    -0.123 A  
HETATM   22  C   UNL     1      -8.467   9.598  69.337  1.00  0.00    -0.156 A  
HETATM   23  C   UNL     1      -7.288  10.170  68.787  1.00  0.00    -0.084 A  
HETATM   24  C   UNL     1      -6.038   9.571  68.971  1.00  0.00    -0.042 A  
HETATM   25  C   UNL     1      -5.930   8.401  69.707  1.00  0.00    -0.028 A  
HETATM   26  C   UNL     1      -7.067   7.809  70.262  1.00  0.00    -0.050 A  
HETATM   27 CL   UNL     1      -6.876   6.353  71.170  1.00  0.00    -0.065 Cl 
ENDBRANCH  17  18
ENDBRANCH  16  17
ENDBRANCH   9  16
ENDBRANCH   6   9
TORSDOF 6
ENDMDL
MODEL      279
REMARK 921   NORMALIZED FREE ENERGY PREDICTED BY IDOCK:   -3.10 KCAL/MOL
REMARK 922        TOTAL FREE ENERGY PREDICTED BY IDOCK:   -5.23 KCAL/MOL
REMARK 923 INTER-LIGAND FREE ENERGY PREDICTED BY IDOCK:   -4.64 KCAL/MOL
REMARK 924 INTRA-LIGAND FREE ENERGY PREDICTED BY IDOCK:   -0.59 KCAL/MOL
REMARK 927      BINDING AFFINITY PREDICTED BY RF-SCORE:    0.00 PKD
ROOT
HETATM    1 CL   UNL     1      -8.610   2.214  74.565  1.00  0.00    -0.058 Cl 
HETATM    2  C   UNL     1      -9.115   3.463  73.497  1.00  0.00    -0.093 A  
HETATM    3  C   UNL     1      -8.214   4.450  73.104  1.00  0.00    -0.095 A  
HETATM    4  C   UNL     1      -8.624   5.463  72.232  1.00  0.00    -0.126 A  
HETATM    5 CL   UNL     1      -7.460   6.662  71.799  1.00  0.00    -0.090 Cl 
HETATM    6  C   UNL     1      -9.937   5.493  71.735  1.00  0.00    -0.228 A  
HETATM    7  C   UNL     1     -10.825   4.473  72.139  1.00  0.00     0.020 A  
HETATM    8  C   UNL     1     -10.423   3.476  73.026  1.00  0.00    -0.251 A  
ENDROOT
BRANCH   6   9
HETATM    9  C   UNL     1     -10.421   6.564  70.761  1.00  0.00    -0.220 C  
BRANCH   9  10
HETATM   10  C   UNL     1     -10.465   7.918  71.497  1.00  0.00    -0.210 C  
BRANCH  10  11
HETATM   11  N   UNL     1     -11.770   8.545  71.462  1.00  0.00    -0.281 NA 
HETATM   12  C   UNL     1     -12.970   7.955  71.751  1.00  0.00    -0.325 A  
HETATM   13  C   UNL     1     -12.009   9.870  71.216  1.00  0.00    -0.402 A  
HETATM   14  N   UNL     1     -13.289  10.146  71.291  1.00  0.00    -0.348 NA 
HETATM   15  C   UNL     1     -13.897   8.964  71.624  1.00  0.00    -0.384 A  
ENDBRANCH  10  11
ENDBRANCH   9  10
BRANCH   9  16
HETATM   16  O   UNL     1      -9.504   6.671  69.658  1.00  0.00    -0.143 OA 
BRANCH  16  17
HETATM   17  C   UNL     1     -10.151   6.898  68.399  1.00  0.00    -0.168 C  
BRANCH  17  18
HETATM   18  C   UNL     1      -9.302   6.385  67.274  1.00  0.00    -0.125 A  
HETATM   19  C   UNL     1      -8.667   7.210  66.368  1.00  0.00    -0.139 A  
HETATM   20  S   UNL     1      -7.786   6.360  65.195  1.00  0.00    -0.116 SA 
HETATM   21  C   UNL     1      -8.227   4.826  65.853  1.00  0.00    -0.112 A  
HETATM   22  C   UNL     1      -9.044   4.985  66.986  1.00  0.00    -0.117 A  
HETATM   23  C   UNL     1      -9.486   3.809  67.650  1.00  0.00    -0.234 A  
HETATM   24  C   UNL     1      -9.122   2.538  67.193  1.00  0.00    -0.172 A  
HETATM   25  C   UNL     1      -8.320   2.408  66.069  1.00  0.00    -0.094 A  
HETATM   26  C   UNL     1      -7.866   3.541  65.391  1.00  0.00    -0.086 A  
HETATM   27 CL   UNL     1      -6.872   3.321  63.996  1.00  0.00    -0.042 Cl 
ENDBRANCH  17  18
ENDBRANCH  16  17
ENDBRANCH   9  16
ENDBRANCH   6   9
TORSDOF 6
ENDMDL
MODEL      280
REMARK 921   NORMALIZED FREE ENERGY PREDICTED BY IDOCK:   -3.09 KCAL/MOL
REMARK 922        TOTAL FREE ENERGY PREDICTED BY IDOCK:   -5.23 KCAL/MOL
REMARK 923 INTER-LIGAND FREE ENERGY PREDICTED BY IDOCK:   -5.28 KCAL/MOL
REMARK 924 INTRA-LIGAND FREE ENERGY PREDICTED BY IDOCK:    0.05 KCAL/MOL
REMARK 927      BINDING AFFINITY PREDICTED BY RF-SCORE:    0.00 PKD
ROOT
HETATM    1 CL   UNL     1      -7.427   1.673  67.625  1.00  0.00    -0.053 Cl 
HETATM    2  C   UNL     1      -7.707   3.269  68.199  1.00  0.00    -0.059 A  
HETATM    3  C   UNL     1      -8.100   4.269  67.312  1.00  0.00    -0.100 A  
HETATM    4  C   UNL     1      -8.332   5.566  67.780  1.00  0.00    -0.099 A  
HETATM    5 CL   UNL     1      -8.802   6.759  66.624  1.00  0.00    -0.133 Cl 
HETATM    6  C   UNL     1      -8.184   5.873  69.143  1.00  0.00    -0.106 A  
HETATM    7  C   UNL     1      -7.799   4.838  70.020  1.00  0.00    -0.065 A  
HETATM    8  C   UNL     1      -7.545   3.550  69.551  1.00  0.00    -0.051 A  
ENDROOT
BRANCH   6   9
HETATM    9  C   UNL     1      -8.452   7.268  69.702  1.00  0.00    -0.133 C  
BRANCH   9  10
HETATM   10  C   UNL     1      -8.279   8.297  68.568  1.00  0.00    -0.131 C  
BRANCH  10  11
HETATM   11  N   UNL     1      -7.317   9.335  68.881  1.00  0.00    -0.073 NA 
HETATM   12  C   UNL     1      -6.123   9.561  68.253  1.00  0.00    -0.048 A  
HETATM   13  C   UNL     1      -7.489  10.324  69.811  1.00  0.00    -0.165 A  
HETATM   14  N   UNL     1      -6.460  11.137  69.838  1.00  0.00    -0.138 NA 
HETATM   15  C   UNL     1      -5.605  10.674  68.873  1.00  0.00    -0.040 A  
ENDBRANCH  10  11
ENDBRANCH   9  10
BRANCH   9  16
HETATM   16  O   UNL     1      -9.803   7.347  70.190  1.00  0.00    -0.179 OA 
BRANCH  16  17
HETATM   17  C   UNL     1     -10.647   8.195  69.400  1.00  0.00    -0.200 C  
BRANCH  17  18
HETATM   18  C   UNL     1     -11.438   9.115  70.281  1.00  0.00    -0.174 A  
HETATM   19  C   UNL     1     -12.151   8.681  71.380  1.00  0.00    -0.303 A  
HETATM   20  S   UNL     1     -12.963   9.934  72.186  1.00  0.00    -0.317 SA 
HETATM   21  C   UNL     1     -12.391  11.130  71.079  1.00  0.00    -0.382 A  
HETATM   22  C   UNL     1     -11.566  10.550  70.101  1.00  0.00    -0.408 A  
HETATM   23  C   UNL     1     -11.006  11.410  69.117  1.00  0.00    -0.289 A  
HETATM   24  C   UNL     1     -11.269  12.784  69.121  1.00  0.00    -0.294 A  
HETATM   25  C   UNL     1     -12.093  13.330  70.094  1.00  0.00    -0.403 A  
HETATM   26  C   UNL     1     -12.660  12.516  71.077  1.00  0.00    -0.256 A  
HETATM   27 CL   UNL     1     -13.679  13.248  72.263  1.00  0.00    -0.676 Cl 
ENDBRANCH  17  18
ENDBRANCH  16  17
ENDBRANCH   9  16
ENDBRANCH   6   9
TORSDOF 6
ENDMDL
MODEL      281
REMARK 921   NORMALIZED FREE ENERGY PREDICTED BY IDOCK:   -3.08 KCAL/MOL
REMARK 922        TOTAL FREE ENERGY PREDICTED BY IDOCK:   -5.21 KCAL/MOL
REMARK 923 INTER-LIGAND FREE ENERGY PREDICTED BY IDOCK:   -5.78 KCAL/MOL
REMARK 924 INTRA-LIGAND FREE ENERGY PREDICTED BY IDOCK:    0.57 KCAL/MOL
REMARK 927      BINDING AFFINITY PREDICTED BY RF-SCORE:    0.00 PKD
ROOT
HETATM    1 CL   UNL     1      -5.500  11.589  70.478  1.00  0.00    -0.125 Cl 
HETATM    2  C   UNL     1      -6.772  10.774  69.657  1.00  0.00    -0.122 A  
HETATM    3  C   UNL     1      -7.668   9.984  70.372  1.00  0.00     0.006 A  
HETATM    4  C   UNL     1      -8.705   9.325  69.704  1.00  0.00    -0.153 A  
HETATM    5 CL   UNL     1      -9.771   8.350  70.650  1.00  0.00    -0.193 Cl 
HETATM    6  C   UNL     1      -8.862   9.459  68.315  1.00  0.00    -0.128 A  
HETATM    7  C   UNL     1      -7.949  10.277  67.618  1.00  0.00    -0.102 A  
HETATM    8  C   UNL     1      -6.901  10.916  68.280  1.00  0.00    -0.067 A  
ENDROOT
BRANCH   6   9
HETATM    9  C   UNL     1      -9.994   8.781  67.549  1.00  0.00    -0.198 C  
BRANCH   9  10
HETATM   10  C   UNL     1     -10.592   7.668  68.433  1.00  0.00    -0.122 C  
BRANCH  10  11
HETATM   11  N   UNL     1     -10.427   6.342  67.873  1.00  0.00    -0.193 NA 
HETATM   12  C   UNL     1     -10.699   5.955  66.590  1.00  0.00    -0.252 A  
HETATM   13  C   UNL     1      -9.882   5.268  68.523  1.00  0.00    -0.152 A  
HETATM   14  N   UNL     1      -9.830   4.214  67.743  1.00  0.00    -0.103 NA 
HETATM   15  C   UNL     1     -10.334   4.629  66.539  1.00  0.00    -0.194 A  
ENDBRANCH  10  11
ENDBRANCH   9  10
BRANCH   9  16
HETATM   16  O   UNL     1     -11.028   9.737  67.254  1.00  0.00    -0.235 OA 
BRANCH  16  17
HETATM   17  C   UNL     1     -11.528  10.413  68.414  1.00  0.00    -0.155 C  
BRANCH  17  18
HETATM   18  C   UNL     1     -11.371  11.897  68.264  1.00  0.00    -0.335 A  
HETATM   19  C   UNL     1     -11.528  12.784  69.310  1.00  0.00    -0.289 A  
HETATM   20  S   UNL     1     -11.306  14.402  68.852  1.00  0.00    -0.292 SA 
HETATM   21  C   UNL     1     -10.991  13.981  67.207  1.00  0.00    -0.295 A  
HETATM   22  C   UNL     1     -11.049  12.588  67.028  1.00  0.00    -0.326 A  
HETATM   23  C   UNL     1     -10.802  12.081  65.724  1.00  0.00    -0.329 A  
HETATM   24  C   UNL     1     -10.514  12.936  64.655  1.00  0.00    -0.385 A  
HETATM   25  C   UNL     1     -10.470  14.307  64.857  1.00  0.00    -0.454 A  
HETATM   26  C   UNL     1     -10.706  14.843  66.125  1.00  0.00    -0.317 A  
HETATM   27 CL   UNL     1     -10.641  16.557  66.319  1.00  0.00    -0.266 Cl 
ENDBRANCH  17  18
ENDBRANCH  16  17
ENDBRANCH   9  16
ENDBRANCH   6   9
TORSDOF 6
ENDMDL
MODEL      282
REMARK 921   NORMALIZED FREE ENERGY PREDICTED BY IDOCK:   -3.08 KCAL/MOL
REMARK 922        TOTAL FREE ENERGY PREDICTED BY IDOCK:   -5.21 KCAL/MOL
REMARK 923 INTER-LIGAND FREE ENERGY PREDICTED BY IDOCK:   -5.86 KCAL/MOL
REMARK 924 INTRA-LIGAND FREE ENERGY PREDICTED BY IDOCK:    0.66 KCAL/MOL
REMARK 927      BINDING AFFINITY PREDICTED BY RF-SCORE:    0.00 PKD
ROOT
HETATM    1 CL   UNL     1     -12.395  14.402  62.977  1.00  0.00     0.915 Cl 
HETATM    2  C   UNL     1     -11.620  13.369  64.112  1.00  0.00    -0.398 A  
HETATM    3  C   UNL     1     -10.560  13.847  64.878  1.00  0.00    -0.436 A  
HETATM    4  C   UNL     1      -9.934  13.008  65.804  1.00  0.00    -0.254 A  
HETATM    5 CL   UNL     1      -8.616  13.660  66.710  1.00  0.00    -0.119 Cl 
HETATM    6  C   UNL     1     -10.369  11.684  65.982  1.00  0.00    -0.283 A  
HETATM    7  C   UNL     1     -11.454  11.231  65.203  1.00  0.00     0.113 A  
HETATM    8  C   UNL     1     -12.065  12.060  64.263  1.00  0.00    -0.414 A  
ENDROOT
BRANCH   6   9
HETATM    9  C   UNL     1      -9.734  10.741  67.000  1.00  0.00    -0.176 C  
BRANCH   9  10
HETATM   10  C   UNL     1      -8.204  10.769  66.811  1.00  0.00    -0.135 C  
BRANCH  10  11
HETATM   11  N   UNL     1      -7.753   9.982  65.682  1.00  0.00    -0.129 NA 
HETATM   12  C   UNL     1      -6.889   8.922  65.715  1.00  0.00    -0.072 A  
HETATM   13  C   UNL     1      -8.190  10.119  64.392  1.00  0.00    -0.165 A  
HETATM   14  N   UNL     1      -7.626   9.237  63.601  1.00  0.00    -0.108 NA 
HETATM   15  C   UNL     1      -6.817   8.486  64.413  1.00  0.00    -0.070 A  
ENDBRANCH  10  11
ENDBRANCH   9  10
BRANCH   9  16
HETATM   16  O   UNL     1     -10.039  11.184  68.334  1.00  0.00    -0.171 OA 
BRANCH  16  17
HETATM   17  C   UNL     1     -11.393  11.629  68.492  1.00  0.00    -0.274 C  
BRANCH  17  18
HETATM   18  C   UNL     1     -11.435  12.916  69.259  1.00  0.00    -0.341 A  
HETATM   19  C   UNL     1     -10.762  14.055  68.862  1.00  0.00    -0.248 A  
HETATM   20  S   UNL     1     -10.977  15.359  69.925  1.00  0.00    -0.319 SA 
HETATM   21  C   UNL     1     -11.990  14.443  70.981  1.00  0.00    -0.323 A  
HETATM   22  C   UNL     1     -12.164  13.136  70.495  1.00  0.00    -0.405 A  
HETATM   23  C   UNL     1     -12.984  12.255  71.252  1.00  0.00    -0.299 A  
HETATM   24  C   UNL     1     -13.595  12.674  72.439  1.00  0.00    -0.435 A  
HETATM   25  C   UNL     1     -13.401  13.968  72.900  1.00  0.00    -0.487 A  
HETATM   26  C   UNL     1     -12.603  14.861  72.182  1.00  0.00    -0.327 A  
HETATM   27 CL   UNL     1     -12.395  16.459  72.803  1.00  0.00    -0.503 Cl 
ENDBRANCH  17  18
ENDBRANCH  16  17
ENDBRANCH   9  16
ENDBRANCH   6   9
TORSDOF 6
ENDMDL
MODEL      283
REMARK 921   NORMALIZED FREE ENERGY PREDICTED BY IDOCK:   -3.06 KCAL/MOL
REMARK 922        TOTAL FREE ENERGY PREDICTED BY IDOCK:   -5.19 KCAL/MOL
REMARK 923 INTER-LIGAND FREE ENERGY PREDICTED BY IDOCK:   -5.77 KCAL/MOL
REMARK 924 INTRA-LIGAND FREE ENERGY PREDICTED BY IDOCK:    0.58 KCAL/MOL
REMARK 927      BINDING AFFINITY PREDICTED BY RF-SCORE:    0.00 PKD
ROOT
HETATM    1 CL   UNL     1     -12.361  14.438  63.034  1.00  0.00     0.915 Cl 
HETATM    2  C   UNL     1     -11.582  13.450  64.206  1.00  0.00    -0.402 A  
HETATM    3  C   UNL     1     -10.523  13.960  64.953  1.00  0.00    -0.446 A  
HETATM    4  C   UNL     1      -9.894  13.157  65.910  1.00  0.00    -0.233 A  
HETATM    5 CL   UNL     1      -8.578  13.848  66.790  1.00  0.00    -0.133 Cl 
HETATM    6  C   UNL     1     -10.324  11.840  66.136  1.00  0.00    -0.266 A  
HETATM    7  C   UNL     1     -11.408  11.354  65.374  1.00  0.00    -0.067 A  
HETATM    8  C   UNL     1     -12.022  12.146  64.405  1.00  0.00    -0.443 A  
ENDROOT
BRANCH   6   9
HETATM    9  C   UNL     1      -9.685  10.937  67.187  1.00  0.00    -0.174 C  
BRANCH   9  10
HETATM   10  C   UNL     1      -8.153  11.092  67.106  1.00  0.00    -0.138 C  
BRANCH  10  11
HETATM   11  N   UNL     1      -7.488  10.865  68.373  1.00  0.00    -0.092 NA 
HETATM   12  C   UNL     1      -7.406   9.683  69.056  1.00  0.00    -0.073 A  
HETATM   13  C   UNL     1      -6.749  11.791  69.059  1.00  0.00    -0.102 A  
HETATM   14  N   UNL     1      -6.239  11.278  70.154  1.00  0.00    -0.148 NA 
HETATM   15  C   UNL     1      -6.640   9.968  70.162  1.00  0.00    -0.117 A  
ENDBRANCH  10  11
ENDBRANCH   9  10
BRANCH   9  16
HETATM   16  O   UNL     1     -10.116  11.334  68.501  1.00  0.00    -0.190 OA 
BRANCH  16  17
HETATM   17  C   UNL     1     -11.439  11.887  68.524  1.00  0.00    -0.295 C  
BRANCH  17  18
HETATM   18  C   UNL     1     -11.454  13.178  69.287  1.00  0.00    -0.348 A  
HETATM   19  C   UNL     1     -10.742  14.294  68.898  1.00  0.00    -0.257 A  
HETATM   20  S   UNL     1     -10.933  15.608  69.954  1.00  0.00    -0.349 SA 
HETATM   21  C   UNL     1     -11.988  14.726  70.997  1.00  0.00    -0.331 A  
HETATM   22  C   UNL     1     -12.194  13.423  70.512  1.00  0.00    -0.425 A  
HETATM   23  C   UNL     1     -13.051  12.570  71.260  1.00  0.00    -0.223 A  
HETATM   24  C   UNL     1     -13.666  13.010  72.436  1.00  0.00    -0.593 A  
HETATM   25  C   UNL     1     -13.441  14.298  72.896  1.00  0.00    -0.491 A  
HETATM   26  C   UNL     1     -12.606  15.165  72.188  1.00  0.00    -0.332 A  
HETATM   27 CL   UNL     1     -12.360  16.758  72.808  1.00  0.00    -0.015 Cl 
ENDBRANCH  17  18
ENDBRANCH  16  17
ENDBRANCH   9  16
ENDBRANCH   6   9
TORSDOF 6
ENDMDL
MODEL      284
REMARK 921   NORMALIZED FREE ENERGY PREDICTED BY IDOCK:   -3.04 KCAL/MOL
REMARK 922        TOTAL FREE ENERGY PREDICTED BY IDOCK:   -5.15 KCAL/MOL
REMARK 923 INTER-LIGAND FREE ENERGY PREDICTED BY IDOCK:   -5.54 KCAL/MOL
REMARK 924 INTRA-LIGAND FREE ENERGY PREDICTED BY IDOCK:    0.38 KCAL/MOL
REMARK 927      BINDING AFFINITY PREDICTED BY RF-SCORE:    0.00 PKD
ROOT
HETATM    1 CL   UNL     1      -5.128  11.169  69.488  1.00  0.00    -0.044 Cl 
HETATM    2  C   UNL     1      -6.572  10.597  68.750  1.00  0.00    -0.053 A  
HETATM    3  C   UNL     1      -7.721  10.417  69.516  1.00  0.00    -0.159 A  
HETATM    4  C   UNL     1      -8.896   9.956  68.914  1.00  0.00    -0.145 A  
HETATM    5 CL   UNL     1     -10.279   9.741  69.926  1.00  0.00    -0.267 Cl 
HETATM    6  C   UNL     1      -8.937   9.682  67.538  1.00  0.00    -0.136 A  
HETATM    7  C   UNL     1      -7.762   9.886  66.783  1.00  0.00    -0.099 A  
HETATM    8  C   UNL     1      -6.584  10.324  67.387  1.00  0.00    -0.068 A  
ENDROOT
BRANCH   6   9
HETATM    9  C   UNL     1     -10.204   9.203  66.834  1.00  0.00    -0.266 C  
BRANCH   9  10
HETATM   10  C   UNL     1     -11.012   8.329  67.813  1.00  0.00     0.162 C  
BRANCH  10  11
HETATM   11  N   UNL     1     -10.690   6.919  67.720  1.00  0.00    -0.244 NA 
HETATM   12  C   UNL     1     -10.655   6.160  66.584  1.00  0.00    -0.228 A  
HETATM   13  C   UNL     1     -10.277   6.129  68.759  1.00  0.00    -0.184 A  
HETATM   14  N   UNL     1     -10.023   4.906  68.356  1.00  0.00    -0.142 NA 
HETATM   15  C   UNL     1     -10.253   4.914  67.006  1.00  0.00    -0.187 A  
ENDBRANCH  10  11
ENDBRANCH   9  10
BRANCH   9  16
HETATM   16  O   UNL     1     -11.010  10.333  66.456  1.00  0.00    -0.067 OA 
BRANCH  16  17
HETATM   17  C   UNL     1     -11.469  11.106  67.572  1.00  0.00    -0.216 C  
BRANCH  17  18
HETATM   18  C   UNL     1     -11.312  12.571  67.294  1.00  0.00    -0.373 A  
HETATM   19  C   UNL     1     -11.117  13.084  66.028  1.00  0.00    -0.278 A  
HETATM   20  S   UNL     1     -10.960  14.773  66.010  1.00  0.00    -0.333 SA 
HETATM   21  C   UNL     1     -11.143  14.893  67.723  1.00  0.00    -0.309 A  
HETATM   22  C   UNL     1     -11.337  13.624  68.294  1.00  0.00    -0.322 A  
HETATM   23  C   UNL     1     -11.514  13.556  69.703  1.00  0.00    -0.283 A  
HETATM   24  C   UNL     1     -11.494  14.710  70.493  1.00  0.00    -0.273 A  
HETATM   25  C   UNL     1     -11.294  15.950  69.905  1.00  0.00    -0.348 A  
HETATM   26  C   UNL     1     -11.118  16.056  68.523  1.00  0.00    -0.347 A  
HETATM   27 CL   UNL     1     -10.871  17.625  67.844  1.00  0.00    -0.327 Cl 
ENDBRANCH  17  18
ENDBRANCH  16  17
ENDBRANCH   9  16
ENDBRANCH   6   9
TORSDOF 6
ENDMDL
MODEL      285
REMARK 921   NORMALIZED FREE ENERGY PREDICTED BY IDOCK:   -3.04 KCAL/MOL
REMARK 922        TOTAL FREE ENERGY PREDICTED BY IDOCK:   -5.15 KCAL/MOL
REMARK 923 INTER-LIGAND FREE ENERGY PREDICTED BY IDOCK:   -4.92 KCAL/MOL
REMARK 924 INTRA-LIGAND FREE ENERGY PREDICTED BY IDOCK:   -0.23 KCAL/MOL
REMARK 927      BINDING AFFINITY PREDICTED BY RF-SCORE:    0.00 PKD
ROOT
HETATM    1 CL   UNL     1     -11.564  15.087  64.633  1.00  0.00    -0.410 Cl 
HETATM    2  C   UNL     1     -11.133  13.586  65.354  1.00  0.00    -0.293 A  
HETATM    3  C   UNL     1     -10.330  13.566  66.492  1.00  0.00    -0.282 A  
HETATM    4  C   UNL     1      -9.984  12.345  67.080  1.00  0.00    -0.212 A  
HETATM    5 CL   UNL     1      -8.973  12.392  68.479  1.00  0.00    -0.115 Cl 
HETATM    6  C   UNL     1     -10.447  11.133  66.543  1.00  0.00    -0.305 A  
HETATM    7  C   UNL     1     -11.271  11.185  65.398  1.00  0.00     0.021 A  
HETATM    8  C   UNL     1     -11.598  12.400  64.798  1.00  0.00    -0.395 A  
ENDROOT
BRANCH   6   9
HETATM    9  C   UNL     1     -10.117   9.780  67.167  1.00  0.00    -0.211 C  
BRANCH   9  10
HETATM   10  C   UNL     1      -8.592   9.688  67.368  1.00  0.00    -0.125 C  
BRANCH  10  11
HETATM   11  N   UNL     1      -8.059   8.368  67.100  1.00  0.00    -0.104 NA 
HETATM   12  C   UNL     1      -6.753   7.975  67.204  1.00  0.00    -0.065 A  
HETATM   13  C   UNL     1      -8.799   7.263  66.778  1.00  0.00    -0.134 A  
HETATM   14  N   UNL     1      -8.038   6.204  66.632  1.00  0.00    -0.108 NA 
HETATM   15  C   UNL     1      -6.764   6.634  66.896  1.00  0.00    -0.056 A  
ENDBRANCH  10  11
ENDBRANCH   9  10
BRANCH   9  16
HETATM   16  O   UNL     1     -10.757   9.664  68.450  1.00  0.00    -0.226 OA 
BRANCH  16  17
HETATM   17  C   UNL     1      -9.833   9.551  69.540  1.00  0.00    -0.193 C  
BRANCH  17  18
HETATM   18  C   UNL     1     -10.192   8.385  70.412  1.00  0.00    -0.212 A  
HETATM   19  C   UNL     1     -11.464   8.170  70.902  1.00  0.00    -0.271 A  
HETATM   20  S   UNL     1     -11.580   6.783  71.870  1.00  0.00    -0.307 SA 
HETATM   21  C   UNL     1      -9.906   6.405  71.678  1.00  0.00    -0.167 A  
HETATM   22  C   UNL     1      -9.273   7.352  70.855  1.00  0.00    -0.154 A  
HETATM   23  C   UNL     1      -7.887   7.174  70.593  1.00  0.00    -0.096 A  
HETATM   24  C   UNL     1      -7.178   6.097  71.135  1.00  0.00    -0.079 A  
HETATM   25  C   UNL     1      -7.826   5.181  71.951  1.00  0.00    -0.110 A  
HETATM   26  C   UNL     1      -9.187   5.323  72.230  1.00  0.00    -0.138 A  
HETATM   27 CL   UNL     1      -9.942   4.154  73.253  1.00  0.00    -0.170 Cl 
ENDBRANCH  17  18
ENDBRANCH  16  17
ENDBRANCH   9  16
ENDBRANCH   6   9
TORSDOF 6
ENDMDL
MODEL      286
REMARK 921   NORMALIZED FREE ENERGY PREDICTED BY IDOCK:   -2.88 KCAL/MOL
REMARK 922        TOTAL FREE ENERGY PREDICTED BY IDOCK:   -4.94 KCAL/MOL
REMARK 923 INTER-LIGAND FREE ENERGY PREDICTED BY IDOCK:   -4.64 KCAL/MOL
REMARK 924 INTRA-LIGAND FREE ENERGY PREDICTED BY IDOCK:   -0.30 KCAL/MOL
REMARK 927      BINDING AFFINITY PREDICTED BY RF-SCORE:    0.00 PKD
ROOT
HETATM    1 CL   UNL     1      -6.380   2.308  62.722  1.00  0.00    -0.010 Cl 
HETATM    2  C   UNL     1      -7.172   3.284  63.896  1.00  0.00    -0.054 A  
HETATM    3  C   UNL     1      -8.562   3.370  63.906  1.00  0.00    -0.090 A  
HETATM    4  C   UNL     1      -9.205   4.160  64.864  1.00  0.00    -0.154 A  
HETATM    5 CL   UNL     1     -10.930   4.233  64.811  1.00  0.00    -0.196 Cl 
HETATM    6  C   UNL     1      -8.465   4.865  65.827  1.00  0.00    -0.121 A  
HETATM    7  C   UNL     1      -7.059   4.749  65.801  1.00  0.00    -0.067 A  
HETATM    8  C   UNL     1      -6.416   3.979  64.833  1.00  0.00    -0.038 A  
ENDROOT
BRANCH   6   9
HETATM    9  C   UNL     1      -9.125   5.718  66.907  1.00  0.00    -0.118 C  
BRANCH   9  10
HETATM   10  C   UNL     1      -9.781   6.941  66.237  1.00  0.00     0.015 C  
BRANCH  10  11
HETATM   11  N   UNL     1      -9.384   8.201  66.834  1.00  0.00    -0.162 NA 
HETATM   12  C   UNL     1      -8.259   8.437  67.575  1.00  0.00    -0.125 A  
HETATM   13  C   UNL     1     -10.036   9.394  66.678  1.00  0.00    -0.258 A  
HETATM   14  N   UNL     1      -9.414  10.363  67.309  1.00  0.00    -0.153 NA 
HETATM   15  C   UNL     1      -8.308   9.780  67.869  1.00  0.00    -0.114 A  
ENDBRANCH  10  11
ENDBRANCH   9  10
BRANCH   9  16
HETATM   16  O   UNL     1     -10.148   4.957  67.573  1.00  0.00    -0.171 OA 
BRANCH  16  17
HETATM   17  C   UNL     1      -9.632   3.888  68.377  1.00  0.00    -0.112 C  
BRANCH  17  18
HETATM   18  C   UNL     1      -9.484   4.329  69.803  1.00  0.00    -0.260 A  
HETATM   19  C   UNL     1      -8.533   3.813  70.659  1.00  0.00    -0.069 A  
HETATM   20  S   UNL     1      -8.603   4.485  72.215  1.00  0.00    -0.115 SA 
HETATM   21  C   UNL     1      -9.932   5.508  71.807  1.00  0.00    -0.179 A  
HETATM   22  C   UNL     1     -10.304   5.329  70.463  1.00  0.00    -0.336 A  
HETATM   23  C   UNL     1     -11.384   6.111  69.970  1.00  0.00    -0.443 A  
HETATM   24  C   UNL     1     -12.053   7.025  70.791  1.00  0.00    -0.374 A  
HETATM   25  C   UNL     1     -11.670   7.176  72.115  1.00  0.00    -0.322 A  
HETATM   26  C   UNL     1     -10.614   6.426  72.635  1.00  0.00    -0.224 A  
HETATM   27 CL   UNL     1     -10.180   6.654  74.291  1.00  0.00    -0.386 Cl 
ENDBRANCH  17  18
ENDBRANCH  16  17
ENDBRANCH   9  16
ENDBRANCH   6   9
TORSDOF 6
ENDMDL
MODEL      287
REMARK 921   NORMALIZED FREE ENERGY PREDICTED BY IDOCK:   -2.86 KCAL/MOL
REMARK 922        TOTAL FREE ENERGY PREDICTED BY IDOCK:   -4.90 KCAL/MOL
REMARK 923 INTER-LIGAND FREE ENERGY PREDICTED BY IDOCK:   -3.81 KCAL/MOL
REMARK 924 INTRA-LIGAND FREE ENERGY PREDICTED BY IDOCK:   -1.09 KCAL/MOL
REMARK 927      BINDING AFFINITY PREDICTED BY RF-SCORE:    0.00 PKD
ROOT
HETATM    1 CL   UNL     1      -5.742   2.753  62.888  1.00  0.00    -0.009 Cl 
HETATM    2  C   UNL     1      -6.664   3.607  64.062  1.00  0.00    -0.043 A  
HETATM    3  C   UNL     1      -8.055   3.569  64.016  1.00  0.00    -0.089 A  
HETATM    4  C   UNL     1      -8.804   4.260  64.974  1.00  0.00    -0.136 A  
HETATM    5 CL   UNL     1     -10.525   4.182  64.849  1.00  0.00    -0.242 Cl 
HETATM    6  C   UNL     1      -8.169   4.987  65.993  1.00  0.00    -0.113 A  
HETATM    7  C   UNL     1      -6.758   4.997  66.023  1.00  0.00    -0.053 A  
HETATM    8  C   UNL     1      -6.011   4.327  65.056  1.00  0.00    -0.022 A  
ENDROOT
BRANCH   6   9
HETATM    9  C   UNL     1      -8.945   5.734  67.074  1.00  0.00    -0.114 C  
BRANCH   9  10
HETATM   10  C   UNL     1      -9.460   7.062  66.485  1.00  0.00    -0.150 C  
BRANCH  10  11
HETATM   11  N   UNL     1      -9.568   8.120  67.469  1.00  0.00    -0.151 NA 
HETATM   12  C   UNL     1      -8.623   8.483  68.389  1.00  0.00    -0.139 A  
HETATM   13  C   UNL     1     -10.613   8.997  67.581  1.00  0.00    -0.231 A  
HETATM   14  N   UNL     1     -10.405   9.866  68.542  1.00  0.00    -0.187 NA 
HETATM   15  C   UNL     1      -9.171   9.557  69.050  1.00  0.00    -0.155 A  
ENDBRANCH  10  11
ENDBRANCH   9  10
BRANCH   9  16
HETATM   16  O   UNL     1     -10.076   4.950  67.494  1.00  0.00    -0.171 OA 
BRANCH  16  17
HETATM   17  C   UNL     1      -9.885   4.305  68.760  1.00  0.00    -0.050 C  
BRANCH  17  18
HETATM   18  C   UNL     1      -9.901   5.313  69.869  1.00  0.00    -0.282 A  
HETATM   19  C   UNL     1     -10.993   6.108  70.153  1.00  0.00    -0.358 A  
HETATM   20  S   UNL     1     -10.728   7.167  71.452  1.00  0.00    -0.225 SA 
HETATM   21  C   UNL     1      -9.113   6.604  71.691  1.00  0.00    -0.142 A  
HETATM   22  C   UNL     1      -8.796   5.591  70.770  1.00  0.00    -0.143 A  
HETATM   23  C   UNL     1      -7.499   5.015  70.845  1.00  0.00    -0.077 A  
HETATM   24  C   UNL     1      -6.570   5.443  71.799  1.00  0.00    -0.048 A  
HETATM   25  C   UNL     1      -6.905   6.449  72.692  1.00  0.00    -0.069 A  
HETATM   26  C   UNL     1      -8.171   7.038  72.650  1.00  0.00    -0.108 A  
HETATM   27 CL   UNL     1      -8.535   8.288  73.784  1.00  0.00    -0.303 Cl 
ENDBRANCH  17  18
ENDBRANCH  16  17
ENDBRANCH   9  16
ENDBRANCH   6   9
TORSDOF 6
ENDMDL
MODEL      288
REMARK 921   NORMALIZED FREE ENERGY PREDICTED BY IDOCK:   -2.83 KCAL/MOL
REMARK 922        TOTAL FREE ENERGY PREDICTED BY IDOCK:   -4.87 KCAL/MOL
REMARK 923 INTER-LIGAND FREE ENERGY PREDICTED BY IDOCK:   -4.17 KCAL/MOL
REMARK 924 INTRA-LIGAND FREE ENERGY PREDICTED BY IDOCK:   -0.71 KCAL/MOL
REMARK 927      BINDING AFFINITY PREDICTED BY RF-SCORE:    0.00 PKD
ROOT
HETATM    1 CL   UNL     1      -6.470   2.119  64.366  1.00  0.00    -0.019 Cl 
HETATM    2  C   UNL     1      -7.541   3.121  65.264  1.00  0.00    -0.080 A  
HETATM    3  C   UNL     1      -8.820   3.384  64.778  1.00  0.00    -0.121 A  
HETATM    4  C   UNL     1      -9.692   4.195  65.511  1.00  0.00    -0.202 A  
HETATM    5 CL   UNL     1     -11.256   4.493  64.844  1.00  0.00    -0.015 Cl 
HETATM    6  C   UNL     1      -9.297   4.743  66.743  1.00  0.00    -0.148 A  
HETATM    7  C   UNL     1      -8.001   4.448  67.217  1.00  0.00    -0.100 A  
HETATM    8  C   UNL     1      -7.123   3.658  66.476  1.00  0.00    -0.063 A  
ENDROOT
BRANCH   6   9
HETATM    9  C   UNL     1     -10.224   5.611  67.589  1.00  0.00    -0.199 C  
BRANCH   9  10
HETATM   10  C   UNL     1      -9.576   5.824  68.972  1.00  0.00    -0.135 C  
BRANCH  10  11
HETATM   11  N   UNL     1     -10.540   6.105  70.017  1.00  0.00    -0.234 NA 
HETATM   12  C   UNL     1     -11.776   6.668  69.862  1.00  0.00    -0.270 A  
HETATM   13  C   UNL     1     -10.401   5.769  71.337  1.00  0.00    -0.224 A  
HETATM   14  N   UNL     1     -11.456   6.122  72.032  1.00  0.00    -0.305 NA 
HETATM   15  C   UNL     1     -12.318   6.680  71.125  1.00  0.00    -0.253 A  
ENDBRANCH  10  11
ENDBRANCH   9  10
BRANCH   9  16
HETATM   16  O   UNL     1     -10.400   6.894  66.963  1.00  0.00    -0.222 OA 
BRANCH  16  17
HETATM   17  C   UNL     1      -9.166   7.574  66.700  1.00  0.00    -0.162 C  
BRANCH  17  18
HETATM   18  C   UNL     1      -9.188   8.949  67.297  1.00  0.00    -0.164 A  
HETATM   19  C   UNL     1     -10.225   9.418  68.078  1.00  0.00    -0.204 A  
HETATM   20  S   UNL     1      -9.993  11.012  68.609  1.00  0.00    -0.203 SA 
HETATM   21  C   UNL     1      -8.474  11.150  67.800  1.00  0.00    -0.124 A  
HETATM   22  C   UNL     1      -8.153   9.955  67.134  1.00  0.00    -0.117 A  
HETATM   23  C   UNL     1      -6.922   9.906  66.424  1.00  0.00    -0.095 A  
HETATM   24  C   UNL     1      -6.062  11.008  66.388  1.00  0.00    -0.141 A  
HETATM   25  C   UNL     1      -6.406  12.178  67.048  1.00  0.00    -0.096 A  
HETATM   26  C   UNL     1      -7.606  12.263  67.756  1.00  0.00    -0.131 A  
HETATM   27 CL   UNL     1      -7.985  13.745  68.558  1.00  0.00    -0.141 Cl 
ENDBRANCH  17  18
ENDBRANCH  16  17
ENDBRANCH   9  16
ENDBRANCH   6   9
TORSDOF 6
ENDMDL
MODEL      289
REMARK 921   NORMALIZED FREE ENERGY PREDICTED BY IDOCK:   -2.81 KCAL/MOL
REMARK 922        TOTAL FREE ENERGY PREDICTED BY IDOCK:   -4.84 KCAL/MOL
REMARK 923 INTER-LIGAND FREE ENERGY PREDICTED BY IDOCK:   -5.42 KCAL/MOL
REMARK 924 INTRA-LIGAND FREE ENERGY PREDICTED BY IDOCK:    0.58 KCAL/MOL
REMARK 927      BINDING AFFINITY PREDICTED BY RF-SCORE:    0.00 PKD
ROOT
HETATM    1 CL   UNL     1     -12.642  15.454  63.977  1.00  0.00     0.056 Cl 
HETATM    2  C   UNL     1     -11.717  14.297  64.851  1.00  0.00    -0.397 A  
HETATM    3  C   UNL     1     -11.656  14.362  66.241  1.00  0.00    -0.377 A  
HETATM    4  C   UNL     1     -10.907  13.419  66.951  1.00  0.00    -0.277 A  
HETATM    5 CL   UNL     1     -10.862  13.568  68.671  1.00  0.00    -0.270 Cl 
HETATM    6  C   UNL     1     -10.221  12.395  66.279  1.00  0.00    -0.258 A  
HETATM    7  C   UNL     1     -10.311  12.345  64.872  1.00  0.00    -0.319 A  
HETATM    8  C   UNL     1     -11.040  13.298  64.161  1.00  0.00    -0.393 A  
ENDROOT
BRANCH   6   9
HETATM    9  C   UNL     1      -9.413  11.329  67.015  1.00  0.00    -0.171 C  
BRANCH   9  10
HETATM   10  C   UNL     1      -7.920  11.706  66.948  1.00  0.00    -0.161 C  
BRANCH  10  11
HETATM   11  N   UNL     1      -7.602  12.912  67.685  1.00  0.00    -0.142 NA 
HETATM   12  C   UNL     1      -7.691  14.198  67.229  1.00  0.00    -0.108 A  
HETATM   13  C   UNL     1      -7.238  12.965  69.003  1.00  0.00     0.017 A  
HETATM   14  N   UNL     1      -7.052  14.202  69.398  1.00  0.00    -0.091 NA 
HETATM   15  C   UNL     1      -7.332  14.978  68.303  1.00  0.00    -0.111 A  
ENDBRANCH  10  11
ENDBRANCH   9  10
BRANCH   9  16
HETATM   16  O   UNL     1      -9.812  11.280  68.396  1.00  0.00    -0.185 OA 
BRANCH  16  17
HETATM   17  C   UNL     1     -10.749  10.233  68.682  1.00  0.00    -0.224 C  
BRANCH  17  18
HETATM   18  C   UNL     1     -10.029   8.963  69.020  1.00  0.00    -0.195 A  
HETATM   19  C   UNL     1      -9.387   8.184  68.077  1.00  0.00    -0.135 A  
HETATM   20  S   UNL     1      -8.667   6.797  68.737  1.00  0.00    -0.124 SA 
HETATM   21  C   UNL     1      -9.194   7.180  70.336  1.00  0.00    -0.156 A  
HETATM   22  C   UNL     1      -9.915   8.387  70.348  1.00  0.00    -0.199 A  
HETATM   23  C   UNL     1     -10.412   8.845  71.598  1.00  0.00    -0.408 A  
HETATM   24  C   UNL     1     -10.193   8.121  72.775  1.00  0.00    -0.372 A  
HETATM   25  C   UNL     1      -9.485   6.929  72.735  1.00  0.00    -0.161 A  
HETATM   26  C   UNL     1      -8.981   6.448  71.524  1.00  0.00    -0.144 A  
HETATM   27 CL   UNL     1      -8.108   4.958  71.531  1.00  0.00    -0.109 Cl 
ENDBRANCH  17  18
ENDBRANCH  16  17
ENDBRANCH   9  16
ENDBRANCH   6   9
TORSDOF 6
ENDMDL
MODEL      290
REMARK 921   NORMALIZED FREE ENERGY PREDICTED BY IDOCK:   -2.77 KCAL/MOL
REMARK 922        TOTAL FREE ENERGY PREDICTED BY IDOCK:   -4.79 KCAL/MOL
REMARK 923 INTER-LIGAND FREE ENERGY PREDICTED BY IDOCK:   -3.99 KCAL/MOL
REMARK 924 INTRA-LIGAND FREE ENERGY PREDICTED BY IDOCK:   -0.80 KCAL/MOL
REMARK 927      BINDING AFFINITY PREDICTED BY RF-SCORE:    0.00 PKD
ROOT
HETATM    1 CL   UNL     1      -5.264   9.553  62.720  1.00  0.00    -0.081 Cl 
HETATM    2  C   UNL     1      -6.525   9.503  63.888  1.00  0.00    -0.100 A  
HETATM    3  C   UNL     1      -6.321  10.044  65.155  1.00  0.00    -0.114 A  
HETATM    4  C   UNL     1      -7.348  10.006  66.103  1.00  0.00    -0.109 A  
HETATM    5 CL   UNL     1      -7.023  10.681  67.659  1.00  0.00    -0.078 Cl 
HETATM    6  C   UNL     1      -8.594   9.438  65.789  1.00  0.00    -0.161 A  
HETATM    7  C   UNL     1      -8.777   8.911  64.494  1.00  0.00    -0.120 A  
HETATM    8  C   UNL     1      -7.745   8.927  63.555  1.00  0.00    -0.128 A  
ENDROOT
BRANCH   6   9
HETATM    9  C   UNL     1      -9.751   9.400  66.783  1.00  0.00    -0.198 C  
BRANCH   9  10
HETATM   10  C   UNL     1     -10.871  10.329  66.273  1.00  0.00     0.085 C  
BRANCH  10  11
HETATM   11  N   UNL     1     -10.931  11.593  66.979  1.00  0.00    -0.273 NA 
HETATM   12  C   UNL     1     -11.031  11.772  68.331  1.00  0.00    -0.231 A  
HETATM   13  C   UNL     1     -10.809  12.829  66.405  1.00  0.00    -0.271 A  
HETATM   14  N   UNL     1     -10.867  13.781  67.306  1.00  0.00    -0.283 NA 
HETATM   15  C   UNL     1     -11.003  13.136  68.507  1.00  0.00    -0.263 A  
ENDBRANCH  10  11
ENDBRANCH   9  10
BRANCH   9  16
HETATM   16  O   UNL     1     -10.272   8.062  66.876  1.00  0.00    -0.265 OA 
BRANCH  16  17
HETATM   17  C   UNL     1     -10.180   7.505  68.194  1.00  0.00    -0.189 C  
BRANCH  17  18
HETATM   18  C   UNL     1      -9.090   6.477  68.253  1.00  0.00    -0.119 A  
HETATM   19  C   UNL     1      -8.023   6.455  67.377  1.00  0.00    -0.116 A  
HETATM   20  S   UNL     1      -6.950   5.174  67.668  1.00  0.00    -0.066 SA 
HETATM   21  C   UNL     1      -7.882   4.581  68.994  1.00  0.00    -0.070 A  
HETATM   22  C   UNL     1      -9.013   5.387  69.209  1.00  0.00    -0.122 A  
HETATM   23  C   UNL     1      -9.881   5.032  70.277  1.00  0.00    -0.304 A  
HETATM   24  C   UNL     1      -9.621   3.920  71.084  1.00  0.00    -0.244 A  
HETATM   25  C   UNL     1      -8.502   3.136  70.846  1.00  0.00    -0.100 A  
HETATM   26  C   UNL     1      -7.625   3.454  69.806  1.00  0.00    -0.044 A  
HETATM   27 CL   UNL     1      -6.248   2.443  69.553  1.00  0.00    -0.024 Cl 
ENDBRANCH  17  18
ENDBRANCH  16  17
ENDBRANCH   9  16
ENDBRANCH   6   9
TORSDOF 6
ENDMDL
MODEL      291
REMARK 921   NORMALIZED FREE ENERGY PREDICTED BY IDOCK:   -2.72 KCAL/MOL
REMARK 922        TOTAL FREE ENERGY PREDICTED BY IDOCK:   -4.72 KCAL/MOL
REMARK 923 INTER-LIGAND FREE ENERGY PREDICTED BY IDOCK:   -4.37 KCAL/MOL
REMARK 924 INTRA-LIGAND FREE ENERGY PREDICTED BY IDOCK:   -0.35 KCAL/MOL
REMARK 927      BINDING AFFINITY PREDICTED BY RF-SCORE:    0.00 PKD
ROOT
HETATM    1 CL   UNL     1      -9.881   9.870  62.482  1.00  0.00     0.158 Cl 
HETATM    2  C   UNL     1      -9.954  10.715  63.978  1.00  0.00    -0.337 A  
HETATM    3  C   UNL     1      -8.862  10.695  64.843  1.00  0.00    -0.204 A  
HETATM    4  C   UNL     1      -8.921  11.387  66.057  1.00  0.00    -0.197 A  
HETATM    5 CL   UNL     1      -7.538  11.307  67.088  1.00  0.00    -0.129 Cl 
HETATM    6  C   UNL     1     -10.068  12.115  66.413  1.00  0.00    -0.242 A  
HETATM    7  C   UNL     1     -11.153  12.129  65.512  1.00  0.00    -0.361 A  
HETATM    8  C   UNL     1     -11.104  11.421  64.311  1.00  0.00    -0.356 A  
ENDROOT
BRANCH   6   9
HETATM    9  C   UNL     1     -10.166  12.906  67.714  1.00  0.00    -0.224 C  
BRANCH   9  10
HETATM   10  C   UNL     1     -11.136  14.085  67.504  1.00  0.00    -0.298 C  
BRANCH  10  11
HETATM   11  N   UNL     1     -10.465  15.323  67.164  1.00  0.00    -0.274 NA 
HETATM   12  C   UNL     1      -9.136  15.605  67.321  1.00  0.00    -0.205 A  
HETATM   13  C   UNL     1     -11.045  16.396  66.543  1.00  0.00     0.171 A  
HETATM   14  N   UNL     1     -10.173  17.354  66.333  1.00  0.00    -0.333 NA 
HETATM   15  C   UNL     1      -8.983  16.873  66.812  1.00  0.00    -0.240 A  
ENDBRANCH  10  11
ENDBRANCH   9  10
BRANCH   9  16
HETATM   16  O   UNL     1     -10.686  12.065  68.760  1.00  0.00    -0.222 OA 
BRANCH  16  17
HETATM   17  C   UNL     1     -11.103  10.773  68.299  1.00  0.00    -0.271 C  
BRANCH  17  18
HETATM   18  C   UNL     1     -10.044   9.750  68.579  1.00  0.00    -0.185 A  
HETATM   19  C   UNL     1      -9.193   9.819  69.663  1.00  0.00    -0.223 A  
HETATM   20  S   UNL     1      -8.086   8.536  69.725  1.00  0.00    -0.119 SA 
HETATM   21  C   UNL     1      -8.702   7.822  68.279  1.00  0.00    -0.127 A  
HETATM   22  C   UNL     1      -9.769   8.579  67.765  1.00  0.00    -0.199 A  
HETATM   23  C   UNL     1     -10.393   8.114  66.575  1.00  0.00    -0.162 A  
HETATM   24  C   UNL     1      -9.960   6.948  65.937  1.00  0.00     0.536 A  
HETATM   25  C   UNL     1      -8.899   6.224  66.461  1.00  0.00    -0.140 A  
HETATM   26  C   UNL     1      -8.262   6.648  67.629  1.00  0.00    -0.122 A  
HETATM   27 CL   UNL     1      -6.946   5.709  68.236  1.00  0.00    -0.066 Cl 
ENDBRANCH  17  18
ENDBRANCH  16  17
ENDBRANCH   9  16
ENDBRANCH   6   9
TORSDOF 6
ENDMDL
MODEL      292
REMARK 921   NORMALIZED FREE ENERGY PREDICTED BY IDOCK:   -2.67 KCAL/MOL
REMARK 922        TOTAL FREE ENERGY PREDICTED BY IDOCK:   -4.66 KCAL/MOL
REMARK 923 INTER-LIGAND FREE ENERGY PREDICTED BY IDOCK:   -3.27 KCAL/MOL
REMARK 924 INTRA-LIGAND FREE ENERGY PREDICTED BY IDOCK:   -1.39 KCAL/MOL
REMARK 927      BINDING AFFINITY PREDICTED BY RF-SCORE:    0.00 PKD
ROOT
HETATM    1 CL   UNL     1      -5.130  10.311  72.301  1.00  0.00    -0.034 Cl 
HETATM    2  C   UNL     1      -6.199   9.075  71.764  1.00  0.00    -0.065 A  
HETATM    3  C   UNL     1      -6.065   8.547  70.482  1.00  0.00    -0.032 A  
HETATM    4  C   UNL     1      -6.932   7.539  70.049  1.00  0.00    -0.059 A  
HETATM    5 CL   UNL     1      -6.719   6.941  68.443  1.00  0.00    -0.065 Cl 
HETATM    6  C   UNL     1      -7.934   7.041  70.897  1.00  0.00    -0.097 A  
HETATM    7  C   UNL     1      -8.038   7.585  72.194  1.00  0.00    -0.115 A  
HETATM    8  C   UNL     1      -7.189   8.605  72.620  1.00  0.00     0.009 A  
ENDROOT
BRANCH   6   9
HETATM    9  C   UNL     1      -8.885   5.924  70.475  1.00  0.00    -0.144 C  
BRANCH   9  10
HETATM   10  C   UNL     1      -8.858   4.820  71.551  1.00  0.00    -0.129 C  
BRANCH  10  11
HETATM   11  N   UNL     1      -7.723   3.928  71.426  1.00  0.00    -0.059 NA 
HETATM   12  C   UNL     1      -6.832   3.595  72.408  1.00  0.00    -0.040 A  
HETATM   13  C   UNL     1      -7.406   3.196  70.314  1.00  0.00    -0.040 A  
HETATM   14  N   UNL     1      -6.345   2.452  70.519  1.00  0.00    -0.023 NA 
HETATM   15  C   UNL     1      -5.980   2.691  71.818  1.00  0.00    -0.013 A  
ENDBRANCH  10  11
ENDBRANCH   9  10
BRANCH   9  16
HETATM   16  O   UNL     1     -10.226   6.434  70.375  1.00  0.00    -0.185 OA 
BRANCH  16  17
HETATM   17  C   UNL     1     -10.893   6.051  69.165  1.00  0.00    -0.352 C  
BRANCH  17  18
HETATM   18  C   UNL     1     -10.315   6.785  67.993  1.00  0.00    -0.224 A  
HETATM   19  C   UNL     1      -9.676   6.153  66.946  1.00  0.00    -0.149 A  
HETATM   20  S   UNL     1      -9.110   7.229  65.763  1.00  0.00     0.142 SA 
HETATM   21  C   UNL     1      -9.699   8.610  66.616  1.00  0.00    -0.247 A  
HETATM   22  C   UNL     1     -10.341   8.225  67.805  1.00  0.00    -0.296 A  
HETATM   23  C   UNL     1     -10.891   9.252  68.619  1.00  0.00    -0.120 A  
HETATM   24  C   UNL     1     -10.795  10.598  68.251  1.00  0.00    -0.287 A  
HETATM   25  C   UNL     1     -10.150  10.952  67.076  1.00  0.00    -0.244 A  
HETATM   26  C   UNL     1      -9.598   9.970  66.250  1.00  0.00    -0.202 A  
HETATM   27 CL   UNL     1      -8.805  10.467  64.799  1.00  0.00    -0.196 Cl 
ENDBRANCH  17  18
ENDBRANCH  16  17
ENDBRANCH   9  16
ENDBRANCH   6   9
TORSDOF 6
ENDMDL
MODEL      293
REMARK 921   NORMALIZED FREE ENERGY PREDICTED BY IDOCK:   -2.58 KCAL/MOL
REMARK 922        TOTAL FREE ENERGY PREDICTED BY IDOCK:   -4.53 KCAL/MOL
REMARK 923 INTER-LIGAND FREE ENERGY PREDICTED BY IDOCK:   -3.84 KCAL/MOL
REMARK 924 INTRA-LIGAND FREE ENERGY PREDICTED BY IDOCK:   -0.69 KCAL/MOL
REMARK 927      BINDING AFFINITY PREDICTED BY RF-SCORE:    0.00 PKD
ROOT
HETATM    1 CL   UNL     1     -12.577  13.544  67.223  1.00  0.00     0.034 Cl 
HETATM    2  C   UNL     1     -10.984  12.922  67.402  1.00  0.00    -0.260 A  
HETATM    3  C   UNL     1     -10.415  12.163  66.382  1.00  0.00    -0.261 A  
HETATM    4  C   UNL     1      -9.118  11.661  66.527  1.00  0.00    -0.197 A  
HETATM    5 CL   UNL     1      -8.479  10.716  65.230  1.00  0.00    -0.168 Cl 
HETATM    6  C   UNL     1      -8.373  11.922  67.688  1.00  0.00    -0.152 A  
HETATM    7  C   UNL     1      -8.969  12.705  68.699  1.00  0.00     0.047 A  
HETATM    8  C   UNL     1     -10.271  13.187  68.565  1.00  0.00    -0.218 A  
ENDROOT
BRANCH   6   9
HETATM    9  C   UNL     1      -6.945  11.418  67.878  1.00  0.00    -0.073 C  
BRANCH   9  10
HETATM   10  C   UNL     1      -6.484  11.763  69.307  1.00  0.00    -0.107 C  
BRANCH  10  11
HETATM   11  N   UNL     1      -6.022  13.130  69.444  1.00  0.00    -0.095 NA 
HETATM   12  C   UNL     1      -5.882  13.835  70.608  1.00  0.00    -0.187 A  
HETATM   13  C   UNL     1      -5.562  13.919  68.425  1.00  0.00    -0.104 A  
HETATM   14  N   UNL     1      -5.178  15.093  68.866  1.00  0.00    -0.094 NA 
HETATM   15  C   UNL     1      -5.371  15.052  70.222  1.00  0.00    -0.120 A  
ENDBRANCH  10  11
ENDBRANCH   9  10
BRANCH   9  16
HETATM   16  O   UNL     1      -6.906   9.989  67.716  1.00  0.00    -0.074 OA 
BRANCH  16  17
HETATM   17  C   UNL     1      -6.846   9.275  68.958  1.00  0.00    -0.055 C  
BRANCH  17  18
HETATM   18  C   UNL     1      -7.229   7.840  68.756  1.00  0.00    -0.081 A  
HETATM   19  C   UNL     1      -6.432   6.783  69.146  1.00  0.00    -0.036 A  
HETATM   20  S   UNL     1      -7.107   5.270  68.783  1.00  0.00    -0.062 SA 
HETATM   21  C   UNL     1      -8.515   5.973  68.074  1.00  0.00    -0.115 A  
HETATM   22  C   UNL     1      -8.456   7.376  68.134  1.00  0.00    -0.124 A  
HETATM   23  C   UNL     1      -9.552   8.104  67.596  1.00  0.00    -0.186 A  
HETATM   24  C   UNL     1     -10.648   7.449  67.025  1.00  0.00    -0.414 A  
HETATM   25  C   UNL     1     -10.678   6.064  66.972  1.00  0.00    -0.412 A  
HETATM   26  C   UNL     1      -9.620   5.314  67.491  1.00  0.00    -0.134 A  
HETATM   27 CL   UNL     1      -9.709   3.592  67.397  1.00  0.00    -0.190 Cl 
ENDBRANCH  17  18
ENDBRANCH  16  17
ENDBRANCH   9  16
ENDBRANCH   6   9
TORSDOF 6
ENDMDL
MODEL      294
REMARK 921   NORMALIZED FREE ENERGY PREDICTED BY IDOCK:   -2.57 KCAL/MOL
REMARK 922        TOTAL FREE ENERGY PREDICTED BY IDOCK:   -4.52 KCAL/MOL
REMARK 923 INTER-LIGAND FREE ENERGY PREDICTED BY IDOCK:   -4.95 KCAL/MOL
REMARK 924 INTRA-LIGAND FREE ENERGY PREDICTED BY IDOCK:    0.43 KCAL/MOL
REMARK 927      BINDING AFFINITY PREDICTED BY RF-SCORE:    0.00 PKD
ROOT
HETATM    1 CL   UNL     1      -8.157   4.675  74.357  1.00  0.00    -0.098 Cl 
HETATM    2  C   UNL     1      -8.332   5.585  72.908  1.00  0.00    -0.116 A  
HETATM    3  C   UNL     1      -9.484   5.451  72.137  1.00  0.00    -0.164 A  
HETATM    4  C   UNL     1      -9.628   6.194  70.962  1.00  0.00    -0.175 A  
HETATM    5 CL   UNL     1     -11.075   5.969  70.047  1.00  0.00    -0.447 Cl 
HETATM    6  C   UNL     1      -8.625   7.087  70.551  1.00  0.00    -0.141 A  
HETATM    7  C   UNL     1      -7.474   7.212  71.357  1.00  0.00    -0.080 A  
HETATM    8  C   UNL     1      -7.320   6.455  72.518  1.00  0.00    -0.087 A  
ENDROOT
BRANCH   6   9
HETATM    9  C   UNL     1      -8.751   7.938  69.290  1.00  0.00    -0.138 C  
BRANCH   9  10
HETATM   10  C   UNL     1      -8.137   7.162  68.107  1.00  0.00    -0.124 C  
BRANCH  10  11
HETATM   11  N   UNL     1      -9.049   6.202  67.519  1.00  0.00    -0.111 NA 
HETATM   12  C   UNL     1     -10.165   6.479  66.779  1.00  0.00    -0.191 A  
HETATM   13  C   UNL     1      -8.891   4.843  67.536  1.00  0.00    -0.103 A  
HETATM   14  N   UNL     1      -9.860   4.241  66.887  1.00  0.00    -0.213 NA 
HETATM   15  C   UNL     1     -10.657   5.249  66.411  1.00  0.00    -0.276 A  
ENDBRANCH  10  11
ENDBRANCH   9  10
BRANCH   9  16
HETATM   16  O   UNL     1     -10.139   8.187  69.004  1.00  0.00    -0.194 OA 
BRANCH  16  17
HETATM   17  C   UNL     1     -10.684   9.288  69.741  1.00  0.00    -0.231 C  
BRANCH  17  18
HETATM   18  C   UNL     1     -10.710  10.524  68.893  1.00  0.00    -0.253 A  
HETATM   19  C   UNL     1     -11.862  11.023  68.318  1.00  0.00    -0.148 A  
HETATM   20  S   UNL     1     -11.596  12.424  67.401  1.00  0.00    -0.356 SA 
HETATM   21  C   UNL     1      -9.902  12.423  67.733  1.00  0.00    -0.203 A  
HETATM   22  C   UNL     1      -9.557  11.343  68.563  1.00  0.00    -0.190 A  
HETATM   23  C   UNL     1      -8.192  11.208  68.936  1.00  0.00    -0.104 A  
HETATM   24  C   UNL     1      -7.226  12.118  68.492  1.00  0.00    -0.102 A  
HETATM   25  C   UNL     1      -7.592  13.171  67.668  1.00  0.00    -0.171 A  
HETATM   26  C   UNL     1      -8.924  13.336  67.281  1.00  0.00    -0.217 A  
HETATM   27 CL   UNL     1      -9.323  14.665  66.253  1.00  0.00    -0.311 Cl 
ENDBRANCH  17  18
ENDBRANCH  16  17
ENDBRANCH   9  16
ENDBRANCH   6   9
TORSDOF 6
ENDMDL
MODEL      295
REMARK 921   NORMALIZED FREE ENERGY PREDICTED BY IDOCK:   -2.52 KCAL/MOL
REMARK 922        TOTAL FREE ENERGY PREDICTED BY IDOCK:   -4.45 KCAL/MOL
REMARK 923 INTER-LIGAND FREE ENERGY PREDICTED BY IDOCK:   -3.89 KCAL/MOL
REMARK 924 INTRA-LIGAND FREE ENERGY PREDICTED BY IDOCK:   -0.56 KCAL/MOL
REMARK 927      BINDING AFFINITY PREDICTED BY RF-SCORE:    0.00 PKD
ROOT
HETATM    1 CL   UNL     1      -9.404   2.572  74.159  1.00  0.00    -0.094 Cl 
HETATM    2  C   UNL     1      -9.544   3.867  73.036  1.00  0.00    -0.123 A  
HETATM    3  C   UNL     1      -8.408   4.362  72.400  1.00  0.00    -0.109 A  
HETATM    4  C   UNL     1      -8.523   5.412  71.483  1.00  0.00    -0.127 A  
HETATM    5 CL   UNL     1      -7.073   5.987  70.743  1.00  0.00    -0.066 Cl 
HETATM    6  C   UNL     1      -9.777   5.970  71.186  1.00  0.00    -0.206 A  
HETATM    7  C   UNL     1     -10.912   5.440  71.834  1.00  0.00    -0.219 A  
HETATM    8  C   UNL     1     -10.795   4.408  72.765  1.00  0.00    -0.214 A  
ENDROOT
BRANCH   6   9
HETATM    9  C   UNL     1      -9.952   7.098  70.173  1.00  0.00    -0.186 C  
BRANCH   9  10
HETATM   10  C   UNL     1      -9.064   8.285  70.595  1.00  0.00    -0.152 C  
BRANCH  10  11
HETATM   11  N   UNL     1      -9.329   9.494  69.843  1.00  0.00    -0.207 NA 
HETATM   12  C   UNL     1     -10.555  10.027  69.553  1.00  0.00    -0.244 A  
HETATM   13  C   UNL     1      -8.380  10.357  69.366  1.00  0.00    -0.142 A  
HETATM   14  N   UNL     1      -8.929  11.382  68.758  1.00  0.00    -0.128 NA 
HETATM   15  C   UNL     1     -10.281  11.188  68.869  1.00  0.00    -0.194 A  
ENDBRANCH  10  11
ENDBRANCH   9  10
BRANCH   9  16
HETATM   16  O   UNL     1      -9.536   6.655  68.869  1.00  0.00    -0.132 OA 
BRANCH  16  17
HETATM   17  C   UNL     1     -10.369   5.625  68.323  1.00  0.00    -0.194 C  
BRANCH  17  18
HETATM   18  C   UNL     1      -9.541   4.617  67.584  1.00  0.00    -0.200 A  
HETATM   19  C   UNL     1      -8.407   4.035  68.114  1.00  0.00    -0.092 A  
HETATM   20  S   UNL     1      -7.661   2.942  67.053  1.00  0.00    -0.075 SA 
HETATM   21  C   UNL     1      -8.837   3.207  65.817  1.00  0.00    -0.138 A  
HETATM   22  C   UNL     1      -9.806   4.132  66.241  1.00  0.00    -0.208 A  
HETATM   23  C   UNL     1     -10.853   4.451  65.334  1.00  0.00    -0.058 A  
HETATM   24  C   UNL     1     -10.917   3.867  64.065  1.00  0.00    -0.060 A  
HETATM   25  C   UNL     1      -9.944   2.962  63.669  1.00  0.00    -0.153 A  
HETATM   26  C   UNL     1      -8.900   2.623  64.533  1.00  0.00    -0.112 A  
HETATM   27 CL   UNL     1      -7.715   1.492  63.988  1.00  0.00    -0.058 Cl 
ENDBRANCH  17  18
ENDBRANCH  16  17
ENDBRANCH   9  16
ENDBRANCH   6   9
TORSDOF 6
ENDMDL
MODEL      296
REMARK 921   NORMALIZED FREE ENERGY PREDICTED BY IDOCK:   -2.52 KCAL/MOL
REMARK 922        TOTAL FREE ENERGY PREDICTED BY IDOCK:   -4.45 KCAL/MOL
REMARK 923 INTER-LIGAND FREE ENERGY PREDICTED BY IDOCK:   -4.60 KCAL/MOL
REMARK 924 INTRA-LIGAND FREE ENERGY PREDICTED BY IDOCK:    0.16 KCAL/MOL
REMARK 927      BINDING AFFINITY PREDICTED BY RF-SCORE:    0.00 PKD
ROOT
HETATM    1 CL   UNL     1     -11.813   9.488  71.591  1.00  0.00    -0.457 Cl 
HETATM    2  C   UNL     1     -10.972   8.361  70.602  1.00  0.00    -0.243 A  
HETATM    3  C   UNL     1      -9.667   8.630  70.196  1.00  0.00    -0.182 A  
HETATM    4  C   UNL     1      -8.982   7.711  69.395  1.00  0.00    -0.139 A  
HETATM    5 CL   UNL     1      -7.372   8.114  68.916  1.00  0.00    -0.088 Cl 
HETATM    6  C   UNL     1      -9.591   6.508  69.002  1.00  0.00    -0.135 A  
HETATM    7  C   UNL     1     -10.908   6.256  69.439  1.00  0.00    -0.404 A  
HETATM    8  C   UNL     1     -11.600   7.182  70.218  1.00  0.00    -0.260 A  
ENDROOT
BRANCH   6   9
HETATM    9  C   UNL     1      -8.872   5.465  68.151  1.00  0.00    -0.105 C  
BRANCH   9  10
HETATM   10  C   UNL     1      -8.641   6.049  66.743  1.00  0.00    -0.110 C  
BRANCH  10  11
HETATM   11  N   UNL     1      -8.890   5.095  65.681  1.00  0.00    -0.142 NA 
HETATM   12  C   UNL     1      -8.042   4.768  64.659  1.00  0.00    -0.107 A  
HETATM   13  C   UNL     1      -9.994   4.293  65.576  1.00  0.00    -0.225 A  
HETATM   14  N   UNL     1      -9.915   3.508  64.528  1.00  0.00    -0.178 NA 
HETATM   15  C   UNL     1      -8.705   3.793  63.951  1.00  0.00    -0.098 A  
ENDBRANCH  10  11
ENDBRANCH   9  10
BRANCH   9  16
HETATM   16  O   UNL     1      -7.594   5.154  68.734  1.00  0.00    -0.076 OA 
BRANCH  16  17
HETATM   17  C   UNL     1      -7.554   5.343  70.154  1.00  0.00    -0.073 C  
BRANCH  17  18
HETATM   18  C   UNL     1      -8.254   4.217  70.853  1.00  0.00    -0.077 A  
HETATM   19  C   UNL     1      -8.079   2.891  70.512  1.00  0.00    -0.045 A  
HETATM   20  S   UNL     1      -9.004   1.831  71.460  1.00  0.00    -0.078 SA 
HETATM   21  C   UNL     1      -9.694   3.120  72.379  1.00  0.00    -0.148 A  
HETATM   22  C   UNL     1      -9.193   4.361  71.952  1.00  0.00    -0.174 A  
HETATM   23  C   UNL     1      -9.660   5.526  72.620  1.00  0.00    -0.166 A  
HETATM   24  C   UNL     1     -10.586   5.440  73.664  1.00  0.00    -0.318 A  
HETATM   25  C   UNL     1     -11.071   4.203  74.062  1.00  0.00    -0.179 A  
HETATM   26  C   UNL     1     -10.634   3.037  73.430  1.00  0.00    -0.174 A  
HETATM   27 CL   UNL     1     -11.272   1.524  73.964  1.00  0.00    -0.225 Cl 
ENDBRANCH  17  18
ENDBRANCH  16  17
ENDBRANCH   9  16
ENDBRANCH   6   9
TORSDOF 6
ENDMDL
MODEL      297
REMARK 921   NORMALIZED FREE ENERGY PREDICTED BY IDOCK:   -2.49 KCAL/MOL
REMARK 922        TOTAL FREE ENERGY PREDICTED BY IDOCK:   -4.41 KCAL/MOL
REMARK 923 INTER-LIGAND FREE ENERGY PREDICTED BY IDOCK:   -4.20 KCAL/MOL
REMARK 924 INTRA-LIGAND FREE ENERGY PREDICTED BY IDOCK:   -0.21 KCAL/MOL
REMARK 927      BINDING AFFINITY PREDICTED BY RF-SCORE:    0.00 PKD
ROOT
HETATM    1 CL   UNL     1      -8.836   8.211  62.353  1.00  0.00     0.071 Cl 
HETATM    2  C   UNL     1      -8.411   8.985  63.828  1.00  0.00    -0.176 A  
HETATM    3  C   UNL     1      -7.125   9.492  64.002  1.00  0.00    -0.109 A  
HETATM    4  C   UNL     1      -6.781  10.126  65.200  1.00  0.00    -0.131 A  
HETATM    5 CL   UNL     1      -5.167  10.717  65.356  1.00  0.00    -0.133 Cl 
HETATM    6  C   UNL     1      -7.724  10.269  66.232  1.00  0.00    -0.116 A  
HETATM    7  C   UNL     1      -9.022   9.758  66.023  1.00  0.00    -0.186 A  
HETATM    8  C   UNL     1      -9.359   9.106  64.837  1.00  0.00    -0.050 A  
ENDROOT
BRANCH   6   9
HETATM    9  C   UNL     1      -7.401  10.976  67.545  1.00  0.00    -0.101 C  
BRANCH   9  10
HETATM   10  C   UNL     1      -7.306  12.492  67.280  1.00  0.00    -0.113 C  
BRANCH  10  11
HETATM   11  N   UNL     1      -8.590  13.162  67.326  1.00  0.00    -0.203 NA 
HETATM   12  C   UNL     1      -9.742  12.769  66.703  1.00  0.00    -0.252 A  
HETATM   13  C   UNL     1      -8.884  14.264  68.082  1.00  0.00    -0.183 A  
HETATM   14  N   UNL     1     -10.140  14.617  67.943  1.00  0.00    -0.224 NA 
HETATM   15  C   UNL     1     -10.684  13.693  67.090  1.00  0.00    -0.277 A  
ENDBRANCH  10  11
ENDBRANCH   9  10
BRANCH   9  16
HETATM   16  O   UNL     1      -8.453  10.743  68.498  1.00  0.00    -0.128 OA 
BRANCH  16  17
HETATM   17  C   UNL     1      -7.978  10.555  69.838  1.00  0.00     0.104 C  
BRANCH  17  18
HETATM   18  C   UNL     1      -8.288   9.167  70.313  1.00  0.00    -0.187 A  
HETATM   19  C   UNL     1      -7.322   8.200  70.503  1.00  0.00    -0.056 A  
HETATM   20  S   UNL     1      -7.957   6.719  71.033  1.00  0.00    -0.103 SA 
HETATM   21  C   UNL     1      -9.578   7.315  71.028  1.00  0.00    -0.158 A  
HETATM   22  C   UNL     1      -9.613   8.661  70.626  1.00  0.00    -0.222 A  
HETATM   23  C   UNL     1     -10.881   9.301  70.578  1.00  0.00    -0.318 A  
HETATM   24  C   UNL     1     -12.052   8.616  70.917  1.00  0.00    -0.173 A  
HETATM   25  C   UNL     1     -11.991   7.286  71.304  1.00  0.00    -0.359 A  
HETATM   26  C   UNL     1     -10.763   6.624  71.363  1.00  0.00    -0.229 A  
HETATM   27 CL   UNL     1     -10.744   4.967  71.849  1.00  0.00    -0.188 Cl 
ENDBRANCH  17  18
ENDBRANCH  16  17
ENDBRANCH   9  16
ENDBRANCH   6   9
TORSDOF 6
ENDMDL
MODEL      298
REMARK 921   NORMALIZED FREE ENERGY PREDICTED BY IDOCK:   -2.20 KCAL/MOL
REMARK 922        TOTAL FREE ENERGY PREDICTED BY IDOCK:   -4.02 KCAL/MOL
REMARK 923 INTER-LIGAND FREE ENERGY PREDICTED BY IDOCK:   -3.57 KCAL/MOL
REMARK 924 INTRA-LIGAND FREE ENERGY PREDICTED BY IDOCK:   -0.45 KCAL/MOL
REMARK 927      BINDING AFFINITY PREDICTED BY RF-SCORE:    0.00 PKD
ROOT
HETATM    1 CL   UNL     1     -11.553   6.852  71.268  1.00  0.00    -0.330 Cl 
HETATM    2  C   UNL     1     -10.270   7.453  70.293  1.00  0.00    -0.200 A  
HETATM    3  C   UNL     1      -9.095   7.904  70.888  1.00  0.00    -0.157 A  
HETATM    4  C   UNL     1      -8.051   8.388  70.094  1.00  0.00    -0.108 A  
HETATM    5 CL   UNL     1      -6.628   8.945  70.899  1.00  0.00    -0.054 Cl 
HETATM    6  C   UNL     1      -8.168   8.416  68.695  1.00  0.00    -0.123 A  
HETATM    7  C   UNL     1      -9.364   7.941  68.118  1.00  0.00    -0.146 A  
HETATM    8  C   UNL     1     -10.415   7.478  68.910  1.00  0.00    -0.214 A  
ENDROOT
BRANCH   6   9
HETATM    9  C   UNL     1      -7.045   8.911  67.788  1.00  0.00    -0.079 C  
BRANCH   9  10
HETATM   10  C   UNL     1      -6.685   7.791  66.792  1.00  0.00    -0.067 C  
BRANCH  10  11
HETATM   11  N   UNL     1      -6.364   8.285  65.468  1.00  0.00    -0.048 NA 
HETATM   12  C   UNL     1      -7.191   8.307  64.379  1.00  0.00    -0.088 A  
HETATM   13  C   UNL     1      -5.193   8.898  65.111  1.00  0.00    -0.038 A  
HETATM   14  N   UNL     1      -5.214   9.269  63.852  1.00  0.00    -0.059 NA 
HETATM   15  C   UNL     1      -6.451   8.908  63.388  1.00  0.00    -0.089 A  
ENDBRANCH  10  11
ENDBRANCH   9  10
BRANCH   9  16
HETATM   16  O   UNL     1      -7.487  10.061  67.044  1.00  0.00    -0.091 OA 
BRANCH  16  17
HETATM   17  C   UNL     1      -6.786  11.264  67.384  1.00  0.00    -0.085 C  
BRANCH  17  18
HETATM   18  C   UNL     1      -7.584  12.467  66.981  1.00  0.00    -0.046 A  
HETATM   19  C   UNL     1      -7.372  13.726  67.507  1.00  0.00    -0.162 A  
HETATM   20  S   UNL     1      -8.428  14.896  66.880  1.00  0.00    -0.179 SA 
HETATM   21  C   UNL     1      -9.231  13.752  65.866  1.00  0.00     0.192 A  
HETATM   22  C   UNL     1      -8.666  12.473  66.013  1.00  0.00     0.364 A  
HETATM   23  C   UNL     1      -9.214  11.418  65.234  1.00  0.00    -0.146 A  
HETATM   24  C   UNL     1     -10.278  11.643  64.355  1.00  0.00    -0.346 A  
HETATM   25  C   UNL     1     -10.822  12.913  64.234  1.00  0.00    -0.423 A  
HETATM   26  C   UNL     1     -10.309  13.974  64.982  1.00  0.00    -0.409 A  
HETATM   27 CL   UNL     1     -11.026  15.534  64.794  1.00  0.00    -0.442 Cl 
ENDBRANCH  17  18
ENDBRANCH  16  17
ENDBRANCH   9  16
ENDBRANCH   6   9
TORSDOF 6
ENDMDL
MODEL      299
REMARK 921   NORMALIZED FREE ENERGY PREDICTED BY IDOCK:   -2.20 KCAL/MOL
REMARK 922        TOTAL FREE ENERGY PREDICTED BY IDOCK:   -4.02 KCAL/MOL
REMARK 923 INTER-LIGAND FREE ENERGY PREDICTED BY IDOCK:   -3.58 KCAL/MOL
REMARK 924 INTRA-LIGAND FREE ENERGY PREDICTED BY IDOCK:   -0.43 KCAL/MOL
REMARK 927      BINDING AFFINITY PREDICTED BY RF-SCORE:    0.00 PKD
ROOT
HETATM    1 CL   UNL     1     -10.146   2.984  64.026  1.00  0.00    -0.164 Cl 
HETATM    2  C   UNL     1      -9.780   4.380  64.962  1.00  0.00    -0.164 A  
HETATM    3  C   UNL     1     -10.576   4.713  66.055  1.00  0.00    -0.244 A  
HETATM    4  C   UNL     1     -10.276   5.845  66.818  1.00  0.00    -0.219 A  
HETATM    5 CL   UNL     1     -11.313   6.208  68.150  1.00  0.00    -0.168 Cl 
HETATM    6  C   UNL     1      -9.168   6.649  66.503  1.00  0.00    -0.183 A  
HETATM    7  C   UNL     1      -8.371   6.280  65.399  1.00  0.00    -0.148 A  
HETATM    8  C   UNL     1      -8.683   5.164  64.624  1.00  0.00    -0.120 A  
ENDROOT
BRANCH   6   9
HETATM    9  C   UNL     1      -8.787   7.878  67.324  1.00  0.00    -0.127 C  
BRANCH   9  10
HETATM   10  C   UNL     1      -8.285   7.413  68.705  1.00  0.00    -0.129 C  
BRANCH  10  11
HETATM   11  N   UNL     1      -7.224   6.430  68.626  1.00  0.00    -0.082 NA 
HETATM   12  C   UNL     1      -5.915   6.660  68.304  1.00  0.00    -0.021 A  
HETATM   13  C   UNL     1      -7.343   5.105  68.950  1.00  0.00    -0.065 A  
HETATM   14  N   UNL     1      -6.200   4.476  68.813  1.00  0.00    -0.031 NA 
HETATM   15  C   UNL     1      -5.304   5.433  68.413  1.00  0.00    -0.007 A  
ENDBRANCH  10  11
ENDBRANCH   9  10
BRANCH   9  16
HETATM   16  O   UNL     1      -7.726   8.595  66.668  1.00  0.00    -0.094 OA 
BRANCH  16  17
HETATM   17  C   UNL     1      -8.191   9.664  65.833  1.00  0.00    -0.119 C  
BRANCH  17  18
HETATM   18  C   UNL     1      -8.441  10.896  66.650  1.00  0.00    -0.151 A  
HETATM   19  C   UNL     1      -9.702  11.314  67.023  1.00  0.00    -0.186 A  
HETATM   20  S   UNL     1      -9.689  12.746  67.932  1.00  0.00    -0.222 SA 
HETATM   21  C   UNL     1      -7.969  12.874  67.862  1.00  0.00    -0.156 A  
HETATM   22  C   UNL     1      -7.417  11.800  67.144  1.00  0.00    -0.149 A  
HETATM   23  C   UNL     1      -6.003  11.758  67.004  1.00  0.00    -0.153 A  
HETATM   24  C   UNL     1      -5.190  12.751  67.560  1.00  0.00    -0.072 A  
HETATM   25  C   UNL     1      -5.760  13.805  68.257  1.00  0.00    -0.109 A  
HETATM   26  C   UNL     1      -7.145  13.879  68.416  1.00  0.00    -0.104 A  
HETATM   27 CL   UNL     1      -7.802  15.214  69.293  1.00  0.00    -0.195 Cl 
ENDBRANCH  17  18
ENDBRANCH  16  17
ENDBRANCH   9  16
ENDBRANCH   6   9
TORSDOF 6
ENDMDL
MODEL      300
REMARK 921   NORMALIZED FREE ENERGY PREDICTED BY IDOCK:   -2.10 KCAL/MOL
REMARK 922        TOTAL FREE ENERGY PREDICTED BY IDOCK:   -3.89 KCAL/MOL
REMARK 923 INTER-LIGAND FREE ENERGY PREDICTED BY IDOCK:   -3.31 KCAL/MOL
REMARK 924 INTRA-LIGAND FREE ENERGY PREDICTED BY IDOCK:   -0.58 KCAL/MOL
REMARK 927      BINDING AFFINITY PREDICTED BY RF-SCORE:    0.00 PKD
ROOT
HETATM    1 CL   UNL     1      -5.480   1.563  62.515  1.00  0.00    -0.003 Cl 
HETATM    2  C   UNL     1      -6.234   2.587  63.673  1.00  0.00    -0.014 A  
HETATM    3  C   UNL     1      -7.549   3.004  63.481  1.00  0.00    -0.063 A  
HETATM    4  C   UNL     1      -8.162   3.834  64.425  1.00  0.00    -0.090 A  
HETATM    5 CL   UNL     1      -9.789   4.325  64.117  1.00  0.00    -0.116 Cl 
HETATM    6  C   UNL     1      -7.470   4.245  65.575  1.00  0.00    -0.081 A  
HETATM    7  C   UNL     1      -6.145   3.796  65.751  1.00  0.00    -0.027 A  
HETATM    8  C   UNL     1      -5.524   2.987  64.799  1.00  0.00    -0.009 A  
ENDROOT
BRANCH   6   9
HETATM    9  C   UNL     1      -8.109   5.127  66.645  1.00  0.00    -0.108 C  
BRANCH   9  10
HETATM   10  C   UNL     1      -8.370   6.522  66.043  1.00  0.00    -0.133 C  
BRANCH  10  11
HETATM   11  N   UNL     1      -7.616   7.575  66.692  1.00  0.00    -0.095 NA 
HETATM   12  C   UNL     1      -6.616   8.327  66.140  1.00  0.00    -0.050 A  
HETATM   13  C   UNL     1      -7.843   8.053  67.955  1.00  0.00    -0.126 A  
HETATM   14  N   UNL     1      -7.022   9.033  68.249  1.00  0.00    -0.075 NA 
HETATM   15  C   UNL     1      -6.256   9.213  67.127  1.00  0.00    -0.058 A  
ENDBRANCH  10  11
ENDBRANCH   9  10
BRANCH   9  16
HETATM   16  O   UNL     1      -9.367   4.563  67.057  1.00  0.00    -0.126 OA 
BRANCH  16  17
HETATM   17  C   UNL     1      -9.407   4.216  68.447  1.00  0.00    -0.155 C  
BRANCH  17  18
HETATM   18  C   UNL     1     -10.203   5.226  69.217  1.00  0.00    -0.301 A  
HETATM   19  C   UNL     1     -10.971   6.203  68.614  1.00  0.00    -0.336 A  
HETATM   20  S   UNL     1     -11.753   7.216  69.727  1.00  0.00     0.188 SA 
HETATM   21  C   UNL     1     -11.086   6.384  71.084  1.00  0.00    -0.291 A  
HETATM   22  C   UNL     1     -10.271   5.319  70.665  1.00  0.00    -0.327 A  
HETATM   23  C   UNL     1      -9.652   4.527  71.670  1.00  0.00    -0.222 A  
HETATM   24  C   UNL     1      -9.847   4.799  73.029  1.00  0.00    -0.178 A  
HETATM   25  C   UNL     1     -10.650   5.861  73.416  1.00  0.00    -0.279 A  
HETATM   26  C   UNL     1     -11.275   6.660  72.456  1.00  0.00    -0.266 A  
HETATM   27 CL   UNL     1     -12.264   7.970  72.994  1.00  0.00     0.032 Cl 
ENDBRANCH  17  18
ENDBRANCH  16  17
ENDBRANCH   9  16
ENDBRANCH   6   9
TORSDOF 6
ENDMDL
MODEL      301
REMARK 921   NORMALIZED FREE ENERGY PREDICTED BY IDOCK:   -2.09 KCAL/MOL
REMARK 922        TOTAL FREE ENERGY PREDICTED BY IDOCK:   -3.87 KCAL/MOL
REMARK 923 INTER-LIGAND FREE ENERGY PREDICTED BY IDOCK:   -3.33 KCAL/MOL
REMARK 924 INTRA-LIGAND FREE ENERGY PREDICTED BY IDOCK:   -0.54 KCAL/MOL
REMARK 927      BINDING AFFINITY PREDICTED BY RF-SCORE:    0.00 PKD
ROOT
HETATM    1 CL   UNL     1      -5.488   1.551  62.510  1.00  0.00    -0.003 Cl 
HETATM    2  C   UNL     1      -6.160   2.584  63.709  1.00  0.00    -0.014 A  
HETATM    3  C   UNL     1      -7.538   2.782  63.765  1.00  0.00    -0.067 A  
HETATM    4  C   UNL     1      -8.083   3.619  64.743  1.00  0.00    -0.090 A  
HETATM    5 CL   UNL     1      -9.797   3.831  64.746  1.00  0.00    -0.184 Cl 
HETATM    6  C   UNL     1      -7.257   4.259  65.681  1.00  0.00    -0.072 A  
HETATM    7  C   UNL     1      -5.867   4.030  65.610  1.00  0.00    -0.022 A  
HETATM    8  C   UNL     1      -5.320   3.213  64.621  1.00  0.00    -0.009 A  
ENDROOT
BRANCH   6   9
HETATM    9  C   UNL     1      -7.811   5.159  66.782  1.00  0.00    -0.100 C  
BRANCH   9  10
HETATM   10  C   UNL     1      -8.648   6.278  66.131  1.00  0.00    -0.143 C  
BRANCH  10  11
HETATM   11  N   UNL     1      -7.840   7.310  65.513  1.00  0.00    -0.108 NA 
HETATM   12  C   UNL     1      -7.587   7.464  64.178  1.00  0.00    -0.109 A  
HETATM   13  C   UNL     1      -7.261   8.364  66.167  1.00  0.00    -0.077 A  
HETATM   14  N   UNL     1      -6.625   9.152  65.333  1.00  0.00    -0.068 NA 
HETATM   15  C   UNL     1      -6.821   8.603  64.094  1.00  0.00    -0.075 A  
ENDBRANCH  10  11
ENDBRANCH   9  10
BRANCH   9  16
HETATM   16  O   UNL     1      -8.665   4.398  67.654  1.00  0.00    -0.102 OA 
BRANCH  16  17
HETATM   17  C   UNL     1      -8.129   4.229  68.973  1.00  0.00    -0.071 C  
BRANCH  17  18
HETATM   18  C   UNL     1      -8.982   4.940  69.980  1.00  0.00    -0.143 A  
HETATM   19  C   UNL     1      -9.794   4.282  70.881  1.00  0.00    -0.189 A  
HETATM   20  S   UNL     1     -10.656   5.336  71.894  1.00  0.00    -0.180 SA 
HETATM   21  C   UNL     1      -9.974   6.740  71.156  1.00  0.00    -0.181 A  
HETATM   22  C   UNL     1      -9.074   6.381  70.138  1.00  0.00    -0.154 A  
HETATM   23  C   UNL     1      -8.419   7.430  69.437  1.00  0.00    -0.133 A  
HETATM   24  C   UNL     1      -8.663   8.772  69.748  1.00  0.00    -0.133 A  
HETATM   25  C   UNL     1      -9.561   9.099  70.752  1.00  0.00    -0.338 A  
HETATM   26  C   UNL     1     -10.223   8.095  71.463  1.00  0.00    -0.206 A  
HETATM   27 CL   UNL     1     -11.332   8.560  72.702  1.00  0.00    -0.357 Cl 
ENDBRANCH  17  18
ENDBRANCH  16  17
ENDBRANCH   9  16
ENDBRANCH   6   9
TORSDOF 6
ENDMDL
MODEL      302
REMARK 921   NORMALIZED FREE ENERGY PREDICTED BY IDOCK:   -2.06 KCAL/MOL
REMARK 922        TOTAL FREE ENERGY PREDICTED BY IDOCK:   -3.82 KCAL/MOL
REMARK 923 INTER-LIGAND FREE ENERGY PREDICTED BY IDOCK:   -4.20 KCAL/MOL
REMARK 924 INTRA-LIGAND FREE ENERGY PREDICTED BY IDOCK:    0.38 KCAL/MOL
REMARK 927      BINDING AFFINITY PREDICTED BY RF-SCORE:    0.00 PKD
ROOT
HETATM    1 CL   UNL     1     -13.370  16.159  74.328  1.00  0.00     0.274 Cl 
HETATM    2  C   UNL     1     -12.761  15.760  72.770  1.00  0.00    -0.454 A  
HETATM    3  C   UNL     1     -11.885  16.627  72.121  1.00  0.00    -0.169 A  
HETATM    4  C   UNL     1     -11.387  16.300  70.857  1.00  0.00    -0.285 A  
HETATM    5 CL   UNL     1     -10.318  17.427  70.104  1.00  0.00     0.473 Cl 
HETATM    6  C   UNL     1     -11.751  15.095  70.233  1.00  0.00    -0.338 A  
HETATM    7  C   UNL     1     -12.628  14.229  70.918  1.00  0.00    -0.426 A  
HETATM    8  C   UNL     1     -13.143  14.565  72.170  1.00  0.00    -0.438 A  
ENDROOT
BRANCH   6   9
HETATM    9  C   UNL     1     -11.211  14.684  68.866  1.00  0.00    -0.267 C  
BRANCH   9  10
HETATM   10  C   UNL     1     -12.135  13.602  68.274  1.00  0.00    -0.271 C  
BRANCH  10  11
HETATM   11  N   UNL     1     -11.563  12.272  68.324  1.00  0.00    -0.310 NA 
HETATM   12  C   UNL     1     -11.730  11.273  67.405  1.00  0.00    -0.027 A  
HETATM   13  C   UNL     1     -10.682  11.822  69.269  1.00  0.00    -0.069 A  
HETATM   14  N   UNL     1     -10.312  10.586  69.027  1.00  0.00    -0.200 NA 
HETATM   15  C   UNL     1     -10.957  10.235  67.870  1.00  0.00    -0.292 A  
ENDBRANCH  10  11
ENDBRANCH   9  10
BRANCH   9  16
HETATM   16  O   UNL     1     -11.207  15.818  67.980  1.00  0.00    -0.342 OA 
BRANCH  16  17
HETATM   17  C   UNL     1      -9.952  16.020  67.317  1.00  0.00    -0.242 C  
BRANCH  17  18
HETATM   18  C   UNL     1      -8.867  15.244  68.001  1.00  0.00    -0.169 A  
HETATM   19  C   UNL     1      -8.198  15.704  69.117  1.00  0.00    -0.248 A  
HETATM   20  S   UNL     1      -7.011  14.627  69.674  1.00  0.00    -0.118 SA 
HETATM   21  C   UNL     1      -7.342  13.483  68.424  1.00  0.00    -0.115 A  
HETATM   22  C   UNL     1      -8.378  13.940  67.592  1.00  0.00    -0.183 A  
HETATM   23  C   UNL     1      -8.775  13.101  66.515  1.00  0.00     0.077 A  
HETATM   24  C   UNL     1      -8.156  11.867  66.290  1.00  0.00     0.185 A  
HETATM   25  C   UNL     1      -7.131  11.443  67.122  1.00  0.00    -0.134 A  
HETATM   26  C   UNL     1      -6.715  12.240  68.191  1.00  0.00    -0.069 A  
HETATM   27 CL   UNL     1      -5.433  11.664  69.195  1.00  0.00    -0.047 Cl 
ENDBRANCH  17  18
ENDBRANCH  16  17
ENDBRANCH   9  16
ENDBRANCH   6   9
TORSDOF 6
ENDMDL
MODEL      303
REMARK 921   NORMALIZED FREE ENERGY PREDICTED BY IDOCK:   -2.05 KCAL/MOL
REMARK 922        TOTAL FREE ENERGY PREDICTED BY IDOCK:   -3.82 KCAL/MOL
REMARK 923 INTER-LIGAND FREE ENERGY PREDICTED BY IDOCK:   -3.73 KCAL/MOL
REMARK 924 INTRA-LIGAND FREE ENERGY PREDICTED BY IDOCK:   -0.08 KCAL/MOL
REMARK 927      BINDING AFFINITY PREDICTED BY RF-SCORE:    0.00 PKD
ROOT
HETATM    1 CL   UNL     1     -12.394  12.984  63.266  1.00  0.00    -0.525 Cl 
HETATM    2  C   UNL     1     -11.685  12.479  64.749  1.00  0.00    -0.358 A  
HETATM    3  C   UNL     1     -11.763  13.299  65.872  1.00  0.00    -0.403 A  
HETATM    4  C   UNL     1     -11.190  12.886  67.079  1.00  0.00    -0.288 A  
HETATM    5 CL   UNL     1     -11.310  13.958  68.428  1.00  0.00    -0.295 Cl 
HETATM    6  C   UNL     1     -10.543  11.644  67.177  1.00  0.00    -0.269 A  
HETATM    7  C   UNL     1     -10.490  10.828  66.028  1.00  0.00    -0.273 A  
HETATM    8  C   UNL     1     -11.042  11.249  64.818  1.00  0.00    -0.200 A  
ENDROOT
BRANCH   6   9
HETATM    9  C   UNL     1      -9.927  11.141  68.480  1.00  0.00    -0.199 C  
BRANCH   9  10
HETATM   10  C   UNL     1     -10.324   9.664  68.677  1.00  0.00    -0.203 C  
BRANCH  10  11
HETATM   11  N   UNL     1     -10.107   9.189  70.028  1.00  0.00    -0.194 NA 
HETATM   12  C   UNL     1      -8.938   9.238  70.736  1.00  0.00    -0.232 A  
HETATM   13  C   UNL     1     -11.072   8.686  70.858  1.00  0.00    -0.264 A  
HETATM   14  N   UNL     1     -10.577   8.376  72.033  1.00  0.00    -0.290 NA 
HETATM   15  C   UNL     1      -9.252   8.716  71.970  1.00  0.00    -0.268 A  
ENDBRANCH  10  11
ENDBRANCH   9  10
BRANCH   9  16
HETATM   16  O   UNL     1      -8.492  11.224  68.408  1.00  0.00    -0.141 OA 
BRANCH  16  17
HETATM   17  C   UNL     1      -8.024  12.154  67.423  1.00  0.00    -0.168 C  
BRANCH  17  18
HETATM   18  C   UNL     1      -7.513  13.401  68.080  1.00  0.00    -0.133 A  
HETATM   19  C   UNL     1      -7.566  14.645  67.486  1.00  0.00    -0.194 A  
HETATM   20  S   UNL     1      -6.905  15.873  68.452  1.00  0.00    -0.121 SA 
HETATM   21  C   UNL     1      -6.508  14.776  69.724  1.00  0.00    -0.160 A  
HETATM   22  C   UNL     1      -6.901  13.468  69.396  1.00  0.00    -0.010 A  
HETATM   23  C   UNL     1      -6.649  12.445  70.350  1.00  0.00     0.701 A  
HETATM   24  C   UNL     1      -6.031  12.730  71.572  1.00  0.00     0.896 A  
HETATM   25  C   UNL     1      -5.645  14.028  71.868  1.00  0.00    -0.215 A  
HETATM   26  C   UNL     1      -5.877  15.060  70.956  1.00  0.00     0.043 A  
HETATM   27 CL   UNL     1      -5.375  16.658  71.376  1.00  0.00     0.030 Cl 
ENDBRANCH  17  18
ENDBRANCH  16  17
ENDBRANCH   9  16
ENDBRANCH   6   9
TORSDOF 6
ENDMDL
MODEL      304
REMARK 921   NORMALIZED FREE ENERGY PREDICTED BY IDOCK:   -1.79 KCAL/MOL
REMARK 922        TOTAL FREE ENERGY PREDICTED BY IDOCK:   -3.47 KCAL/MOL
REMARK 923 INTER-LIGAND FREE ENERGY PREDICTED BY IDOCK:   -3.99 KCAL/MOL
REMARK 924 INTRA-LIGAND FREE ENERGY PREDICTED BY IDOCK:    0.53 KCAL/MOL
REMARK 927      BINDING AFFINITY PREDICTED BY RF-SCORE:    0.00 PKD
ROOT
HETATM    1 CL   UNL     1     -11.096   4.483  65.571  1.00  0.00    -0.035 Cl 
HETATM    2  C   UNL     1     -10.176   5.481  66.627  1.00  0.00    -0.235 A  
HETATM    3  C   UNL     1      -9.018   4.985  67.220  1.00  0.00    -0.113 A  
HETATM    4  C   UNL     1      -8.268   5.798  68.076  1.00  0.00    -0.104 A  
HETATM    5 CL   UNL     1      -6.852   5.115  68.789  1.00  0.00    -0.050 Cl 
HETATM    6  C   UNL     1      -8.663   7.121  68.337  1.00  0.00    -0.125 A  
HETATM    7  C   UNL     1      -9.833   7.601  67.711  1.00  0.00    -0.196 A  
HETATM    8  C   UNL     1     -10.593   6.784  66.876  1.00  0.00    -0.374 A  
ENDROOT
BRANCH   6   9
HETATM    9  C   UNL     1      -7.862   8.052  69.241  1.00  0.00    -0.114 C  
BRANCH   9  10
HETATM   10  C   UNL     1      -7.530   7.307  70.549  1.00  0.00    -0.083 C  
BRANCH  10  11
HETATM   11  N   UNL     1      -8.610   7.341  71.516  1.00  0.00    -0.118 NA 
HETATM   12  C   UNL     1      -8.981   8.405  72.291  1.00  0.00    -0.233 A  
HETATM   13  C   UNL     1      -9.498   6.327  71.750  1.00  0.00    -0.150 A  
HETATM   14  N   UNL     1     -10.385   6.670  72.655  1.00  0.00    -0.190 NA 
HETATM   15  C   UNL     1     -10.074   7.960  72.998  1.00  0.00    -0.317 A  
ENDBRANCH  10  11
ENDBRANCH   9  10
BRANCH   9  16
HETATM   16  O   UNL     1      -6.628   8.418  68.597  1.00  0.00    -0.052 OA 
BRANCH  16  17
HETATM   17  C   UNL     1      -6.138   9.706  68.993  1.00  0.00    -0.041 C  
BRANCH  17  18
HETATM   18  C   UNL     1      -6.940  10.794  68.344  1.00  0.00    -0.070 A  
HETATM   19  C   UNL     1      -7.019  12.077  68.846  1.00  0.00    -0.104 A  
HETATM   20  S   UNL     1      -8.006  13.097  67.916  1.00  0.00    -0.174 SA 
HETATM   21  C   UNL     1      -8.381  11.845  66.788  1.00  0.00    -0.153 A  
HETATM   22  C   UNL     1      -7.729  10.650  67.133  1.00  0.00    -0.110 A  
HETATM   23  C   UNL     1      -7.931   9.522  66.292  1.00  0.00    -0.107 A  
HETATM   24  C   UNL     1      -8.751   9.599  65.161  1.00  0.00    -0.192 A  
HETATM   25  C   UNL     1      -9.389  10.789  64.846  1.00  0.00    -0.261 A  
HETATM   26  C   UNL     1      -9.214  11.918  65.649  1.00  0.00    -0.053 A  
HETATM   27 CL   UNL     1     -10.034  13.373  65.212  1.00  0.00    -0.241 Cl 
ENDBRANCH  17  18
ENDBRANCH  16  17
ENDBRANCH   9  16
ENDBRANCH   6   9
TORSDOF 6
ENDMDL
MODEL      305
REMARK 921   NORMALIZED FREE ENERGY PREDICTED BY IDOCK:   -1.74 KCAL/MOL
REMARK 922        TOTAL FREE ENERGY PREDICTED BY IDOCK:   -3.40 KCAL/MOL
REMARK 923 INTER-LIGAND FREE ENERGY PREDICTED BY IDOCK:   -3.56 KCAL/MOL
REMARK 924 INTRA-LIGAND FREE ENERGY PREDICTED BY IDOCK:    0.16 KCAL/MOL
REMARK 927      BINDING AFFINITY PREDICTED BY RF-SCORE:    0.00 PKD
ROOT
HETATM    1 CL   UNL     1     -10.943  20.325  65.526  1.00  0.00    -0.105 Cl 
HETATM    2  C   UNL     1     -10.555  19.120  66.690  1.00  0.00    -0.432 A  
HETATM    3  C   UNL     1     -10.310  17.811  66.282  1.00  0.00    -0.358 A  
HETATM    4  C   UNL     1      -9.990  16.833  67.228  1.00  0.00    -0.272 A  
HETATM    5 CL   UNL     1      -9.713  15.228  66.655  1.00  0.00    -0.253 Cl 
HETATM    6  C   UNL     1      -9.900  17.157  68.592  1.00  0.00    -0.300 A  
HETATM    7  C   UNL     1     -10.139  18.493  68.975  1.00  0.00    -0.276 A  
HETATM    8  C   UNL     1     -10.481  19.464  68.035  1.00  0.00    -0.512 A  
ENDROOT
BRANCH   6   9
HETATM    9  C   UNL     1      -9.528  16.128  69.656  1.00  0.00    -0.009 C  
BRANCH   9  10
HETATM   10  C   UNL     1      -8.099  16.427  70.153  1.00  0.00     1.582 C  
BRANCH  10  11
HETATM   11  N   UNL     1      -7.205  16.859  69.098  1.00  0.00    -0.231 NA 
HETATM   12  C   UNL     1      -6.443  17.995  69.085  1.00  0.00    -0.249 A  
HETATM   13  C   UNL     1      -6.910  16.149  67.966  1.00  0.00    -0.126 A  
HETATM   14  N   UNL     1      -6.038  16.784  67.219  1.00  0.00    -0.155 NA 
HETATM   15  C   UNL     1      -5.740  17.932  67.905  1.00  0.00    -0.156 A  
ENDBRANCH  10  11
ENDBRANCH   9  10
BRANCH   9  16
HETATM   16  O   UNL     1     -10.431  16.228  70.771  1.00  0.00     0.239 OA 
BRANCH  16  17
HETATM   17  C   UNL     1     -11.779  15.863  70.447  1.00  0.00    -0.354 C  
BRANCH  17  18
HETATM   18  C   UNL     1     -11.975  14.386  70.608  1.00  0.00    -0.393 A  
HETATM   19  C   UNL     1     -12.288  13.791  71.814  1.00  0.00    -0.058 A  
HETATM   20  S   UNL     1     -12.438  12.105  71.707  1.00  0.00     0.347 SA 
HETATM   21  C   UNL     1     -12.081  12.095  70.018  1.00  0.00    -0.277 A  
HETATM   22  C   UNL     1     -11.860  13.401  69.547  1.00  0.00    -0.391 A  
HETATM   23  C   UNL     1     -11.561  13.562  68.166  1.00  0.00    -0.368 A  
HETATM   24  C   UNL     1     -11.489  12.460  67.307  1.00  0.00    -0.421 A  
HETATM   25  C   UNL     1     -11.705  11.182  67.798  1.00  0.00    -0.220 A  
HETATM   26  C   UNL     1     -12.001  10.985  69.149  1.00  0.00    -0.324 A  
HETATM   27 CL   UNL     1     -12.259   9.371  69.707  1.00  0.00     0.515 Cl 
ENDBRANCH  17  18
ENDBRANCH  16  17
ENDBRANCH   9  16
ENDBRANCH   6   9
TORSDOF 6
ENDMDL
MODEL      306
REMARK 921   NORMALIZED FREE ENERGY PREDICTED BY IDOCK:   -1.38 KCAL/MOL
REMARK 922        TOTAL FREE ENERGY PREDICTED BY IDOCK:   -2.91 KCAL/MOL
REMARK 923 INTER-LIGAND FREE ENERGY PREDICTED BY IDOCK:   -2.64 KCAL/MOL
REMARK 924 INTRA-LIGAND FREE ENERGY PREDICTED BY IDOCK:   -0.28 KCAL/MOL
REMARK 927      BINDING AFFINITY PREDICTED BY RF-SCORE:    0.00 PKD
ROOT
HETATM    1 CL   UNL     1     -12.575  13.545  67.221  1.00  0.00     0.034 Cl 
HETATM    2  C   UNL     1     -10.979  12.923  67.383  1.00  0.00    -0.260 A  
HETATM    3  C   UNL     1     -10.424  12.156  66.362  1.00  0.00    -0.261 A  
HETATM    4  C   UNL     1      -9.125  11.655  66.492  1.00  0.00    -0.197 A  
HETATM    5 CL   UNL     1      -8.505  10.699  65.195  1.00  0.00    -0.169 Cl 
HETATM    6  C   UNL     1      -8.365  11.926  67.642  1.00  0.00    -0.152 A  
HETATM    7  C   UNL     1      -8.947  12.717  68.654  1.00  0.00     0.047 A  
HETATM    8  C   UNL     1     -10.250  13.198  68.534  1.00  0.00    -0.218 A  
ENDROOT
BRANCH   6   9
HETATM    9  C   UNL     1      -6.934  11.422  67.815  1.00  0.00    -0.076 C  
BRANCH   9  10
HETATM   10  C   UNL     1      -6.484  11.701  69.263  1.00  0.00    -0.105 C  
BRANCH  10  11
HETATM   11  N   UNL     1      -6.026  13.061  69.467  1.00  0.00    -0.102 NA 
HETATM   12  C   UNL     1      -5.897  13.710  70.663  1.00  0.00    -0.179 A  
HETATM   13  C   UNL     1      -5.560  13.897  68.489  1.00  0.00    -0.094 A  
HETATM   14  N   UNL     1      -5.182  15.050  68.988  1.00  0.00    -0.096 NA 
HETATM   15  C   UNL     1      -5.386  14.945  70.339  1.00  0.00    -0.122 A  
ENDBRANCH  10  11
ENDBRANCH   9  10
BRANCH   9  16
HETATM   16  O   UNL     1      -6.884  10.003  67.585  1.00  0.00    -0.081 OA 
BRANCH  16  17
HETATM   17  C   UNL     1      -6.814   9.231  68.791  1.00  0.00    -0.060 C  
BRANCH  17  18
HETATM   18  C   UNL     1      -7.189   7.805  68.522  1.00  0.00    -0.086 A  
HETATM   19  C   UNL     1      -8.126   7.434  67.579  1.00  0.00    -0.114 A  
HETATM   20  S   UNL     1      -8.361   5.756  67.497  1.00  0.00    -0.103 SA 
HETATM   21  C   UNL     1      -7.206   5.447  68.742  1.00  0.00    -0.066 A  
HETATM   22  C   UNL     1      -6.638   6.647  69.204  1.00  0.00    -0.041 A  
HETATM   23  C   UNL     1      -5.657   6.560  70.229  1.00  0.00    -0.018 A  
HETATM   24  C   UNL     1      -5.271   5.324  70.760  1.00  0.00    -0.004 A  
HETATM   25  C   UNL     1      -5.853   4.156  70.292  1.00  0.00    -0.017 A  
HETATM   26  C   UNL     1      -6.819   4.202  69.285  1.00  0.00    -0.046 A  
HETATM   27 CL   UNL     1      -7.512   2.717  68.740  1.00  0.00    -0.047 Cl 
ENDBRANCH  17  18
ENDBRANCH  16  17
ENDBRANCH   9  16
ENDBRANCH   6   9
TORSDOF 6
ENDMDL
MODEL      307
REMARK 921   NORMALIZED FREE ENERGY PREDICTED BY IDOCK:   -1.00 KCAL/MOL
REMARK 922        TOTAL FREE ENERGY PREDICTED BY IDOCK:   -2.40 KCAL/MOL
REMARK 923 INTER-LIGAND FREE ENERGY PREDICTED BY IDOCK:   -1.68 KCAL/MOL
REMARK 924 INTRA-LIGAND FREE ENERGY PREDICTED BY IDOCK:   -0.72 KCAL/MOL
REMARK 927      BINDING AFFINITY PREDICTED BY RF-SCORE:    0.00 PKD
ROOT
HETATM    1 CL   UNL     1     -11.489   4.084  73.671  1.00  0.00    -0.262 Cl 
HETATM    2  C   UNL     1     -10.403   4.252  72.349  1.00  0.00    -0.160 A  
HETATM    3  C   UNL     1      -9.312   3.393  72.231  1.00  0.00    -0.173 A  
HETATM    4  C   UNL     1      -8.432   3.527  71.153  1.00  0.00    -0.068 A  
HETATM    5 CL   UNL     1      -7.093   2.439  71.077  1.00  0.00    -0.032 Cl 
HETATM    6  C   UNL     1      -8.640   4.514  70.176  1.00  0.00    -0.104 A  
HETATM    7  C   UNL     1      -9.760   5.360  70.313  1.00  0.00    -0.254 A  
HETATM    8  C   UNL     1     -10.625   5.242  71.399  1.00  0.00    -0.247 A  
ENDROOT
BRANCH   6   9
HETATM    9  C   UNL     1      -7.720   4.678  68.969  1.00  0.00    -0.071 C  
BRANCH   9  10
HETATM   10  C   UNL     1      -8.286   3.849  67.799  1.00  0.00    -0.093 C  
BRANCH  10  11
HETATM   11  N   UNL     1      -7.311   2.958  67.206  1.00  0.00    -0.061 NA 
HETATM   12  C   UNL     1      -7.510   2.109  66.152  1.00  0.00    -0.066 A  
HETATM   13  C   UNL     1      -5.989   2.882  67.553  1.00  0.00    -0.027 A  
HETATM   14  N   UNL     1      -5.350   2.009  66.811  1.00  0.00    -0.012 NA 
HETATM   15  C   UNL     1      -6.285   1.523  65.935  1.00  0.00    -0.022 A  
ENDBRANCH  10  11
ENDBRANCH   9  10
BRANCH   9  16
HETATM   16  O   UNL     1      -7.677   6.061  68.572  1.00  0.00    -0.092 OA 
BRANCH  16  17
HETATM   17  C   UNL     1      -6.365   6.633  68.641  1.00  0.00    -0.031 C  
BRANCH  17  18
HETATM   18  C   UNL     1      -6.406   8.085  68.269  1.00  0.00    -0.050 A  
HETATM   19  C   UNL     1      -5.629   9.046  68.884  1.00  0.00    -0.040 A  
HETATM   20  S   UNL     1      -5.890  10.606  68.273  1.00  0.00    -0.046 SA 
HETATM   21  C   UNL     1      -7.077  10.058  67.145  1.00  0.00    -0.089 A  
HETATM   22  C   UNL     1      -7.253   8.667  67.243  1.00  0.00    -0.080 A  
HETATM   23  C   UNL     1      -8.195   8.059  66.369  1.00  0.00    -0.113 A  
HETATM   24  C   UNL     1      -8.922   8.818  65.446  1.00  0.00    -0.211 A  
HETATM   25  C   UNL     1      -8.735  10.190  65.375  1.00  0.00    -0.176 A  
HETATM   26  C   UNL     1      -7.817  10.822  66.216  1.00  0.00    -0.156 A  
HETATM   27 CL   UNL     1      -7.625  12.533  66.086  1.00  0.00     1.058 Cl 
ENDBRANCH  17  18
ENDBRANCH  16  17
ENDBRANCH   9  16
ENDBRANCH   6   9
TORSDOF 6
ENDMDL
MODEL      308
REMARK 921   NORMALIZED FREE ENERGY PREDICTED BY IDOCK:   -0.41 KCAL/MOL
REMARK 922        TOTAL FREE ENERGY PREDICTED BY IDOCK:   -1.60 KCAL/MOL
REMARK 923 INTER-LIGAND FREE ENERGY PREDICTED BY IDOCK:   -2.50 KCAL/MOL
REMARK 924 INTRA-LIGAND FREE ENERGY PREDICTED BY IDOCK:    0.91 KCAL/MOL
REMARK 927      BINDING AFFINITY PREDICTED BY RF-SCORE:    0.00 PKD
ROOT
HETATM    1 CL   UNL     1      -9.093   8.323  70.324  1.00  0.00    -0.149 Cl 
HETATM    2  C   UNL     1      -9.084   9.581  69.151  1.00  0.00    -0.152 A  
HETATM    3  C   UNL     1      -9.028  10.912  69.559  1.00  0.00     0.232 A  
HETATM    4  C   UNL     1      -9.016  11.934  68.605  1.00  0.00    -0.041 A  
HETATM    5 CL   UNL     1      -8.960  13.561  69.179  1.00  0.00     0.398 Cl 
HETATM    6  C   UNL     1      -9.049  11.635  67.233  1.00  0.00    -0.167 A  
HETATM    7  C   UNL     1      -9.092  10.278  66.848  1.00  0.00    -0.159 A  
HETATM    8  C   UNL     1      -9.127   9.259  67.800  1.00  0.00    -0.135 A  
ENDROOT
BRANCH   6   9
HETATM    9  C   UNL     1      -9.011  12.716  66.157  1.00  0.00     0.114 C  
BRANCH   9  10
HETATM   10  C   UNL     1     -10.170  12.473  65.170  1.00  0.00    -0.279 C  
BRANCH  10  11
HETATM   11  N   UNL     1      -9.821  11.573  64.089  1.00  0.00    -0.254 NA 
HETATM   12  C   UNL     1     -10.591  10.563  63.584  1.00  0.00     0.422 A  
HETATM   13  C   UNL     1      -8.683  11.645  63.331  1.00  0.00     0.475 A  
HETATM   14  N   UNL     1      -8.668  10.717  62.404  1.00  0.00    -0.240 NA 
HETATM   15  C   UNL     1      -9.850  10.039  62.550  1.00  0.00     0.316 A  
ENDBRANCH  10  11
ENDBRANCH   9  10
BRANCH   9  16
HETATM   16  O   UNL     1      -9.185  14.012  66.758  1.00  0.00    -0.258 OA 
BRANCH  16  17
HETATM   17  C   UNL     1      -9.962  14.912  65.959  1.00  0.00    -0.313 C  
BRANCH  17  18
HETATM   18  C   UNL     1      -9.644  16.334  66.312  1.00  0.00    -0.336 A  
HETATM   19  C   UNL     1     -10.315  17.414  65.776  1.00  0.00    -0.216 A  
HETATM   20  S   UNL     1      -9.738  18.905  66.343  1.00  0.00    -0.360 SA 
HETATM   21  C   UNL     1      -8.544  18.160  67.341  1.00  0.00    -0.244 A  
HETATM   22  C   UNL     1      -8.609  16.760  67.237  1.00  0.00    -0.208 A  
HETATM   23  C   UNL     1      -7.691  15.998  68.009  1.00  0.00    -0.140 A  
HETATM   24  C   UNL     1      -6.755  16.619  68.843  1.00  0.00    -0.184 A  
HETATM   25  C   UNL     1      -6.706  18.002  68.922  1.00  0.00    -0.245 A  
HETATM   26  C   UNL     1      -7.593  18.784  68.179  1.00  0.00    -0.272 A  
HETATM   27 CL   UNL     1      -7.488  20.502  68.315  1.00  0.00    -0.110 Cl 
ENDBRANCH  17  18
ENDBRANCH  16  17
ENDBRANCH   9  16
ENDBRANCH   6   9
TORSDOF 6
ENDMDL
MODEL      309
REMARK 921   NORMALIZED FREE ENERGY PREDICTED BY IDOCK:    0.06 KCAL/MOL
REMARK 922        TOTAL FREE ENERGY PREDICTED BY IDOCK:   -0.97 KCAL/MOL
REMARK 923 INTER-LIGAND FREE ENERGY PREDICTED BY IDOCK:   -1.15 KCAL/MOL
REMARK 924 INTRA-LIGAND FREE ENERGY PREDICTED BY IDOCK:    0.18 KCAL/MOL
REMARK 927      BINDING AFFINITY PREDICTED BY RF-SCORE:    0.00 PKD
ROOT
HETATM    1 CL   UNL     1     -13.085   6.488  69.734  1.00  0.00     2.785 Cl 
HETATM    2  C   UNL     1     -11.451   7.000  69.894  1.00  0.00    -0.176 A  
HETATM    3  C   UNL     1     -10.957   7.369  71.142  1.00  0.00    -0.265 A  
HETATM    4  C   UNL     1      -9.627   7.781  71.272  1.00  0.00    -0.157 A  
HETATM    5 CL   UNL     1      -9.084   8.239  72.846  1.00  0.00    -0.334 Cl 
HETATM    6  C   UNL     1      -8.775   7.818  70.156  1.00  0.00    -0.140 A  
HETATM    7  C   UNL     1      -9.299   7.426  68.906  1.00  0.00    -0.145 A  
HETATM    8  C   UNL     1     -10.631   7.036  68.772  1.00  0.00    -0.235 A  
ENDROOT
BRANCH   6   9
HETATM    9  C   UNL     1      -7.311   8.235  70.256  1.00  0.00    -0.055 C  
BRANCH   9  10
HETATM   10  C   UNL     1      -6.429   7.062  69.785  1.00  0.00    -0.043 C  
BRANCH  10  11
HETATM   11  N   UNL     1      -6.289   6.994  68.345  1.00  0.00    -0.034 NA 
HETATM   12  C   UNL     1      -5.144   7.189  67.623  1.00  0.00    -0.019 A  
HETATM   13  C   UNL     1      -7.275   6.633  67.467  1.00  0.00    -0.090 A  
HETATM   14  N   UNL     1      -6.835   6.628  66.231  1.00  0.00    -0.059 NA 
HETATM   15  C   UNL     1      -5.511   6.971  66.315  1.00  0.00    -0.023 A  
ENDBRANCH  10  11
ENDBRANCH   9  10
BRANCH   9  16
HETATM   16  O   UNL     1      -7.064   9.365  69.400  1.00  0.00    -0.051 OA 
BRANCH  16  17
HETATM   17  C   UNL     1      -7.307  10.627  70.037  1.00  0.00     0.026 C  
BRANCH  17  18
HETATM   18  C   UNL     1      -7.736  11.649  69.027  1.00  0.00    -0.002 A  
HETATM   19  C   UNL     1      -6.934  12.699  68.628  1.00  0.00    -0.091 A  
HETATM   20  S   UNL     1      -7.679  13.708  67.485  1.00  0.00    -0.155 SA 
HETATM   21  C   UNL     1      -9.130  12.772  67.478  1.00  0.00    -0.193 A  
HETATM   22  C   UNL     1      -9.022  11.678  68.353  1.00  0.00    -0.176 A  
HETATM   23  C   UNL     1     -10.137  10.802  68.454  1.00  0.00    -0.183 A  
HETATM   24  C   UNL     1     -11.301  11.022  67.710  1.00  0.00    -0.365 A  
HETATM   25  C   UNL     1     -11.384  12.114  66.859  1.00  0.00    -0.402 A  
HETATM   26  C   UNL     1     -10.308  12.995  66.733  1.00  0.00    -0.254 A  
HETATM   27 CL   UNL     1     -10.467  14.339  65.660  1.00  0.00    -0.317 Cl 
ENDBRANCH  17  18
ENDBRANCH  16  17
ENDBRANCH   9  16
ENDBRANCH   6   9
TORSDOF 6
ENDMDL
MODEL      310
REMARK 921   NORMALIZED FREE ENERGY PREDICTED BY IDOCK:    0.35 KCAL/MOL
REMARK 922        TOTAL FREE ENERGY PREDICTED BY IDOCK:   -0.57 KCAL/MOL
REMARK 923 INTER-LIGAND FREE ENERGY PREDICTED BY IDOCK:   -1.11 KCAL/MOL
REMARK 924 INTRA-LIGAND FREE ENERGY PREDICTED BY IDOCK:    0.54 KCAL/MOL
REMARK 927      BINDING AFFINITY PREDICTED BY RF-SCORE:    0.00 PKD
ROOT
HETATM    1 CL   UNL     1      -9.323   9.224  72.443  1.00  0.00     0.700 Cl 
HETATM    2  C   UNL     1      -8.777   7.997  71.369  1.00  0.00    -0.136 A  
HETATM    3  C   UNL     1      -7.649   8.213  70.581  1.00  0.00    -0.073 A  
HETATM    4  C   UNL     1      -7.203   7.213  69.712  1.00  0.00    -0.079 A  
HETATM    5 CL   UNL     1      -5.807   7.553  68.753  1.00  0.00    -0.023 Cl 
HETATM    6  C   UNL     1      -7.874   5.982  69.630  1.00  0.00    -0.102 A  
HETATM    7  C   UNL     1      -9.005   5.785  70.450  1.00  0.00    -0.154 A  
HETATM    8  C   UNL     1      -9.464   6.790  71.301  1.00  0.00    -0.166 A  
ENDROOT
BRANCH   6   9
HETATM    9  C   UNL     1      -7.407   4.852  68.716  1.00  0.00    -0.061 C  
BRANCH   9  10
HETATM   10  C   UNL     1      -7.435   5.353  67.258  1.00  0.00    -0.084 C  
BRANCH  10  11
HETATM   11  N   UNL     1      -8.738   5.831  66.843  1.00  0.00    -0.110 NA 
HETATM   12  C   UNL     1      -9.938   5.202  67.027  1.00  0.00    -0.196 A  
HETATM   13  C   UNL     1      -8.992   7.046  66.267  1.00  0.00    -0.151 A  
HETATM   14  N   UNL     1     -10.274   7.207  66.039  1.00  0.00     0.478 NA 
HETATM   15  C   UNL     1     -10.872   6.068  66.509  1.00  0.00    -0.120 A  
ENDBRANCH  10  11
ENDBRANCH   9  10
BRANCH   9  16
HETATM   16  O   UNL     1      -6.058   4.481  69.048  1.00  0.00    -0.027 OA 
BRANCH  16  17
HETATM   17  C   UNL     1      -5.964   3.652  70.214  1.00  0.00    -0.018 C  
BRANCH  17  18
HETATM   18  C   UNL     1      -7.288   3.017  70.513  1.00  0.00    -0.037 A  
HETATM   19  C   UNL     1      -8.034   2.343  69.567  1.00  0.00    -0.041 A  
HETATM   20  S   UNL     1      -9.496   1.737  70.178  1.00  0.00    -0.022 SA 
HETATM   21  C   UNL     1      -9.193   2.363  71.758  1.00  0.00    -0.097 A  
HETATM   22  C   UNL     1      -7.955   3.027  71.803  1.00  0.00    -0.057 A  
HETATM   23  C   UNL     1      -7.556   3.594  73.044  1.00  0.00    -0.065 A  
HETATM   24  C   UNL     1      -8.366   3.495  74.180  1.00  0.00    -0.085 A  
HETATM   25  C   UNL     1      -9.586   2.841  74.108  1.00  0.00    -0.117 A  
HETATM   26  C   UNL     1     -10.011   2.271  72.905  1.00  0.00    -0.119 A  
HETATM   27 CL   UNL     1     -11.540   1.469  72.872  1.00  0.00    -0.150 Cl 
ENDBRANCH  17  18
ENDBRANCH  16  17
ENDBRANCH   9  16
ENDBRANCH   6   9
TORSDOF 6
ENDMDL
MODEL      311
REMARK 921   NORMALIZED FREE ENERGY PREDICTED BY IDOCK:    1.09 KCAL/MOL
REMARK 922        TOTAL FREE ENERGY PREDICTED BY IDOCK:    0.43 KCAL/MOL
REMARK 923 INTER-LIGAND FREE ENERGY PREDICTED BY IDOCK:    0.73 KCAL/MOL
REMARK 924 INTRA-LIGAND FREE ENERGY PREDICTED BY IDOCK:   -0.31 KCAL/MOL
REMARK 927      BINDING AFFINITY PREDICTED BY RF-SCORE:    0.00 PKD
ROOT
HETATM    1 CL   UNL     1      -9.207  11.182  64.434  1.00  0.00    -0.170 Cl 
HETATM    2  C   UNL     1      -8.865  12.574  65.384  1.00  0.00     0.891 A  
HETATM    3  C   UNL     1      -7.681  12.644  66.114  1.00  0.00     1.385 A  
HETATM    4  C   UNL     1      -7.401  13.778  66.882  1.00  0.00     0.683 A  
HETATM    5 CL   UNL     1      -5.922  13.793  67.774  1.00  0.00    -0.144 Cl 
HETATM    6  C   UNL     1      -8.298  14.858  66.920  1.00  0.00    -0.212 A  
HETATM    7  C   UNL     1      -9.483  14.766  66.161  1.00  0.00    -0.324 A  
HETATM    8  C   UNL     1      -9.773  13.626  65.412  1.00  0.00    -0.055 A  
ENDROOT
BRANCH   6   9
HETATM    9  C   UNL     1      -8.021  16.126  67.723  1.00  0.00    -0.142 C  
BRANCH   9  10
HETATM   10  C   UNL     1      -8.625  17.329  66.972  1.00  0.00    -0.227 C  
BRANCH  10  11
HETATM   11  N   UNL     1      -7.717  18.453  66.869  1.00  0.00    -0.218 NA 
HETATM   12  C   UNL     1      -6.456  18.538  67.391  1.00  0.00    -0.195 A  
HETATM   13  C   UNL     1      -7.945  19.595  66.149  1.00  0.00    -0.343 A  
HETATM   14  N   UNL     1      -6.921  20.413  66.216  1.00  0.00    -0.257 NA 
HETATM   15  C   UNL     1      -5.989  19.766  66.985  1.00  0.00    -0.176 A  
ENDBRANCH  10  11
ENDBRANCH   9  10
BRANCH   9  16
HETATM   16  O   UNL     1      -8.646  16.032  69.016  1.00  0.00    -0.219 OA 
BRANCH  16  17
HETATM   17  C   UNL     1      -9.413  14.835  69.194  1.00  0.00    -0.113 C  
BRANCH  17  18
HETATM   18  C   UNL     1     -10.514  15.060  70.186  1.00  0.00    -0.108 A  
HETATM   19  C   UNL     1     -10.788  16.292  70.745  1.00  0.00     0.069 A  
HETATM   20  S   UNL     1     -12.078  16.253  71.845  1.00  0.00    -0.260 SA 
HETATM   21  C   UNL     1     -12.327  14.559  71.623  1.00  0.00    -0.350 A  
HETATM   22  C   UNL     1     -11.416  14.039  70.689  1.00  0.00    -0.003 A  
HETATM   23  C   UNL     1     -11.499  12.652  70.389  1.00  0.00     0.299 A  
HETATM   24  C   UNL     1     -12.452  11.834  71.004  1.00  0.00    -0.411 A  
HETATM   25  C   UNL     1     -13.336  12.370  71.928  1.00  0.00    -0.450 A  
HETATM   26  C   UNL     1     -13.285  13.729  72.247  1.00  0.00    -0.467 A  
HETATM   27 CL   UNL     1     -14.407  14.344  73.406  1.00  0.00     2.247 Cl 
ENDBRANCH  17  18
ENDBRANCH  16  17
ENDBRANCH   9  16
ENDBRANCH   6   9
TORSDOF 6
ENDMDL
MODEL      312
REMARK 921   NORMALIZED FREE ENERGY PREDICTED BY IDOCK:    1.78 KCAL/MOL
REMARK 922        TOTAL FREE ENERGY PREDICTED BY IDOCK:    1.36 KCAL/MOL
REMARK 923 INTER-LIGAND FREE ENERGY PREDICTED BY IDOCK:   -0.37 KCAL/MOL
REMARK 924 INTRA-LIGAND FREE ENERGY PREDICTED BY IDOCK:    1.73 KCAL/MOL
REMARK 927      BINDING AFFINITY PREDICTED BY RF-SCORE:    0.00 PKD
ROOT
HETATM    1 CL   UNL     1     -11.174  16.290  73.314  1.00  0.00     0.844 Cl 
HETATM    2  C   UNL     1     -11.560  15.768  71.722  1.00  0.00    -0.456 A  
HETATM    3  C   UNL     1     -11.537  16.678  70.667  1.00  0.00     0.267 A  
HETATM    4  C   UNL     1     -11.847  16.252  69.372  1.00  0.00    -0.021 A  
HETATM    5 CL   UNL     1     -11.813  17.435  68.114  1.00  0.00     1.088 Cl 
HETATM    6  C   UNL     1     -12.173  14.910  69.116  1.00  0.00    -0.194 A  
HETATM    7  C   UNL     1     -12.175  14.008  70.201  1.00  0.00    -0.425 A  
HETATM    8  C   UNL     1     -11.888  14.436  71.497  1.00  0.00    -0.204 A  
ENDROOT
BRANCH   6   9
HETATM    9  C   UNL     1     -12.491  14.396  67.715  1.00  0.00     0.242 C  
BRANCH   9  10
HETATM   10  C   UNL     1     -11.505  15.035  66.718  1.00  0.00    -0.251 C  
BRANCH  10  11
HETATM   11  N   UNL     1     -11.608  14.487  65.381  1.00  0.00    -0.349 NA 
HETATM   12  C   UNL     1     -12.238  13.329  65.016  1.00  0.00    -0.432 A  
HETATM   13  C   UNL     1     -11.161  15.093  64.237  1.00  0.00    -0.014 A  
HETATM   14  N   UNL     1     -11.433  14.369  63.177  1.00  0.00     1.360 NA 
HETATM   15  C   UNL     1     -12.104  13.271  63.649  1.00  0.00    -0.485 A  
ENDBRANCH  10  11
ENDBRANCH   9  10
BRANCH   9  16
HETATM   16  O   UNL     1     -12.328  12.967  67.669  1.00  0.00    -0.176 OA 
BRANCH  16  17
HETATM   17  C   UNL     1     -11.455  12.460  68.686  1.00  0.00    -0.303 C  
BRANCH  17  18
HETATM   18  C   UNL     1     -10.123  12.098  68.101  1.00  0.00    -0.206 A  
HETATM   19  C   UNL     1      -9.940  11.038  67.236  1.00  0.00    -0.181 A  
HETATM   20  S   UNL     1      -8.328  10.853  66.740  1.00  0.00    -0.143 SA 
HETATM   21  C   UNL     1      -7.796  12.200  67.680  1.00  0.00    -0.153 A  
HETATM   22  C   UNL     1      -8.873  12.790  68.362  1.00  0.00    -0.117 A  
HETATM   23  C   UNL     1      -8.597  13.922  69.176  1.00  0.00     0.343 A  
HETATM   24  C   UNL     1      -7.300  14.430  69.296  1.00  0.00    -0.088 A  
HETATM   25  C   UNL     1      -6.252  13.824  68.619  1.00  0.00    -0.089 A  
HETATM   26  C   UNL     1      -6.485  12.710  67.809  1.00  0.00    -0.128 A  
HETATM   27 CL   UNL     1      -5.144  11.995  66.989  1.00  0.00    -0.097 Cl 
ENDBRANCH  17  18
ENDBRANCH  16  17
ENDBRANCH   9  16
ENDBRANCH   6   9
TORSDOF 6
ENDMDL
MODEL      313
REMARK 921   NORMALIZED FREE ENERGY PREDICTED BY IDOCK:    4.26 KCAL/MOL
REMARK 922        TOTAL FREE ENERGY PREDICTED BY IDOCK:    4.72 KCAL/MOL
REMARK 923 INTER-LIGAND FREE ENERGY PREDICTED BY IDOCK:   -0.38 KCAL/MOL
REMARK 924 INTRA-LIGAND FREE ENERGY PREDICTED BY IDOCK:    5.10 KCAL/MOL
REMARK 927      BINDING AFFINITY PREDICTED BY RF-SCORE:    0.00 PKD
ROOT
HETATM    1 CL   UNL     1      -9.086   8.360  70.378  1.00  0.00    -0.146 Cl 
HETATM    2  C   UNL     1      -8.778   9.701  69.347  1.00  0.00    -0.171 A  
HETATM    3  C   UNL     1      -8.518  10.955  69.895  1.00  0.00     0.736 A  
HETATM    4  C   UNL     1      -8.264  12.044  69.056  1.00  0.00     0.252 A  
HETATM    5 CL   UNL     1      -7.964  13.572  69.802  1.00  0.00     1.061 Cl 
HETATM    6  C   UNL     1      -8.256  11.888  67.660  1.00  0.00    -0.148 A  
HETATM    7  C   UNL     1      -8.509  10.604  67.133  1.00  0.00    -0.128 A  
HETATM    8  C   UNL     1      -8.785   9.522  67.968  1.00  0.00    -0.120 A  
ENDROOT
BRANCH   6   9
HETATM    9  C   UNL     1      -7.957  13.042  66.708  1.00  0.00     0.253 C  
BRANCH   9  10
HETATM   10  C   UNL     1      -9.199  13.292  65.829  1.00  0.00     0.312 C  
BRANCH  10  11
HETATM   11  N   UNL     1     -10.316  12.431  66.160  1.00  0.00    -0.242 NA 
HETATM   12  C   UNL     1     -10.827  11.421  65.393  1.00  0.00    -0.229 A  
HETATM   13  C   UNL     1     -10.995  12.433  67.348  1.00  0.00    -0.254 A  
HETATM   14  N   UNL     1     -11.931  11.514  67.364  1.00  0.00    -0.597 NA 
HETATM   15  C   UNL     1     -11.835  10.877  66.155  1.00  0.00     1.549 A  
ENDBRANCH  10  11
ENDBRANCH   9  10
BRANCH   9  16
HETATM   16  O   UNL     1      -7.680  14.238  67.459  1.00  0.00    -0.166 OA 
BRANCH  16  17
HETATM   17  C   UNL     1      -8.859  14.896  67.939  1.00  0.00    -0.165 C  
BRANCH  17  18
HETATM   18  C   UNL     1      -8.603  16.362  68.121  1.00  0.00    -0.193 A  
HETATM   19  C   UNL     1      -9.453  17.198  68.818  1.00  0.00    -0.263 A  
HETATM   20  S   UNL     1      -8.922  18.808  68.854  1.00  0.00    -0.136 SA 
HETATM   21  C   UNL     1      -7.514  18.455  67.920  1.00  0.00    -0.236 A  
HETATM   22  C   UNL     1      -7.459  17.088  67.597  1.00  0.00    -0.179 A  
HETATM   23  C   UNL     1      -6.349  16.635  66.834  1.00  0.00    -0.208 A  
HETATM   24  C   UNL     1      -5.347  17.518  66.418  1.00  0.00    -0.229 A  
HETATM   25  C   UNL     1      -5.428  18.863  66.743  1.00  0.00    -0.154 A  
HETATM   26  C   UNL     1      -6.504  19.345  67.492  1.00  0.00    -0.207 A  
HETATM   27 CL   UNL     1      -6.556  21.029  67.868  1.00  0.00    -0.371 Cl 
ENDBRANCH  17  18
ENDBRANCH  16  17
ENDBRANCH   9  16
ENDBRANCH   6   9
TORSDOF 6
ENDMDL
MODEL      314
REMARK 921   NORMALIZED FREE ENERGY PREDICTED BY IDOCK:   15.22 KCAL/MOL
REMARK 922        TOTAL FREE ENERGY PREDICTED BY IDOCK:   19.52 KCAL/MOL
REMARK 923 INTER-LIGAND FREE ENERGY PREDICTED BY IDOCK:   18.47 KCAL/MOL
REMARK 924 INTRA-LIGAND FREE ENERGY PREDICTED BY IDOCK:    1.05 KCAL/MOL
REMARK 927      BINDING AFFINITY PREDICTED BY RF-SCORE:    0.00 PKD
ROOT
HETATM    1 CL   UNL     1      -9.296  13.832  71.851  1.00  0.00     9.544 Cl 
HETATM    2  C   UNL     1      -9.506  14.031  70.156  1.00  0.00     2.070 A  
HETATM    3  C   UNL     1      -8.850  13.182  69.268  1.00  0.00     0.900 A  
HETATM    4  C   UNL     1      -9.026  13.342  67.890  1.00  0.00    -0.201 A  
HETATM    5 CL   UNL     1      -8.171  12.265  66.846  1.00  0.00    -0.151 Cl 
HETATM    6  C   UNL     1      -9.868  14.347  67.387  1.00  0.00    -0.224 A  
HETATM    7  C   UNL     1     -10.531  15.184  68.309  1.00  0.00    -0.241 A  
HETATM    8  C   UNL     1     -10.339  15.039  69.682  1.00  0.00    -0.201 A  
ENDROOT
BRANCH   6   9
HETATM    9  C   UNL     1     -10.110  14.541  65.892  1.00  0.00    -0.326 C  
BRANCH   9  10
HETATM   10  C   UNL     1     -11.364  13.741  65.486  1.00  0.00    -0.307 C  
BRANCH  10  11
HETATM   11  N   UNL     1     -12.426  14.573  64.958  1.00  0.00    -0.440 NA 
HETATM   12  C   UNL     1     -13.724  14.615  65.386  1.00  0.00     1.922 A  
HETATM   13  C   UNL     1     -12.280  15.527  63.987  1.00  0.00     0.108 A  
HETATM   14  N   UNL     1     -13.414  16.142  63.747  1.00  0.00     1.592 NA 
HETATM   15  C   UNL     1     -14.319  15.584  64.612  1.00  0.00     5.021 A  
ENDBRANCH  10  11
ENDBRANCH   9  10
BRANCH   9  16
HETATM   16  O   UNL     1     -10.343  15.933  65.611  1.00  0.00    -0.343 OA 
BRANCH  16  17
HETATM   17  C   UNL     1      -9.148  16.661  65.302  1.00  0.00     1.317 C  
BRANCH  17  18
HETATM   18  C   UNL     1      -8.785  17.577  66.432  1.00  0.00    -0.273 A  
HETATM   19  C   UNL     1      -9.501  17.644  67.610  1.00  0.00    -0.258 A  
HETATM   20  S   UNL     1      -8.873  18.775  68.707  1.00  0.00    -0.220 SA 
HETATM   21  C   UNL     1      -7.601  19.236  67.636  1.00  0.00    -0.244 A  
HETATM   22  C   UNL     1      -7.665  18.501  66.440  1.00  0.00    -0.291 A  
HETATM   23  C   UNL     1      -6.675  18.760  65.453  1.00  0.00    -0.251 A  
HETATM   24  C   UNL     1      -5.673  19.713  65.664  1.00  0.00    -0.194 A  
HETATM   25  C   UNL     1      -5.637  20.431  66.850  1.00  0.00    -0.201 A  
HETATM   26  C   UNL     1      -6.592  20.203  67.843  1.00  0.00    -0.263 A  
HETATM   27 CL   UNL     1      -6.500  21.126  69.299  1.00  0.00     0.623 Cl 
ENDBRANCH  17  18
ENDBRANCH  16  17
ENDBRANCH   9  16
ENDBRANCH   6   9
TORSDOF 6
ENDMDL
MODEL      315
REMARK 921   NORMALIZED FREE ENERGY PREDICTED BY IDOCK:   15.72 KCAL/MOL
REMARK 922        TOTAL FREE ENERGY PREDICTED BY IDOCK:   20.19 KCAL/MOL
REMARK 923 INTER-LIGAND FREE ENERGY PREDICTED BY IDOCK:    5.24 KCAL/MOL
REMARK 924 INTRA-LIGAND FREE ENERGY PREDICTED BY IDOCK:   14.95 KCAL/MOL
REMARK 927      BINDING AFFINITY PREDICTED BY RF-SCORE:    0.00 PKD
ROOT
HETATM    1 CL   UNL     1      -8.147  14.193  65.207  1.00  0.00     4.786 Cl 
HETATM    2  C   UNL     1      -8.994  14.851  66.552  1.00  0.00    -0.253 A  
HETATM    3  C   UNL     1      -8.286  15.356  67.640  1.00  0.00    -0.174 A  
HETATM    4  C   UNL     1      -8.975  15.895  68.731  1.00  0.00    -0.216 A  
HETATM    5 CL   UNL     1      -8.036  16.490  70.053  1.00  0.00     1.049 Cl 
HETATM    6  C   UNL     1     -10.379  15.944  68.739  1.00  0.00    -0.228 A  
HETATM    7  C   UNL     1     -11.069  15.438  67.618  1.00  0.00    -0.316 A  
HETATM    8  C   UNL     1     -10.384  14.880  66.540  1.00  0.00    -0.295 A  
ENDROOT
BRANCH   6   9
HETATM    9  C   UNL     1     -11.171  16.547  69.896  1.00  0.00    -0.151 C  
BRANCH   9  10
HETATM   10  C   UNL     1     -11.149  18.083  69.762  1.00  0.00     1.982 C  
BRANCH  10  11
HETATM   11  N   UNL     1     -10.653  18.538  68.479  1.00  0.00    -0.141 NA 
HETATM   12  C   UNL     1      -9.672  19.465  68.263  1.00  0.00    -0.397 A  
HETATM   13  C   UNL     1     -11.031  18.043  67.261  1.00  0.00    -0.048 A  
HETATM   14  N   UNL     1     -10.379  18.629  66.285  1.00  0.00    -0.428 NA 
HETATM   15  C   UNL     1      -9.530  19.514  66.896  1.00  0.00    -0.344 A  
ENDBRANCH  10  11
ENDBRANCH   9  10
BRANCH   9  16
HETATM   16  O   UNL     1     -12.537  16.101  69.839  1.00  0.00    -0.104 OA 
BRANCH  16  17
HETATM   17  C   UNL     1     -12.771  15.106  68.834  1.00  0.00     0.558 C  
BRANCH  17  18
HETATM   18  C   UNL     1     -12.008  13.855  69.148  1.00  0.00    -0.404 A  
HETATM   19  C   UNL     1     -11.817  13.388  70.433  1.00  0.00    -0.208 A  
HETATM   20  S   UNL     1     -10.906  11.959  70.495  1.00  0.00     2.335 SA 
HETATM   21  C   UNL     1     -10.719  11.903  68.780  1.00  0.00    -0.224 A  
HETATM   22  C   UNL     1     -11.375  12.987  68.171  1.00  0.00    -0.329 A  
HETATM   23  C   UNL     1     -11.320  13.078  66.754  1.00  0.00    -0.365 A  
HETATM   24  C   UNL     1     -10.638  12.124  65.992  1.00  0.00    -0.292 A  
HETATM   25  C   UNL     1      -9.993  11.068  66.617  1.00  0.00    -0.249 A  
HETATM   26  C   UNL     1     -10.026  10.945  68.008  1.00  0.00    -0.171 A  
HETATM   27 CL   UNL     1      -9.204   9.611  68.735  1.00  0.00    -0.138 Cl 
ENDBRANCH  17  18
ENDBRANCH  16  17
ENDBRANCH   9  16
ENDBRANCH   6   9
TORSDOF 6
ENDMDL
MODEL      316
REMARK 921   NORMALIZED FREE ENERGY PREDICTED BY IDOCK:   20.63 KCAL/MOL
REMARK 922        TOTAL FREE ENERGY PREDICTED BY IDOCK:   26.83 KCAL/MOL
REMARK 923 INTER-LIGAND FREE ENERGY PREDICTED BY IDOCK:   16.40 KCAL/MOL
REMARK 924 INTRA-LIGAND FREE ENERGY PREDICTED BY IDOCK:   10.43 KCAL/MOL
REMARK 927      BINDING AFFINITY PREDICTED BY RF-SCORE:    0.00 PKD
ROOT
HETATM    1 CL   UNL     1     -12.202  18.324  70.500  1.00  0.00     9.705 Cl 
HETATM    2  C   UNL     1     -11.623  16.841  69.852  1.00  0.00     0.631 A  
HETATM    3  C   UNL     1     -10.943  15.942  70.671  1.00  0.00    -0.312 A  
HETATM    4  C   UNL     1     -10.475  14.734  70.145  1.00  0.00     0.111 A  
HETATM    5 CL   UNL     1      -9.628  13.673  71.212  1.00  0.00     7.077 Cl 
HETATM    6  C   UNL     1     -10.693  14.408  68.796  1.00  0.00    -0.258 A  
HETATM    7  C   UNL     1     -11.396  15.330  67.993  1.00  0.00    -0.345 A  
HETATM    8  C   UNL     1     -11.843  16.545  68.512  1.00  0.00     0.300 A  
ENDROOT
BRANCH   6   9
HETATM    9  C   UNL     1     -10.224  13.090  68.186  1.00  0.00    -0.239 C  
BRANCH   9  10
HETATM   10  C   UNL     1     -10.453  13.142  66.662  1.00  0.00    -0.277 C  
BRANCH  10  11
HETATM   11  N   UNL     1     -10.985  14.410  66.207  1.00  0.00    -0.313 NA 
HETATM   12  C   UNL     1     -12.283  14.831  66.289  1.00  0.00    -0.019 A  
HETATM   13  C   UNL     1     -10.247  15.442  65.692  1.00  0.00    -0.376 A  
HETATM   14  N   UNL     1     -11.005  16.474  65.406  1.00  0.00    -0.260 NA 
HETATM   15  C   UNL     1     -12.273  16.106  65.774  1.00  0.00     1.880 A  
ENDBRANCH  10  11
ENDBRANCH   9  10
BRANCH   9  16
HETATM   16  O   UNL     1      -8.819  12.908  68.433  1.00  0.00    -0.182 OA 
BRANCH  16  17
HETATM   17  C   UNL     1      -8.198  11.977  67.537  1.00  0.00    -0.159 C  
BRANCH  17  18
HETATM   18  C   UNL     1      -7.675  10.792  68.293  1.00  0.00    -0.109 A  
HETATM   19  C   UNL     1      -7.947  10.567  69.628  1.00  0.00    -0.063 A  
HETATM   20  S   UNL     1      -7.217   9.158  70.228  1.00  0.00    -0.089 SA 
HETATM   21  C   UNL     1      -6.489   8.786  68.707  1.00  0.00    -0.053 A  
HETATM   22  C   UNL     1      -6.828   9.750  67.742  1.00  0.00    -0.081 A  
HETATM   23  C   UNL     1      -6.310   9.578  66.430  1.00  0.00    -0.069 A  
HETATM   24  C   UNL     1      -5.492   8.489  66.110  1.00  0.00    -0.034 A  
HETATM   25  C   UNL     1      -5.167   7.556  67.082  1.00  0.00    -0.029 A  
HETATM   26  C   UNL     1      -5.658   7.691  68.383  1.00  0.00    -0.027 A  
HETATM   27 CL   UNL     1      -5.220   6.500  69.554  1.00  0.00    -0.013 Cl 
ENDBRANCH  17  18
ENDBRANCH  16  17
ENDBRANCH   9  16
ENDBRANCH   6   9
TORSDOF 6
ENDMDL
MODEL      317
REMARK 921   NORMALIZED FREE ENERGY PREDICTED BY IDOCK:   21.56 KCAL/MOL
REMARK 922        TOTAL FREE ENERGY PREDICTED BY IDOCK:   28.08 KCAL/MOL
REMARK 923 INTER-LIGAND FREE ENERGY PREDICTED BY IDOCK:   24.44 KCAL/MOL
REMARK 924 INTRA-LIGAND FREE ENERGY PREDICTED BY IDOCK:    3.64 KCAL/MOL
REMARK 927      BINDING AFFINITY PREDICTED BY RF-SCORE:    0.00 PKD
ROOT
HETATM    1 CL   UNL     1     -12.572  19.282  69.957  1.00  0.00    15.139 Cl 
HETATM    2  C   UNL     1     -12.215  17.677  69.455  1.00  0.00     5.427 A  
HETATM    3  C   UNL     1     -11.515  16.822  70.302  1.00  0.00     0.420 A  
HETATM    4  C   UNL     1     -11.229  15.516  69.895  1.00  0.00    -0.316 A  
HETATM    5 CL   UNL     1     -10.344  14.514  70.989  1.00  0.00     1.157 Cl 
HETATM    6  C   UNL     1     -11.651  15.047  68.640  1.00  0.00    -0.347 A  
HETATM    7  C   UNL     1     -12.370  15.930  67.808  1.00  0.00     1.174 A  
HETATM    8  C   UNL     1     -12.636  17.240  68.204  1.00  0.00     3.879 A  
ENDROOT
BRANCH   6   9
HETATM    9  C   UNL     1     -11.384  13.621  68.165  1.00  0.00    -0.288 C  
BRANCH   9  10
HETATM   10  C   UNL     1     -11.947  13.462  66.739  1.00  0.00    -0.394 C  
BRANCH  10  11
HETATM   11  N   UNL     1     -11.403  14.422  65.799  1.00  0.00    -0.325 NA 
HETATM   12  C   UNL     1     -11.050  15.716  66.062  1.00  0.00    -0.136 A  
HETATM   13  C   UNL     1     -11.069  14.158  64.498  1.00  0.00    -0.330 A  
HETATM   14  N   UNL     1     -10.564  15.217  63.911  1.00  0.00     1.130 NA 
HETATM   15  C   UNL     1     -10.546  16.192  64.874  1.00  0.00    -0.176 A  
ENDBRANCH  10  11
ENDBRANCH   9  10
BRANCH   9  16
HETATM   16  O   UNL     1      -9.968  13.374  68.129  1.00  0.00    -0.225 OA 
BRANCH  16  17
HETATM   17  C   UNL     1      -9.620  12.135  67.497  1.00  0.00    -0.179 C  
BRANCH  17  18
HETATM   18  C   UNL     1      -8.892  11.244  68.457  1.00  0.00    -0.159 A  
HETATM   19  C   UNL     1      -9.384  10.025  68.880  1.00  0.00    -0.172 A  
HETATM   20  S   UNL     1      -8.357   9.236  69.975  1.00  0.00    -0.189 SA 
HETATM   21  C   UNL     1      -7.194  10.511  69.936  1.00  0.00    -0.130 A  
HETATM   22  C   UNL     1      -7.605  11.534  69.064  1.00  0.00    -0.058 A  
HETATM   23  C   UNL     1      -6.746  12.656  68.915  1.00  0.00    -0.098 A  
HETATM   24  C   UNL     1      -5.536  12.741  69.611  1.00  0.00    -0.089 A  
HETATM   25  C   UNL     1      -5.157  11.721  70.471  1.00  0.00    -0.107 A  
HETATM   26  C   UNL     1      -5.975  10.602  70.642  1.00  0.00    -0.097 A  
HETATM   27 CL   UNL     1      -5.455   9.362  71.726  1.00  0.00    -0.070 Cl 
ENDBRANCH  17  18
ENDBRANCH  16  17
ENDBRANCH   9  16
ENDBRANCH   6   9
TORSDOF 6
ENDMDL
MODEL      318
REMARK 921   NORMALIZED FREE ENERGY PREDICTED BY IDOCK:   38.04 KCAL/MOL
REMARK 922        TOTAL FREE ENERGY PREDICTED BY IDOCK:   50.34 KCAL/MOL
REMARK 923 INTER-LIGAND FREE ENERGY PREDICTED BY IDOCK:   41.48 KCAL/MOL
REMARK 924 INTRA-LIGAND FREE ENERGY PREDICTED BY IDOCK:    8.85 KCAL/MOL
REMARK 927      BINDING AFFINITY PREDICTED BY RF-SCORE:    0.00 PKD
ROOT
HETATM    1 CL   UNL     1      -9.167  13.127  72.846  1.00  0.00    17.009 Cl 
HETATM    2  C   UNL     1      -8.600  13.432  71.251  1.00  0.00    10.187 A  
HETATM    3  C   UNL     1      -7.834  12.475  70.590  1.00  0.00     5.321 A  
HETATM    4  C   UNL     1      -7.377  12.722  69.292  1.00  0.00     0.242 A  
HETATM    5 CL   UNL     1      -6.421  11.499  68.536  1.00  0.00    -0.052 Cl 
HETATM    6  C   UNL     1      -7.692  13.924  68.637  1.00  0.00    -0.128 A  
HETATM    7  C   UNL     1      -8.481  14.869  69.325  1.00  0.00    -0.116 A  
HETATM    8  C   UNL     1      -8.918  14.634  70.629  1.00  0.00     2.199 A  
ENDROOT
BRANCH   6   9
HETATM    9  C   UNL     1      -7.238  14.224  67.211  1.00  0.00     0.023 C  
BRANCH   9  10
HETATM   10  C   UNL     1      -8.227  13.566  66.229  1.00  0.00     1.097 C  
BRANCH  10  11
HETATM   11  N   UNL     1      -9.064  12.559  66.849  1.00  0.00    -0.209 NA 
HETATM   12  C   UNL     1      -9.256  11.275  66.419  1.00  0.00    -0.192 A  
HETATM   13  C   UNL     1      -9.739  12.705  68.030  1.00  0.00    -0.215 A  
HETATM   14  N   UNL     1     -10.379  11.606  68.353  1.00  0.00    -0.198 NA 
HETATM   15  C   UNL     1     -10.085  10.710  67.359  1.00  0.00    -0.194 A  
ENDBRANCH  10  11
ENDBRANCH   9  10
BRANCH   9  16
HETATM   16  O   UNL     1      -7.244  15.645  66.985  1.00  0.00    -0.210 OA 
BRANCH  16  17
HETATM   17  C   UNL     1      -6.393  16.369  67.882  1.00  0.00    -0.133 C  
BRANCH  17  18
HETATM   18  C   UNL     1      -7.210  17.213  68.813  1.00  0.00    -0.232 A  
HETATM   19  C   UNL     1      -8.536  16.958  69.098  1.00  0.00    -0.058 A  
HETATM   20  S   UNL     1      -9.215  18.080  70.173  1.00  0.00     2.599 SA 
HETATM   21  C   UNL     1      -7.744  18.974  70.303  1.00  0.00     1.427 A  
HETATM   22  C   UNL     1      -6.734  18.389  69.521  1.00  0.00    -0.125 A  
HETATM   23  C   UNL     1      -5.454  19.006  69.528  1.00  0.00    -0.219 A  
HETATM   24  C   UNL     1      -5.208  20.156  70.286  1.00  0.00    -0.279 A  
HETATM   25  C   UNL     1      -6.224  20.719  71.043  1.00  0.00     0.520 A  
HETATM   26  C   UNL     1      -7.495  20.139  71.061  1.00  0.00     1.216 A  
HETATM   27 CL   UNL     1      -8.723  20.882  72.021  1.00  0.00     2.205 Cl 
ENDBRANCH  17  18
ENDBRANCH  16  17
ENDBRANCH   9  16
ENDBRANCH   6   9
TORSDOF 6
ENDMDL
MODEL      319
REMARK 921   NORMALIZED FREE ENERGY PREDICTED BY IDOCK:   41.41 KCAL/MOL
REMARK 922        TOTAL FREE ENERGY PREDICTED BY IDOCK:   54.89 KCAL/MOL
REMARK 923 INTER-LIGAND FREE ENERGY PREDICTED BY IDOCK:   46.26 KCAL/MOL
REMARK 924 INTRA-LIGAND FREE ENERGY PREDICTED BY IDOCK:    8.63 KCAL/MOL
REMARK 927      BINDING AFFINITY PREDICTED BY RF-SCORE:    0.00 PKD
ROOT
HETATM    1 CL   UNL     1      -7.934  14.277  64.404  1.00  0.00    10.907 Cl 
HETATM    2  C   UNL     1      -8.954  14.442  65.779  1.00  0.00     0.628 A  
HETATM    3  C   UNL     1      -8.414  14.352  67.060  1.00  0.00    -0.206 A  
HETATM    4  C   UNL     1      -9.243  14.490  68.177  1.00  0.00    -0.195 A  
HETATM    5 CL   UNL     1      -8.512  14.353  69.735  1.00  0.00     0.512 Cl 
HETATM    6  C   UNL     1     -10.618  14.731  68.025  1.00  0.00    -0.244 A  
HETATM    7  C   UNL     1     -11.135  14.831  66.716  1.00  0.00    -0.338 A  
HETATM    8  C   UNL     1     -10.313  14.671  65.601  1.00  0.00    -0.370 A  
ENDROOT
BRANCH   6   9
HETATM    9  C   UNL     1     -11.556  14.915  69.215  1.00  0.00    -0.306 C  
BRANCH   9  10
HETATM   10  C   UNL     1     -11.072  16.122  70.043  1.00  0.00    -0.363 C  
BRANCH  10  11
HETATM   11  N   UNL     1     -11.087  15.879  71.471  1.00  0.00    -0.146 NA 
HETATM   12  C   UNL     1     -11.457  16.761  72.448  1.00  0.00     0.364 A  
HETATM   13  C   UNL     1     -10.813  14.682  72.076  1.00  0.00     1.519 A  
HETATM   14  N   UNL     1     -10.948  14.765  73.379  1.00  0.00     1.396 NA 
HETATM   15  C   UNL     1     -11.349  16.052  73.622  1.00  0.00     1.086 A  
ENDBRANCH  10  11
ENDBRANCH   9  10
BRANCH   9  16
HETATM   16  O   UNL     1     -12.890  15.184  68.750  1.00  0.00     0.472 OA 
BRANCH  16  17
HETATM   17  C   UNL     1     -12.961  15.457  67.345  1.00  0.00     2.843 C  
BRANCH  17  18
HETATM   18  C   UNL     1     -13.121  14.183  66.571  1.00  0.00     1.008 A  
HETATM   19  C   UNL     1     -13.214  12.942  67.169  1.00  0.00     3.992 A  
HETATM   20  S   UNL     1     -13.375  11.675  66.052  1.00  0.00     8.008 SA 
HETATM   21  C   UNL     1     -13.322  12.746  64.700  1.00  0.00     0.620 A  
HETATM   22  C   UNL     1     -13.191  14.080  65.124  1.00  0.00     0.097 A  
HETATM   23  C   UNL     1     -13.141  15.088  64.124  1.00  0.00     1.279 A  
HETATM   24  C   UNL     1     -13.218  14.765  62.765  1.00  0.00     4.391 A  
HETATM   25  C   UNL     1     -13.340  13.441  62.372  1.00  0.00     4.364 A  
HETATM   26  C   UNL     1     -13.393  12.423  63.327  1.00  0.00     0.973 A  
HETATM   27 CL   UNL     1     -13.543  10.791  62.782  1.00  0.00     3.966 Cl 
ENDBRANCH  17  18
ENDBRANCH  16  17
ENDBRANCH   9  16
ENDBRANCH   6   9
TORSDOF 6
ENDMDL
MODEL      320
REMARK 921   NORMALIZED FREE ENERGY PREDICTED BY IDOCK:   41.74 KCAL/MOL
REMARK 922        TOTAL FREE ENERGY PREDICTED BY IDOCK:   55.33 KCAL/MOL
REMARK 923 INTER-LIGAND FREE ENERGY PREDICTED BY IDOCK:   45.68 KCAL/MOL
REMARK 924 INTRA-LIGAND FREE ENERGY PREDICTED BY IDOCK:    9.66 KCAL/MOL
REMARK 927      BINDING AFFINITY PREDICTED BY RF-SCORE:    0.00 PKD
ROOT
HETATM    1 CL   UNL     1      -9.035   8.283  71.312  1.00  0.00    -0.180 Cl 
HETATM    2  C   UNL     1      -9.152   9.744  70.412  1.00  0.00    -0.097 A  
HETATM    3  C   UNL     1     -10.040  10.739  70.814  1.00  0.00     1.888 A  
HETATM    4  C   UNL     1     -10.131  11.928  70.085  1.00  0.00     2.335 A  
HETATM    5 CL   UNL     1     -11.262  13.113  70.630  1.00  0.00     0.845 Cl 
HETATM    6  C   UNL     1      -9.328  12.139  68.952  1.00  0.00     0.195 A  
HETATM    7  C   UNL     1      -8.428  11.119  68.576  1.00  0.00    -0.156 A  
HETATM    8  C   UNL     1      -8.352   9.924  69.289  1.00  0.00    -0.151 A  
ENDROOT
BRANCH   6   9
HETATM    9  C   UNL     1      -9.375  13.431  68.142  1.00  0.00    -0.217 C  
BRANCH   9  10
HETATM   10  C   UNL     1     -10.227  13.192  66.879  1.00  0.00    -0.245 C  
BRANCH  10  11
HETATM   11  N   UNL     1      -9.747  13.919  65.721  1.00  0.00    -0.217 NA 
HETATM   12  C   UNL     1      -9.216  13.383  64.580  1.00  0.00     1.602 A  
HETATM   13  C   UNL     1      -9.828  15.273  65.543  1.00  0.00    -0.326 A  
HETATM   14  N   UNL     1      -9.344  15.631  64.377  1.00  0.00     2.359 NA 
HETATM   15  C   UNL     1      -8.962  14.464  63.769  1.00  0.00     9.151 A  
ENDBRANCH  10  11
ENDBRANCH   9  10
BRANCH   9  16
HETATM   16  O   UNL     1      -9.991  14.474  68.919  1.00  0.00    -0.228 OA 
BRANCH  16  17
HETATM   17  C   UNL     1     -11.414  14.340  69.029  1.00  0.00    -0.284 C  
BRANCH  17  18
HETATM   18  C   UNL     1     -12.091  14.962  67.844  1.00  0.00    -0.089 A  
HETATM   19  C   UNL     1     -13.269  14.482  67.309  1.00  0.00     3.064 A  
HETATM   20  S   UNL     1     -13.801  15.371  65.966  1.00  0.00     5.391 SA 
HETATM   21  C   UNL     1     -12.455  16.450  66.039  1.00  0.00     3.274 A  
HETATM   22  C   UNL     1     -11.609  16.120  67.112  1.00  0.00     0.462 A  
HETATM   23  C   UNL     1     -10.455  16.924  67.312  1.00  0.00    -0.301 A  
HETATM   24  C   UNL     1     -10.170  18.005  66.471  1.00  0.00    -0.383 A  
HETATM   25  C   UNL     1     -11.016  18.305  65.415  1.00  0.00     0.452 A  
HETATM   26  C   UNL     1     -12.161  17.537  65.188  1.00  0.00     4.307 A  
HETATM   27 CL   UNL     1     -13.180  17.954  63.857  1.00  0.00    13.224 Cl 
ENDBRANCH  17  18
ENDBRANCH  16  17
ENDBRANCH   9  16
ENDBRANCH   6   9
TORSDOF 6
ENDMDL
