MODEL        1
REMARK 921   NORMALIZED FREE ENERGY PREDICTED BY IDOCK:   -6.67 KCAL/MOL
REMARK 922        TOTAL FREE ENERGY PREDICTED BY IDOCK:   -8.05 KCAL/MOL
REMARK 923 INTER-LIGAND FREE ENERGY PREDICTED BY IDOCK:   -7.45 KCAL/MOL
REMARK 924 INTRA-LIGAND FREE ENERGY PREDICTED BY IDOCK:   -0.60 KCAL/MOL
REMARK 927      BINDING AFFINITY PREDICTED BY RF-SCORE:    0.00 PKD
ROOT
HETATM    1  C   UNL     1     -10.409  18.076  67.058  1.00  0.00    -0.369 C  
HETATM    2  N   UNL     1     -10.339  17.348  65.798  1.00  0.00    -0.590 NA 
HETATM    3  H   UNL     1      -9.884  17.910  65.079  1.00  0.00     0.000 HD 
ENDROOT
BRANCH   2   4
HETATM    4  C   UNL     1      -9.690  16.029  65.923  1.00  0.00    -0.343 C  
HETATM    5  C   UNL     1      -9.057  15.939  67.328  1.00  0.00    -0.218 C  
HETATM    6  C   UNL     1      -8.939  14.524  67.871  1.00  0.00    -0.187 C  
HETATM    7  C   UNL     1     -10.279  13.780  67.869  1.00  0.00    -0.245 C  
HETATM    8  C   UNL     1     -10.941  13.852  66.505  1.00  0.00    -0.300 A  
HETATM    9  C   UNL     1     -10.674  14.900  65.602  1.00  0.00    -0.352 A  
HETATM   10  C   UNL     1     -11.296  14.860  64.335  1.00  0.00    -0.211 A  
HETATM   11  C   UNL     1     -11.851  12.836  66.150  1.00  0.00    -0.484 A  
HETATM   12  C   UNL     1     -12.472  12.835  64.906  1.00  0.00    -0.563 A  
HETATM   13  C   UNL     1     -12.191  13.845  63.996  1.00  0.00    -0.413 A  
BRANCH   7  14
HETATM   14  C   UNL     1     -11.213  14.141  69.023  1.00  0.00    -0.303 A  
HETATM   15 CL   UNL     1     -13.168  12.055  71.831  1.00  0.00    -0.553 Cl 
HETATM   16  C   UNL     1     -13.124  14.680  71.033  1.00  0.00    -0.367 A  
HETATM   17  C   UNL     1     -12.642  15.710  70.223  1.00  0.00    -0.319 A  
HETATM   18 CL   UNL     1     -14.344  15.065  72.192  1.00  0.00    -0.613 Cl 
HETATM   19  C   UNL     1     -11.676  13.121  69.874  1.00  0.00    -0.327 A  
HETATM   20  C   UNL     1     -12.627  13.383  70.868  1.00  0.00    -0.327 A  
HETATM   21  C   UNL     1     -11.687  15.445  69.234  1.00  0.00    -0.367 A  
ENDBRANCH   7  14
ENDBRANCH   2   4
TORSDOF 2
ENDMDL
MODEL        2
REMARK 921   NORMALIZED FREE ENERGY PREDICTED BY IDOCK:   -6.43 KCAL/MOL
REMARK 922        TOTAL FREE ENERGY PREDICTED BY IDOCK:   -7.77 KCAL/MOL
REMARK 923 INTER-LIGAND FREE ENERGY PREDICTED BY IDOCK:   -7.49 KCAL/MOL
REMARK 924 INTRA-LIGAND FREE ENERGY PREDICTED BY IDOCK:   -0.28 KCAL/MOL
REMARK 927      BINDING AFFINITY PREDICTED BY RF-SCORE:    0.00 PKD
ROOT
HETATM    1  C   UNL     1     -13.685   8.790  71.602  1.00  0.00    -0.394 C  
HETATM    2  N   UNL     1     -13.426   9.835  70.619  1.00  0.00    -0.592 NA 
HETATM    3  H   UNL     1     -14.206  10.491  70.575  1.00  0.00     0.000 HD 
ENDROOT
BRANCH   2   4
HETATM    4  C   UNL     1     -12.153  10.545  70.846  1.00  0.00    -0.383 C  
HETATM    5  C   UNL     1     -11.151  10.085  69.765  1.00  0.00    -0.319 C  
HETATM    6  C   UNL     1     -10.084  11.114  69.424  1.00  0.00     0.009 C  
HETATM    7  C   UNL     1     -10.680  12.467  69.020  1.00  0.00    -0.140 C  
HETATM    8  C   UNL     1     -11.682  12.952  70.053  1.00  0.00    -0.284 A  
HETATM    9  C   UNL     1     -12.372  12.061  70.897  1.00  0.00    -0.384 A  
HETATM   10  C   UNL     1     -13.247  12.602  71.864  1.00  0.00    -0.504 A  
HETATM   11  C   UNL     1     -11.919  14.337  70.154  1.00  0.00    -0.391 A  
HETATM   12  C   UNL     1     -12.808  14.845  71.095  1.00  0.00    -0.426 A  
HETATM   13  C   UNL     1     -13.469  13.977  71.954  1.00  0.00    -0.506 A  
BRANCH   7  14
HETATM   14  C   UNL     1     -11.201  12.535  67.585  1.00  0.00    -0.332 A  
HETATM   15 CL   UNL     1     -10.284  10.668  64.159  1.00  0.00    -0.408 Cl 
HETATM   16  C   UNL     1     -11.931  12.746  64.865  1.00  0.00    -0.402 A  
HETATM   17  C   UNL     1     -12.498  13.596  65.816  1.00  0.00    -0.524 A  
HETATM   18 CL   UNL     1     -12.367  12.978  63.210  1.00  0.00    -0.525 Cl 
HETATM   19  C   UNL     1     -10.670  11.656  66.623  1.00  0.00    -0.310 A  
HETATM   20  C   UNL     1     -11.026  11.761  65.273  1.00  0.00    -0.295 A  
HETATM   21  C   UNL     1     -12.144  13.485  67.166  1.00  0.00    -0.386 A  
ENDBRANCH   7  14
ENDBRANCH   2   4
TORSDOF 2
ENDMDL
MODEL        3
REMARK 921   NORMALIZED FREE ENERGY PREDICTED BY IDOCK:   -6.38 KCAL/MOL
REMARK 922        TOTAL FREE ENERGY PREDICTED BY IDOCK:   -7.72 KCAL/MOL
REMARK 923 INTER-LIGAND FREE ENERGY PREDICTED BY IDOCK:   -7.14 KCAL/MOL
REMARK 924 INTRA-LIGAND FREE ENERGY PREDICTED BY IDOCK:   -0.58 KCAL/MOL
REMARK 927      BINDING AFFINITY PREDICTED BY RF-SCORE:    0.00 PKD
ROOT
HETATM    1  C   UNL     1     -10.415  17.228  67.760  1.00  0.00    -0.371 C  
HETATM    2  N   UNL     1     -10.212  16.859  66.365  1.00  0.00    -0.313 NA 
HETATM    3  H   UNL     1      -9.666  17.570  65.878  1.00  0.00     0.000 HD 
ENDROOT
BRANCH   2   4
HETATM    4  C   UNL     1      -9.606  15.524  66.198  1.00  0.00    -0.330 C  
HETATM    5  C   UNL     1      -8.916  15.144  67.526  1.00  0.00    -0.187 C  
HETATM    6  C   UNL     1      -8.825  13.647  67.776  1.00  0.00    -0.190 C  
HETATM    7  C   UNL     1     -10.190  12.955  67.698  1.00  0.00    -0.220 C  
HETATM    8  C   UNL     1     -10.909  13.310  66.409  1.00  0.00    -0.296 A  
HETATM    9  C   UNL     1     -10.645  14.507  65.715  1.00  0.00    -0.326 A  
HETATM   10  C   UNL     1     -11.322  14.734  64.497  1.00  0.00    -0.309 A  
HETATM   11  C   UNL     1     -11.870  12.409  65.909  1.00  0.00    -0.467 A  
HETATM   12  C   UNL     1     -12.546  12.668  64.722  1.00  0.00    -0.530 A  
HETATM   13  C   UNL     1     -12.268  13.829  64.012  1.00  0.00    -0.429 A  
BRANCH   7  14
HETATM   14  C   UNL     1     -11.059  13.108  68.945  1.00  0.00    -0.310 A  
HETATM   15 CL   UNL     1     -12.847  10.560  71.470  1.00  0.00    -0.531 Cl 
HETATM   16  C   UNL     1     -12.855  13.281  71.119  1.00  0.00    -0.280 A  
HETATM   17  C   UNL     1     -12.422  14.437  70.467  1.00  0.00    -0.416 A  
HETATM   18 CL   UNL     1     -14.008  13.453  72.392  1.00  0.00    -0.662 Cl 
HETATM   19  C   UNL     1     -11.470  11.954  69.638  1.00  0.00    -0.337 A  
HETATM   20  C   UNL     1     -12.364  12.036  70.713  1.00  0.00    -0.308 A  
HETATM   21  C   UNL     1     -11.524  14.353  69.396  1.00  0.00    -0.330 A  
ENDBRANCH   7  14
ENDBRANCH   2   4
TORSDOF 2
ENDMDL
MODEL        4
REMARK 921   NORMALIZED FREE ENERGY PREDICTED BY IDOCK:   -6.29 KCAL/MOL
REMARK 922        TOTAL FREE ENERGY PREDICTED BY IDOCK:   -7.62 KCAL/MOL
REMARK 923 INTER-LIGAND FREE ENERGY PREDICTED BY IDOCK:   -6.82 KCAL/MOL
REMARK 924 INTRA-LIGAND FREE ENERGY PREDICTED BY IDOCK:   -0.80 KCAL/MOL
REMARK 927      BINDING AFFINITY PREDICTED BY RF-SCORE:    0.00 PKD
ROOT
HETATM    1  C   UNL     1      -7.639  12.802  67.940  1.00  0.00    -0.138 C  
HETATM    2  N   UNL     1      -7.918  12.193  66.646  1.00  0.00    -0.384 NA 
HETATM    3  H   UNL     1      -7.141  11.602  66.349  1.00  0.00     0.000 HD 
ENDROOT
BRANCH   2   4
HETATM    4  C   UNL     1      -9.189  11.443  66.618  1.00  0.00    -0.181 C  
HETATM    5  C   UNL     1      -9.479  10.941  68.049  1.00  0.00    -0.167 C  
HETATM    6  C   UNL     1     -10.956  10.749  68.356  1.00  0.00    -0.299 C  
HETATM    7  C   UNL     1     -11.781  12.012  68.085  1.00  0.00    -0.398 C  
HETATM    8  C   UNL     1     -11.517  12.546  66.688  1.00  0.00    -0.417 A  
HETATM    9  C   UNL     1     -10.311  12.289  66.008  1.00  0.00    -0.273 A  
HETATM   10  C   UNL     1     -10.171  12.782  64.693  1.00  0.00    -0.321 A  
HETATM   11  C   UNL     1     -12.516  13.324  66.071  1.00  0.00    -0.388 A  
HETATM   12  C   UNL     1     -12.344  13.823  64.785  1.00  0.00    -0.420 A  
HETATM   13  C   UNL     1     -11.171  13.548  64.093  1.00  0.00    -0.341 A  
BRANCH   7  14
HETATM   14  C   UNL     1     -11.695  13.080  69.174  1.00  0.00    -0.378 A  
HETATM   15 CL   UNL     1     -13.449  13.623  72.737  1.00  0.00    -0.584 Cl 
HETATM   16  C   UNL     1     -11.783  15.107  71.139  1.00  0.00    -0.353 A  
HETATM   17  C   UNL     1     -11.015  15.275  69.985  1.00  0.00    -0.306 A  
HETATM   18 CL   UNL     1     -11.850  16.415  72.264  1.00  0.00    -0.604 Cl 
HETATM   19  C   UNL     1     -12.431  12.906  70.361  1.00  0.00    -0.247 A  
HETATM   20  C   UNL     1     -12.480  13.911  71.335  1.00  0.00    -0.340 A  
HETATM   21  C   UNL     1     -10.963  14.266  69.016  1.00  0.00    -0.282 A  
ENDBRANCH   7  14
ENDBRANCH   2   4
TORSDOF 2
ENDMDL
MODEL        5
REMARK 921   NORMALIZED FREE ENERGY PREDICTED BY IDOCK:   -6.28 KCAL/MOL
REMARK 922        TOTAL FREE ENERGY PREDICTED BY IDOCK:   -7.61 KCAL/MOL
REMARK 923 INTER-LIGAND FREE ENERGY PREDICTED BY IDOCK:   -6.79 KCAL/MOL
REMARK 924 INTRA-LIGAND FREE ENERGY PREDICTED BY IDOCK:   -0.82 KCAL/MOL
REMARK 927      BINDING AFFINITY PREDICTED BY RF-SCORE:    0.00 PKD
ROOT
HETATM    1  C   UNL     1      -8.471  12.072  67.906  1.00  0.00    -0.160 C  
HETATM    2  N   UNL     1      -9.481  11.193  67.330  1.00  0.00    -0.164 NA 
HETATM    3  H   UNL     1      -9.448  10.271  67.765  1.00  0.00     0.000 HD 
ENDROOT
BRANCH   2   4
HETATM    4  C   UNL     1     -10.844  11.754  67.391  1.00  0.00    -0.251 C  
HETATM    5  C   UNL     1     -10.893  12.763  68.558  1.00  0.00    -0.279 C  
HETATM    6  C   UNL     1     -11.921  13.871  68.383  1.00  0.00    -0.391 C  
HETATM    7  C   UNL     1     -11.748  14.629  67.063  1.00  0.00    -0.379 C  
HETATM    8  C   UNL     1     -11.684  13.671  65.887  1.00  0.00    -0.378 A  
HETATM    9  C   UNL     1     -11.257  12.337  66.036  1.00  0.00    -0.375 A  
HETATM   10  C   UNL     1     -11.278  11.501  64.899  1.00  0.00    -0.242 A  
HETATM   11  C   UNL     1     -12.061  14.147  64.615  1.00  0.00    -0.469 A  
HETATM   12  C   UNL     1     -12.045  13.313  63.504  1.00  0.00    -0.550 A  
HETATM   13  C   UNL     1     -11.657  11.986  63.646  1.00  0.00    -0.578 A  
BRANCH   7  14
HETATM   14  C   UNL     1     -10.630  15.671  67.064  1.00  0.00    -0.311 A  
HETATM   15 CL   UNL     1     -10.345  19.504  68.200  1.00  0.00    -0.546 Cl 
HETATM   16  C   UNL     1      -8.703  17.730  66.900  1.00  0.00    -0.248 A  
HETATM   17  C   UNL     1      -8.427  16.463  66.386  1.00  0.00    -0.364 A  
HETATM   18 CL   UNL     1      -7.511  18.963  66.702  1.00  0.00    -0.231 Cl 
HETATM   19  C   UNL     1     -10.879  16.941  67.617  1.00  0.00    -0.244 A  
HETATM   20  C   UNL     1      -9.928  17.965  67.534  1.00  0.00    -0.322 A  
HETATM   21  C   UNL     1      -9.377  15.439  66.476  1.00  0.00    -0.311 A  
ENDBRANCH   7  14
ENDBRANCH   2   4
TORSDOF 2
ENDMDL
MODEL        6
REMARK 921   NORMALIZED FREE ENERGY PREDICTED BY IDOCK:   -6.19 KCAL/MOL
REMARK 922        TOTAL FREE ENERGY PREDICTED BY IDOCK:   -7.51 KCAL/MOL
REMARK 923 INTER-LIGAND FREE ENERGY PREDICTED BY IDOCK:   -6.88 KCAL/MOL
REMARK 924 INTRA-LIGAND FREE ENERGY PREDICTED BY IDOCK:   -0.63 KCAL/MOL
REMARK 927      BINDING AFFINITY PREDICTED BY RF-SCORE:    0.00 PKD
ROOT
HETATM    1  C   UNL     1      -7.795  11.927  67.073  1.00  0.00    -0.152 C  
HETATM    2  N   UNL     1      -8.352  10.795  66.344  1.00  0.00    -0.148 NA 
HETATM    3  H   UNL     1      -7.827   9.943  66.542  1.00  0.00     0.000 HD 
ENDROOT
BRANCH   2   4
HETATM    4  C   UNL     1      -9.793  10.595  66.592  1.00  0.00    -0.201 C  
HETATM    5  C   UNL     1     -10.082  10.979  68.058  1.00  0.00    -0.198 C  
HETATM    6  C   UNL     1     -11.503  11.462  68.309  1.00  0.00    -0.369 C  
HETATM    7  C   UNL     1     -11.898  12.624  67.392  1.00  0.00    -0.393 C  
HETATM    8  C   UNL     1     -11.619  12.291  65.937  1.00  0.00    -0.450 A  
HETATM    9  C   UNL     1     -10.636  11.354  65.563  1.00  0.00    -0.328 A  
HETATM   10  C   UNL     1     -10.479  11.068  64.190  1.00  0.00    -0.434 A  
HETATM   11  C   UNL     1     -12.370  12.952  64.945  1.00  0.00    -0.532 A  
HETATM   12  C   UNL     1     -12.177  12.674  63.597  1.00  0.00    -0.624 A  
HETATM   13  C   UNL     1     -11.233  11.727  63.218  1.00  0.00    -0.357 A  
BRANCH   7  14
HETATM   14  C   UNL     1     -11.361  13.989  67.821  1.00  0.00    -0.328 A  
HETATM   15 CL   UNL     1     -11.660  16.226  71.133  1.00  0.00    -0.442 Cl 
HETATM   16  C   UNL     1     -10.612  16.593  68.623  1.00  0.00    -0.337 A  
HETATM   17  C   UNL     1     -10.311  16.136  67.339  1.00  0.00    -0.294 A  
HETATM   18 CL   UNL     1     -10.192  18.218  69.024  1.00  0.00    -0.329 Cl 
HETATM   19  C   UNL     1     -11.621  14.447  69.126  1.00  0.00    -0.344 A  
HETATM   20  C   UNL     1     -11.256  15.739  69.525  1.00  0.00    -0.317 A  
HETATM   21  C   UNL     1     -10.673  14.842  66.944  1.00  0.00    -0.308 A  
ENDBRANCH   7  14
ENDBRANCH   2   4
TORSDOF 2
ENDMDL
MODEL        7
REMARK 921   NORMALIZED FREE ENERGY PREDICTED BY IDOCK:   -6.14 KCAL/MOL
REMARK 922        TOTAL FREE ENERGY PREDICTED BY IDOCK:   -7.46 KCAL/MOL
REMARK 923 INTER-LIGAND FREE ENERGY PREDICTED BY IDOCK:   -6.82 KCAL/MOL
REMARK 924 INTRA-LIGAND FREE ENERGY PREDICTED BY IDOCK:   -0.64 KCAL/MOL
REMARK 927      BINDING AFFINITY PREDICTED BY RF-SCORE:    0.00 PKD
ROOT
HETATM    1  C   UNL     1      -7.215  11.814  67.148  1.00  0.00    -0.147 C  
HETATM    2  N   UNL     1      -8.107  11.409  66.069  1.00  0.00    -0.371 NA 
HETATM    3  H   UNL     1      -7.695  10.651  65.524  1.00  0.00     0.000 HD 
ENDROOT
BRANCH   2   4
HETATM    4  C   UNL     1      -9.459  11.047  66.535  1.00  0.00    -0.187 C  
HETATM    5  C   UNL     1      -9.594  11.499  68.005  1.00  0.00    -0.180 C  
HETATM    6  C   UNL     1     -11.018  11.814  68.434  1.00  0.00    -0.274 C  
HETATM    7  C   UNL     1     -11.691  12.846  67.522  1.00  0.00    -0.422 C  
HETATM    8  C   UNL     1     -11.572  12.444  66.063  1.00  0.00    -0.455 A  
HETATM    9  C   UNL     1     -10.532  11.615  65.601  1.00  0.00    -0.314 A  
HETATM   10  C   UNL     1     -10.528  11.250  64.238  1.00  0.00    -0.419 A  
HETATM   11  C   UNL     1     -12.536  12.929  65.156  1.00  0.00    -0.561 A  
HETATM   12  C   UNL     1     -12.494  12.579  63.812  1.00  0.00    -0.552 A  
HETATM   13  C   UNL     1     -11.492  11.734  63.352  1.00  0.00    -0.424 A  
BRANCH   7  14
HETATM   14  C   UNL     1     -11.291  14.296  67.792  1.00  0.00    -0.329 A  
HETATM   15 CL   UNL     1      -8.542  16.793  66.287  1.00  0.00    -0.337 Cl 
HETATM   16  C   UNL     1     -10.327  16.888  68.369  1.00  0.00    -0.338 A  
HETATM   17  C   UNL     1     -11.351  16.329  69.136  1.00  0.00    -0.291 A  
HETATM   18 CL   UNL     1      -9.735  18.445  68.821  1.00  0.00    -0.374 Cl 
HETATM   19  C   UNL     1     -10.290  14.888  67.001  1.00  0.00    -0.264 A  
HETATM   20  C   UNL     1      -9.806  16.171  67.287  1.00  0.00    -0.241 A  
HETATM   21  C   UNL     1     -11.836  15.048  68.844  1.00  0.00    -0.337 A  
ENDBRANCH   7  14
ENDBRANCH   2   4
TORSDOF 2
ENDMDL
MODEL        8
REMARK 921   NORMALIZED FREE ENERGY PREDICTED BY IDOCK:   -6.10 KCAL/MOL
REMARK 922        TOTAL FREE ENERGY PREDICTED BY IDOCK:   -7.41 KCAL/MOL
REMARK 923 INTER-LIGAND FREE ENERGY PREDICTED BY IDOCK:   -6.89 KCAL/MOL
REMARK 924 INTRA-LIGAND FREE ENERGY PREDICTED BY IDOCK:   -0.52 KCAL/MOL
REMARK 927      BINDING AFFINITY PREDICTED BY RF-SCORE:    0.00 PKD
ROOT
HETATM    1  C   UNL     1     -10.691   6.987  67.777  1.00  0.00    -0.231 C  
HETATM    2  N   UNL     1     -11.326   6.390  68.945  1.00  0.00    -0.579 NA 
HETATM    3  H   UNL     1     -11.150   5.385  68.978  1.00  0.00     0.000 HD 
ENDROOT
BRANCH   2   4
HETATM    4  C   UNL     1     -10.934   7.034  70.213  1.00  0.00    -0.271 C  
HETATM    5  C   UNL     1      -9.757   7.989  69.920  1.00  0.00    -0.180 C  
HETATM    6  C   UNL     1      -9.655   9.167  70.876  1.00  0.00    -0.347 C  
HETATM    7  C   UNL     1     -10.955   9.974  70.953  1.00  0.00    -0.337 C  
HETATM    8  C   UNL     1     -12.143   9.071  71.230  1.00  0.00    -0.375 A  
HETATM    9  C   UNL     1     -12.138   7.707  70.880  1.00  0.00    -0.226 A  
HETATM   10  C   UNL     1     -13.266   6.929  71.221  1.00  0.00    -0.237 A  
HETATM   11  C   UNL     1     -13.278   9.630  71.851  1.00  0.00    -0.538 A  
HETATM   12  C   UNL     1     -14.388   8.850  72.151  1.00  0.00    -0.418 A  
HETATM   13  C   UNL     1     -14.381   7.496  71.840  1.00  0.00    -0.520 A  
BRANCH   7  14
HETATM   14  C   UNL     1     -11.179  10.940  69.790  1.00  0.00    -0.351 A  
HETATM   15 CL   UNL     1     -12.375  14.753  69.479  1.00  0.00    -0.264 Cl 
HETATM   16  C   UNL     1     -11.841  12.728  67.705  1.00  0.00    -0.332 A  
HETATM   17  C   UNL     1     -11.432  11.425  67.415  1.00  0.00    -0.328 A  
HETATM   18 CL   UNL     1     -12.301  13.745  66.388  1.00  0.00    -0.475 Cl 
HETATM   19  C   UNL     1     -11.551  12.269  70.067  1.00  0.00    -0.236 A  
HETATM   20  C   UNL     1     -11.885  13.156  69.036  1.00  0.00    -0.313 A  
HETATM   21  C   UNL     1     -11.094  10.542  68.447  1.00  0.00    -0.335 A  
ENDBRANCH   7  14
ENDBRANCH   2   4
TORSDOF 2
ENDMDL
MODEL        9
REMARK 921   NORMALIZED FREE ENERGY PREDICTED BY IDOCK:   -6.04 KCAL/MOL
REMARK 922        TOTAL FREE ENERGY PREDICTED BY IDOCK:   -7.34 KCAL/MOL
REMARK 923 INTER-LIGAND FREE ENERGY PREDICTED BY IDOCK:   -7.06 KCAL/MOL
REMARK 924 INTRA-LIGAND FREE ENERGY PREDICTED BY IDOCK:   -0.28 KCAL/MOL
REMARK 927      BINDING AFFINITY PREDICTED BY RF-SCORE:    0.00 PKD
ROOT
HETATM    1  C   UNL     1     -12.988  14.200  65.331  1.00  0.00    -0.270 C  
HETATM    2  N   UNL     1     -12.017  14.573  64.309  1.00  0.00    -0.641 NA 
HETATM    3  H   UNL     1     -12.185  15.524  63.981  1.00  0.00     0.000 HD 
ENDROOT
BRANCH   2   4
HETATM    4  C   UNL     1     -10.618  14.407  64.747  1.00  0.00    -0.393 C  
HETATM    5  C   UNL     1     -10.417  15.242  66.030  1.00  0.00    -0.328 C  
HETATM    6  C   UNL     1      -9.331  14.715  66.955  1.00  0.00    -0.258 C  
HETATM    7  C   UNL     1      -9.546  13.246  67.334  1.00  0.00    -0.223 C  
HETATM    8  C   UNL     1      -9.759  12.388  66.100  1.00  0.00    -0.254 A  
HETATM    9  C   UNL     1     -10.264  12.924  64.899  1.00  0.00    -0.296 A  
HETATM   10  C   UNL     1     -10.382  12.065  63.785  1.00  0.00    -0.457 A  
HETATM   11  C   UNL     1      -9.442  11.017  66.176  1.00  0.00    -0.230 A  
HETATM   12  C   UNL     1      -9.594  10.185  65.073  1.00  0.00    -0.362 A  
HETATM   13  C   UNL     1     -10.060  10.710  63.874  1.00  0.00    -0.356 A  
BRANCH   7  14
HETATM   14  C   UNL     1     -10.587  13.012  68.428  1.00  0.00    -0.264 A  
HETATM   15 CL   UNL     1     -12.665  15.386  70.900  1.00  0.00    -0.479 Cl 
HETATM   16  C   UNL     1     -12.343  12.676  70.616  1.00  0.00    -0.290 A  
HETATM   17  C   UNL     1     -11.804  11.564  69.965  1.00  0.00    -0.435 A  
HETATM   18 CL   UNL     1     -13.350  12.401  71.991  1.00  0.00    -0.586 Cl 
HETATM   19  C   UNL     1     -11.171  14.123  69.066  1.00  0.00    -0.303 A  
HETATM   20  C   UNL     1     -12.037  13.960  70.153  1.00  0.00    -0.349 A  
HETATM   21  C   UNL     1     -10.943  11.730  68.874  1.00  0.00    -0.288 A  
ENDBRANCH   7  14
ENDBRANCH   2   4
TORSDOF 2
ENDMDL
MODEL       10
REMARK 921   NORMALIZED FREE ENERGY PREDICTED BY IDOCK:   -6.04 KCAL/MOL
REMARK 922        TOTAL FREE ENERGY PREDICTED BY IDOCK:   -7.34 KCAL/MOL
REMARK 923 INTER-LIGAND FREE ENERGY PREDICTED BY IDOCK:   -7.19 KCAL/MOL
REMARK 924 INTRA-LIGAND FREE ENERGY PREDICTED BY IDOCK:   -0.15 KCAL/MOL
REMARK 927      BINDING AFFINITY PREDICTED BY RF-SCORE:    0.00 PKD
ROOT
HETATM    1  C   UNL     1     -10.947   5.987  69.647  1.00  0.00    -0.400 C  
HETATM    2  N   UNL     1     -11.198   7.301  69.069  1.00  0.00    -0.455 NA 
HETATM    3  H   UNL     1     -12.189   7.537  69.121  1.00  0.00     0.000 HD 
ENDROOT
BRANCH   2   4
HETATM    4  C   UNL     1     -10.372   8.368  69.667  1.00  0.00    -0.218 C  
HETATM    5  C   UNL     1      -9.357   8.839  68.603  1.00  0.00    -0.141 C  
HETATM    6  C   UNL     1      -8.902  10.281  68.769  1.00  0.00    -0.148 C  
HETATM    7  C   UNL     1     -10.077  11.264  68.820  1.00  0.00    -0.204 C  
HETATM    8  C   UNL     1     -11.106  10.832  69.849  1.00  0.00    -0.339 A  
HETATM    9  C   UNL     1     -11.250   9.486  70.238  1.00  0.00    -0.307 A  
HETATM   10  C   UNL     1     -12.198   9.180  71.238  1.00  0.00    -0.395 A  
HETATM   11  C   UNL     1     -11.938  11.817  70.417  1.00  0.00    -0.422 A  
HETATM   12  C   UNL     1     -12.884  11.487  71.380  1.00  0.00    -0.489 A  
HETATM   13  C   UNL     1     -13.012  10.168  71.795  1.00  0.00    -0.567 A  
BRANCH   7  14
HETATM   14  C   UNL     1     -10.680  11.613  67.460  1.00  0.00    -0.257 A  
HETATM   15 CL   UNL     1      -9.835  10.643  63.664  1.00  0.00    -0.379 Cl 
HETATM   16  C   UNL     1     -11.575  12.374  64.891  1.00  0.00    -0.343 A  
HETATM   17  C   UNL     1     -12.142  12.942  66.033  1.00  0.00    -0.484 A  
HETATM   18 CL   UNL     1     -12.117  12.938  63.352  1.00  0.00    -0.632 Cl 
HETATM   19  C   UNL     1     -10.147  11.018  66.302  1.00  0.00    -0.282 A  
HETATM   20  C   UNL     1     -10.584  11.396  65.027  1.00  0.00    -0.299 A  
HETATM   21  C   UNL     1     -11.707  12.557  67.307  1.00  0.00    -0.431 A  
ENDBRANCH   7  14
ENDBRANCH   2   4
TORSDOF 2
ENDMDL
MODEL       11
REMARK 921   NORMALIZED FREE ENERGY PREDICTED BY IDOCK:   -6.03 KCAL/MOL
REMARK 922        TOTAL FREE ENERGY PREDICTED BY IDOCK:   -7.33 KCAL/MOL
REMARK 923 INTER-LIGAND FREE ENERGY PREDICTED BY IDOCK:   -7.08 KCAL/MOL
REMARK 924 INTRA-LIGAND FREE ENERGY PREDICTED BY IDOCK:   -0.26 KCAL/MOL
REMARK 927      BINDING AFFINITY PREDICTED BY RF-SCORE:    0.00 PKD
ROOT
HETATM    1  C   UNL     1      -7.905  11.697  66.960  1.00  0.00    -0.164 C  
HETATM    2  N   UNL     1      -8.266  13.029  67.429  1.00  0.00    -0.177 NA 
HETATM    3  H   UNL     1      -7.478  13.671  67.339  1.00  0.00     0.000 HD 
ENDROOT
BRANCH   2   4
HETATM    4  C   UNL     1      -9.467  13.574  66.767  1.00  0.00    -0.269 C  
HETATM    5  C   UNL     1     -10.702  12.862  67.358  1.00  0.00    -0.252 C  
HETATM    6  C   UNL     1     -11.979  13.687  67.314  1.00  0.00    -0.420 C  
HETATM    7  C   UNL     1     -11.816  15.058  67.980  1.00  0.00    -0.266 C  
HETATM    8  C   UNL     1     -10.603  15.789  67.434  1.00  0.00    -0.313 A  
HETATM    9  C   UNL     1      -9.507  15.101  66.877  1.00  0.00    -0.253 A  
HETATM   10  C   UNL     1      -8.444  15.863  66.346  1.00  0.00    -0.348 A  
HETATM   11  C   UNL     1     -10.586  17.197  67.498  1.00  0.00    -0.323 A  
HETATM   12  C   UNL     1      -9.514  17.924  66.995  1.00  0.00    -0.272 A  
HETATM   13  C   UNL     1      -8.443  17.257  66.413  1.00  0.00    -0.304 A  
BRANCH   7  14
HETATM   14  C   UNL     1     -11.883  15.041  69.506  1.00  0.00    -0.360 A  
HETATM   15 CL   UNL     1     -13.570  12.633  72.230  1.00  0.00    -0.611 Cl 
HETATM   16  C   UNL     1     -12.260  15.043  72.306  1.00  0.00    -0.357 A  
HETATM   17  C   UNL     1     -11.579  16.091  71.685  1.00  0.00    -0.538 A  
HETATM   18 CL   UNL     1     -12.519  15.143  74.010  1.00  0.00    -0.719 Cl 
HETATM   19  C   UNL     1     -12.530  13.970  70.151  1.00  0.00    -0.380 A  
HETATM   20  C   UNL     1     -12.723  13.970  71.537  1.00  0.00    -0.363 A  
HETATM   21  C   UNL     1     -11.383  16.085  70.299  1.00  0.00    -0.391 A  
ENDBRANCH   7  14
ENDBRANCH   2   4
TORSDOF 2
ENDMDL
MODEL       12
REMARK 921   NORMALIZED FREE ENERGY PREDICTED BY IDOCK:   -6.00 KCAL/MOL
REMARK 922        TOTAL FREE ENERGY PREDICTED BY IDOCK:   -7.30 KCAL/MOL
REMARK 923 INTER-LIGAND FREE ENERGY PREDICTED BY IDOCK:   -6.97 KCAL/MOL
REMARK 924 INTRA-LIGAND FREE ENERGY PREDICTED BY IDOCK:   -0.32 KCAL/MOL
REMARK 927      BINDING AFFINITY PREDICTED BY RF-SCORE:    0.00 PKD
ROOT
HETATM    1  C   UNL     1     -10.575   6.802  67.781  1.00  0.00    -0.249 C  
HETATM    2  N   UNL     1     -11.413   6.468  68.925  1.00  0.00    -0.608 NA 
HETATM    3  H   UNL     1     -11.468   5.457  69.050  1.00  0.00     0.000 HD 
ENDROOT
BRANCH   2   4
HETATM    4  C   UNL     1     -10.986   7.130  70.173  1.00  0.00    -0.267 C  
HETATM    5  C   UNL     1      -9.854   8.120  69.824  1.00  0.00    -0.187 C  
HETATM    6  C   UNL     1      -9.747   9.305  70.772  1.00  0.00    -0.348 C  
HETATM    7  C   UNL     1     -11.068  10.071  70.906  1.00  0.00    -0.385 C  
HETATM    8  C   UNL     1     -12.213   9.131  71.238  1.00  0.00    -0.395 A  
HETATM    9  C   UNL     1     -12.180   7.766  70.892  1.00  0.00    -0.166 A  
HETATM   10  C   UNL     1     -13.265   6.953  71.286  1.00  0.00    -0.237 A  
HETATM   11  C   UNL     1     -13.335   9.656  71.909  1.00  0.00    -0.526 A  
HETATM   12  C   UNL     1     -14.405   8.841  72.260  1.00  0.00    -0.468 A  
HETATM   13  C   UNL     1     -14.369   7.487  71.953  1.00  0.00    -0.520 A  
BRANCH   7  14
HETATM   14  C   UNL     1     -11.376  11.024  69.752  1.00  0.00    -0.366 A  
HETATM   15 CL   UNL     1     -10.683  10.995  65.805  1.00  0.00    -0.258 Cl 
HETATM   16  C   UNL     1     -11.692  12.817  67.592  1.00  0.00    -0.367 A  
HETATM   17  C   UNL     1     -12.079  13.189  68.880  1.00  0.00    -0.232 A  
HETATM   18 CL   UNL     1     -11.845  13.987  66.331  1.00  0.00    -0.413 Cl 
HETATM   19  C   UNL     1     -11.030  10.647  68.441  1.00  0.00    -0.303 A  
HETATM   20  C   UNL     1     -11.181  11.534  67.369  1.00  0.00    -0.304 A  
HETATM   21  C   UNL     1     -11.932  12.298  69.950  1.00  0.00    -0.377 A  
ENDBRANCH   7  14
ENDBRANCH   2   4
TORSDOF 2
ENDMDL
MODEL       13
REMARK 921   NORMALIZED FREE ENERGY PREDICTED BY IDOCK:   -5.99 KCAL/MOL
REMARK 922        TOTAL FREE ENERGY PREDICTED BY IDOCK:   -7.28 KCAL/MOL
REMARK 923 INTER-LIGAND FREE ENERGY PREDICTED BY IDOCK:   -6.47 KCAL/MOL
REMARK 924 INTRA-LIGAND FREE ENERGY PREDICTED BY IDOCK:   -0.82 KCAL/MOL
REMARK 927      BINDING AFFINITY PREDICTED BY RF-SCORE:    0.00 PKD
ROOT
HETATM    1  C   UNL     1     -10.641  19.974  65.596  1.00  0.00    -0.275 C  
HETATM    2  N   UNL     1      -9.424  20.529  66.174  1.00  0.00    -0.641 NA 
HETATM    3  H   UNL     1      -9.524  21.531  66.336  1.00  0.00     0.000 HD 
ENDROOT
BRANCH   2   4
HETATM    4  C   UNL     1      -8.998  19.838  67.407  1.00  0.00    -0.326 C  
HETATM    5  C   UNL     1     -10.247  19.200  68.052  1.00  0.00    -0.489 C  
HETATM    6  C   UNL     1      -9.955  17.966  68.893  1.00  0.00    -0.337 C  
HETATM    7  C   UNL     1      -9.183  16.895  68.114  1.00  0.00    -0.234 C  
HETATM    8  C   UNL     1      -7.950  17.484  67.453  1.00  0.00    -0.217 A  
HETATM    9  C   UNL     1      -7.865  18.849  67.117  1.00  0.00    -0.252 A  
HETATM   10  C   UNL     1      -6.661  19.321  66.552  1.00  0.00    -0.198 A  
HETATM   11  C   UNL     1      -6.870  16.625  67.169  1.00  0.00    -0.223 A  
HETATM   12  C   UNL     1      -5.704  17.108  66.585  1.00  0.00    -0.221 A  
HETATM   13  C   UNL     1      -5.597  18.458  66.280  1.00  0.00    -0.193 A  
BRANCH   7  14
HETATM   14  C   UNL     1     -10.037  16.048  67.172  1.00  0.00    -0.270 A  
HETATM   15 CL   UNL     1     -11.967  12.550  67.488  1.00  0.00    -0.370 Cl 
HETATM   16  C   UNL     1     -11.434  14.302  65.445  1.00  0.00    -0.332 A  
HETATM   17  C   UNL     1     -10.889  15.491  64.957  1.00  0.00    -0.468 A  
HETATM   18 CL   UNL     1     -12.211  13.247  64.322  1.00  0.00    -0.454 Cl 
HETATM   19  C   UNL     1     -10.628  14.868  67.659  1.00  0.00    -0.264 A  
HETATM   20  C   UNL     1     -11.317  13.998  66.805  1.00  0.00    -0.334 A  
HETATM   21  C   UNL     1     -10.206  16.362  65.814  1.00  0.00    -0.370 A  
ENDBRANCH   7  14
ENDBRANCH   2   4
TORSDOF 2
ENDMDL
MODEL       14
REMARK 921   NORMALIZED FREE ENERGY PREDICTED BY IDOCK:   -5.95 KCAL/MOL
REMARK 922        TOTAL FREE ENERGY PREDICTED BY IDOCK:   -7.25 KCAL/MOL
REMARK 923 INTER-LIGAND FREE ENERGY PREDICTED BY IDOCK:   -6.86 KCAL/MOL
REMARK 924 INTRA-LIGAND FREE ENERGY PREDICTED BY IDOCK:   -0.39 KCAL/MOL
REMARK 927      BINDING AFFINITY PREDICTED BY RF-SCORE:    0.00 PKD
ROOT
HETATM    1  C   UNL     1      -7.607  14.890  68.313  1.00  0.00    -0.113 C  
HETATM    2  N   UNL     1      -8.538  14.043  69.048  1.00  0.00    -0.365 NA 
HETATM    3  H   UNL     1      -8.543  14.285  70.039  1.00  0.00     0.000 HD 
ENDROOT
BRANCH   2   4
HETATM    4  C   UNL     1      -9.905  14.065  68.495  1.00  0.00    -0.225 C  
HETATM    5  C   UNL     1     -10.170  12.701  67.822  1.00  0.00    -0.222 C  
HETATM    6  C   UNL     1     -11.635  12.293  67.791  1.00  0.00    -0.416 C  
HETATM    7  C   UNL     1     -12.278  12.307  69.182  1.00  0.00    -0.075 C  
HETATM    8  C   UNL     1     -12.032  13.630  69.884  1.00  0.00    -0.415 A  
HETATM    9  C   UNL     1     -10.926  14.445  69.572  1.00  0.00    -0.230 A  
HETATM   10  C   UNL     1     -10.803  15.683  70.238  1.00  0.00    -0.366 A  
HETATM   11  C   UNL     1     -12.943  14.038  70.879  1.00  0.00    -0.347 A  
HETATM   12  C   UNL     1     -12.784  15.249  71.542  1.00  0.00    -0.455 A  
HETATM   13  C   UNL     1     -11.716  16.076  71.218  1.00  0.00    -0.516 A  
BRANCH   7  14
HETATM   14  C   UNL     1     -11.960  11.087  70.046  1.00  0.00    -0.430 A  
HETATM   15 CL   UNL     1     -14.026   8.872  72.670  1.00  0.00    -0.452 Cl 
HETATM   16  C   UNL     1     -11.410   8.982  71.848  1.00  0.00    -0.368 A  
HETATM   17  C   UNL     1     -10.395   9.512  71.050  1.00  0.00    -0.353 A  
HETATM   18 CL   UNL     1     -10.991   7.748  72.980  1.00  0.00    -0.461 Cl 
HETATM   19  C   UNL     1     -12.983  10.516  70.825  1.00  0.00    -0.413 A  
HETATM   20  C   UNL     1     -12.713   9.475  71.723  1.00  0.00    -0.404 A  
HETATM   21  C   UNL     1     -10.669  10.548  70.150  1.00  0.00    -0.232 A  
ENDBRANCH   7  14
ENDBRANCH   2   4
TORSDOF 2
ENDMDL
MODEL       15
REMARK 921   NORMALIZED FREE ENERGY PREDICTED BY IDOCK:   -5.93 KCAL/MOL
REMARK 922        TOTAL FREE ENERGY PREDICTED BY IDOCK:   -7.22 KCAL/MOL
REMARK 923 INTER-LIGAND FREE ENERGY PREDICTED BY IDOCK:   -6.53 KCAL/MOL
REMARK 924 INTRA-LIGAND FREE ENERGY PREDICTED BY IDOCK:   -0.69 KCAL/MOL
REMARK 927      BINDING AFFINITY PREDICTED BY RF-SCORE:    0.00 PKD
ROOT
HETATM    1  C   UNL     1     -12.203  14.903  70.089  1.00  0.00    -0.336 C  
HETATM    2  N   UNL     1     -12.358  15.249  68.682  1.00  0.00    -0.560 NA 
HETATM    3  H   UNL     1     -12.643  16.223  68.578  1.00  0.00     0.000 HD 
ENDROOT
BRANCH   2   4
HETATM    4  C   UNL     1     -11.155  14.963  67.877  1.00  0.00    -0.298 C  
HETATM    5  C   UNL     1     -10.006  14.608  68.845  1.00  0.00    -0.228 C  
HETATM    6  C   UNL     1      -8.950  13.690  68.250  1.00  0.00    -0.187 C  
HETATM    7  C   UNL     1      -9.548  12.401  67.677  1.00  0.00    -0.193 C  
HETATM    8  C   UNL     1     -10.691  12.705  66.725  1.00  0.00    -0.261 A  
HETATM    9  C   UNL     1     -11.443  13.892  66.821  1.00  0.00    -0.369 A  
HETATM   10  C   UNL     1     -12.455  14.117  65.863  1.00  0.00    -0.479 A  
HETATM   11  C   UNL     1     -10.998  11.761  65.726  1.00  0.00    -0.353 A  
HETATM   12  C   UNL     1     -12.019  11.992  64.811  1.00  0.00    -0.310 A  
HETATM   13  C   UNL     1     -12.745  13.174  64.876  1.00  0.00    -0.421 A  
BRANCH   7  14
HETATM   14  C   UNL     1      -9.886  11.333  68.717  1.00  0.00    -0.194 A  
HETATM   15 CL   UNL     1     -13.062  10.555  71.033  1.00  0.00    -0.454 Cl 
HETATM   16  C   UNL     1     -10.519   9.548  70.812  1.00  0.00    -0.314 A  
HETATM   17  C   UNL     1      -9.261   9.511  70.210  1.00  0.00    -0.303 A  
HETATM   18 CL   UNL     1     -10.815   8.479  72.136  1.00  0.00    -0.406 Cl 
HETATM   19  C   UNL     1     -11.165  11.330  69.303  1.00  0.00    -0.336 A  
HETATM   20  C   UNL     1     -11.481  10.450  70.346  1.00  0.00    -0.337 A  
HETATM   21  C   UNL     1      -8.949  10.389  69.165  1.00  0.00    -0.188 A  
ENDBRANCH   7  14
ENDBRANCH   2   4
TORSDOF 2
ENDMDL
MODEL       16
REMARK 921   NORMALIZED FREE ENERGY PREDICTED BY IDOCK:   -5.92 KCAL/MOL
REMARK 922        TOTAL FREE ENERGY PREDICTED BY IDOCK:   -7.21 KCAL/MOL
REMARK 923 INTER-LIGAND FREE ENERGY PREDICTED BY IDOCK:   -7.04 KCAL/MOL
REMARK 924 INTRA-LIGAND FREE ENERGY PREDICTED BY IDOCK:   -0.16 KCAL/MOL
REMARK 927      BINDING AFFINITY PREDICTED BY RF-SCORE:    0.00 PKD
ROOT
HETATM    1  C   UNL     1      -8.190  15.590  68.976  1.00  0.00    -0.227 C  
HETATM    2  N   UNL     1      -9.165  15.298  70.019  1.00  0.00    -0.370 NA 
HETATM    3  H   UNL     1      -9.081  15.963  70.788  1.00  0.00     0.000 HD 
ENDROOT
BRANCH   2   4
HETATM    4  C   UNL     1     -10.552  15.243  69.520  1.00  0.00    -0.267 C  
HETATM    5  C   UNL     1     -10.627  14.145  68.437  1.00  0.00    -0.263 C  
HETATM    6  C   UNL     1     -11.999  13.506  68.290  1.00  0.00    -0.377 C  
HETATM    7  C   UNL     1     -12.532  12.949  69.614  1.00  0.00     0.084 C  
HETATM    8  C   UNL     1     -12.467  13.996  70.712  1.00  0.00    -0.442 A  
HETATM    9  C   UNL     1     -11.543  15.058  70.674  1.00  0.00    -0.358 A  
HETATM   10  C   UNL     1     -11.586  16.015  71.710  1.00  0.00    -0.534 A  
HETATM   11  C   UNL     1     -13.360  13.884  71.796  1.00  0.00    -0.461 A  
HETATM   12  C   UNL     1     -13.364  14.824  72.821  1.00  0.00    -0.581 A  
HETATM   13  C   UNL     1     -12.479  15.893  72.776  1.00  0.00    -0.565 A  
BRANCH   7  14
HETATM   14  C   UNL     1     -11.949  11.598  70.023  1.00  0.00    -0.429 A  
HETATM   15 CL   UNL     1     -12.940   8.790  72.705  1.00  0.00    -0.314 Cl 
HETATM   16  C   UNL     1     -10.823   9.201  71.008  1.00  0.00    -0.291 A  
HETATM   17  C   UNL     1     -10.168   9.933  70.017  1.00  0.00    -0.319 A  
HETATM   18 CL   UNL     1     -10.045   7.785  71.616  1.00  0.00    -0.215 Cl 
HETATM   19  C   UNL     1     -12.620  10.827  70.990  1.00  0.00    -0.520 A  
HETATM   20  C   UNL     1     -12.063   9.641  71.484  1.00  0.00    -0.401 A  
HETATM   21  C   UNL     1     -10.730  11.116  69.521  1.00  0.00    -0.193 A  
ENDBRANCH   7  14
ENDBRANCH   2   4
TORSDOF 2
ENDMDL
MODEL       17
REMARK 921   NORMALIZED FREE ENERGY PREDICTED BY IDOCK:   -5.91 KCAL/MOL
REMARK 922        TOTAL FREE ENERGY PREDICTED BY IDOCK:   -7.20 KCAL/MOL
REMARK 923 INTER-LIGAND FREE ENERGY PREDICTED BY IDOCK:   -6.41 KCAL/MOL
REMARK 924 INTRA-LIGAND FREE ENERGY PREDICTED BY IDOCK:   -0.79 KCAL/MOL
REMARK 927      BINDING AFFINITY PREDICTED BY RF-SCORE:    0.00 PKD
ROOT
HETATM    1  C   UNL     1     -10.549  16.086  69.597  1.00  0.00    -0.311 C  
HETATM    2  N   UNL     1     -10.666  16.148  68.146  1.00  0.00    -0.302 NA 
HETATM    3  H   UNL     1     -10.456  17.087  67.806  1.00  0.00     0.000 HD 
ENDROOT
BRANCH   2   4
HETATM    4  C   UNL     1      -9.840  15.142  67.452  1.00  0.00    -0.224 C  
HETATM    5  C   UNL     1      -9.000  14.399  68.513  1.00  0.00    -0.187 C  
HETATM    6  C   UNL     1      -8.620  12.978  68.127  1.00  0.00    -0.188 C  
HETATM    7  C   UNL     1      -9.839  12.125  67.755  1.00  0.00    -0.199 C  
HETATM    8  C   UNL     1     -10.699  12.825  66.719  1.00  0.00    -0.278 A  
HETATM    9  C   UNL     1     -10.707  14.227  66.581  1.00  0.00    -0.290 A  
HETATM   10  C   UNL     1     -11.498  14.791  65.557  1.00  0.00    -0.329 A  
HETATM   11  C   UNL     1     -11.513  12.036  65.882  1.00  0.00    -0.392 A  
HETATM   12  C   UNL     1     -12.306  12.616  64.899  1.00  0.00    -0.563 A  
HETATM   13  C   UNL     1     -12.296  13.995  64.733  1.00  0.00    -0.437 A  
BRANCH   7  14
HETATM   14  C   UNL     1     -10.631  11.587  68.946  1.00  0.00    -0.236 A  
HETATM   15 CL   UNL     1     -10.706   8.117  70.950  1.00  0.00    -0.236 Cl 
HETATM   16  C   UNL     1     -12.197  10.421  70.987  1.00  0.00    -0.393 A  
HETATM   17  C   UNL     1     -12.472  11.713  70.538  1.00  0.00    -0.344 A  
HETATM   18 CL   UNL     1     -13.238   9.741  72.184  1.00  0.00    -0.538 Cl 
HETATM   19  C   UNL     1     -10.338  10.302  69.438  1.00  0.00    -0.256 A  
HETATM   20  C   UNL     1     -11.115   9.719  70.446  1.00  0.00    -0.307 A  
HETATM   21  C   UNL     1     -11.690  12.296  69.533  1.00  0.00    -0.398 A  
ENDBRANCH   7  14
ENDBRANCH   2   4
TORSDOF 2
ENDMDL
MODEL       18
REMARK 921   NORMALIZED FREE ENERGY PREDICTED BY IDOCK:   -5.83 KCAL/MOL
REMARK 922        TOTAL FREE ENERGY PREDICTED BY IDOCK:   -7.11 KCAL/MOL
REMARK 923 INTER-LIGAND FREE ENERGY PREDICTED BY IDOCK:   -6.32 KCAL/MOL
REMARK 924 INTRA-LIGAND FREE ENERGY PREDICTED BY IDOCK:   -0.79 KCAL/MOL
REMARK 927      BINDING AFFINITY PREDICTED BY RF-SCORE:    0.00 PKD
ROOT
HETATM    1  C   UNL     1     -11.910  14.316  66.044  1.00  0.00    -0.391 C  
HETATM    2  N   UNL     1     -12.436  13.687  67.249  1.00  0.00    -0.334 NA 
HETATM    3  H   UNL     1     -12.883  12.797  67.027  1.00  0.00     0.000 HD 
ENDROOT
BRANCH   2   4
HETATM    4  C   UNL     1     -11.423  13.518  68.307  1.00  0.00    -0.310 C  
HETATM    5  C   UNL     1     -10.047  13.891  67.715  1.00  0.00    -0.241 C  
HETATM    6  C   UNL     1      -9.044  14.403  68.737  1.00  0.00    -0.133 C  
HETATM    7  C   UNL     1      -9.585  15.585  69.548  1.00  0.00    -0.278 C  
HETATM    8  C   UNL     1     -10.945  15.264  70.141  1.00  0.00    -0.312 A  
HETATM    9  C   UNL     1     -11.803  14.310  69.562  1.00  0.00    -0.378 A  
HETATM   10  C   UNL     1     -13.028  14.037  70.209  1.00  0.00    -0.031 A  
HETATM   11  C   UNL     1     -11.347  15.954  71.302  1.00  0.00    -0.425 A  
HETATM   12  C   UNL     1     -12.571  15.689  71.905  1.00  0.00    -0.509 A  
HETATM   13  C   UNL     1     -13.411  14.726  71.361  1.00  0.00    -0.464 A  
BRANCH   7  14
HETATM   14  C   UNL     1      -9.534  16.932  68.828  1.00  0.00    -0.264 A  
HETATM   15 CL   UNL     1      -6.830  19.875  68.532  1.00  0.00    -0.335 Cl 
HETATM   16  C   UNL     1      -9.431  19.532  67.727  1.00  0.00    -0.334 A  
HETATM   17  C   UNL     1     -10.590  18.764  67.615  1.00  0.00    -0.481 A  
HETATM   18 CL   UNL     1      -9.459  21.139  67.097  1.00  0.00    -0.243 Cl 
HETATM   19  C   UNL     1      -8.358  17.701  68.896  1.00  0.00    -0.139 A  
HETATM   20  C   UNL     1      -8.304  18.991  68.356  1.00  0.00    -0.348 A  
HETATM   21  C   UNL     1     -10.639  17.471  68.151  1.00  0.00    -0.366 A  
ENDBRANCH   7  14
ENDBRANCH   2   4
TORSDOF 2
ENDMDL
MODEL       19
REMARK 921   NORMALIZED FREE ENERGY PREDICTED BY IDOCK:   -5.83 KCAL/MOL
REMARK 922        TOTAL FREE ENERGY PREDICTED BY IDOCK:   -7.10 KCAL/MOL
REMARK 923 INTER-LIGAND FREE ENERGY PREDICTED BY IDOCK:   -6.41 KCAL/MOL
REMARK 924 INTRA-LIGAND FREE ENERGY PREDICTED BY IDOCK:   -0.70 KCAL/MOL
REMARK 927      BINDING AFFINITY PREDICTED BY RF-SCORE:    0.00 PKD
ROOT
HETATM    1  C   UNL     1     -10.377  10.039  69.650  1.00  0.00    -0.247 C  
HETATM    2  N   UNL     1     -10.140  11.379  69.128  1.00  0.00    -0.413 NA 
HETATM    3  H   UNL     1      -9.506  11.350  68.330  1.00  0.00     0.000 HD 
ENDROOT
BRANCH   2   4
HETATM    4  C   UNL     1     -11.383  12.099  68.787  1.00  0.00    -0.288 C  
HETATM    5  C   UNL     1     -11.612  13.188  69.857  1.00  0.00    -0.255 C  
HETATM    6  C   UNL     1     -12.398  14.393  69.363  1.00  0.00    -0.228 C  
HETATM    7  C   UNL     1     -11.776  15.029  68.116  1.00  0.00    -0.335 C  
HETATM    8  C   UNL     1     -11.523  13.988  67.040  1.00  0.00    -0.370 A  
HETATM    9  C   UNL     1     -11.333  12.627  67.350  1.00  0.00    -0.367 A  
HETATM   10  C   UNL     1     -11.155  11.720  66.284  1.00  0.00    -0.364 A  
HETATM   11  C   UNL     1     -11.476  14.412  65.697  1.00  0.00    -0.336 A  
HETATM   12  C   UNL     1     -11.270  13.504  64.665  1.00  0.00    -0.377 A  
HETATM   13  C   UNL     1     -11.114  12.155  64.958  1.00  0.00    -0.368 A  
BRANCH   7  14
HETATM   14  C   UNL     1     -10.572  15.930  68.389  1.00  0.00    -0.266 A  
HETATM   15 CL   UNL     1      -9.957  19.890  68.401  1.00  0.00    -0.531 Cl 
HETATM   16  C   UNL     1      -8.363  17.671  68.651  1.00  0.00    -0.267 A  
HETATM   17  C   UNL     1      -8.184  16.288  68.718  1.00  0.00    -0.227 A  
HETATM   18 CL   UNL     1      -6.961  18.674  68.744  1.00  0.00    -0.299 Cl 
HETATM   19  C   UNL     1     -10.744  17.326  68.366  1.00  0.00    -0.332 A  
HETATM   20  C   UNL     1      -9.651  18.192  68.490  1.00  0.00    -0.339 A  
HETATM   21  C   UNL     1      -9.280  15.425  68.599  1.00  0.00    -0.199 A  
ENDBRANCH   7  14
ENDBRANCH   2   4
TORSDOF 2
ENDMDL
MODEL       20
REMARK 921   NORMALIZED FREE ENERGY PREDICTED BY IDOCK:   -5.81 KCAL/MOL
REMARK 922        TOTAL FREE ENERGY PREDICTED BY IDOCK:   -7.09 KCAL/MOL
REMARK 923 INTER-LIGAND FREE ENERGY PREDICTED BY IDOCK:   -6.35 KCAL/MOL
REMARK 924 INTRA-LIGAND FREE ENERGY PREDICTED BY IDOCK:   -0.74 KCAL/MOL
REMARK 927      BINDING AFFINITY PREDICTED BY RF-SCORE:    0.00 PKD
ROOT
HETATM    1  C   UNL     1     -10.904  13.807  65.926  1.00  0.00    -0.283 C  
HETATM    2  N   UNL     1      -9.608  14.366  65.561  1.00  0.00    -0.545 NA 
HETATM    3  H   UNL     1      -9.533  14.476  64.550  1.00  0.00     0.000 HD 
ENDROOT
BRANCH   2   4
HETATM    4  C   UNL     1      -9.308  15.636  66.251  1.00  0.00    -0.323 C  
HETATM    5  C   UNL     1     -10.648  16.307  66.622  1.00  0.00    -0.252 C  
HETATM    6  C   UNL     1     -10.577  17.213  67.841  1.00  0.00    -0.376 C  
HETATM    7  C   UNL     1     -10.010  16.496  69.072  1.00  0.00    -0.275 C  
HETATM    8  C   UNL     1      -8.693  15.813  68.747  1.00  0.00    -0.203 A  
HETATM    9  C   UNL     1      -8.369  15.406  67.439  1.00  0.00    -0.204 A  
HETATM   10  C   UNL     1      -7.102  14.824  67.218  1.00  0.00    -0.067 A  
HETATM   11  C   UNL     1      -7.784  15.581  69.798  1.00  0.00    -0.049 A  
HETATM   12  C   UNL     1      -6.553  14.980  69.561  1.00  0.00    -0.155 A  
HETATM   13  C   UNL     1      -6.209  14.604  68.269  1.00  0.00    -0.123 A  
BRANCH   7  14
HETATM   14  C   UNL     1     -11.003  15.595  69.803  1.00  0.00    -0.307 A  
HETATM   15 CL   UNL     1     -13.117  15.891  73.195  1.00  0.00    -0.627 Cl 
HETATM   16  C   UNL     1     -12.670  13.914  71.345  1.00  0.00    -0.365 A  
HETATM   17  C   UNL     1     -12.099  13.447  70.160  1.00  0.00    -0.415 A  
HETATM   18 CL   UNL     1     -13.619  12.813  72.276  1.00  0.00    -0.636 Cl 
HETATM   19  C   UNL     1     -11.620  16.066  70.976  1.00  0.00    -0.472 A  
HETATM   20  C   UNL     1     -12.443  15.235  71.746  1.00  0.00    -0.359 A  
HETATM   21  C   UNL     1     -11.281  14.282  69.390  1.00  0.00    -0.313 A  
ENDBRANCH   7  14
ENDBRANCH   2   4
TORSDOF 2
ENDMDL
MODEL       21
REMARK 921   NORMALIZED FREE ENERGY PREDICTED BY IDOCK:   -5.80 KCAL/MOL
REMARK 922        TOTAL FREE ENERGY PREDICTED BY IDOCK:   -7.07 KCAL/MOL
REMARK 923 INTER-LIGAND FREE ENERGY PREDICTED BY IDOCK:   -6.81 KCAL/MOL
REMARK 924 INTRA-LIGAND FREE ENERGY PREDICTED BY IDOCK:   -0.26 KCAL/MOL
REMARK 927      BINDING AFFINITY PREDICTED BY RF-SCORE:    0.00 PKD
ROOT
HETATM    1  C   UNL     1      -9.677  15.420  68.304  1.00  0.00    -0.209 C  
HETATM    2  N   UNL     1      -9.856  14.224  69.117  1.00  0.00    -0.419 NA 
HETATM    3  H   UNL     1      -9.802  14.449  70.110  1.00  0.00     0.000 HD 
ENDROOT
BRANCH   2   4
HETATM    4  C   UNL     1     -11.100  13.493  68.811  1.00  0.00    -0.264 C  
HETATM    5  C   UNL     1     -10.721  12.194  68.068  1.00  0.00    -0.242 C  
HETATM    6  C   UNL     1     -11.714  11.057  68.250  1.00  0.00    -0.301 C  
HETATM    7  C   UNL     1     -11.979  10.739  69.726  1.00  0.00    -0.397 C  
HETATM    8  C   UNL     1     -12.346  11.993  70.497  1.00  0.00    -0.369 A  
HETATM    9  C   UNL     1     -11.933  13.273  70.078  1.00  0.00    -0.399 A  
HETATM   10  C   UNL     1     -12.363  14.389  70.827  1.00  0.00    -0.417 A  
HETATM   11  C   UNL     1     -13.119  11.856  71.667  1.00  0.00    -0.433 A  
HETATM   12  C   UNL     1     -13.506  12.969  72.405  1.00  0.00    -0.615 A  
HETATM   13  C   UNL     1     -13.132  14.238  71.982  1.00  0.00    -0.456 A  
BRANCH   7  14
HETATM   14  C   UNL     1     -10.897   9.899  70.404  1.00  0.00    -0.380 A  
HETATM   15 CL   UNL     1     -10.817   7.389  73.528  1.00  0.00    -0.376 Cl 
HETATM   16  C   UNL     1      -8.932   8.490  71.865  1.00  0.00    -0.231 A  
HETATM   17  C   UNL     1      -8.567   9.289  70.779  1.00  0.00    -0.254 A  
HETATM   18 CL   UNL     1      -7.674   7.716  72.759  1.00  0.00    -0.109 Cl 
HETATM   19  C   UNL     1     -11.255   9.056  71.473  1.00  0.00    -0.418 A  
HETATM   20  C   UNL     1     -10.283   8.361  72.202  1.00  0.00    -0.320 A  
HETATM   21  C   UNL     1      -9.542   9.979  70.048  1.00  0.00    -0.205 A  
ENDBRANCH   7  14
ENDBRANCH   2   4
TORSDOF 2
ENDMDL
MODEL       22
REMARK 921   NORMALIZED FREE ENERGY PREDICTED BY IDOCK:   -5.79 KCAL/MOL
REMARK 922        TOTAL FREE ENERGY PREDICTED BY IDOCK:   -7.06 KCAL/MOL
REMARK 923 INTER-LIGAND FREE ENERGY PREDICTED BY IDOCK:   -6.93 KCAL/MOL
REMARK 924 INTRA-LIGAND FREE ENERGY PREDICTED BY IDOCK:   -0.13 KCAL/MOL
REMARK 927      BINDING AFFINITY PREDICTED BY RF-SCORE:    0.00 PKD
ROOT
HETATM    1  C   UNL     1      -8.211  15.602  69.217  1.00  0.00    -0.253 C  
HETATM    2  N   UNL     1      -9.223  15.189  70.181  1.00  0.00    -0.317 NA 
HETATM    3  H   UNL     1      -9.197  15.784  71.010  1.00  0.00     0.000 HD 
ENDROOT
BRANCH   2   4
HETATM    4  C   UNL     1     -10.583  15.140  69.612  1.00  0.00    -0.263 C  
HETATM    5  C   UNL     1     -10.632  13.982  68.592  1.00  0.00    -0.263 C  
HETATM    6  C   UNL     1     -12.012  13.369  68.408  1.00  0.00    -0.359 C  
HETATM    7  C   UNL     1     -12.629  12.906  69.732  1.00  0.00     0.200 C  
HETATM    8  C   UNL     1     -12.592  14.014  70.769  1.00  0.00    -0.431 A  
HETATM    9  C   UNL     1     -11.638  15.049  70.719  1.00  0.00    -0.364 A  
HETATM   10  C   UNL     1     -11.708  16.067  71.695  1.00  0.00    -0.583 A  
HETATM   11  C   UNL     1     -13.544  13.990  71.808  1.00  0.00    -0.476 A  
HETATM   12  C   UNL     1     -13.575  14.988  72.775  1.00  0.00    -0.562 A  
HETATM   13  C   UNL     1     -12.659  16.031  72.716  1.00  0.00    -0.565 A  
BRANCH   7  14
HETATM   14  C   UNL     1     -12.107  11.567  70.249  1.00  0.00    -0.444 A  
HETATM   15 CL   UNL     1      -9.134   9.097  69.188  1.00  0.00    -0.142 Cl 
HETATM   16  C   UNL     1     -11.209   8.990  70.981  1.00  0.00    -0.295 A  
HETATM   17  C   UNL     1     -12.319   9.556  71.610  1.00  0.00    -0.480 A  
HETATM   18 CL   UNL     1     -10.758   7.384  71.424  1.00  0.00    -0.232 Cl 
HETATM   19  C   UNL     1     -10.964  11.002  69.654  1.00  0.00    -0.286 A  
HETATM   20  C   UNL     1     -10.519   9.723  70.010  1.00  0.00    -0.270 A  
HETATM   21  C   UNL     1     -12.758  10.837  71.256  1.00  0.00    -0.546 A  
ENDBRANCH   7  14
ENDBRANCH   2   4
TORSDOF 2
ENDMDL
MODEL       23
REMARK 921   NORMALIZED FREE ENERGY PREDICTED BY IDOCK:   -5.78 KCAL/MOL
REMARK 922        TOTAL FREE ENERGY PREDICTED BY IDOCK:   -7.06 KCAL/MOL
REMARK 923 INTER-LIGAND FREE ENERGY PREDICTED BY IDOCK:   -6.54 KCAL/MOL
REMARK 924 INTRA-LIGAND FREE ENERGY PREDICTED BY IDOCK:   -0.52 KCAL/MOL
REMARK 927      BINDING AFFINITY PREDICTED BY RF-SCORE:    0.00 PKD
ROOT
HETATM    1  C   UNL     1      -7.514  12.518  67.697  1.00  0.00    -0.139 C  
HETATM    2  N   UNL     1      -7.867  12.019  66.374  1.00  0.00    -0.375 NA 
HETATM    3  H   UNL     1      -7.072  11.548  65.941  1.00  0.00     0.000 HD 
ENDROOT
BRANCH   2   4
HETATM    4  C   UNL     1      -9.056  11.145  66.380  1.00  0.00    -0.187 C  
HETATM    5  C   UNL     1      -9.382  10.793  67.847  1.00  0.00    -0.154 C  
HETATM    6  C   UNL     1     -10.850  10.489  68.106  1.00  0.00    -0.300 C  
HETATM    7  C   UNL     1     -11.774  11.618  67.637  1.00  0.00    -0.300 C  
HETATM    8  C   UNL     1     -11.479  12.004  66.199  1.00  0.00    -0.401 A  
HETATM    9  C   UNL     1     -10.215  11.792  65.615  1.00  0.00    -0.284 A  
HETATM   10  C   UNL     1     -10.044  12.133  64.256  1.00  0.00    -0.317 A  
HETATM   11  C   UNL     1     -12.509  12.595  65.441  1.00  0.00    -0.421 A  
HETATM   12  C   UNL     1     -12.308  12.950  64.112  1.00  0.00    -0.450 A  
HETATM   13  C   UNL     1     -11.075  12.714  63.517  1.00  0.00    -0.449 A  
BRANCH   7  14
HETATM   14  C   UNL     1     -11.857  12.813  68.586  1.00  0.00    -0.341 A  
HETATM   15 CL   UNL     1     -11.025  16.722  68.282  1.00  0.00    -0.362 Cl 
HETATM   16  C   UNL     1     -11.756  15.039  70.323  1.00  0.00    -0.294 A  
HETATM   17  C   UNL     1     -12.119  13.782  70.807  1.00  0.00    -0.395 A  
HETATM   18 CL   UNL     1     -11.643  16.341  71.451  1.00  0.00    -0.479 Cl 
HETATM   19  C   UNL     1     -11.534  14.095  68.103  1.00  0.00    -0.340 A  
HETATM   20  C   UNL     1     -11.478  15.199  68.961  1.00  0.00    -0.309 A  
HETATM   21  C   UNL     1     -12.180  12.680  69.945  1.00  0.00    -0.238 A  
ENDBRANCH   7  14
ENDBRANCH   2   4
TORSDOF 2
ENDMDL
MODEL       24
REMARK 921   NORMALIZED FREE ENERGY PREDICTED BY IDOCK:   -5.75 KCAL/MOL
REMARK 922        TOTAL FREE ENERGY PREDICTED BY IDOCK:   -7.02 KCAL/MOL
REMARK 923 INTER-LIGAND FREE ENERGY PREDICTED BY IDOCK:   -6.67 KCAL/MOL
REMARK 924 INTRA-LIGAND FREE ENERGY PREDICTED BY IDOCK:   -0.35 KCAL/MOL
REMARK 927      BINDING AFFINITY PREDICTED BY RF-SCORE:    0.00 PKD
ROOT
HETATM    1  C   UNL     1      -8.359   8.695  71.938  1.00  0.00    -0.124 C  
HETATM    2  N   UNL     1      -8.877   9.697  71.015  1.00  0.00    -0.341 NA 
HETATM    3  H   UNL     1      -8.206   9.885  70.270  1.00  0.00     0.000 HD 
ENDROOT
BRANCH   2   4
HETATM    4  C   UNL     1     -10.197   9.347  70.457  1.00  0.00    -0.271 C  
HETATM    5  C   UNL     1     -11.254   9.553  71.563  1.00  0.00    -0.437 C  
HETATM    6  C   UNL     1     -12.646   9.881  71.045  1.00  0.00    -0.431 C  
HETATM    7  C   UNL     1     -12.652  11.092  70.106  1.00  0.00    -0.281 C  
HETATM    8  C   UNL     1     -11.618  10.935  69.006  1.00  0.00    -0.387 A  
HETATM    9  C   UNL     1     -10.473  10.131  69.169  1.00  0.00    -0.242 A  
HETATM   10  C   UNL     1      -9.590  10.001  68.076  1.00  0.00    -0.154 A  
HETATM   11  C   UNL     1     -11.821  11.624  67.794  1.00  0.00    -0.247 A  
HETATM   12  C   UNL     1     -10.922  11.503  66.741  1.00  0.00    -0.347 A  
HETATM   13  C   UNL     1      -9.807  10.687  66.880  1.00  0.00    -0.228 A  
BRANCH   7  14
HETATM   14  C   UNL     1     -12.597  12.448  70.808  1.00  0.00    -0.298 A  
HETATM   15 CL   UNL     1     -10.584  15.860  70.203  1.00  0.00    -0.316 Cl 
HETATM   16  C   UNL     1     -12.251  14.903  72.162  1.00  0.00    -0.348 A  
HETATM   17  C   UNL     1     -13.080  13.914  72.694  1.00  0.00    -0.525 A  
HETATM   18 CL   UNL     1     -12.026  16.350  73.076  1.00  0.00    -0.612 Cl 
HETATM   19  C   UNL     1     -11.799  13.469  70.262  1.00  0.00    -0.327 A  
HETATM   20  C   UNL     1     -11.621  14.686  70.932  1.00  0.00    -0.225 A  
HETATM   21  C   UNL     1     -13.260  12.701  72.019  1.00  0.00    -0.531 A  
ENDBRANCH   7  14
ENDBRANCH   2   4
TORSDOF 2
ENDMDL
MODEL       25
REMARK 921   NORMALIZED FREE ENERGY PREDICTED BY IDOCK:   -5.74 KCAL/MOL
REMARK 922        TOTAL FREE ENERGY PREDICTED BY IDOCK:   -7.01 KCAL/MOL
REMARK 923 INTER-LIGAND FREE ENERGY PREDICTED BY IDOCK:   -6.25 KCAL/MOL
REMARK 924 INTRA-LIGAND FREE ENERGY PREDICTED BY IDOCK:   -0.76 KCAL/MOL
REMARK 927      BINDING AFFINITY PREDICTED BY RF-SCORE:    0.00 PKD
ROOT
HETATM    1  C   UNL     1     -10.218  11.963  63.976  1.00  0.00    -0.361 C  
HETATM    2  N   UNL     1      -9.807  13.337  64.236  1.00  0.00    -0.682 NA 
HETATM    3  H   UNL     1      -9.508  13.795  63.375  1.00  0.00     0.000 HD 
ENDROOT
BRANCH   2   4
HETATM    4  C   UNL     1     -10.842  14.133  64.923  1.00  0.00    -0.411 C  
HETATM    5  C   UNL     1     -11.991  13.181  65.321  1.00  0.00    -0.437 C  
HETATM    6  C   UNL     1     -12.780  13.630  66.541  1.00  0.00    -0.043 C  
HETATM    7  C   UNL     1     -11.884  13.881  67.759  1.00  0.00    -0.415 C  
HETATM    8  C   UNL     1     -10.732  14.806  67.409  1.00  0.00    -0.281 A  
HETATM    9  C   UNL     1     -10.242  14.919  66.093  1.00  0.00    -0.314 A  
HETATM   10  C   UNL     1      -9.202  15.842  65.848  1.00  0.00    -0.337 A  
HETATM   11  C   UNL     1     -10.144  15.563  68.442  1.00  0.00    -0.214 A  
HETATM   12  C   UNL     1      -9.102  16.444  68.180  1.00  0.00    -0.201 A  
HETATM   13  C   UNL     1      -8.633  16.587  66.881  1.00  0.00    -0.237 A  
BRANCH   7  14
HETATM   14  C   UNL     1     -11.450  12.620  68.506  1.00  0.00    -0.349 A  
HETATM   15 CL   UNL     1     -12.752  10.679  71.761  1.00  0.00    -0.523 Cl 
HETATM   16  C   UNL     1     -10.592  10.441  70.086  1.00  0.00    -0.188 A  
HETATM   17  C   UNL     1      -9.855  10.835  68.968  1.00  0.00    -0.208 A  
HETATM   18 CL   UNL     1      -9.973   9.149  71.049  1.00  0.00    -0.344 Cl 
HETATM   19  C   UNL     1     -12.205  12.185  69.610  1.00  0.00    -0.183 A  
HETATM   20  C   UNL     1     -11.781  11.108  70.398  1.00  0.00    -0.320 A  
HETATM   21  C   UNL     1     -10.285  11.909  68.179  1.00  0.00    -0.203 A  
ENDBRANCH   7  14
ENDBRANCH   2   4
TORSDOF 2
ENDMDL
MODEL       26
REMARK 921   NORMALIZED FREE ENERGY PREDICTED BY IDOCK:   -5.74 KCAL/MOL
REMARK 922        TOTAL FREE ENERGY PREDICTED BY IDOCK:   -7.01 KCAL/MOL
REMARK 923 INTER-LIGAND FREE ENERGY PREDICTED BY IDOCK:   -6.59 KCAL/MOL
REMARK 924 INTRA-LIGAND FREE ENERGY PREDICTED BY IDOCK:   -0.41 KCAL/MOL
REMARK 927      BINDING AFFINITY PREDICTED BY RF-SCORE:    0.00 PKD
ROOT
HETATM    1  C   UNL     1     -10.474  11.959  63.455  1.00  0.00    -0.441 C  
HETATM    2  N   UNL     1      -9.931  13.238  63.894  1.00  0.00    -0.684 NA 
HETATM    3  H   UNL     1      -9.514  13.742  63.111  1.00  0.00     0.000 HD 
ENDROOT
BRANCH   2   4
HETATM    4  C   UNL     1     -10.918  14.080  64.596  1.00  0.00    -0.392 C  
HETATM    5  C   UNL     1     -12.132  13.196  64.953  1.00  0.00    -0.448 C  
HETATM    6  C   UNL     1     -12.902  13.658  66.180  1.00  0.00    -0.143 C  
HETATM    7  C   UNL     1     -12.005  13.811  67.413  1.00  0.00    -0.423 C  
HETATM    8  C   UNL     1     -10.791  14.668  67.102  1.00  0.00    -0.303 A  
HETATM    9  C   UNL     1     -10.280  14.788  65.795  1.00  0.00    -0.359 A  
HETATM   10  C   UNL     1      -9.179  15.647  65.588  1.00  0.00    -0.113 A  
HETATM   11  C   UNL     1     -10.166  15.352  68.164  1.00  0.00    -0.230 A  
HETATM   12  C   UNL     1      -9.064  16.169  67.940  1.00  0.00    -0.192 A  
HETATM   13  C   UNL     1      -8.572  16.321  66.650  1.00  0.00    -0.302 A  
BRANCH   7  14
HETATM   14  C   UNL     1     -11.665  12.503  68.124  1.00  0.00    -0.400 A  
HETATM   15 CL   UNL     1     -10.368   8.901  66.938  1.00  0.00    -0.341 Cl 
HETATM   16  C   UNL     1     -11.229   9.976  69.311  1.00  0.00    -0.166 A  
HETATM   17  C   UNL     1     -11.691  11.047  70.079  1.00  0.00    -0.437 A  
HETATM   18 CL   UNL     1     -11.054   8.442  70.083  1.00  0.00    -0.223 Cl 
HETATM   19  C   UNL     1     -11.159  11.427  67.371  1.00  0.00    -0.349 A  
HETATM   20  C   UNL     1     -10.946  10.172  67.955  1.00  0.00    -0.270 A  
HETATM   21  C   UNL     1     -11.897  12.302  69.493  1.00  0.00    -0.380 A  
ENDBRANCH   7  14
ENDBRANCH   2   4
TORSDOF 2
ENDMDL
MODEL       27
REMARK 921   NORMALIZED FREE ENERGY PREDICTED BY IDOCK:   -5.73 KCAL/MOL
REMARK 922        TOTAL FREE ENERGY PREDICTED BY IDOCK:   -7.00 KCAL/MOL
REMARK 923 INTER-LIGAND FREE ENERGY PREDICTED BY IDOCK:   -6.44 KCAL/MOL
REMARK 924 INTRA-LIGAND FREE ENERGY PREDICTED BY IDOCK:   -0.56 KCAL/MOL
REMARK 927      BINDING AFFINITY PREDICTED BY RF-SCORE:    0.00 PKD
ROOT
HETATM    1  C   UNL     1      -5.947  16.483  69.728  1.00  0.00    -0.208 C  
HETATM    2  N   UNL     1      -6.781  17.567  69.227  1.00  0.00    -0.245 NA 
HETATM    3  H   UNL     1      -6.310  18.466  69.333  1.00  0.00     0.000 HD 
ENDROOT
BRANCH   2   4
HETATM    4  C   UNL     1      -7.221  17.367  67.832  1.00  0.00    -0.188 C  
HETATM    5  C   UNL     1      -7.404  15.851  67.603  1.00  0.00    -0.180 C  
HETATM    6  C   UNL     1      -8.426  15.500  66.533  1.00  0.00    -0.283 C  
HETATM    7  C   UNL     1      -9.792  16.143  66.793  1.00  0.00    -0.255 C  
HETATM    8  C   UNL     1      -9.657  17.635  67.034  1.00  0.00    -0.276 A  
HETATM    9  C   UNL     1      -8.465  18.205  67.524  1.00  0.00    -0.248 A  
HETATM   10  C   UNL     1      -8.410  19.608  67.670  1.00  0.00    -0.343 A  
HETATM   11  C   UNL     1     -10.766  18.460  66.760  1.00  0.00    -0.274 A  
HETATM   12  C   UNL     1     -10.696  19.837  66.939  1.00  0.00    -0.541 A  
HETATM   13  C   UNL     1      -9.516  20.412  67.391  1.00  0.00    -0.561 A  
BRANCH   7  14
HETATM   14  C   UNL     1     -10.648  15.429  67.839  1.00  0.00    -0.267 A  
HETATM   15 CL   UNL     1     -11.759  16.237  71.604  1.00  0.00    -0.538 Cl 
HETATM   16  C   UNL     1     -12.017  14.090  69.915  1.00  0.00    -0.336 A  
HETATM   17  C   UNL     1     -11.826  13.468  68.680  1.00  0.00    -0.404 A  
HETATM   18 CL   UNL     1     -12.797  13.187  71.164  1.00  0.00    -0.387 Cl 
HETATM   19  C   UNL     1     -10.885  16.060  69.074  1.00  0.00    -0.283 A  
HETATM   20  C   UNL     1     -11.559  15.397  70.107  1.00  0.00    -0.327 A  
HETATM   21  C   UNL     1     -11.157  14.136  67.647  1.00  0.00    -0.296 A  
ENDBRANCH   7  14
ENDBRANCH   2   4
TORSDOF 2
ENDMDL
MODEL       28
REMARK 921   NORMALIZED FREE ENERGY PREDICTED BY IDOCK:   -5.71 KCAL/MOL
REMARK 922        TOTAL FREE ENERGY PREDICTED BY IDOCK:   -6.98 KCAL/MOL
REMARK 923 INTER-LIGAND FREE ENERGY PREDICTED BY IDOCK:   -6.54 KCAL/MOL
REMARK 924 INTRA-LIGAND FREE ENERGY PREDICTED BY IDOCK:   -0.44 KCAL/MOL
REMARK 927      BINDING AFFINITY PREDICTED BY RF-SCORE:    0.00 PKD
ROOT
HETATM    1  C   UNL     1     -12.631  12.004  63.503  1.00  0.00    -0.507 C  
HETATM    2  N   UNL     1     -12.433  12.408  64.890  1.00  0.00    -0.549 NA 
HETATM    3  H   UNL     1     -12.313  11.593  65.491  1.00  0.00     0.000 HD 
ENDROOT
BRANCH   2   4
HETATM    4  C   UNL     1     -11.319  13.360  65.065  1.00  0.00    -0.312 C  
HETATM    5  C   UNL     1     -11.879  14.631  65.739  1.00  0.00    -0.274 C  
HETATM    6  C   UNL     1     -10.860  15.400  66.566  1.00  0.00    -0.298 C  
HETATM    7  C   UNL     1     -10.179  14.523  67.622  1.00  0.00    -0.225 C  
HETATM    8  C   UNL     1      -9.622  13.254  67.002  1.00  0.00    -0.243 A  
HETATM    9  C   UNL     1     -10.155  12.708  65.818  1.00  0.00    -0.284 A  
HETATM   10  C   UNL     1      -9.543  11.554  65.283  1.00  0.00    -0.244 A  
HETATM   11  C   UNL     1      -8.544  12.614  67.644  1.00  0.00    -0.180 A  
HETATM   12  C   UNL     1      -7.977  11.461  67.114  1.00  0.00    -0.156 A  
HETATM   13  C   UNL     1      -8.473  10.933  65.929  1.00  0.00    -0.158 A  
BRANCH   7  14
HETATM   14  C   UNL     1     -11.009  14.276  68.881  1.00  0.00    -0.275 A  
HETATM   15 CL   UNL     1     -12.496  11.022  70.686  1.00  0.00    -0.449 Cl 
HETATM   16  C   UNL     1     -12.729  13.731  71.055  1.00  0.00    -0.343 A  
HETATM   17  C   UNL     1     -12.411  15.048  70.719  1.00  0.00    -0.411 A  
HETATM   18 CL   UNL     1     -13.843  13.471  72.348  1.00  0.00    -0.690 Cl 
HETATM   19  C   UNL     1     -11.303  12.952  69.257  1.00  0.00    -0.303 A  
HETATM   20  C   UNL     1     -12.159  12.678  70.331  1.00  0.00    -0.300 A  
HETATM   21  C   UNL     1     -11.551  15.319  69.648  1.00  0.00    -0.340 A  
ENDBRANCH   7  14
ENDBRANCH   2   4
TORSDOF 2
ENDMDL
MODEL       29
REMARK 921   NORMALIZED FREE ENERGY PREDICTED BY IDOCK:   -5.70 KCAL/MOL
REMARK 922        TOTAL FREE ENERGY PREDICTED BY IDOCK:   -6.97 KCAL/MOL
REMARK 923 INTER-LIGAND FREE ENERGY PREDICTED BY IDOCK:   -6.78 KCAL/MOL
REMARK 924 INTRA-LIGAND FREE ENERGY PREDICTED BY IDOCK:   -0.19 KCAL/MOL
REMARK 927      BINDING AFFINITY PREDICTED BY RF-SCORE:    0.00 PKD
ROOT
HETATM    1  C   UNL     1     -10.997   6.301  68.038  1.00  0.00    -0.327 C  
HETATM    2  N   UNL     1     -11.505   6.730  69.335  1.00  0.00    -0.598 NA 
HETATM    3  H   UNL     1     -11.697   5.926  69.933  1.00  0.00     0.000 HD 
ENDROOT
BRANCH   2   4
HETATM    4  C   UNL     1     -10.619   7.693  70.018  1.00  0.00    -0.238 C  
HETATM    5  C   UNL     1      -9.447   8.020  69.067  1.00  0.00    -0.151 C  
HETATM    6  C   UNL     1      -8.835   9.396  69.280  1.00  0.00    -0.150 C  
HETATM    7  C   UNL     1      -9.876  10.518  69.209  1.00  0.00    -0.225 C  
HETATM    8  C   UNL     1     -11.053  10.231  70.124  1.00  0.00    -0.385 A  
HETATM    9  C   UNL     1     -11.404   8.918  70.494  1.00  0.00    -0.268 A  
HETATM   10  C   UNL     1     -12.482   8.746  71.390  1.00  0.00    -0.348 A  
HETATM   11  C   UNL     1     -11.809  11.319  70.602  1.00  0.00    -0.368 A  
HETATM   12  C   UNL     1     -12.884  11.122  71.460  1.00  0.00    -0.542 A  
HETATM   13  C   UNL     1     -13.219   9.835  71.859  1.00  0.00    -0.545 A  
BRANCH   7  14
HETATM   14  C   UNL     1     -10.285  10.923  67.794  1.00  0.00    -0.209 A  
HETATM   15 CL   UNL     1     -12.472  13.895  66.229  1.00  0.00    -0.480 Cl 
HETATM   16  C   UNL     1     -11.284  11.625  65.246  1.00  0.00    -0.199 A  
HETATM   17  C   UNL     1     -10.512  10.474  65.409  1.00  0.00    -0.222 A  
HETATM   18 CL   UNL     1     -11.924  11.956  63.677  1.00  0.00    -0.589 Cl 
HETATM   19  C   UNL     1     -11.029  12.103  67.608  1.00  0.00    -0.289 A  
HETATM   20  C   UNL     1     -11.530  12.452  66.348  1.00  0.00    -0.373 A  
HETATM   21  C   UNL     1     -10.008  10.131  66.669  1.00  0.00    -0.272 A  
ENDBRANCH   7  14
ENDBRANCH   2   4
TORSDOF 2
ENDMDL
MODEL       30
REMARK 921   NORMALIZED FREE ENERGY PREDICTED BY IDOCK:   -5.70 KCAL/MOL
REMARK 922        TOTAL FREE ENERGY PREDICTED BY IDOCK:   -6.96 KCAL/MOL
REMARK 923 INTER-LIGAND FREE ENERGY PREDICTED BY IDOCK:   -6.61 KCAL/MOL
REMARK 924 INTRA-LIGAND FREE ENERGY PREDICTED BY IDOCK:   -0.35 KCAL/MOL
REMARK 927      BINDING AFFINITY PREDICTED BY RF-SCORE:    0.00 PKD
ROOT
HETATM    1  C   UNL     1     -12.856  12.449  63.351  1.00  0.00    -0.138 C  
HETATM    2  N   UNL     1     -12.805  12.370  64.806  1.00  0.00    -0.761 NA 
HETATM    3  H   UNL     1     -12.727  11.400  65.113  1.00  0.00     0.000 HD 
ENDROOT
BRANCH   2   4
HETATM    4  C   UNL     1     -11.736  13.197  65.397  1.00  0.00    -0.350 C  
HETATM    5  C   UNL     1     -12.356  14.036  66.535  1.00  0.00    -0.442 C  
HETATM    6  C   UNL     1     -11.377  14.416  67.635  1.00  0.00    -0.348 C  
HETATM    7  C   UNL     1     -10.663  13.199  68.232  1.00  0.00    -0.261 C  
HETATM    8  C   UNL     1     -10.046  12.339  67.144  1.00  0.00    -0.218 A  
HETATM    9  C   UNL     1     -10.548  12.331  65.828  1.00  0.00    -0.289 A  
HETATM   10  C   UNL     1      -9.882  11.540  64.867  1.00  0.00    -0.289 A  
HETATM   11  C   UNL     1      -8.944  11.527  67.478  1.00  0.00    -0.159 A  
HETATM   12  C   UNL     1      -8.323  10.734  66.520  1.00  0.00    -0.146 A  
HETATM   13  C   UNL     1      -8.789  10.743  65.212  1.00  0.00    -0.200 A  
BRANCH   7  14
HETATM   14  C   UNL     1     -11.488  12.406  69.245  1.00  0.00    -0.349 A  
HETATM   15 CL   UNL     1     -13.561  13.338  72.546  1.00  0.00    -0.683 Cl 
HETATM   16  C   UNL     1     -12.840  11.005  71.293  1.00  0.00    -0.425 A  
HETATM   17  C   UNL     1     -12.223  10.311  70.251  1.00  0.00    -0.298 A  
HETATM   18 CL   UNL     1     -13.585  10.086  72.550  1.00  0.00    -0.227 Cl 
HETATM   19  C   UNL     1     -12.151  13.095  70.277  1.00  0.00    -0.399 A  
HETATM   20  C   UNL     1     -12.817  12.404  71.296  1.00  0.00    -0.240 A  
HETATM   21  C   UNL     1     -11.561  11.004  69.230  1.00  0.00    -0.384 A  
ENDBRANCH   7  14
ENDBRANCH   2   4
TORSDOF 2
ENDMDL
MODEL       31
REMARK 921   NORMALIZED FREE ENERGY PREDICTED BY IDOCK:   -5.69 KCAL/MOL
REMARK 922        TOTAL FREE ENERGY PREDICTED BY IDOCK:   -6.95 KCAL/MOL
REMARK 923 INTER-LIGAND FREE ENERGY PREDICTED BY IDOCK:   -6.25 KCAL/MOL
REMARK 924 INTRA-LIGAND FREE ENERGY PREDICTED BY IDOCK:   -0.70 KCAL/MOL
REMARK 927      BINDING AFFINITY PREDICTED BY RF-SCORE:    0.00 PKD
ROOT
HETATM    1  C   UNL     1     -13.848   7.559  71.521  1.00  0.00    -0.387 C  
HETATM    2  N   UNL     1     -13.016   6.610  72.248  1.00  0.00    -0.538 NA 
HETATM    3  H   UNL     1     -13.534   5.754  72.449  1.00  0.00     0.000 HD 
ENDROOT
BRANCH   2   4
HETATM    4  C   UNL     1     -11.745   6.306  71.562  1.00  0.00    -0.269 C  
HETATM    5  C   UNL     1     -11.891   6.717  70.082  1.00  0.00    -0.347 C  
HETATM    6  C   UNL     1     -10.582   7.094  69.406  1.00  0.00    -0.246 C  
HETATM    7  C   UNL     1      -9.825   8.190  70.164  1.00  0.00    -0.184 C  
HETATM    8  C   UNL     1      -9.667   7.829  71.631  1.00  0.00    -0.200 A  
HETATM    9  C   UNL     1     -10.563   6.960  72.284  1.00  0.00    -0.244 A  
HETATM   10  C   UNL     1     -10.312   6.640  73.635  1.00  0.00    -0.343 A  
HETATM   11  C   UNL     1      -8.593   8.394  72.346  1.00  0.00    -0.261 A  
HETATM   12  C   UNL     1      -8.383   8.085  73.685  1.00  0.00    -0.302 A  
HETATM   13  C   UNL     1      -9.240   7.204  74.330  1.00  0.00    -0.250 A  
BRANCH   7  14
HETATM   14  C   UNL     1     -10.348   9.607  69.935  1.00  0.00    -0.282 A  
HETATM   15 CL   UNL     1     -13.123  11.908  71.687  1.00  0.00    -0.509 Cl 
HETATM   16  C   UNL     1     -11.542  12.122  69.454  1.00  0.00    -0.317 A  
HETATM   17  C   UNL     1     -10.554  11.634  68.598  1.00  0.00    -0.236 A  
HETATM   18 CL   UNL     1     -12.282  13.631  69.061  1.00  0.00    -0.331 Cl 
HETATM   19  C   UNL     1     -11.315  10.129  70.814  1.00  0.00    -0.436 A  
HETATM   20  C   UNL     1     -11.912  11.373  70.576  1.00  0.00    -0.356 A  
HETATM   21  C   UNL     1      -9.954  10.392  68.841  1.00  0.00    -0.208 A  
ENDBRANCH   7  14
ENDBRANCH   2   4
TORSDOF 2
ENDMDL
MODEL       32
REMARK 921   NORMALIZED FREE ENERGY PREDICTED BY IDOCK:   -5.66 KCAL/MOL
REMARK 922        TOTAL FREE ENERGY PREDICTED BY IDOCK:   -6.91 KCAL/MOL
REMARK 923 INTER-LIGAND FREE ENERGY PREDICTED BY IDOCK:   -6.56 KCAL/MOL
REMARK 924 INTRA-LIGAND FREE ENERGY PREDICTED BY IDOCK:   -0.35 KCAL/MOL
REMARK 927      BINDING AFFINITY PREDICTED BY RF-SCORE:    0.00 PKD
ROOT
HETATM    1  C   UNL     1      -7.891  12.173  68.466  1.00  0.00    -0.122 C  
HETATM    2  N   UNL     1      -8.505  13.492  68.547  1.00  0.00    -0.291 NA 
HETATM    3  H   UNL     1      -7.961  14.178  68.024  1.00  0.00     0.000 HD 
ENDROOT
BRANCH   2   4
HETATM    4  C   UNL     1      -9.917  13.504  68.118  1.00  0.00    -0.240 C  
HETATM    5  C   UNL     1     -10.300  12.069  67.696  1.00  0.00    -0.213 C  
HETATM    6  C   UNL     1     -11.777  11.743  67.857  1.00  0.00    -0.347 C  
HETATM    7  C   UNL     1     -12.285  12.008  69.279  1.00  0.00    -0.135 C  
HETATM    8  C   UNL     1     -11.920  13.408  69.738  1.00  0.00    -0.396 A  
HETATM    9  C   UNL     1     -10.816  14.102  69.205  1.00  0.00    -0.254 A  
HETATM   10  C   UNL     1     -10.579  15.419  69.652  1.00  0.00    -0.285 A  
HETATM   11  C   UNL     1     -12.715  14.015  70.730  1.00  0.00    -0.396 A  
HETATM   12  C   UNL     1     -12.445  15.303  71.176  1.00  0.00    -0.438 A  
HETATM   13  C   UNL     1     -11.379  16.009  70.633  1.00  0.00    -0.424 A  
BRANCH   7  14
HETATM   14  C   UNL     1     -11.938  10.921  70.295  1.00  0.00    -0.448 A  
HETATM   15 CL   UNL     1      -8.780   8.528  70.901  1.00  0.00    -0.174 Cl 
HETATM   16  C   UNL     1     -11.294   8.746  71.979  1.00  0.00    -0.371 A  
HETATM   17  C   UNL     1     -12.542   9.365  72.071  1.00  0.00    -0.462 A  
HETATM   18 CL   UNL     1     -10.993   7.377  72.987  1.00  0.00    -0.408 Cl 
HETATM   19  C   UNL     1     -10.668  10.316  70.243  1.00  0.00    -0.310 A  
HETATM   20  C   UNL     1     -10.348   9.234  71.073  1.00  0.00    -0.318 A  
HETATM   21  C   UNL     1     -12.858  10.449  71.244  1.00  0.00    -0.533 A  
ENDBRANCH   7  14
ENDBRANCH   2   4
TORSDOF 2
ENDMDL
MODEL       33
REMARK 921   NORMALIZED FREE ENERGY PREDICTED BY IDOCK:   -5.64 KCAL/MOL
REMARK 922        TOTAL FREE ENERGY PREDICTED BY IDOCK:   -6.90 KCAL/MOL
REMARK 923 INTER-LIGAND FREE ENERGY PREDICTED BY IDOCK:   -6.33 KCAL/MOL
REMARK 924 INTRA-LIGAND FREE ENERGY PREDICTED BY IDOCK:   -0.56 KCAL/MOL
REMARK 927      BINDING AFFINITY PREDICTED BY RF-SCORE:    0.00 PKD
ROOT
HETATM    1  C   UNL     1     -12.846  13.941  65.509  1.00  0.00    -0.431 C  
HETATM    2  N   UNL     1     -11.860  14.443  64.561  1.00  0.00    -0.493 NA 
HETATM    3  H   UNL     1     -12.180  15.311  64.130  1.00  0.00     0.000 HD 
ENDROOT
BRANCH   2   4
HETATM    4  C   UNL     1     -10.518  14.614  65.151  1.00  0.00    -0.416 C  
HETATM    5  C   UNL     1     -10.569  15.824  66.110  1.00  0.00    -0.318 C  
HETATM    6  C   UNL     1      -9.563  15.762  67.248  1.00  0.00    -0.220 C  
HETATM    7  C   UNL     1      -9.673  14.466  68.059  1.00  0.00    -0.221 C  
HETATM    8  C   UNL     1      -9.638  13.249  67.152  1.00  0.00    -0.240 A  
HETATM    9  C   UNL     1     -10.037  13.314  65.803  1.00  0.00    -0.293 A  
HETATM   10  C   UNL     1      -9.923  12.146  65.019  1.00  0.00    -0.242 A  
HETATM   11  C   UNL     1      -9.195  12.026  67.693  1.00  0.00    -0.182 A  
HETATM   12  C   UNL     1      -9.119  10.881  66.908  1.00  0.00    -0.164 A  
HETATM   13  C   UNL     1      -9.479  10.942  65.568  1.00  0.00    -0.249 A  
BRANCH   7  14
HETATM   14  C   UNL     1     -10.817  14.441  69.073  1.00  0.00    -0.267 A  
HETATM   15 CL   UNL     1     -11.749  16.581  72.330  1.00  0.00    -0.519 Cl 
HETATM   16  C   UNL     1     -12.757  14.332  71.123  1.00  0.00    -0.360 A  
HETATM   17  C   UNL     1     -12.756  13.381  70.101  1.00  0.00    -0.024 A  
HETATM   18 CL   UNL     1     -13.924  14.164  72.384  1.00  0.00    -0.615 Cl 
HETATM   19  C   UNL     1     -10.856  15.417  70.085  1.00  0.00    -0.328 A  
HETATM   20  C   UNL     1     -11.813  15.364  71.106  1.00  0.00    -0.371 A  
HETATM   21  C   UNL     1     -11.801  13.441  69.079  1.00  0.00    -0.378 A  
ENDBRANCH   7  14
ENDBRANCH   2   4
TORSDOF 2
ENDMDL
MODEL       34
REMARK 921   NORMALIZED FREE ENERGY PREDICTED BY IDOCK:   -5.64 KCAL/MOL
REMARK 922        TOTAL FREE ENERGY PREDICTED BY IDOCK:   -6.89 KCAL/MOL
REMARK 923 INTER-LIGAND FREE ENERGY PREDICTED BY IDOCK:   -6.07 KCAL/MOL
REMARK 924 INTRA-LIGAND FREE ENERGY PREDICTED BY IDOCK:   -0.83 KCAL/MOL
REMARK 927      BINDING AFFINITY PREDICTED BY RF-SCORE:    0.00 PKD
ROOT
HETATM    1  C   UNL     1      -8.486  15.307  67.000  1.00  0.00    -0.228 C  
HETATM    2  N   UNL     1      -9.478  16.248  67.503  1.00  0.00    -0.226 NA 
HETATM    3  H   UNL     1      -9.401  17.146  67.025  1.00  0.00     0.000 HD 
ENDROOT
BRANCH   2   4
HETATM    4  C   UNL     1     -10.859  15.732  67.433  1.00  0.00    -0.306 C  
HETATM    5  C   UNL     1     -10.921  14.687  66.298  1.00  0.00    -0.327 C  
HETATM    6  C   UNL     1     -11.989  13.622  66.487  1.00  0.00    -0.465 C  
HETATM    7  C   UNL     1     -11.868  12.902  67.834  1.00  0.00    -0.388 C  
HETATM    8  C   UNL     1     -11.794  13.895  68.980  1.00  0.00    -0.397 A  
HETATM    9  C   UNL     1     -11.318  15.208  68.797  1.00  0.00    -0.313 A  
HETATM   10  C   UNL     1     -11.332  16.081  69.906  1.00  0.00    -0.340 A  
HETATM   11  C   UNL     1     -12.212  13.474  70.258  1.00  0.00    -0.417 A  
HETATM   12  C   UNL     1     -12.188  14.344  71.342  1.00  0.00    -0.424 A  
HETATM   13  C   UNL     1     -11.752  15.651  71.165  1.00  0.00    -0.461 A  
BRANCH   7  14
HETATM   14  C   UNL     1     -10.787  11.823  67.889  1.00  0.00    -0.255 A  
HETATM   15 CL   UNL     1     -10.660   7.908  67.041  1.00  0.00    -0.415 Cl 
HETATM   16  C   UNL     1      -8.929   9.713  68.170  1.00  0.00    -0.123 A  
HETATM   17  C   UNL     1      -8.598  11.005  68.582  1.00  0.00    -0.157 A  
HETATM   18 CL   UNL     1      -7.776   8.457  68.438  1.00  0.00    -0.103 Cl 
HETATM   19  C   UNL     1     -11.092  10.525  67.439  1.00  0.00    -0.322 A  
HETATM   20  C   UNL     1     -10.176   9.476  67.581  1.00  0.00    -0.220 A  
HETATM   21  C   UNL     1      -9.514  12.053  68.434  1.00  0.00    -0.181 A  
ENDBRANCH   7  14
ENDBRANCH   2   4
TORSDOF 2
ENDMDL
MODEL       35
REMARK 921   NORMALIZED FREE ENERGY PREDICTED BY IDOCK:   -5.59 KCAL/MOL
REMARK 922        TOTAL FREE ENERGY PREDICTED BY IDOCK:   -6.84 KCAL/MOL
REMARK 923 INTER-LIGAND FREE ENERGY PREDICTED BY IDOCK:   -6.14 KCAL/MOL
REMARK 924 INTRA-LIGAND FREE ENERGY PREDICTED BY IDOCK:   -0.70 KCAL/MOL
REMARK 927      BINDING AFFINITY PREDICTED BY RF-SCORE:    0.00 PKD
ROOT
HETATM    1  C   UNL     1     -10.338  16.484  66.741  1.00  0.00    -0.296 C  
HETATM    2  N   UNL     1     -10.828  15.686  67.857  1.00  0.00    -0.298 NA 
HETATM    3  H   UNL     1     -11.165  16.286  68.611  1.00  0.00     0.000 HD 
ENDROOT
BRANCH   2   4
HETATM    4  C   UNL     1     -11.859  14.706  67.464  1.00  0.00    -0.347 C  
HETATM    5  C   UNL     1     -11.624  14.334  65.984  1.00  0.00    -0.362 C  
HETATM    6  C   UNL     1     -12.110  12.943  65.606  1.00  0.00    -0.511 C  
HETATM    7  C   UNL     1     -11.521  11.850  66.504  1.00  0.00    -0.381 C  
HETATM    8  C   UNL     1     -11.722  12.183  67.972  1.00  0.00    -0.409 A  
HETATM    9  C   UNL     1     -11.872  13.510  68.421  1.00  0.00    -0.408 A  
HETATM   10  C   UNL     1     -12.105  13.725  69.796  1.00  0.00    -0.400 A  
HETATM   11  C   UNL     1     -11.751  11.123  68.900  1.00  0.00    -0.406 A  
HETATM   12  C   UNL     1     -11.954  11.362  70.254  1.00  0.00    -0.460 A  
HETATM   13  C   UNL     1     -12.136  12.664  70.703  1.00  0.00    -0.315 A  
BRANCH   7  14
HETATM   14  C   UNL     1     -10.089  11.441  66.161  1.00  0.00    -0.271 A  
HETATM   15 CL   UNL     1      -8.428   8.971  63.477  1.00  0.00    -0.191 Cl 
HETATM   16  C   UNL     1      -7.505  10.447  65.599  1.00  0.00    -0.149 A  
HETATM   17  C   UNL     1      -7.704  11.343  66.650  1.00  0.00    -0.129 A  
HETATM   18 CL   UNL     1      -5.914   9.822  65.356  1.00  0.00    -0.067 Cl 
HETATM   19  C   UNL     1      -9.868  10.570  65.077  1.00  0.00    -0.369 A  
HETATM   20  C   UNL     1      -8.590  10.072  64.799  1.00  0.00    -0.177 A  
HETATM   21  C   UNL     1      -8.982  11.844  66.923  1.00  0.00    -0.196 A  
ENDBRANCH   7  14
ENDBRANCH   2   4
TORSDOF 2
ENDMDL
MODEL       36
REMARK 921   NORMALIZED FREE ENERGY PREDICTED BY IDOCK:   -5.55 KCAL/MOL
REMARK 922        TOTAL FREE ENERGY PREDICTED BY IDOCK:   -6.80 KCAL/MOL
REMARK 923 INTER-LIGAND FREE ENERGY PREDICTED BY IDOCK:   -6.57 KCAL/MOL
REMARK 924 INTRA-LIGAND FREE ENERGY PREDICTED BY IDOCK:   -0.23 KCAL/MOL
REMARK 927      BINDING AFFINITY PREDICTED BY RF-SCORE:    0.00 PKD
ROOT
HETATM    1  C   UNL     1      -8.403  17.715  66.432  1.00  0.00    -0.253 C  
HETATM    2  N   UNL     1      -8.864  16.363  66.145  1.00  0.00    -0.356 NA 
HETATM    3  H   UNL     1      -8.443  15.692  66.787  1.00  0.00     0.000 HD 
ENDROOT
BRANCH   2   4
HETATM    4  C   UNL     1     -10.334  16.238  66.143  1.00  0.00    -0.341 C  
HETATM    5  C   UNL     1     -10.770  15.753  64.744  1.00  0.00    -0.282 C  
HETATM    6  C   UNL     1     -12.072  14.967  64.732  1.00  0.00    -0.335 C  
HETATM    7  C   UNL     1     -12.046  13.776  65.697  1.00  0.00    -0.444 C  
HETATM    8  C   UNL     1     -11.611  14.207  67.086  1.00  0.00    -0.400 A  
HETATM    9  C   UNL     1     -10.810  15.346  67.295  1.00  0.00    -0.316 A  
HETATM   10  C   UNL     1     -10.495  15.704  68.623  1.00  0.00    -0.231 A  
HETATM   11  C   UNL     1     -12.025  13.432  68.187  1.00  0.00    -0.356 A  
HETATM   12  C   UNL     1     -11.678  13.787  69.485  1.00  0.00    -0.380 A  
HETATM   13  C   UNL     1     -10.915  14.928  69.704  1.00  0.00    -0.294 A  
BRANCH   7  14
HETATM   14  C   UNL     1     -11.302  12.547  65.177  1.00  0.00    -0.352 A  
HETATM   15 CL   UNL     1      -9.199   9.591  66.880  1.00  0.00    -0.164 Cl 
HETATM   16  C   UNL     1      -9.711  10.382  64.303  1.00  0.00    -0.326 A  
HETATM   17  C   UNL     1     -10.325  11.225  63.376  1.00  0.00    -0.449 A  
HETATM   18 CL   UNL     1      -8.694   9.123  63.703  1.00  0.00    -0.187 Cl 
HETATM   19  C   UNL     1     -10.712  11.663  66.100  1.00  0.00    -0.325 A  
HETATM   20  C   UNL     1      -9.919  10.592  65.670  1.00  0.00    -0.270 A  
HETATM   21  C   UNL     1     -11.122  12.292  63.809  1.00  0.00    -0.507 A  
ENDBRANCH   7  14
ENDBRANCH   2   4
TORSDOF 2
ENDMDL
MODEL       37
REMARK 921   NORMALIZED FREE ENERGY PREDICTED BY IDOCK:   -5.51 KCAL/MOL
REMARK 922        TOTAL FREE ENERGY PREDICTED BY IDOCK:   -6.75 KCAL/MOL
REMARK 923 INTER-LIGAND FREE ENERGY PREDICTED BY IDOCK:   -6.22 KCAL/MOL
REMARK 924 INTRA-LIGAND FREE ENERGY PREDICTED BY IDOCK:   -0.53 KCAL/MOL
REMARK 927      BINDING AFFINITY PREDICTED BY RF-SCORE:    0.00 PKD
ROOT
HETATM    1  C   UNL     1     -11.844  10.936  70.226  1.00  0.00    -0.361 C  
HETATM    2  N   UNL     1     -11.077  11.996  69.582  1.00  0.00    -0.473 NA 
HETATM    3  H   UNL     1     -10.457  11.612  68.869  1.00  0.00     0.000 HD 
ENDROOT
BRANCH   2   4
HETATM    4  C   UNL     1     -11.922  13.068  69.022  1.00  0.00    -0.267 C  
HETATM    5  C   UNL     1     -11.793  14.305  69.937  1.00  0.00    -0.382 C  
HETATM    6  C   UNL     1     -12.022  15.631  69.229  1.00  0.00    -0.338 C  
HETATM    7  C   UNL     1     -11.116  15.808  68.006  1.00  0.00    -0.337 C  
HETATM    8  C   UNL     1     -11.205  14.606  67.082  1.00  0.00    -0.349 A  
HETATM    9  C   UNL     1     -11.572  13.331  67.554  1.00  0.00    -0.388 A  
HETATM   10  C   UNL     1     -11.679  12.281  66.617  1.00  0.00    -0.417 A  
HETATM   11  C   UNL     1     -10.903  14.788  65.718  1.00  0.00    -0.334 A  
HETATM   12  C   UNL     1     -10.987  13.731  64.819  1.00  0.00    -0.396 A  
HETATM   13  C   UNL     1     -11.380  12.477  65.267  1.00  0.00    -0.363 A  
BRANCH   7  14
HETATM   14  C   UNL     1      -9.682  16.229  68.326  1.00  0.00    -0.222 A  
HETATM   15 CL   UNL     1      -6.533  14.443  70.045  1.00  0.00    -0.157 Cl 
HETATM   16  C   UNL     1      -7.091  16.981  69.164  1.00  0.00    -0.221 A  
HETATM   17  C   UNL     1      -7.937  17.915  68.563  1.00  0.00    -0.302 A  
HETATM   18 CL   UNL     1      -5.550  17.525  69.719  1.00  0.00    -0.214 Cl 
HETATM   19  C   UNL     1      -8.803  15.288  68.894  1.00  0.00    -0.209 A  
HETATM   20  C   UNL     1      -7.521  15.659  69.315  1.00  0.00    -0.216 A  
HETATM   21  C   UNL     1      -9.218  17.540  68.138  1.00  0.00    -0.277 A  
ENDBRANCH   7  14
ENDBRANCH   2   4
TORSDOF 2
ENDMDL
MODEL       38
REMARK 921   NORMALIZED FREE ENERGY PREDICTED BY IDOCK:   -5.43 KCAL/MOL
REMARK 922        TOTAL FREE ENERGY PREDICTED BY IDOCK:   -6.67 KCAL/MOL
REMARK 923 INTER-LIGAND FREE ENERGY PREDICTED BY IDOCK:   -6.08 KCAL/MOL
REMARK 924 INTRA-LIGAND FREE ENERGY PREDICTED BY IDOCK:   -0.59 KCAL/MOL
REMARK 927      BINDING AFFINITY PREDICTED BY RF-SCORE:    0.00 PKD
ROOT
HETATM    1  C   UNL     1     -12.167  11.208  70.844  1.00  0.00    -0.364 C  
HETATM    2  N   UNL     1     -11.272  11.808  69.863  1.00  0.00    -0.487 NA 
HETATM    3  H   UNL     1     -10.421  11.255  69.763  1.00  0.00     0.000 HD 
ENDROOT
BRANCH   2   4
HETATM    4  C   UNL     1     -11.910  12.032  68.552  1.00  0.00    -0.311 C  
HETATM    5  C   UNL     1     -12.103  13.553  68.368  1.00  0.00    -0.293 C  
HETATM    6  C   UNL     1     -12.116  14.011  66.918  1.00  0.00    -0.465 C  
HETATM    7  C   UNL     1     -10.868  13.561  66.150  1.00  0.00    -0.284 C  
HETATM    8  C   UNL     1     -10.635  12.069  66.313  1.00  0.00    -0.287 A  
HETATM    9  C   UNL     1     -11.112  11.359  67.431  1.00  0.00    -0.349 A  
HETATM   10  C   UNL     1     -10.895   9.965  67.476  1.00  0.00    -0.307 A  
HETATM   11  C   UNL     1      -9.915  11.392  65.309  1.00  0.00    -0.303 A  
HETATM   12  C   UNL     1      -9.688  10.023  65.390  1.00  0.00    -0.368 A  
HETATM   13  C   UNL     1     -10.182   9.307  66.472  1.00  0.00    -0.316 A  
BRANCH   7  14
HETATM   14  C   UNL     1      -9.620  14.406  66.403  1.00  0.00    -0.320 A  
HETATM   15 CL   UNL     1      -6.242  13.894  68.498  1.00  0.00    -0.085 Cl 
HETATM   16  C   UNL     1      -7.382  15.974  67.117  1.00  0.00    -0.222 A  
HETATM   17  C   UNL     1      -8.398  16.513  66.327  1.00  0.00    -0.364 A  
HETATM   18 CL   UNL     1      -6.079  17.009  67.577  1.00  0.00    -0.149 Cl 
HETATM   19  C   UNL     1      -8.568  13.862  67.163  1.00  0.00    -0.217 A  
HETATM   20  C   UNL     1      -7.460  14.638  67.523  1.00  0.00    -0.195 A  
HETATM   21  C   UNL     1      -9.503  15.733  65.964  1.00  0.00    -0.392 A  
ENDBRANCH   7  14
ENDBRANCH   2   4
TORSDOF 2
ENDMDL
MODEL       39
REMARK 921   NORMALIZED FREE ENERGY PREDICTED BY IDOCK:   -5.42 KCAL/MOL
REMARK 922        TOTAL FREE ENERGY PREDICTED BY IDOCK:   -6.65 KCAL/MOL
REMARK 923 INTER-LIGAND FREE ENERGY PREDICTED BY IDOCK:   -6.37 KCAL/MOL
REMARK 924 INTRA-LIGAND FREE ENERGY PREDICTED BY IDOCK:   -0.28 KCAL/MOL
REMARK 927      BINDING AFFINITY PREDICTED BY RF-SCORE:    0.00 PKD
ROOT
HETATM    1  C   UNL     1     -10.548   5.389  69.066  1.00  0.00    -0.146 C  
HETATM    2  N   UNL     1     -11.420   6.476  69.492  1.00  0.00    -0.606 NA 
HETATM    3  H   UNL     1     -12.266   6.112  69.930  1.00  0.00     0.000 HD 
ENDROOT
BRANCH   2   4
HETATM    4  C   UNL     1     -10.748   7.449  70.375  1.00  0.00    -0.237 C  
HETATM    5  C   UNL     1      -9.531   8.020  69.616  1.00  0.00    -0.163 C  
HETATM    6  C   UNL     1      -9.131   9.424  70.044  1.00  0.00    -0.244 C  
HETATM    7  C   UNL     1     -10.294  10.418  69.959  1.00  0.00    -0.181 C  
HETATM    8  C   UNL     1     -11.518   9.889  70.684  1.00  0.00    -0.411 A  
HETATM    9  C   UNL     1     -11.735   8.510  70.872  1.00  0.00    -0.274 A  
HETATM   10  C   UNL     1     -12.874   8.110  71.603  1.00  0.00    -0.347 A  
HETATM   11  C   UNL     1     -12.458  10.818  71.173  1.00  0.00    -0.519 A  
HETATM   12  C   UNL     1     -13.588  10.398  71.865  1.00  0.00    -0.259 A  
HETATM   13  C   UNL     1     -13.794   9.042  72.085  1.00  0.00    -0.526 A  
BRANCH   7  14
HETATM   14  C   UNL     1     -10.593  10.935  68.552  1.00  0.00    -0.219 A  
HETATM   15 CL   UNL     1     -12.143  14.315  67.057  1.00  0.00    -0.459 Cl 
HETATM   16  C   UNL     1     -11.392  11.889  66.016  1.00  0.00    -0.316 A  
HETATM   17  C   UNL     1     -10.857  10.607  66.151  1.00  0.00    -0.069 A  
HETATM   18 CL   UNL     1     -11.928  12.382  64.451  1.00  0.00    -0.456 Cl 
HETATM   19  C   UNL     1     -11.094  12.240  68.395  1.00  0.00    -0.283 A  
HETATM   20  C   UNL     1     -11.496  12.715  67.140  1.00  0.00    -0.346 A  
HETATM   21  C   UNL     1     -10.450  10.137  67.406  1.00  0.00    -0.310 A  
ENDBRANCH   7  14
ENDBRANCH   2   4
TORSDOF 2
ENDMDL
MODEL       40
REMARK 921   NORMALIZED FREE ENERGY PREDICTED BY IDOCK:   -5.40 KCAL/MOL
REMARK 922        TOTAL FREE ENERGY PREDICTED BY IDOCK:   -6.63 KCAL/MOL
REMARK 923 INTER-LIGAND FREE ENERGY PREDICTED BY IDOCK:   -6.03 KCAL/MOL
REMARK 924 INTRA-LIGAND FREE ENERGY PREDICTED BY IDOCK:   -0.60 KCAL/MOL
REMARK 927      BINDING AFFINITY PREDICTED BY RF-SCORE:    0.00 PKD
ROOT
HETATM    1  C   UNL     1     -11.924  16.197  72.186  1.00  0.00    -0.537 C  
HETATM    2  N   UNL     1     -11.250  15.346  71.214  1.00  0.00    -0.417 NA 
HETATM    3  H   UNL     1     -10.736  14.599  71.682  1.00  0.00     0.000 HD 
ENDROOT
BRANCH   2   4
HETATM    4  C   UNL     1     -12.159  14.796  70.191  1.00  0.00    -0.327 C  
HETATM    5  C   UNL     1     -11.666  15.273  68.808  1.00  0.00    -0.374 C  
HETATM    6  C   UNL     1     -12.024  14.341  67.661  1.00  0.00    -0.400 C  
HETATM    7  C   UNL     1     -11.549  12.904  67.902  1.00  0.00    -0.391 C  
HETATM    8  C   UNL     1     -12.005  12.398  69.259  1.00  0.00    -0.308 A  
HETATM    9  C   UNL     1     -12.282  13.275  70.326  1.00  0.00    -0.391 A  
HETATM   10  C   UNL     1     -12.750  12.722  71.537  1.00  0.00    -0.330 A  
HETATM   11  C   UNL     1     -12.145  11.008  69.441  1.00  0.00    -0.389 A  
HETATM   12  C   UNL     1     -12.580  10.485  70.653  1.00  0.00    -0.457 A  
HETATM   13  C   UNL     1     -12.887  11.343  71.701  1.00  0.00    -0.497 A  
BRANCH   7  14
HETATM   14  C   UNL     1     -10.064  12.666  67.628  1.00  0.00    -0.218 A  
HETATM   15 CL   UNL     1      -7.998  10.423  65.028  1.00  0.00    -0.149 Cl 
HETATM   16  C   UNL     1      -7.358  11.984  67.192  1.00  0.00    -0.134 A  
HETATM   17  C   UNL     1      -7.710  12.845  68.232  1.00  0.00    -0.137 A  
HETATM   18 CL   UNL     1      -5.695  11.550  67.027  1.00  0.00    -0.103 Cl 
HETATM   19  C   UNL     1      -9.691  11.834  66.557  1.00  0.00    -0.224 A  
HETATM   20  C   UNL     1      -8.351  11.489  66.341  1.00  0.00    -0.118 A  
HETATM   21  C   UNL     1      -9.050  13.192  68.443  1.00  0.00    -0.134 A  
ENDBRANCH   7  14
ENDBRANCH   2   4
TORSDOF 2
ENDMDL
MODEL       41
REMARK 921   NORMALIZED FREE ENERGY PREDICTED BY IDOCK:   -5.39 KCAL/MOL
REMARK 922        TOTAL FREE ENERGY PREDICTED BY IDOCK:   -6.62 KCAL/MOL
REMARK 923 INTER-LIGAND FREE ENERGY PREDICTED BY IDOCK:   -6.47 KCAL/MOL
REMARK 924 INTRA-LIGAND FREE ENERGY PREDICTED BY IDOCK:   -0.16 KCAL/MOL
REMARK 927      BINDING AFFINITY PREDICTED BY RF-SCORE:    0.00 PKD
ROOT
HETATM    1  C   UNL     1     -11.884  15.041  69.165  1.00  0.00    -0.308 C  
HETATM    2  N   UNL     1     -12.088  14.326  67.912  1.00  0.00    -0.567 NA 
HETATM    3  H   UNL     1     -12.782  14.799  67.334  1.00  0.00     0.000 HD 
ENDROOT
BRANCH   2   4
HETATM    4  C   UNL     1     -10.839  14.104  67.159  1.00  0.00    -0.290 C  
HETATM    5  C   UNL     1      -9.808  13.473  68.120  1.00  0.00    -0.237 C  
HETATM    6  C   UNL     1      -8.766  12.603  67.434  1.00  0.00    -0.191 C  
HETATM    7  C   UNL     1      -9.394  11.504  66.570  1.00  0.00    -0.210 C  
HETATM    8  C   UNL     1     -10.424  12.081  65.616  1.00  0.00    -0.293 A  
HETATM    9  C   UNL     1     -11.102  13.285  65.891  1.00  0.00    -0.301 A  
HETATM   10  C   UNL     1     -12.006  13.775  64.924  1.00  0.00    -0.412 A  
HETATM   11  C   UNL     1     -10.702  11.378  64.428  1.00  0.00    -0.405 A  
HETATM   12  C   UNL     1     -11.619  11.866  63.504  1.00  0.00    -0.537 A  
HETATM   13  C   UNL     1     -12.268  13.068  63.750  1.00  0.00    -0.536 A  
BRANCH   7  14
HETATM   14  C   UNL     1      -9.894  10.287  67.347  1.00  0.00    -0.214 A  
HETATM   15 CL   UNL     1     -10.791   9.561  71.185  1.00  0.00    -0.410 Cl 
HETATM   16  C   UNL     1     -10.597   8.040  68.909  1.00  0.00    -0.140 A  
HETATM   17  C   UNL     1     -10.365   7.903  67.539  1.00  0.00    -0.329 A  
HETATM   18 CL   UNL     1     -10.950   6.615  69.817  1.00  0.00    -0.333 Cl 
HETATM   19  C   UNL     1     -10.172  10.418  68.720  1.00  0.00    -0.201 A  
HETATM   20  C   UNL     1     -10.516   9.306  69.498  1.00  0.00    -0.220 A  
HETATM   21  C   UNL     1     -10.027   9.018  66.763  1.00  0.00    -0.332 A  
ENDBRANCH   7  14
ENDBRANCH   2   4
TORSDOF 2
ENDMDL
MODEL       42
REMARK 921   NORMALIZED FREE ENERGY PREDICTED BY IDOCK:   -5.39 KCAL/MOL
REMARK 922        TOTAL FREE ENERGY PREDICTED BY IDOCK:   -6.62 KCAL/MOL
REMARK 923 INTER-LIGAND FREE ENERGY PREDICTED BY IDOCK:   -6.37 KCAL/MOL
REMARK 924 INTRA-LIGAND FREE ENERGY PREDICTED BY IDOCK:   -0.25 KCAL/MOL
REMARK 927      BINDING AFFINITY PREDICTED BY RF-SCORE:    0.00 PKD
ROOT
HETATM    1  C   UNL     1      -8.738  13.305  67.916  1.00  0.00    -0.192 C  
HETATM    2  N   UNL     1      -9.671  13.677  68.972  1.00  0.00    -0.411 NA 
HETATM    3  H   UNL     1      -9.711  14.691  69.080  1.00  0.00     0.000 HD 
ENDROOT
BRANCH   2   4
HETATM    4  C   UNL     1     -11.022  13.116  68.778  1.00  0.00    -0.262 C  
HETATM    5  C   UNL     1     -10.869  11.683  68.225  1.00  0.00    -0.260 C  
HETATM    6  C   UNL     1     -12.022  10.753  68.571  1.00  0.00    -0.057 C  
HETATM    7  C   UNL     1     -12.293  10.690  70.078  1.00  0.00    -0.341 C  
HETATM    8  C   UNL     1     -12.441  12.082  70.665  1.00  0.00    -0.335 A  
HETATM    9  C   UNL     1     -11.845  13.209  70.067  1.00  0.00    -0.360 A  
HETATM   10  C   UNL     1     -12.076  14.473  70.652  1.00  0.00    -0.392 A  
HETATM   11  C   UNL     1     -13.194  12.233  71.846  1.00  0.00    -0.481 A  
HETATM   12  C   UNL     1     -13.384  13.485  72.420  1.00  0.00    -0.641 A  
HETATM   13  C   UNL     1     -12.828  14.607  71.820  1.00  0.00    -0.402 A  
BRANCH   7  14
HETATM   14  C   UNL     1     -11.338   9.793  70.864  1.00  0.00    -0.439 A  
HETATM   15 CL   UNL     1      -7.489   8.746  70.478  1.00  0.00    -0.066 Cl 
HETATM   16  C   UNL     1      -9.560   7.985  72.109  1.00  0.00    -0.215 A  
HETATM   17  C   UNL     1     -10.881   8.089  72.546  1.00  0.00    -0.415 A  
HETATM   18 CL   UNL     1      -8.547   6.809  72.865  1.00  0.00    -0.124 Cl 
HETATM   19  C   UNL     1      -9.992   9.708  70.462  1.00  0.00    -0.318 A  
HETATM   20  C   UNL     1      -9.109   8.810  71.073  1.00  0.00    -0.218 A  
HETATM   21  C   UNL     1     -11.760   8.992  71.936  1.00  0.00    -0.445 A  
ENDBRANCH   7  14
ENDBRANCH   2   4
TORSDOF 2
ENDMDL
MODEL       43
REMARK 921   NORMALIZED FREE ENERGY PREDICTED BY IDOCK:   -5.38 KCAL/MOL
REMARK 922        TOTAL FREE ENERGY PREDICTED BY IDOCK:   -6.61 KCAL/MOL
REMARK 923 INTER-LIGAND FREE ENERGY PREDICTED BY IDOCK:   -6.36 KCAL/MOL
REMARK 924 INTRA-LIGAND FREE ENERGY PREDICTED BY IDOCK:   -0.25 KCAL/MOL
REMARK 927      BINDING AFFINITY PREDICTED BY RF-SCORE:    0.00 PKD
ROOT
HETATM    1  C   UNL     1     -13.144  14.058  65.463  1.00  0.00    -0.178 C  
HETATM    2  N   UNL     1     -12.294  13.978  64.282  1.00  0.00    -0.653 NA 
HETATM    3  H   UNL     1     -12.542  14.702  63.607  1.00  0.00     0.000 HD 
ENDROOT
BRANCH   2   4
HETATM    4  C   UNL     1     -10.853  14.026  64.597  1.00  0.00    -0.403 C  
HETATM    5  C   UNL     1     -10.667  14.913  65.847  1.00  0.00    -0.329 C  
HETATM    6  C   UNL     1      -9.441  14.570  66.679  1.00  0.00    -0.301 C  
HETATM    7  C   UNL     1      -9.407  13.095  67.094  1.00  0.00    -0.235 C  
HETATM    8  C   UNL     1      -9.598  12.186  65.893  1.00  0.00    -0.226 A  
HETATM    9  C   UNL     1     -10.275  12.614  64.735  1.00  0.00    -0.307 A  
HETATM   10  C   UNL     1     -10.362  11.720  63.646  1.00  0.00    -0.476 A  
HETATM   11  C   UNL     1      -9.080  10.877  65.957  1.00  0.00    -0.208 A  
HETATM   12  C   UNL     1      -9.203  10.004  64.882  1.00  0.00    -0.291 A  
HETATM   13  C   UNL     1      -9.840  10.427  63.723  1.00  0.00    -0.308 A  
BRANCH   7  14
HETATM   14  C   UNL     1     -10.307  12.742  68.278  1.00  0.00    -0.248 A  
HETATM   15 CL   UNL     1     -11.167   9.367  70.260  1.00  0.00    -0.283 Cl 
HETATM   16  C   UNL     1     -12.106  11.944  70.304  1.00  0.00    -0.325 A  
HETATM   17  C   UNL     1     -12.083  13.268  69.862  1.00  0.00    -0.377 A  
HETATM   18 CL   UNL     1     -13.280  11.508  71.493  1.00  0.00    -0.410 Cl 
HETATM   19  C   UNL     1     -10.311  11.421  68.763  1.00  0.00    -0.222 A  
HETATM   20  C   UNL     1     -11.205  11.021  69.764  1.00  0.00    -0.268 A  
HETATM   21  C   UNL     1     -11.184  13.666  68.865  1.00  0.00    -0.309 A  
ENDBRANCH   7  14
ENDBRANCH   2   4
TORSDOF 2
ENDMDL
MODEL       44
REMARK 921   NORMALIZED FREE ENERGY PREDICTED BY IDOCK:   -5.37 KCAL/MOL
REMARK 922        TOTAL FREE ENERGY PREDICTED BY IDOCK:   -6.60 KCAL/MOL
REMARK 923 INTER-LIGAND FREE ENERGY PREDICTED BY IDOCK:   -5.92 KCAL/MOL
REMARK 924 INTRA-LIGAND FREE ENERGY PREDICTED BY IDOCK:   -0.67 KCAL/MOL
REMARK 927      BINDING AFFINITY PREDICTED BY RF-SCORE:    0.00 PKD
ROOT
HETATM    1  C   UNL     1     -12.053  13.322  69.225  1.00  0.00    -0.242 C  
HETATM    2  N   UNL     1     -12.126  12.137  68.380  1.00  0.00    -0.356 NA 
HETATM    3  H   UNL     1     -13.096  11.894  68.179  1.00  0.00     0.000 HD 
ENDROOT
BRANCH   2   4
HETATM    4  C   UNL     1     -11.346  12.262  67.134  1.00  0.00    -0.335 C  
HETATM    5  C   UNL     1     -11.986  13.378  66.280  1.00  0.00    -0.460 C  
HETATM    6  C   UNL     1     -11.017  14.082  65.343  1.00  0.00    -0.321 C  
HETATM    7  C   UNL     1      -9.793  14.642  66.077  1.00  0.00    -0.347 C  
HETATM    8  C   UNL     1      -9.138  13.578  66.938  1.00  0.00    -0.246 A  
HETATM    9  C   UNL     1      -9.859  12.475  67.436  1.00  0.00    -0.201 A  
HETATM   10  C   UNL     1      -9.159  11.506  68.186  1.00  0.00    -0.181 A  
HETATM   11  C   UNL     1      -7.769  13.714  67.243  1.00  0.00    -0.091 A  
HETATM   12  C   UNL     1      -7.107  12.761  68.009  1.00  0.00    -0.111 A  
HETATM   13  C   UNL     1      -7.801  11.653  68.477  1.00  0.00    -0.140 A  
BRANCH   7  14
HETATM   14  C   UNL     1     -10.035  15.960  66.812  1.00  0.00    -0.255 A  
HETATM   15 CL   UNL     1     -10.641  19.755  65.676  1.00  0.00    -0.556 Cl 
HETATM   16  C   UNL     1     -10.260  18.477  68.075  1.00  0.00    -0.383 A  
HETATM   17  C   UNL     1     -10.060  17.323  68.833  1.00  0.00    -0.331 A  
HETATM   18 CL   UNL     1     -10.315  19.991  68.903  1.00  0.00    -0.420 Cl 
HETATM   19  C   UNL     1     -10.280  17.126  66.063  1.00  0.00    -0.332 A  
HETATM   20  C   UNL     1     -10.387  18.376  66.685  1.00  0.00    -0.396 A  
HETATM   21  C   UNL     1      -9.959  16.073  68.209  1.00  0.00    -0.220 A  
ENDBRANCH   7  14
ENDBRANCH   2   4
TORSDOF 2
ENDMDL
MODEL       45
REMARK 921   NORMALIZED FREE ENERGY PREDICTED BY IDOCK:   -5.37 KCAL/MOL
REMARK 922        TOTAL FREE ENERGY PREDICTED BY IDOCK:   -6.59 KCAL/MOL
REMARK 923 INTER-LIGAND FREE ENERGY PREDICTED BY IDOCK:   -5.99 KCAL/MOL
REMARK 924 INTRA-LIGAND FREE ENERGY PREDICTED BY IDOCK:   -0.61 KCAL/MOL
REMARK 927      BINDING AFFINITY PREDICTED BY RF-SCORE:    0.00 PKD
ROOT
HETATM    1  C   UNL     1     -12.227  13.741  65.484  1.00  0.00    -0.442 C  
HETATM    2  N   UNL     1     -12.303  14.463  66.748  1.00  0.00    -0.534 NA 
HETATM    3  H   UNL     1     -13.263  14.494  67.091  1.00  0.00     0.000 HD 
ENDROOT
BRANCH   2   4
HETATM    4  C   UNL     1     -11.393  13.928  67.779  1.00  0.00    -0.308 C  
HETATM    5  C   UNL     1      -9.944  14.109  67.278  1.00  0.00    -0.249 C  
HETATM    6  C   UNL     1      -8.911  14.241  68.386  1.00  0.00    -0.189 C  
HETATM    7  C   UNL     1      -9.250  15.363  69.374  1.00  0.00    -0.268 C  
HETATM    8  C   UNL     1     -10.674  15.228  69.885  1.00  0.00    -0.300 A  
HETATM    9  C   UNL     1     -11.672  14.569  69.142  1.00  0.00    -0.349 A  
HETATM   10  C   UNL     1     -12.956  14.446  69.716  1.00  0.00     0.333 A  
HETATM   11  C   UNL     1     -10.990  15.790  71.138  1.00  0.00    -0.183 A  
HETATM   12  C   UNL     1     -12.269  15.681  71.670  1.00  0.00    -0.493 A  
HETATM   13  C   UNL     1     -13.253  15.004  70.961  1.00  0.00    -0.483 A  
BRANCH   7  14
HETATM   14  C   UNL     1      -8.905  16.770  68.889  1.00  0.00    -0.228 A  
HETATM   15 CL   UNL     1     -10.927  19.692  67.035  1.00  0.00    -0.514 Cl 
HETATM   16  C   UNL     1      -8.310  19.287  67.754  1.00  0.00    -0.300 A  
HETATM   17  C   UNL     1      -7.304  18.528  68.353  1.00  0.00    -0.301 A  
HETATM   18 CL   UNL     1      -7.864  20.783  67.015  1.00  0.00    -0.303 Cl 
HETATM   19  C   UNL     1      -9.917  17.565  68.320  1.00  0.00    -0.330 A  
HETATM   20  C   UNL     1      -9.625  18.811  67.752  1.00  0.00    -0.312 A  
HETATM   21  C   UNL     1      -7.600  17.285  68.925  1.00  0.00    -0.235 A  
ENDBRANCH   7  14
ENDBRANCH   2   4
TORSDOF 2
ENDMDL
MODEL       46
REMARK 921   NORMALIZED FREE ENERGY PREDICTED BY IDOCK:   -5.37 KCAL/MOL
REMARK 922        TOTAL FREE ENERGY PREDICTED BY IDOCK:   -6.59 KCAL/MOL
REMARK 923 INTER-LIGAND FREE ENERGY PREDICTED BY IDOCK:   -5.77 KCAL/MOL
REMARK 924 INTRA-LIGAND FREE ENERGY PREDICTED BY IDOCK:   -0.82 KCAL/MOL
REMARK 927      BINDING AFFINITY PREDICTED BY RF-SCORE:    0.00 PKD
ROOT
HETATM    1  C   UNL     1     -11.028   6.768  67.794  1.00  0.00    -0.241 C  
HETATM    2  N   UNL     1     -11.335   6.254  69.123  1.00  0.00    -0.533 NA 
HETATM    3  H   UNL     1     -11.122   5.259  69.184  1.00  0.00     0.000 HD 
ENDROOT
BRANCH   2   4
HETATM    4  C   UNL     1     -10.667   7.003  70.205  1.00  0.00    -0.241 C  
HETATM    5  C   UNL     1      -9.332   7.548  69.655  1.00  0.00    -0.153 C  
HETATM    6  C   UNL     1      -8.847   8.818  70.336  1.00  0.00    -0.185 C  
HETATM    7  C   UNL     1      -9.898   9.933  70.316  1.00  0.00    -0.236 C  
HETATM    8  C   UNL     1     -11.233   9.435  70.841  1.00  0.00    -0.393 A  
HETATM    9  C   UNL     1     -11.595   8.076  70.783  1.00  0.00    -0.251 A  
HETATM   10  C   UNL     1     -12.834   7.693  71.341  1.00  0.00    -0.354 A  
HETATM   11  C   UNL     1     -12.126  10.375  71.393  1.00  0.00    -0.424 A  
HETATM   12  C   UNL     1     -13.353   9.978  71.910  1.00  0.00    -0.516 A  
HETATM   13  C   UNL     1     -13.707   8.635  71.889  1.00  0.00    -0.462 A  
BRANCH   7  14
HETATM   14  C   UNL     1     -10.005  10.688  68.991  1.00  0.00    -0.226 A  
HETATM   15 CL   UNL     1      -8.173  13.881  67.407  1.00  0.00    -0.190 Cl 
HETATM   16  C   UNL     1     -10.283  12.285  66.678  1.00  0.00    -0.216 A  
HETATM   17  C   UNL     1     -11.131  11.198  66.891  1.00  0.00    -0.313 A  
HETATM   18 CL   UNL     1     -10.554  13.263  65.281  1.00  0.00    -0.309 Cl 
HETATM   19  C   UNL     1      -9.129  11.761  68.743  1.00  0.00     0.009 A  
HETATM   20  C   UNL     1      -9.267  12.558  67.600  1.00  0.00    -0.190 A  
HETATM   21  C   UNL     1     -10.988  10.400  68.032  1.00  0.00    -0.347 A  
ENDBRANCH   7  14
ENDBRANCH   2   4
TORSDOF 2
ENDMDL
MODEL       47
REMARK 921   NORMALIZED FREE ENERGY PREDICTED BY IDOCK:   -5.35 KCAL/MOL
REMARK 922        TOTAL FREE ENERGY PREDICTED BY IDOCK:   -6.57 KCAL/MOL
REMARK 923 INTER-LIGAND FREE ENERGY PREDICTED BY IDOCK:   -6.01 KCAL/MOL
REMARK 924 INTRA-LIGAND FREE ENERGY PREDICTED BY IDOCK:   -0.56 KCAL/MOL
REMARK 927      BINDING AFFINITY PREDICTED BY RF-SCORE:    0.00 PKD
ROOT
HETATM    1  C   UNL     1     -13.029  12.258  64.219  1.00  0.00    -0.133 C  
HETATM    2  N   UNL     1     -11.932  12.045  63.284  1.00  0.00    -0.746 NA 
HETATM    3  H   UNL     1     -12.161  12.424  62.365  1.00  0.00     0.000 HD 
ENDROOT
BRANCH   2   4
HETATM    4  C   UNL     1     -10.644  12.578  63.767  1.00  0.00    -0.436 C  
HETATM    5  C   UNL     1     -10.943  13.672  64.815  1.00  0.00    -0.384 C  
HETATM    6  C   UNL     1      -9.848  13.858  65.853  1.00  0.00    -0.287 C  
HETATM    7  C   UNL     1      -9.491  12.551  66.570  1.00  0.00    -0.240 C  
HETATM    8  C   UNL     1      -9.199  11.444  65.574  1.00  0.00    -0.193 A  
HETATM    9  C   UNL     1      -9.740  11.450  64.274  1.00  0.00    -0.263 A  
HETATM   10  C   UNL     1      -9.374  10.407  63.396  1.00  0.00    -0.334 A  
HETATM   11  C   UNL     1      -8.365  10.383  65.980  1.00  0.00    -0.149 A  
HETATM   12  C   UNL     1      -8.043   9.351  65.106  1.00  0.00    -0.126 A  
HETATM   13  C   UNL     1      -8.544   9.365  63.811  1.00  0.00    -0.224 A  
BRANCH   7  14
HETATM   14  C   UNL     1     -10.463  12.140  67.675  1.00  0.00    -0.225 A  
HETATM   15 CL   UNL     1     -11.952  13.931  70.936  1.00  0.00    -0.366 Cl 
HETATM   16  C   UNL     1     -12.067  11.401  69.880  1.00  0.00    -0.330 A  
HETATM   17  C   UNL     1     -11.758  10.469  68.888  1.00  0.00    -0.217 A  
HETATM   18 CL   UNL     1     -12.990  10.865  71.236  1.00  0.00    -0.499 Cl 
HETATM   19  C   UNL     1     -10.819  13.081  68.659  1.00  0.00    -0.287 A  
HETATM   20  C   UNL     1     -11.610  12.717  69.755  1.00  0.00    -0.218 A  
HETATM   21  C   UNL     1     -10.971  10.837  67.790  1.00  0.00    -0.354 A  
ENDBRANCH   7  14
ENDBRANCH   2   4
TORSDOF 2
ENDMDL
MODEL       48
REMARK 921   NORMALIZED FREE ENERGY PREDICTED BY IDOCK:   -5.33 KCAL/MOL
REMARK 922        TOTAL FREE ENERGY PREDICTED BY IDOCK:   -6.55 KCAL/MOL
REMARK 923 INTER-LIGAND FREE ENERGY PREDICTED BY IDOCK:   -6.13 KCAL/MOL
REMARK 924 INTRA-LIGAND FREE ENERGY PREDICTED BY IDOCK:   -0.42 KCAL/MOL
REMARK 927      BINDING AFFINITY PREDICTED BY RF-SCORE:    0.00 PKD
ROOT
HETATM    1  C   UNL     1     -12.244  13.321  63.206  1.00  0.00    -0.313 C  
HETATM    2  N   UNL     1     -12.231  14.593  63.917  1.00  0.00    -1.017 NA 
HETATM    3  H   UNL     1     -13.059  15.144  63.690  1.00  0.00     0.000 HD 
ENDROOT
BRANCH   2   4
HETATM    4  C   UNL     1     -12.085  14.442  65.378  1.00  0.00    -0.364 C  
HETATM    5  C   UNL     1     -12.397  12.973  65.739  1.00  0.00    -0.477 C  
HETATM    6  C   UNL     1     -11.699  12.477  66.995  1.00  0.00    -0.437 C  
HETATM    7  C   UNL     1     -10.180  12.673  66.939  1.00  0.00    -0.242 C  
HETATM    8  C   UNL     1      -9.828  14.104  66.576  1.00  0.00    -0.298 A  
HETATM    9  C   UNL     1     -10.708  14.925  65.844  1.00  0.00    -0.329 A  
HETATM   10  C   UNL     1     -10.321  16.259  65.595  1.00  0.00    -0.385 A  
HETATM   11  C   UNL     1      -8.578  14.609  66.985  1.00  0.00    -0.249 A  
HETATM   12  C   UNL     1      -8.206  15.919  66.703  1.00  0.00    -0.317 A  
HETATM   13  C   UNL     1      -9.081  16.747  66.010  1.00  0.00    -0.226 A  
BRANCH   7  14
HETATM   14  C   UNL     1      -9.430  11.630  66.112  1.00  0.00    -0.240 A  
HETATM   15 CL   UNL     1      -9.780  10.195  62.387  1.00  0.00    -0.153 Cl 
HETATM   16  C   UNL     1      -8.258   9.565  64.581  1.00  0.00    -0.146 A  
HETATM   17  C   UNL     1      -7.851   9.785  65.898  1.00  0.00    -0.108 A  
HETATM   18 CL   UNL     1      -7.554   8.240  63.727  1.00  0.00    -0.125 Cl 
HETATM   19  C   UNL     1      -9.800  11.424  64.771  1.00  0.00    -0.302 A  
HETATM   20  C   UNL     1      -9.225  10.398  64.010  1.00  0.00    -0.263 A  
HETATM   21  C   UNL     1      -8.423  10.815  66.654  1.00  0.00    -0.142 A  
ENDBRANCH   7  14
ENDBRANCH   2   4
TORSDOF 2
ENDMDL
MODEL       49
REMARK 921   NORMALIZED FREE ENERGY PREDICTED BY IDOCK:   -5.33 KCAL/MOL
REMARK 922        TOTAL FREE ENERGY PREDICTED BY IDOCK:   -6.55 KCAL/MOL
REMARK 923 INTER-LIGAND FREE ENERGY PREDICTED BY IDOCK:   -6.15 KCAL/MOL
REMARK 924 INTRA-LIGAND FREE ENERGY PREDICTED BY IDOCK:   -0.39 KCAL/MOL
REMARK 927      BINDING AFFINITY PREDICTED BY RF-SCORE:    0.00 PKD
ROOT
HETATM    1  C   UNL     1     -14.051   7.199  71.346  1.00  0.00    -0.264 C  
HETATM    2  N   UNL     1     -13.927   8.299  72.294  1.00  0.00    -0.576 NA 
HETATM    3  H   UNL     1     -14.363   8.060  73.185  1.00  0.00     0.000 HD 
ENDROOT
BRANCH   2   4
HETATM    4  C   UNL     1     -12.533   8.740  72.494  1.00  0.00    -0.298 C  
HETATM    5  C   UNL     1     -11.634   7.485  72.522  1.00  0.00    -0.352 C  
HETATM    6  C   UNL     1     -10.203   7.731  72.069  1.00  0.00    -0.253 C  
HETATM    7  C   UNL     1     -10.130   8.377  70.681  1.00  0.00    -0.220 C  
HETATM    8  C   UNL     1     -11.010   9.612  70.607  1.00  0.00    -0.386 A  
HETATM    9  C   UNL     1     -12.131   9.779  71.443  1.00  0.00    -0.486 A  
HETATM   10  C   UNL     1     -12.863  10.981  71.341  1.00  0.00    -0.548 A  
HETATM   11  C   UNL     1     -10.685  10.608  69.665  1.00  0.00    -0.290 A  
HETATM   12  C   UNL     1     -11.439  11.771  69.563  1.00  0.00    -0.363 A  
HETATM   13  C   UNL     1     -12.527  11.961  70.406  1.00  0.00    -0.252 A  
BRANCH   7  14
HETATM   14  C   UNL     1     -10.331   7.411  69.514  1.00  0.00    -0.218 A  
HETATM   15 CL   UNL     1      -9.619   3.512  68.922  1.00  0.00    -0.205 Cl 
HETATM   16  C   UNL     1     -10.448   5.602  67.348  1.00  0.00    -0.241 A  
HETATM   17  C   UNL     1     -10.804   6.940  67.170  1.00  0.00    -0.447 A  
HETATM   18 CL   UNL     1     -10.472   4.566  65.967  1.00  0.00    -0.290 Cl 
HETATM   19  C   UNL     1     -10.017   6.051  69.690  1.00  0.00    -0.217 A  
HETATM   20  C   UNL     1     -10.069   5.152  68.617  1.00  0.00    -0.150 A  
HETATM   21  C   UNL     1     -10.756   7.835  68.245  1.00  0.00    -0.093 A  
ENDBRANCH   7  14
ENDBRANCH   2   4
TORSDOF 2
ENDMDL
MODEL       50
REMARK 921   NORMALIZED FREE ENERGY PREDICTED BY IDOCK:   -5.32 KCAL/MOL
REMARK 922        TOTAL FREE ENERGY PREDICTED BY IDOCK:   -6.54 KCAL/MOL
REMARK 923 INTER-LIGAND FREE ENERGY PREDICTED BY IDOCK:   -5.78 KCAL/MOL
REMARK 924 INTRA-LIGAND FREE ENERGY PREDICTED BY IDOCK:   -0.76 KCAL/MOL
REMARK 927      BINDING AFFINITY PREDICTED BY RF-SCORE:    0.00 PKD
ROOT
HETATM    1  C   UNL     1     -11.431  11.518  69.634  1.00  0.00    -0.301 C  
HETATM    2  N   UNL     1     -11.735  12.569  68.671  1.00  0.00    -0.311 NA 
HETATM    3  H   UNL     1     -11.996  13.432  69.149  1.00  0.00     0.000 HD 
ENDROOT
BRANCH   2   4
HETATM    4  C   UNL     1     -10.643  12.810  67.709  1.00  0.00    -0.221 C  
HETATM    5  C   UNL     1      -9.404  12.022  68.185  1.00  0.00    -0.199 C  
HETATM    6  C   UNL     1      -8.455  11.614  67.068  1.00  0.00    -0.168 C  
HETATM    7  C   UNL     1      -9.161  10.828  65.958  1.00  0.00    -0.204 C  
HETATM    8  C   UNL     1     -10.394  11.565  65.466  1.00  0.00    -0.322 A  
HETATM    9  C   UNL     1     -11.088  12.481  66.281  1.00  0.00    -0.336 A  
HETATM   10  C   UNL     1     -12.194  13.159  65.725  1.00  0.00    -0.514 A  
HETATM   11  C   UNL     1     -10.847  11.310  64.157  1.00  0.00    -0.407 A  
HETATM   12  C   UNL     1     -11.957  11.969  63.642  1.00  0.00    -0.612 A  
HETATM   13  C   UNL     1     -12.629  12.899  64.425  1.00  0.00    -0.392 A  
BRANCH   7  14
HETATM   14  C   UNL     1      -9.414   9.356  66.276  1.00  0.00    -0.273 A  
HETATM   15 CL   UNL     1      -7.824   5.888  65.050  1.00  0.00    -0.099 Cl 
HETATM   16  C   UNL     1      -9.955   6.605  66.623  1.00  0.00    -0.140 A  
HETATM   17  C   UNL     1     -10.753   7.565  67.247  1.00  0.00    -0.365 A  
HETATM   18 CL   UNL     1     -10.386   4.944  66.817  1.00  0.00    -0.274 Cl 
HETATM   19  C   UNL     1      -8.593   8.377  65.687  1.00  0.00    -0.197 A  
HETATM   20  C   UNL     1      -8.861   7.013  65.853  1.00  0.00    -0.103 A  
HETATM   21  C   UNL     1     -10.479   8.928  67.085  1.00  0.00    -0.344 A  
ENDBRANCH   7  14
ENDBRANCH   2   4
TORSDOF 2
ENDMDL
MODEL       51
REMARK 921   NORMALIZED FREE ENERGY PREDICTED BY IDOCK:   -5.30 KCAL/MOL
REMARK 922        TOTAL FREE ENERGY PREDICTED BY IDOCK:   -6.52 KCAL/MOL
REMARK 923 INTER-LIGAND FREE ENERGY PREDICTED BY IDOCK:   -5.88 KCAL/MOL
REMARK 924 INTRA-LIGAND FREE ENERGY PREDICTED BY IDOCK:   -0.64 KCAL/MOL
REMARK 927      BINDING AFFINITY PREDICTED BY RF-SCORE:    0.00 PKD
ROOT
HETATM    1  C   UNL     1      -7.516  14.685  68.599  1.00  0.00    -0.125 C  
HETATM    2  N   UNL     1      -8.427  13.558  68.753  1.00  0.00    -0.359 NA 
HETATM    3  H   UNL     1      -8.309  13.119  69.666  1.00  0.00     0.000 HD 
ENDROOT
BRANCH   2   4
HETATM    4  C   UNL     1      -9.839  13.916  68.520  1.00  0.00    -0.214 C  
HETATM    5  C   UNL     1     -10.108  15.272  69.206  1.00  0.00    -0.252 C  
HETATM    6  C   UNL     1     -11.220  16.087  68.566  1.00  0.00    -0.374 C  
HETATM    7  C   UNL     1     -10.994  16.313  67.067  1.00  0.00    -0.086 C  
HETATM    8  C   UNL     1     -10.715  15.002  66.353  1.00  0.00    -0.322 A  
HETATM    9  C   UNL     1     -10.172  13.890  67.025  1.00  0.00    -0.254 A  
HETATM   10  C   UNL     1      -9.993  12.695  66.295  1.00  0.00    -0.266 A  
HETATM   11  C   UNL     1     -11.009  14.915  64.978  1.00  0.00    -0.432 A  
HETATM   12  C   UNL     1     -10.797  13.735  64.274  1.00  0.00    -0.241 A  
HETATM   13  C   UNL     1     -10.293  12.622  64.934  1.00  0.00    -0.330 A  
BRANCH   7  14
HETATM   14  C   UNL     1      -9.994  17.418  66.730  1.00  0.00    -0.307 A  
HETATM   15 CL   UNL     1      -6.051  17.535  66.018  1.00  0.00    -0.229 Cl 
HETATM   16  C   UNL     1      -8.031  19.410  66.329  1.00  0.00    -0.319 A  
HETATM   17  C   UNL     1      -9.364  19.765  66.540  1.00  0.00    -0.486 A  
HETATM   18 CL   UNL     1      -6.871  20.678  66.165  1.00  0.00    -0.261 Cl 
HETATM   19  C   UNL     1      -8.654  17.073  66.473  1.00  0.00    -0.305 A  
HETATM   20  C   UNL     1      -7.677  18.058  66.279  1.00  0.00    -0.258 A  
HETATM   21  C   UNL     1     -10.339  18.778  66.728  1.00  0.00    -0.464 A  
ENDBRANCH   7  14
ENDBRANCH   2   4
TORSDOF 2
ENDMDL
MODEL       52
REMARK 921   NORMALIZED FREE ENERGY PREDICTED BY IDOCK:   -5.30 KCAL/MOL
REMARK 922        TOTAL FREE ENERGY PREDICTED BY IDOCK:   -6.52 KCAL/MOL
REMARK 923 INTER-LIGAND FREE ENERGY PREDICTED BY IDOCK:   -6.37 KCAL/MOL
REMARK 924 INTRA-LIGAND FREE ENERGY PREDICTED BY IDOCK:   -0.14 KCAL/MOL
REMARK 927      BINDING AFFINITY PREDICTED BY RF-SCORE:    0.00 PKD
ROOT
HETATM    1  C   UNL     1     -10.085   9.748  69.755  1.00  0.00    -0.239 C  
HETATM    2  N   UNL     1      -9.084  10.614  69.144  1.00  0.00    -0.298 NA 
HETATM    3  H   UNL     1      -8.279  10.072  68.831  1.00  0.00     0.000 HD 
ENDROOT
BRANCH   2   4
HETATM    4  C   UNL     1      -9.622  11.438  68.044  1.00  0.00    -0.183 C  
HETATM    5  C   UNL     1     -11.148  11.561  68.241  1.00  0.00    -0.295 C  
HETATM    6  C   UNL     1     -11.754  12.827  67.656  1.00  0.00    -0.422 C  
HETATM    7  C   UNL     1     -11.071  14.098  68.175  1.00  0.00    -0.276 C  
HETATM    8  C   UNL     1      -9.564  14.014  68.009  1.00  0.00    -0.217 A  
HETATM    9  C   UNL     1      -8.888  12.780  67.955  1.00  0.00    -0.195 A  
HETATM   10  C   UNL     1      -7.492  12.795  67.748  1.00  0.00    -0.135 A  
HETATM   11  C   UNL     1      -8.835  15.216  67.912  1.00  0.00    -0.166 A  
HETATM   12  C   UNL     1      -7.456  15.206  67.737  1.00  0.00    -0.179 A  
HETATM   13  C   UNL     1      -6.784  13.993  67.650  1.00  0.00    -0.188 A  
BRANCH   7  14
HETATM   14  C   UNL     1     -11.509  14.536  69.571  1.00  0.00    -0.330 A  
HETATM   15 CL   UNL     1     -13.901  12.994  72.393  1.00  0.00    -0.621 Cl 
HETATM   16  C   UNL     1     -12.557  15.363  72.061  1.00  0.00    -0.371 A  
HETATM   17  C   UNL     1     -11.706  16.202  71.340  1.00  0.00    -0.506 A  
HETATM   18 CL   UNL     1     -13.220  15.959  73.539  1.00  0.00    -0.650 Cl 
HETATM   19  C   UNL     1     -12.334  13.684  70.328  1.00  0.00    -0.392 A  
HETATM   20  C   UNL     1     -12.860  14.092  71.560  1.00  0.00    -0.354 A  
HETATM   21  C   UNL     1     -11.178  15.788  70.111  1.00  0.00    -0.357 A  
ENDBRANCH   7  14
ENDBRANCH   2   4
TORSDOF 2
ENDMDL
MODEL       53
REMARK 921   NORMALIZED FREE ENERGY PREDICTED BY IDOCK:   -5.27 KCAL/MOL
REMARK 922        TOTAL FREE ENERGY PREDICTED BY IDOCK:   -6.48 KCAL/MOL
REMARK 923 INTER-LIGAND FREE ENERGY PREDICTED BY IDOCK:   -6.12 KCAL/MOL
REMARK 924 INTRA-LIGAND FREE ENERGY PREDICTED BY IDOCK:   -0.36 KCAL/MOL
REMARK 927      BINDING AFFINITY PREDICTED BY RF-SCORE:    0.00 PKD
ROOT
HETATM    1  C   UNL     1     -11.825  12.790  66.327  1.00  0.00    -0.423 C  
HETATM    2  N   UNL     1     -12.098  12.250  67.653  1.00  0.00    -0.473 NA 
HETATM    3  H   UNL     1     -12.287  11.249  67.605  1.00  0.00     0.000 HD 
ENDROOT
BRANCH   2   4
HETATM    4  C   UNL     1     -11.029  12.537  68.630  1.00  0.00    -0.255 C  
HETATM    5  C   UNL     1      -9.831  13.137  67.863  1.00  0.00    -0.231 C  
HETATM    6  C   UNL     1      -8.956  14.062  68.695  1.00  0.00    -0.104 C  
HETATM    7  C   UNL     1      -9.756  15.192  69.352  1.00  0.00    -0.206 C  
HETATM    8  C   UNL     1     -10.953  14.646  70.109  1.00  0.00    -0.116 A  
HETATM    9  C   UNL     1     -11.550  13.416  69.771  1.00  0.00    -0.305 A  
HETATM   10  C   UNL     1     -12.627  12.959  70.561  1.00  0.00    -0.204 A  
HETATM   11  C   UNL     1     -11.472  15.405  71.176  1.00  0.00    -0.425 A  
HETATM   12  C   UNL     1     -12.552  14.948  71.922  1.00  0.00    -0.400 A  
HETATM   13  C   UNL     1     -13.128  13.722  71.618  1.00  0.00    -0.456 A  
BRANCH   7  14
HETATM   14  C   UNL     1     -10.099  16.356  68.423  1.00  0.00    -0.245 A  
HETATM   15 CL   UNL     1     -11.190  16.675  64.580  1.00  0.00    -0.239 Cl 
HETATM   16  C   UNL     1     -10.529  18.445  66.570  1.00  0.00    -0.381 A  
HETATM   17  C   UNL     1     -10.156  18.733  67.884  1.00  0.00    -0.415 A  
HETATM   18 CL   UNL     1     -10.703  19.764  65.471  1.00  0.00    -0.486 Cl 
HETATM   19  C   UNL     1     -10.517  16.082  67.108  1.00  0.00    -0.308 A  
HETATM   20  C   UNL     1     -10.725  17.115  66.185  1.00  0.00    -0.094 A  
HETATM   21  C   UNL     1      -9.954  17.699  68.806  1.00  0.00    -0.358 A  
ENDBRANCH   7  14
ENDBRANCH   2   4
TORSDOF 2
ENDMDL
MODEL       54
REMARK 921   NORMALIZED FREE ENERGY PREDICTED BY IDOCK:   -5.21 KCAL/MOL
REMARK 922        TOTAL FREE ENERGY PREDICTED BY IDOCK:   -6.41 KCAL/MOL
REMARK 923 INTER-LIGAND FREE ENERGY PREDICTED BY IDOCK:   -5.81 KCAL/MOL
REMARK 924 INTRA-LIGAND FREE ENERGY PREDICTED BY IDOCK:   -0.60 KCAL/MOL
REMARK 927      BINDING AFFINITY PREDICTED BY RF-SCORE:    0.00 PKD
ROOT
HETATM    1  C   UNL     1      -8.562   9.572  69.397  1.00  0.00    -0.159 C  
HETATM    2  N   UNL     1      -8.806  10.314  68.168  1.00  0.00    -0.122 NA 
HETATM    3  H   UNL     1      -8.333   9.874  67.378  1.00  0.00     0.000 HD 
ENDROOT
BRANCH   2   4
HETATM    4  C   UNL     1     -10.240  10.507  67.880  1.00  0.00    -0.183 C  
HETATM    5  C   UNL     1     -10.830  11.417  68.979  1.00  0.00    -0.265 C  
HETATM    6  C   UNL     1     -12.034  12.234  68.535  1.00  0.00    -0.272 C  
HETATM    7  C   UNL     1     -11.746  13.070  67.284  1.00  0.00    -0.429 C  
HETATM    8  C   UNL     1     -11.154  12.214  66.178  1.00  0.00    -0.354 A  
HETATM    9  C   UNL     1     -10.448  11.027  66.454  1.00  0.00    -0.312 A  
HETATM   10  C   UNL     1      -9.976  10.266  65.363  1.00  0.00    -0.371 A  
HETATM   11  C   UNL     1     -11.320  12.637  64.845  1.00  0.00    -0.347 A  
HETATM   12  C   UNL     1     -10.821  11.885  63.788  1.00  0.00    -0.481 A  
HETATM   13  C   UNL     1     -10.151  10.695  64.046  1.00  0.00    -0.378 A  
BRANCH   7  14
HETATM   14  C   UNL     1     -10.969  14.361  67.541  1.00  0.00    -0.299 A  
HETATM   15 CL   UNL     1      -7.117  15.436  67.279  1.00  0.00    -0.230 Cl 
HETATM   16  C   UNL     1      -9.412  16.623  68.204  1.00  0.00    -0.228 A  
HETATM   17  C   UNL     1     -10.788  16.620  68.436  1.00  0.00    -0.361 A  
HETATM   18 CL   UNL     1      -8.509  18.008  68.700  1.00  0.00    -0.301 Cl 
HETATM   19  C   UNL     1      -9.589  14.393  67.272  1.00  0.00    -0.227 A  
HETATM   20  C   UNL     1      -8.813  15.510  67.604  1.00  0.00    -0.179 A  
HETATM   21  C   UNL     1     -11.563  15.504  68.098  1.00  0.00    -0.313 A  
ENDBRANCH   7  14
ENDBRANCH   2   4
TORSDOF 2
ENDMDL
MODEL       55
REMARK 921   NORMALIZED FREE ENERGY PREDICTED BY IDOCK:   -5.18 KCAL/MOL
REMARK 922        TOTAL FREE ENERGY PREDICTED BY IDOCK:   -6.39 KCAL/MOL
REMARK 923 INTER-LIGAND FREE ENERGY PREDICTED BY IDOCK:   -6.24 KCAL/MOL
REMARK 924 INTRA-LIGAND FREE ENERGY PREDICTED BY IDOCK:   -0.14 KCAL/MOL
REMARK 927      BINDING AFFINITY PREDICTED BY RF-SCORE:    0.00 PKD
ROOT
HETATM    1  C   UNL     1     -10.475   4.698  66.121  1.00  0.00    -0.241 C  
HETATM    2  N   UNL     1     -10.799   6.070  66.490  1.00  0.00    -0.650 NA 
HETATM    3  H   UNL     1     -11.727   6.123  66.909  1.00  0.00     0.000 HD 
ENDROOT
BRANCH   2   4
HETATM    4  C   UNL     1      -9.789   6.691  67.368  1.00  0.00    -0.131 C  
HETATM    5  C   UNL     1      -8.991   7.712  66.530  1.00  0.00    -0.187 C  
HETATM    6  C   UNL     1      -8.406   8.862  67.337  1.00  0.00    -0.108 C  
HETATM    7  C   UNL     1      -9.468   9.599  68.161  1.00  0.00    -0.144 C  
HETATM    8  C   UNL     1     -10.285   8.628  68.994  1.00  0.00    -0.218 A  
HETATM    9  C   UNL     1     -10.441   7.278  68.624  1.00  0.00    -0.214 A  
HETATM   10  C   UNL     1     -11.175   6.434  69.484  1.00  0.00    -0.477 A  
HETATM   11  C   UNL     1     -10.902   9.108  70.166  1.00  0.00    -0.269 A  
HETATM   12  C   UNL     1     -11.645   8.263  70.982  1.00  0.00    -0.301 A  
HETATM   13  C   UNL     1     -11.778   6.923  70.644  1.00  0.00    -0.417 A  
BRANCH   7  14
HETATM   14  C   UNL     1     -10.318  10.591  67.369  1.00  0.00    -0.269 A  
HETATM   15 CL   UNL     1     -10.537  11.675  63.517  1.00  0.00    -0.463 Cl 
HETATM   16  C   UNL     1     -11.675  12.553  65.854  1.00  0.00    -0.426 A  
HETATM   17  C   UNL     1     -11.871  12.465  67.233  1.00  0.00    -0.357 A  
HETATM   18 CL   UNL     1     -12.478  13.820  65.001  1.00  0.00    -0.446 Cl 
HETATM   19  C   UNL     1     -10.163  10.663  65.972  1.00  0.00    -0.309 A  
HETATM   20  C   UNL     1     -10.830  11.637  65.219  1.00  0.00    -0.283 A  
HETATM   21  C   UNL     1     -11.207  11.487  67.983  1.00  0.00    -0.335 A  
ENDBRANCH   7  14
ENDBRANCH   2   4
TORSDOF 2
ENDMDL
MODEL       56
REMARK 921   NORMALIZED FREE ENERGY PREDICTED BY IDOCK:   -5.17 KCAL/MOL
REMARK 922        TOTAL FREE ENERGY PREDICTED BY IDOCK:   -6.37 KCAL/MOL
REMARK 923 INTER-LIGAND FREE ENERGY PREDICTED BY IDOCK:   -5.80 KCAL/MOL
REMARK 924 INTRA-LIGAND FREE ENERGY PREDICTED BY IDOCK:   -0.57 KCAL/MOL
REMARK 927      BINDING AFFINITY PREDICTED BY RF-SCORE:    0.00 PKD
ROOT
HETATM    1  C   UNL     1      -6.438   7.790  72.907  1.00  0.00    -0.067 C  
HETATM    2  N   UNL     1      -7.496   7.874  71.908  1.00  0.00    -0.074 NA 
HETATM    3  H   UNL     1      -7.140   7.637  70.982  1.00  0.00     0.000 HD 
ENDROOT
BRANCH   2   4
HETATM    4  C   UNL     1      -8.678   7.056  72.242  1.00  0.00    -0.125 C  
HETATM    5  C   UNL     1      -9.547   7.856  73.236  1.00  0.00    -0.351 C  
HETATM    6  C   UNL     1     -11.029   7.515  73.185  1.00  0.00    -0.420 C  
HETATM    7  C   UNL     1     -11.614   7.651  71.775  1.00  0.00    -0.307 C  
HETATM    8  C   UNL     1     -10.781   6.886  70.762  1.00  0.00    -0.262 A  
HETATM    9  C   UNL     1      -9.415   6.615  70.974  1.00  0.00    -0.168 A  
HETATM   10  C   UNL     1      -8.730   5.852  70.003  1.00  0.00    -0.133 A  
HETATM   11  C   UNL     1     -11.406   6.445  69.578  1.00  0.00    -0.460 A  
HETATM   12  C   UNL     1     -10.703   5.721  68.623  1.00  0.00    -0.303 A  
HETATM   13  C   UNL     1      -9.364   5.420  68.837  1.00  0.00    -0.161 A  
BRANCH   7  14
HETATM   14  C   UNL     1     -11.931   9.083  71.348  1.00  0.00    -0.400 A  
HETATM   15 CL   UNL     1     -10.250  11.720  68.841  1.00  0.00    -0.167 Cl 
HETATM   16  C   UNL     1     -12.297  11.801  70.667  1.00  0.00    -0.328 A  
HETATM   17  C   UNL     1     -13.123  11.193  71.615  1.00  0.00    -0.529 A  
HETATM   18 CL   UNL     1     -12.528  13.482  70.352  1.00  0.00    -0.376 Cl 
HETATM   19  C   UNL     1     -11.134   9.697  70.364  1.00  0.00    -0.346 A  
HETATM   20  C   UNL     1     -11.309  11.044  70.027  1.00  0.00    -0.277 A  
HETATM   21  C   UNL     1     -12.949   9.844  71.945  1.00  0.00    -0.545 A  
ENDBRANCH   7  14
ENDBRANCH   2   4
TORSDOF 2
ENDMDL
MODEL       57
REMARK 921   NORMALIZED FREE ENERGY PREDICTED BY IDOCK:   -5.12 KCAL/MOL
REMARK 922        TOTAL FREE ENERGY PREDICTED BY IDOCK:   -6.31 KCAL/MOL
REMARK 923 INTER-LIGAND FREE ENERGY PREDICTED BY IDOCK:   -5.51 KCAL/MOL
REMARK 924 INTRA-LIGAND FREE ENERGY PREDICTED BY IDOCK:   -0.81 KCAL/MOL
REMARK 927      BINDING AFFINITY PREDICTED BY RF-SCORE:    0.00 PKD
ROOT
HETATM    1  C   UNL     1      -9.003  14.248  68.567  1.00  0.00    -0.185 C  
HETATM    2  N   UNL     1     -10.287  14.588  69.165  1.00  0.00    -0.333 NA 
HETATM    3  H   UNL     1     -10.469  15.589  69.089  1.00  0.00     0.000 HD 
ENDROOT
BRANCH   2   4
HETATM    4  C   UNL     1     -11.411  13.807  68.614  1.00  0.00    -0.301 C  
HETATM    5  C   UNL     1     -10.917  13.096  67.335  1.00  0.00    -0.283 C  
HETATM    6  C   UNL     1     -11.652  11.804  67.015  1.00  0.00    -0.321 C  
HETATM    7  C   UNL     1     -11.635  10.814  68.184  1.00  0.00    -0.276 C  
HETATM    8  C   UNL     1     -12.105  11.476  69.467  1.00  0.00    -0.351 A  
HETATM    9  C   UNL     1     -11.995  12.865  69.671  1.00  0.00    -0.358 A  
HETATM   10  C   UNL     1     -12.505  13.403  70.873  1.00  0.00    -0.439 A  
HETATM   11  C   UNL     1     -12.661  10.662  70.474  1.00  0.00    -0.433 A  
HETATM   12  C   UNL     1     -13.130  11.212  71.662  1.00  0.00    -0.529 A  
HETATM   13  C   UNL     1     -13.056  12.585  71.860  1.00  0.00    -0.473 A  
BRANCH   7  14
HETATM   14  C   UNL     1     -10.332  10.031  68.342  1.00  0.00    -0.218 A  
HETATM   15 CL   UNL     1      -9.048   6.422  67.166  1.00  0.00    -0.118 Cl 
HETATM   16  C   UNL     1      -8.056   8.413  68.772  1.00  0.00    -0.121 A  
HETATM   17  C   UNL     1      -8.146   9.676  69.361  1.00  0.00    -0.118 A  
HETATM   18 CL   UNL     1      -6.672   7.447  69.135  1.00  0.00    -0.050 Cl 
HETATM   19  C   UNL     1     -10.209   8.775  67.721  1.00  0.00    -0.285 A  
HETATM   20  C   UNL     1      -9.085   7.968  67.935  1.00  0.00    -0.132 A  
HETATM   21  C   UNL     1      -9.269  10.482  69.140  1.00  0.00    -0.183 A  
ENDBRANCH   7  14
ENDBRANCH   2   4
TORSDOF 2
ENDMDL
MODEL       58
REMARK 921   NORMALIZED FREE ENERGY PREDICTED BY IDOCK:   -5.11 KCAL/MOL
REMARK 922        TOTAL FREE ENERGY PREDICTED BY IDOCK:   -6.31 KCAL/MOL
REMARK 923 INTER-LIGAND FREE ENERGY PREDICTED BY IDOCK:   -5.58 KCAL/MOL
REMARK 924 INTRA-LIGAND FREE ENERGY PREDICTED BY IDOCK:   -0.73 KCAL/MOL
REMARK 927      BINDING AFFINITY PREDICTED BY RF-SCORE:    0.00 PKD
ROOT
HETATM    1  C   UNL     1     -12.126  14.806  69.993  1.00  0.00    -0.329 C  
HETATM    2  N   UNL     1     -12.407  14.839  68.564  1.00  0.00    -0.594 NA 
HETATM    3  H   UNL     1     -12.951  15.667  68.321  1.00  0.00     0.000 HD 
ENDROOT
BRANCH   2   4
HETATM    4  C   UNL     1     -11.193  14.744  67.730  1.00  0.00    -0.313 C  
HETATM    5  C   UNL     1      -9.996  14.452  68.660  1.00  0.00    -0.241 C  
HETATM    6  C   UNL     1      -8.856  13.699  67.994  1.00  0.00    -0.187 C  
HETATM    7  C   UNL     1      -9.318  12.394  67.338  1.00  0.00    -0.181 C  
HETATM    8  C   UNL     1     -10.504  12.634  66.420  1.00  0.00    -0.267 A  
HETATM    9  C   UNL     1     -11.380  13.721  66.605  1.00  0.00    -0.340 A  
HETATM   10  C   UNL     1     -12.426  13.898  65.674  1.00  0.00    -0.538 A  
HETATM   11  C   UNL     1     -10.722  11.731  65.360  1.00  0.00    -0.333 A  
HETATM   12  C   UNL     1     -11.777  11.910  64.473  1.00  0.00    -0.326 A  
HETATM   13  C   UNL     1     -12.628  12.997  64.627  1.00  0.00    -0.425 A  
BRANCH   7  14
HETATM   14  C   UNL     1      -9.520  11.227  68.304  1.00  0.00    -0.190 A  
HETATM   15 CL   UNL     1      -7.509   7.858  69.119  1.00  0.00    -0.091 Cl 
HETATM   16  C   UNL     1      -9.920   8.921  69.886  1.00  0.00    -0.188 A  
HETATM   17  C   UNL     1     -10.876   9.938  69.866  1.00  0.00    -0.316 A  
HETATM   18 CL   UNL     1     -10.261   7.507  70.816  1.00  0.00    -0.194 Cl 
HETATM   19  C   UNL     1      -8.545  10.214  68.366  1.00  0.00    -0.119 A  
HETATM   20  C   UNL     1      -8.742   9.068  69.145  1.00  0.00    -0.135 A  
HETATM   21  C   UNL     1     -10.673  11.086  69.091  1.00  0.00    -0.274 A  
ENDBRANCH   7  14
ENDBRANCH   2   4
TORSDOF 2
ENDMDL
MODEL       59
REMARK 921   NORMALIZED FREE ENERGY PREDICTED BY IDOCK:   -5.10 KCAL/MOL
REMARK 922        TOTAL FREE ENERGY PREDICTED BY IDOCK:   -6.29 KCAL/MOL
REMARK 923 INTER-LIGAND FREE ENERGY PREDICTED BY IDOCK:   -5.82 KCAL/MOL
REMARK 924 INTRA-LIGAND FREE ENERGY PREDICTED BY IDOCK:   -0.48 KCAL/MOL
REMARK 927      BINDING AFFINITY PREDICTED BY RF-SCORE:    0.00 PKD
ROOT
HETATM    1  C   UNL     1      -9.646  11.110  64.944  1.00  0.00    -0.239 C  
HETATM    2  N   UNL     1      -9.026  12.043  65.877  1.00  0.00    -0.414 NA 
HETATM    3  H   UNL     1      -8.065  12.246  65.601  1.00  0.00     0.000 HD 
ENDROOT
BRANCH   2   4
HETATM    4  C   UNL     1      -9.797  13.289  66.053  1.00  0.00    -0.263 C  
HETATM    5  C   UNL     1     -11.282  12.909  66.236  1.00  0.00    -0.337 C  
HETATM    6  C   UNL     1     -12.088  13.911  67.049  1.00  0.00    -0.451 C  
HETATM    7  C   UNL     1     -11.463  14.192  68.420  1.00  0.00    -0.334 C  
HETATM    8  C   UNL     1      -9.996  14.560  68.286  1.00  0.00    -0.229 A  
HETATM    9  C   UNL     1      -9.218  14.135  67.191  1.00  0.00    -0.237 A  
HETATM   10  C   UNL     1      -7.876  14.566  67.121  1.00  0.00    -0.131 A  
HETATM   11  C   UNL     1      -9.409  15.346  69.298  1.00  0.00    -0.254 A  
HETATM   12  C   UNL     1      -8.076  15.734  69.222  1.00  0.00    -0.241 A  
HETATM   13  C   UNL     1      -7.310  15.348  68.130  1.00  0.00    -0.122 A  
BRANCH   7  14
HETATM   14  C   UNL     1     -11.731  13.123  69.478  1.00  0.00    -0.382 A  
HETATM   15 CL   UNL     1     -10.771   9.253  69.886  1.00  0.00    -0.240 Cl 
HETATM   16  C   UNL     1     -12.361  11.020  71.256  1.00  0.00    -0.321 A  
HETATM   17  C   UNL     1     -12.896  12.294  71.452  1.00  0.00    -0.373 A  
HETATM   18 CL   UNL     1     -12.846   9.764  72.337  1.00  0.00    -0.354 Cl 
HETATM   19  C   UNL     1     -11.165  11.844  69.317  1.00  0.00    -0.304 A  
HETATM   20  C   UNL     1     -11.479  10.799  70.194  1.00  0.00    -0.331 A  
HETATM   21  C   UNL     1     -12.576  13.339  70.577  1.00  0.00    -0.259 A  
ENDBRANCH   7  14
ENDBRANCH   2   4
TORSDOF 2
ENDMDL
MODEL       60
REMARK 921   NORMALIZED FREE ENERGY PREDICTED BY IDOCK:   -5.09 KCAL/MOL
REMARK 922        TOTAL FREE ENERGY PREDICTED BY IDOCK:   -6.29 KCAL/MOL
REMARK 923 INTER-LIGAND FREE ENERGY PREDICTED BY IDOCK:   -5.92 KCAL/MOL
REMARK 924 INTRA-LIGAND FREE ENERGY PREDICTED BY IDOCK:   -0.37 KCAL/MOL
REMARK 927      BINDING AFFINITY PREDICTED BY RF-SCORE:    0.00 PKD
ROOT
HETATM    1  C   UNL     1      -9.160   8.251  72.583  1.00  0.00    -0.257 C  
HETATM    2  N   UNL     1      -9.309   9.198  71.485  1.00  0.00    -0.307 NA 
HETATM    3  H   UNL     1      -8.515   9.140  70.847  1.00  0.00     0.000 HD 
ENDROOT
BRANCH   2   4
HETATM    4  C   UNL     1     -10.582   9.046  70.755  1.00  0.00    -0.240 C  
HETATM    5  C   UNL     1     -11.597  10.045  71.351  1.00  0.00    -0.383 C  
HETATM    6  C   UNL     1     -12.673  10.499  70.378  1.00  0.00    -0.325 C  
HETATM    7  C   UNL     1     -12.088  11.081  69.086  1.00  0.00    -0.333 C  
HETATM    8  C   UNL     1     -11.075  10.132  68.470  1.00  0.00    -0.266 A  
HETATM    9  C   UNL     1     -10.369   9.191  69.245  1.00  0.00    -0.223 A  
HETATM   10  C   UNL     1      -9.484   8.314  68.582  1.00  0.00    -0.147 A  
HETATM   11  C   UNL     1     -10.842  10.212  67.083  1.00  0.00    -0.257 A  
HETATM   12  C   UNL     1      -9.943   9.357  66.457  1.00  0.00    -0.339 A  
HETATM   13  C   UNL     1      -9.266   8.403  67.206  1.00  0.00    -0.165 A  
BRANCH   7  14
HETATM   14  C   UNL     1     -11.587  12.520  69.200  1.00  0.00    -0.375 A  
HETATM   15 CL   UNL     1     -12.871  15.813  71.090  1.00  0.00    -0.526 Cl 
HETATM   16  C   UNL     1     -10.875  15.252  69.292  1.00  0.00    -0.257 A  
HETATM   17  C   UNL     1     -10.154  14.361  68.496  1.00  0.00    -0.244 A  
HETATM   18 CL   UNL     1     -10.433  16.921  69.245  1.00  0.00    -0.331 Cl 
HETATM   19  C   UNL     1     -12.278  13.421  70.031  1.00  0.00    -0.367 A  
HETATM   20  C   UNL     1     -11.932  14.777  70.075  1.00  0.00    -0.316 A  
HETATM   21  C   UNL     1     -10.499  13.005  68.458  1.00  0.00    -0.261 A  
ENDBRANCH   7  14
ENDBRANCH   2   4
TORSDOF 2
ENDMDL
MODEL       61
REMARK 921   NORMALIZED FREE ENERGY PREDICTED BY IDOCK:   -5.09 KCAL/MOL
REMARK 922        TOTAL FREE ENERGY PREDICTED BY IDOCK:   -6.28 KCAL/MOL
REMARK 923 INTER-LIGAND FREE ENERGY PREDICTED BY IDOCK:   -5.50 KCAL/MOL
REMARK 924 INTRA-LIGAND FREE ENERGY PREDICTED BY IDOCK:   -0.78 KCAL/MOL
REMARK 927      BINDING AFFINITY PREDICTED BY RF-SCORE:    0.00 PKD
ROOT
HETATM    1  C   UNL     1     -13.393   8.748  72.040  1.00  0.00    -0.413 C  
HETATM    2  N   UNL     1     -12.470   7.998  72.883  1.00  0.00    -0.602 NA 
HETATM    3  H   UNL     1     -12.970   7.530  73.639  1.00  0.00     0.000 HD 
ENDROOT
BRANCH   2   4
HETATM    4  C   UNL     1     -11.640   7.040  72.128  1.00  0.00    -0.282 C  
HETATM    5  C   UNL     1     -12.225   6.921  70.704  1.00  0.00    -0.311 C  
HETATM    6  C   UNL     1     -11.206   6.541  69.641  1.00  0.00    -0.446 C  
HETATM    7  C   UNL     1     -10.001   7.489  69.617  1.00  0.00    -0.184 C  
HETATM    8  C   UNL     1      -9.401   7.643  71.003  1.00  0.00    -0.156 A  
HETATM    9  C   UNL     1     -10.163   7.442  72.171  1.00  0.00    -0.226 A  
HETATM   10  C   UNL     1      -9.511   7.556  73.418  1.00  0.00    -0.306 A  
HETATM   11  C   UNL     1      -8.043   8.003  71.107  1.00  0.00    -0.098 A  
HETATM   12  C   UNL     1      -7.430   8.138  72.348  1.00  0.00    -0.144 A  
HETATM   13  C   UNL     1      -8.164   7.910  73.505  1.00  0.00    -0.251 A  
BRANCH   7  14
HETATM   14  C   UNL     1     -10.245   8.818  68.905  1.00  0.00    -0.221 A  
HETATM   15 CL   UNL     1     -10.139  10.037  65.089  1.00  0.00    -0.358 Cl 
HETATM   16  C   UNL     1     -10.451  11.272  67.520  1.00  0.00    -0.201 A  
HETATM   17  C   UNL     1     -10.559  11.235  68.911  1.00  0.00    -0.239 A  
HETATM   18 CL   UNL     1     -10.512  12.812  66.743  1.00  0.00    -0.248 Cl 
HETATM   19  C   UNL     1     -10.181   8.864  67.500  1.00  0.00    -0.309 A  
HETATM   20  C   UNL     1     -10.278  10.078  66.811  1.00  0.00    -0.232 A  
HETATM   21  C   UNL     1     -10.468  10.019  69.597  1.00  0.00    -0.275 A  
ENDBRANCH   7  14
ENDBRANCH   2   4
TORSDOF 2
ENDMDL
MODEL       62
REMARK 921   NORMALIZED FREE ENERGY PREDICTED BY IDOCK:   -5.06 KCAL/MOL
REMARK 922        TOTAL FREE ENERGY PREDICTED BY IDOCK:   -6.25 KCAL/MOL
REMARK 923 INTER-LIGAND FREE ENERGY PREDICTED BY IDOCK:   -6.13 KCAL/MOL
REMARK 924 INTRA-LIGAND FREE ENERGY PREDICTED BY IDOCK:   -0.11 KCAL/MOL
REMARK 927      BINDING AFFINITY PREDICTED BY RF-SCORE:    0.00 PKD
ROOT
HETATM    1  C   UNL     1     -12.939  15.919  73.305  1.00  0.00    -0.570 C  
HETATM    2  N   UNL     1     -11.991  15.513  72.275  1.00  0.00    -0.405 NA 
HETATM    3  H   UNL     1     -11.332  14.826  72.640  1.00  0.00     0.000 HD 
ENDROOT
BRANCH   2   4
HETATM    4  C   UNL     1     -12.643  15.016  71.048  1.00  0.00    -0.350 C  
HETATM    5  C   UNL     1     -12.055  15.790  69.849  1.00  0.00    -0.315 C  
HETATM    6  C   UNL     1     -12.085  15.024  68.535  1.00  0.00    -0.177 C  
HETATM    7  C   UNL     1     -11.404  13.655  68.639  1.00  0.00    -0.321 C  
HETATM    8  C   UNL     1     -11.947  12.863  69.815  1.00  0.00    -0.365 A  
HETATM    9  C   UNL     1     -12.516  13.494  70.938  1.00  0.00    -0.448 A  
HETATM   10  C   UNL     1     -13.042  12.678  71.963  1.00  0.00    -0.471 A  
HETATM   11  C   UNL     1     -11.866  11.457  69.767  1.00  0.00    -0.435 A  
HETATM   12  C   UNL     1     -12.366  10.676  70.803  1.00  0.00    -0.472 A  
HETATM   13  C   UNL     1     -12.958  11.286  71.901  1.00  0.00    -0.471 A  
BRANCH   7  14
HETATM   14  C   UNL     1      -9.878  13.692  68.579  1.00  0.00    -0.196 A  
HETATM   15 CL   UNL     1      -7.092  16.479  69.310  1.00  0.00    -0.227 Cl 
HETATM   16  C   UNL     1      -7.079  13.935  68.281  1.00  0.00    -0.108 A  
HETATM   17  C   UNL     1      -7.728  12.754  67.917  1.00  0.00    -0.143 A  
HETATM   18 CL   UNL     1      -5.378  14.043  68.005  1.00  0.00    -0.112 Cl 
HETATM   19  C   UNL     1      -9.206  14.861  68.981  1.00  0.00    -0.176 A  
HETATM   20  C   UNL     1      -7.819  14.987  68.831  1.00  0.00    -0.162 A  
HETATM   21  C   UNL     1      -9.113  12.629  68.074  1.00  0.00    -0.207 A  
ENDBRANCH   7  14
ENDBRANCH   2   4
TORSDOF 2
ENDMDL
MODEL       63
REMARK 921   NORMALIZED FREE ENERGY PREDICTED BY IDOCK:   -5.06 KCAL/MOL
REMARK 922        TOTAL FREE ENERGY PREDICTED BY IDOCK:   -6.25 KCAL/MOL
REMARK 923 INTER-LIGAND FREE ENERGY PREDICTED BY IDOCK:   -5.74 KCAL/MOL
REMARK 924 INTRA-LIGAND FREE ENERGY PREDICTED BY IDOCK:   -0.51 KCAL/MOL
REMARK 927      BINDING AFFINITY PREDICTED BY RF-SCORE:    0.00 PKD
ROOT
HETATM    1  C   UNL     1      -6.841   6.658  73.285  1.00  0.00    -0.076 C  
HETATM    2  N   UNL     1      -7.806   7.312  72.411  1.00  0.00    -0.094 NA 
HETATM    3  H   UNL     1      -7.477   7.313  71.445  1.00  0.00     0.000 HD 
ENDROOT
BRANCH   2   4
HETATM    4  C   UNL     1      -9.161   6.735  72.505  1.00  0.00    -0.133 C  
HETATM    5  C   UNL     1     -10.044   7.718  73.302  1.00  0.00    -0.374 C  
HETATM    6  C   UNL     1     -11.524   7.649  72.958  1.00  0.00    -0.265 C  
HETATM    7  C   UNL     1     -11.786   7.833  71.459  1.00  0.00    -0.324 C  
HETATM    8  C   UNL     1     -10.928   6.889  70.635  1.00  0.00    -0.304 A  
HETATM    9  C   UNL     1      -9.704   6.384  71.116  1.00  0.00    -0.191 A  
HETATM   10  C   UNL     1      -8.996   5.473  70.304  1.00  0.00    -0.155 A  
HETATM   11  C   UNL     1     -11.380   6.523  69.352  1.00  0.00    -0.395 A  
HETATM   12  C   UNL     1     -10.650   5.646  68.559  1.00  0.00    -0.259 A  
HETATM   13  C   UNL     1      -9.459   5.116  69.036  1.00  0.00    -0.186 A  
BRANCH   7  14
HETATM   14  C   UNL     1     -11.743   9.281  70.973  1.00  0.00    -0.378 A  
HETATM   15 CL   UNL     1     -13.684  12.646  71.956  1.00  0.00    -0.406 Cl 
HETATM   16  C   UNL     1     -11.904  11.926  69.996  1.00  0.00    -0.328 A  
HETATM   17  C   UNL     1     -11.070  10.994  69.376  1.00  0.00    -0.320 A  
HETATM   18 CL   UNL     1     -12.011  13.504  69.303  1.00  0.00    -0.377 Cl 
HETATM   19  C   UNL     1     -12.547  10.241  71.614  1.00  0.00    -0.534 A  
HETATM   20  C   UNL     1     -12.633  11.552  71.129  1.00  0.00    -0.359 A  
HETATM   21  C   UNL     1     -10.982   9.686  69.866  1.00  0.00    -0.281 A  
ENDBRANCH   7  14
ENDBRANCH   2   4
TORSDOF 2
ENDMDL
MODEL       64
REMARK 921   NORMALIZED FREE ENERGY PREDICTED BY IDOCK:   -5.02 KCAL/MOL
REMARK 922        TOTAL FREE ENERGY PREDICTED BY IDOCK:   -6.20 KCAL/MOL
REMARK 923 INTER-LIGAND FREE ENERGY PREDICTED BY IDOCK:   -5.57 KCAL/MOL
REMARK 924 INTRA-LIGAND FREE ENERGY PREDICTED BY IDOCK:   -0.63 KCAL/MOL
REMARK 927      BINDING AFFINITY PREDICTED BY RF-SCORE:    0.00 PKD
ROOT
HETATM    1  C   UNL     1     -10.750   9.306  67.126  1.00  0.00    -0.152 C  
HETATM    2  N   UNL     1      -9.934   9.512  65.936  1.00  0.00    -0.294 NA 
HETATM    3  H   UNL     1     -10.279   8.949  65.158  1.00  0.00     0.000 HD 
ENDROOT
BRANCH   2   4
HETATM    4  C   UNL     1      -9.820  10.931  65.547  1.00  0.00    -0.246 C  
HETATM    5  C   UNL     1     -11.237  11.544  65.556  1.00  0.00    -0.204 C  
HETATM    6  C   UNL     1     -11.269  13.040  65.830  1.00  0.00    -0.316 C  
HETATM    7  C   UNL     1     -10.545  13.415  67.127  1.00  0.00    -0.259 C  
HETATM    8  C   UNL     1      -9.148  12.822  67.164  1.00  0.00    -0.219 A  
HETATM    9  C   UNL     1      -8.811  11.664  66.436  1.00  0.00    -0.182 A  
HETATM   10  C   UNL     1      -7.475  11.211  66.488  1.00  0.00    -0.131 A  
HETATM   11  C   UNL     1      -8.173  13.457  67.958  1.00  0.00    -0.161 A  
HETATM   12  C   UNL     1      -6.870  12.976  68.016  1.00  0.00    -0.113 A  
HETATM   13  C   UNL     1      -6.519  11.854  67.276  1.00  0.00    -0.141 A  
BRANCH   7  14
HETATM   14  C   UNL     1     -11.348  13.167  68.403  1.00  0.00    -0.324 A  
HETATM   15 CL   UNL     1     -13.366  15.496  70.966  1.00  0.00    -0.557 Cl 
HETATM   16  C   UNL     1     -12.657  12.847  70.886  1.00  0.00    -0.270 A  
HETATM   17  C   UNL     1     -12.056  11.754  70.259  1.00  0.00    -0.426 A  
HETATM   18 CL   UNL     1     -13.376  12.596  72.436  1.00  0.00    -0.557 Cl 
HETATM   19  C   UNL     1     -11.996  14.250  69.026  1.00  0.00    -0.360 A  
HETATM   20  C   UNL     1     -12.641  14.096  70.259  1.00  0.00    -0.306 A  
HETATM   21  C   UNL     1     -11.416  11.910  69.024  1.00  0.00    -0.355 A  
ENDBRANCH   7  14
ENDBRANCH   2   4
TORSDOF 2
ENDMDL
MODEL       65
REMARK 921   NORMALIZED FREE ENERGY PREDICTED BY IDOCK:   -5.02 KCAL/MOL
REMARK 922        TOTAL FREE ENERGY PREDICTED BY IDOCK:   -6.20 KCAL/MOL
REMARK 923 INTER-LIGAND FREE ENERGY PREDICTED BY IDOCK:   -5.70 KCAL/MOL
REMARK 924 INTRA-LIGAND FREE ENERGY PREDICTED BY IDOCK:   -0.50 KCAL/MOL
REMARK 927      BINDING AFFINITY PREDICTED BY RF-SCORE:    0.00 PKD
ROOT
HETATM    1  C   UNL     1     -14.269   8.734  72.255  1.00  0.00    -0.420 C  
HETATM    2  N   UNL     1     -13.364   9.129  71.183  1.00  0.00    -0.547 NA 
HETATM    3  H   UNL     1     -13.799   9.828  70.581  1.00  0.00     0.000 HD 
ENDROOT
BRANCH   2   4
HETATM    4  C   UNL     1     -12.053   9.600  71.672  1.00  0.00    -0.402 C  
HETATM    5  C   UNL     1     -11.340   8.409  72.347  1.00  0.00    -0.448 C  
HETATM    6  C   UNL     1      -9.821   8.490  72.315  1.00  0.00    -0.383 C  
HETATM    7  C   UNL     1      -9.273   8.672  70.895  1.00  0.00    -0.234 C  
HETATM    8  C   UNL     1      -9.957   9.830  70.191  1.00  0.00    -0.315 A  
HETATM    9  C   UNL     1     -11.252  10.258  70.545  1.00  0.00    -0.408 A  
HETATM   10  C   UNL     1     -11.791  11.375  69.872  1.00  0.00    -0.435 A  
HETATM   11  C   UNL     1      -9.265  10.482  69.150  1.00  0.00    -0.183 A  
HETATM   12  C   UNL     1      -9.829  11.562  68.482  1.00  0.00    -0.198 A  
HETATM   13  C   UNL     1     -11.092  12.013  68.846  1.00  0.00    -0.298 A  
BRANCH   7  14
HETATM   14  C   UNL     1      -9.220   7.394  70.060  1.00  0.00    -0.148 A  
HETATM   15 CL   UNL     1     -11.045   6.121  66.727  1.00  0.00    -0.346 Cl 
HETATM   16  C   UNL     1      -9.365   4.992  68.580  1.00  0.00    -0.130 A  
HETATM   17  C   UNL     1      -8.578   5.066  69.730  1.00  0.00    -0.100 A  
HETATM   18 CL   UNL     1      -9.467   3.474  67.765  1.00  0.00    -0.246 Cl 
HETATM   19  C   UNL     1      -9.975   7.318  68.876  1.00  0.00    -0.166 A  
HETATM   20  C   UNL     1     -10.053   6.128  68.142  1.00  0.00    -0.157 A  
HETATM   21  C   UNL     1      -8.497   6.259  70.459  1.00  0.00    -0.138 A  
ENDBRANCH   7  14
ENDBRANCH   2   4
TORSDOF 2
ENDMDL
MODEL       66
REMARK 921   NORMALIZED FREE ENERGY PREDICTED BY IDOCK:   -5.01 KCAL/MOL
REMARK 922        TOTAL FREE ENERGY PREDICTED BY IDOCK:   -6.19 KCAL/MOL
REMARK 923 INTER-LIGAND FREE ENERGY PREDICTED BY IDOCK:   -5.47 KCAL/MOL
REMARK 924 INTRA-LIGAND FREE ENERGY PREDICTED BY IDOCK:   -0.72 KCAL/MOL
REMARK 927      BINDING AFFINITY PREDICTED BY RF-SCORE:    0.00 PKD
ROOT
HETATM    1  C   UNL     1     -10.517  13.418  64.367  1.00  0.00    -0.384 C  
HETATM    2  N   UNL     1     -10.911  14.806  64.570  1.00  0.00    -0.628 NA 
HETATM    3  H   UNL     1     -11.750  15.026  64.033  1.00  0.00     0.000 HD 
ENDROOT
BRANCH   2   4
HETATM    4  C   UNL     1     -11.090  15.158  65.992  1.00  0.00    -0.312 C  
HETATM    5  C   UNL     1     -12.167  14.224  66.584  1.00  0.00    -0.411 C  
HETATM    6  C   UNL     1     -12.028  13.976  68.078  1.00  0.00    -0.386 C  
HETATM    7  C   UNL     1     -10.639  13.454  68.459  1.00  0.00    -0.264 C  
HETATM    8  C   UNL     1      -9.546  14.340  67.887  1.00  0.00    -0.221 A  
HETATM    9  C   UNL     1      -9.752  15.127  66.737  1.00  0.00    -0.255 A  
HETATM   10  C   UNL     1      -8.698  15.960  66.304  1.00  0.00    -0.372 A  
HETATM   11  C   UNL     1      -8.295  14.361  68.535  1.00  0.00    -0.157 A  
HETATM   12  C   UNL     1      -7.263  15.168  68.072  1.00  0.00    -0.137 A  
HETATM   13  C   UNL     1      -7.465  15.973  66.959  1.00  0.00    -0.264 A  
BRANCH   7  14
HETATM   14  C   UNL     1     -10.419  11.965  68.194  1.00  0.00    -0.225 A  
HETATM   15 CL   UNL     1     -11.194   8.594  70.220  1.00  0.00    -0.231 Cl 
HETATM   16  C   UNL     1      -9.854   9.212  67.906  1.00  0.00    -0.169 A  
HETATM   17  C   UNL     1      -9.415  10.127  66.947  1.00  0.00    -0.203 A  
HETATM   18 CL   UNL     1      -9.412   7.555  67.706  1.00  0.00    -0.149 Cl 
HETATM   19  C   UNL     1     -10.892  11.027  69.130  1.00  0.00    -0.283 A  
HETATM   20  C   UNL     1     -10.610   9.662  68.993  1.00  0.00    -0.218 A  
HETATM   21  C   UNL     1      -9.704  11.490  67.084  1.00  0.00    -0.199 A  
ENDBRANCH   7  14
ENDBRANCH   2   4
TORSDOF 2
ENDMDL
MODEL       67
REMARK 921   NORMALIZED FREE ENERGY PREDICTED BY IDOCK:   -4.99 KCAL/MOL
REMARK 922        TOTAL FREE ENERGY PREDICTED BY IDOCK:   -6.17 KCAL/MOL
REMARK 923 INTER-LIGAND FREE ENERGY PREDICTED BY IDOCK:   -5.45 KCAL/MOL
REMARK 924 INTRA-LIGAND FREE ENERGY PREDICTED BY IDOCK:   -0.71 KCAL/MOL
REMARK 927      BINDING AFFINITY PREDICTED BY RF-SCORE:    0.00 PKD
ROOT
HETATM    1  C   UNL     1     -13.961   8.912  72.364  1.00  0.00    -0.448 C  
HETATM    2  N   UNL     1     -13.174   9.112  71.154  1.00  0.00    -0.535 NA 
HETATM    3  H   UNL     1     -13.675   9.702  70.489  1.00  0.00     0.000 HD 
ENDROOT
BRANCH   2   4
HETATM    4  C   UNL     1     -11.825   9.648  71.419  1.00  0.00    -0.406 C  
HETATM    5  C   UNL     1     -10.882   8.455  71.688  1.00  0.00    -0.335 C  
HETATM    6  C   UNL     1      -9.426   8.718  71.337  1.00  0.00    -0.330 C  
HETATM    7  C   UNL     1      -9.247   9.190  69.890  1.00  0.00    -0.194 C  
HETATM    8  C   UNL     1     -10.166  10.358  69.579  1.00  0.00    -0.258 A  
HETATM    9  C   UNL     1     -11.367  10.568  70.283  1.00  0.00    -0.407 A  
HETATM   10  C   UNL     1     -12.135  11.708  69.963  1.00  0.00    -0.395 A  
HETATM   11  C   UNL     1      -9.794  11.245  68.549  1.00  0.00    -0.198 A  
HETATM   12  C   UNL     1     -10.582  12.345  68.232  1.00  0.00    -0.236 A  
HETATM   13  C   UNL     1     -11.752  12.581  68.943  1.00  0.00    -0.367 A  
BRANCH   7  14
HETATM   14  C   UNL     1      -9.296   8.078  68.843  1.00  0.00    -0.150 A  
HETATM   15 CL   UNL     1      -6.593   5.594  67.234  1.00  0.00    -0.055 Cl 
HETATM   16  C   UNL     1      -9.235   6.167  66.763  1.00  0.00    -0.135 A  
HETATM   17  C   UNL     1     -10.414   6.853  67.056  1.00  0.00    -0.374 A  
HETATM   18 CL   UNL     1      -9.247   5.067  65.432  1.00  0.00    -0.159 Cl 
HETATM   19  C   UNL     1      -8.126   7.348  68.564  1.00  0.00    -0.125 A  
HETATM   20  C   UNL     1      -8.090   6.404  67.531  1.00  0.00    -0.117 A  
HETATM   21  C   UNL     1     -10.448   7.792  68.094  1.00  0.00    -0.230 A  
ENDBRANCH   7  14
ENDBRANCH   2   4
TORSDOF 2
ENDMDL
MODEL       68
REMARK 921   NORMALIZED FREE ENERGY PREDICTED BY IDOCK:   -4.98 KCAL/MOL
REMARK 922        TOTAL FREE ENERGY PREDICTED BY IDOCK:   -6.16 KCAL/MOL
REMARK 923 INTER-LIGAND FREE ENERGY PREDICTED BY IDOCK:   -5.55 KCAL/MOL
REMARK 924 INTRA-LIGAND FREE ENERGY PREDICTED BY IDOCK:   -0.61 KCAL/MOL
REMARK 927      BINDING AFFINITY PREDICTED BY RF-SCORE:    0.00 PKD
ROOT
HETATM    1  C   UNL     1      -9.328  18.371  68.232  1.00  0.00    -0.326 C  
HETATM    2  N   UNL     1      -9.515  16.986  68.645  1.00  0.00    -0.267 NA 
HETATM    3  H   UNL     1      -9.405  16.892  69.655  1.00  0.00     0.000 HD 
ENDROOT
BRANCH   2   4
HETATM    4  C   UNL     1     -10.801  16.415  68.202  1.00  0.00    -0.346 C  
HETATM    5  C   UNL     1     -10.602  15.834  66.785  1.00  0.00    -0.309 C  
HETATM    6  C   UNL     1     -11.539  14.685  66.444  1.00  0.00    -0.343 C  
HETATM    7  C   UNL     1     -11.475  13.551  67.472  1.00  0.00    -0.361 C  
HETATM    8  C   UNL     1     -11.656  14.081  68.883  1.00  0.00    -0.351 A  
HETATM    9  C   UNL     1     -11.337  15.410  69.226  1.00  0.00    -0.323 A  
HETATM   10  C   UNL     1     -11.585  15.833  70.549  1.00  0.00    -0.396 A  
HETATM   11  C   UNL     1     -12.154  13.205  69.868  1.00  0.00    -0.357 A  
HETATM   12  C   UNL     1     -12.363  13.638  71.172  1.00  0.00    -0.403 A  
HETATM   13  C   UNL     1     -12.083  14.955  71.513  1.00  0.00    -0.406 A  
BRANCH   7  14
HETATM   14  C   UNL     1     -10.277  12.615  67.320  1.00  0.00    -0.227 A  
HETATM   15 CL   UNL     1      -6.661  12.358  69.030  1.00  0.00    -0.095 Cl 
HETATM   16  C   UNL     1      -7.929  11.087  66.954  1.00  0.00    -0.143 A  
HETATM   17  C   UNL     1      -9.043  10.874  66.142  1.00  0.00    -0.201 A  
HETATM   18 CL   UNL     1      -6.503  10.170  66.630  1.00  0.00    -0.070 Cl 
HETATM   19  C   UNL     1      -9.161  12.790  68.160  1.00  0.00    -0.212 A  
HETATM   20  C   UNL     1      -7.994  12.037  67.978  1.00  0.00    -0.149 A  
HETATM   21  C   UNL     1     -10.211  11.623  66.329  1.00  0.00    -0.262 A  
ENDBRANCH   7  14
ENDBRANCH   2   4
TORSDOF 2
ENDMDL
MODEL       69
REMARK 921   NORMALIZED FREE ENERGY PREDICTED BY IDOCK:   -4.97 KCAL/MOL
REMARK 922        TOTAL FREE ENERGY PREDICTED BY IDOCK:   -6.15 KCAL/MOL
REMARK 923 INTER-LIGAND FREE ENERGY PREDICTED BY IDOCK:   -5.57 KCAL/MOL
REMARK 924 INTRA-LIGAND FREE ENERGY PREDICTED BY IDOCK:   -0.57 KCAL/MOL
REMARK 927      BINDING AFFINITY PREDICTED BY RF-SCORE:    0.00 PKD
ROOT
HETATM    1  C   UNL     1     -10.088   4.788  69.410  1.00  0.00    -0.171 C  
HETATM    2  N   UNL     1     -11.121   5.688  69.907  1.00  0.00    -0.254 NA 
HETATM    3  H   UNL     1     -11.931   5.163  70.236  1.00  0.00     0.000 HD 
ENDROOT
BRANCH   2   4
HETATM    4  C   UNL     1     -10.635   6.612  70.951  1.00  0.00    -0.224 C  
HETATM    5  C   UNL     1      -9.264   7.161  70.501  1.00  0.00    -0.158 C  
HETATM    6  C   UNL     1      -8.929   8.537  71.056  1.00  0.00    -0.219 C  
HETATM    7  C   UNL     1     -10.016   9.573  70.750  1.00  0.00    -0.334 C  
HETATM    8  C   UNL     1     -11.386   9.068  71.168  1.00  0.00    -0.375 A  
HETATM    9  C   UNL     1     -11.677   7.693  71.254  1.00  0.00    -0.308 A  
HETATM   10  C   UNL     1     -12.961   7.312  71.701  1.00  0.00    -0.417 A  
HETATM   11  C   UNL     1     -12.384  10.015  71.469  1.00  0.00    -0.513 A  
HETATM   12  C   UNL     1     -13.651   9.615  71.879  1.00  0.00    -0.446 A  
HETATM   13  C   UNL     1     -13.939   8.262  72.000  1.00  0.00    -0.432 A  
BRANCH   7  14
HETATM   14  C   UNL     1      -9.980  10.139  69.331  1.00  0.00    -0.247 A  
HETATM   15 CL   UNL     1      -7.418  12.430  67.270  1.00  0.00    -0.150 Cl 
HETATM   16  C   UNL     1      -9.927  11.419  66.813  1.00  0.00    -0.208 A  
HETATM   17  C   UNL     1     -11.034  10.658  67.195  1.00  0.00    -0.312 A  
HETATM   18 CL   UNL     1      -9.991  12.234  65.292  1.00  0.00    -0.272 Cl 
HETATM   19  C   UNL     1      -8.854  10.873  68.915  1.00  0.00    -0.143 A  
HETATM   20  C   UNL     1      -8.826  11.513  67.670  1.00  0.00    -0.152 A  
HETATM   21  C   UNL     1     -11.056  10.015  68.438  1.00  0.00    -0.236 A  
ENDBRANCH   7  14
ENDBRANCH   2   4
TORSDOF 2
ENDMDL
MODEL       70
REMARK 921   NORMALIZED FREE ENERGY PREDICTED BY IDOCK:   -4.96 KCAL/MOL
REMARK 922        TOTAL FREE ENERGY PREDICTED BY IDOCK:   -6.14 KCAL/MOL
REMARK 923 INTER-LIGAND FREE ENERGY PREDICTED BY IDOCK:   -5.96 KCAL/MOL
REMARK 924 INTRA-LIGAND FREE ENERGY PREDICTED BY IDOCK:   -0.18 KCAL/MOL
REMARK 927      BINDING AFFINITY PREDICTED BY RF-SCORE:    0.00 PKD
ROOT
HETATM    1  C   UNL     1      -8.297   9.092  70.910  1.00  0.00    -0.197 C  
HETATM    2  N   UNL     1      -8.644  10.087  69.904  1.00  0.00    -0.318 NA 
HETATM    3  H   UNL     1      -7.936  10.124  69.171  1.00  0.00     0.000 HD 
ENDROOT
BRANCH   2   4
HETATM    4  C   UNL     1      -9.988   9.888  69.328  1.00  0.00    -0.207 C  
HETATM    5  C   UNL     1     -10.969  10.820  70.070  1.00  0.00    -0.280 C  
HETATM    6  C   UNL     1     -12.175  11.242  69.245  1.00  0.00    -0.290 C  
HETATM    7  C   UNL     1     -11.779  11.881  67.910  1.00  0.00    -0.368 C  
HETATM    8  C   UNL     1     -10.805  10.999  67.150  1.00  0.00    -0.336 A  
HETATM    9  C   UNL     1      -9.966  10.078  67.808  1.00  0.00    -0.203 A  
HETATM   10  C   UNL     1      -9.127   9.261  67.019  1.00  0.00    -0.153 A  
HETATM   11  C   UNL     1     -10.745  11.121  65.748  1.00  0.00    -0.252 A  
HETATM   12  C   UNL     1      -9.889  10.326  64.995  1.00  0.00    -0.397 A  
HETATM   13  C   UNL     1      -9.082   9.392  65.630  1.00  0.00    -0.258 A  
BRANCH   7  14
HETATM   14  C   UNL     1     -11.337  13.340  68.004  1.00  0.00    -0.325 A  
HETATM   15 CL   UNL     1     -11.520  16.167  70.840  1.00  0.00    -0.444 Cl 
HETATM   16  C   UNL     1     -10.768  16.100  68.202  1.00  0.00    -0.315 A  
HETATM   17  C   UNL     1     -10.553  15.419  67.002  1.00  0.00    -0.309 A  
HETATM   18 CL   UNL     1     -10.468  17.800  68.232  1.00  0.00    -0.377 Cl 
HETATM   19  C   UNL     1     -11.509  14.030  69.219  1.00  0.00    -0.344 A  
HETATM   20  C   UNL     1     -11.232  15.399  69.319  1.00  0.00    -0.296 A  
HETATM   21  C   UNL     1     -10.825  14.049  66.907  1.00  0.00    -0.290 A  
ENDBRANCH   7  14
ENDBRANCH   2   4
TORSDOF 2
ENDMDL
MODEL       71
REMARK 921   NORMALIZED FREE ENERGY PREDICTED BY IDOCK:   -4.93 KCAL/MOL
REMARK 922        TOTAL FREE ENERGY PREDICTED BY IDOCK:   -6.10 KCAL/MOL
REMARK 923 INTER-LIGAND FREE ENERGY PREDICTED BY IDOCK:   -5.51 KCAL/MOL
REMARK 924 INTRA-LIGAND FREE ENERGY PREDICTED BY IDOCK:   -0.59 KCAL/MOL
REMARK 927      BINDING AFFINITY PREDICTED BY RF-SCORE:    0.00 PKD
ROOT
HETATM    1  C   UNL     1     -12.023  13.221  63.527  1.00  0.00    -0.474 C  
HETATM    2  N   UNL     1     -11.207  14.210  64.219  1.00  0.00    -0.604 NA 
HETATM    3  H   UNL     1     -11.402  15.149  63.870  1.00  0.00     0.000 HD 
ENDROOT
BRANCH   2   4
HETATM    4  C   UNL     1     -11.346  14.155  65.687  1.00  0.00    -0.319 C  
HETATM    5  C   UNL     1     -12.185  12.909  66.041  1.00  0.00    -0.431 C  
HETATM    6  C   UNL     1     -11.895  12.331  67.417  1.00  0.00    -0.327 C  
HETATM    7  C   UNL     1     -10.409  12.017  67.621  1.00  0.00    -0.213 C  
HETATM    8  C   UNL     1      -9.545  13.217  67.274  1.00  0.00    -0.233 A  
HETATM    9  C   UNL     1      -9.976  14.207  66.370  1.00  0.00    -0.302 A  
HETATM   10  C   UNL     1      -9.130  15.314  66.144  1.00  0.00    -0.314 A  
HETATM   11  C   UNL     1      -8.277  13.324  67.877  1.00  0.00    -0.163 A  
HETATM   12  C   UNL     1      -7.449  14.410  67.617  1.00  0.00    -0.191 A  
HETATM   13  C   UNL     1      -7.877  15.409  66.752  1.00  0.00    -0.105 A  
BRANCH   7  14
HETATM   14  C   UNL     1      -9.934  10.715  66.978  1.00  0.00    -0.243 A  
HETATM   15 CL   UNL     1     -10.754   6.831  67.530  1.00  0.00    -0.344 Cl 
HETATM   16  C   UNL     1      -8.956   8.246  66.014  1.00  0.00    -0.181 A  
HETATM   17  C   UNL     1      -8.410   9.447  65.560  1.00  0.00    -0.139 A  
HETATM   18 CL   UNL     1      -8.263   6.773  65.441  1.00  0.00    -0.133 Cl 
HETATM   19  C   UNL     1     -10.505   9.498  67.394  1.00  0.00    -0.336 A  
HETATM   20  C   UNL     1     -10.019   8.273  66.923  1.00  0.00    -0.273 A  
HETATM   21  C   UNL     1      -8.901  10.672  66.029  1.00  0.00    -0.187 A  
ENDBRANCH   7  14
ENDBRANCH   2   4
TORSDOF 2
ENDMDL
MODEL       72
REMARK 921   NORMALIZED FREE ENERGY PREDICTED BY IDOCK:   -4.92 KCAL/MOL
REMARK 922        TOTAL FREE ENERGY PREDICTED BY IDOCK:   -6.10 KCAL/MOL
REMARK 923 INTER-LIGAND FREE ENERGY PREDICTED BY IDOCK:   -5.98 KCAL/MOL
REMARK 924 INTRA-LIGAND FREE ENERGY PREDICTED BY IDOCK:   -0.11 KCAL/MOL
REMARK 927      BINDING AFFINITY PREDICTED BY RF-SCORE:    0.00 PKD
ROOT
HETATM    1  C   UNL     1     -12.195  12.384  63.998  1.00  0.00    -0.490 C  
HETATM    2  N   UNL     1     -12.103  12.065  65.417  1.00  0.00    -0.421 NA 
HETATM    3  H   UNL     1     -12.440  11.120  65.598  1.00  0.00     0.000 HD 
ENDROOT
BRANCH   2   4
HETATM    4  C   UNL     1     -10.749  12.257  65.970  1.00  0.00    -0.261 C  
HETATM    5  C   UNL     1     -10.871  13.118  67.245  1.00  0.00    -0.270 C  
HETATM    6  C   UNL     1      -9.769  12.882  68.266  1.00  0.00    -0.217 C  
HETATM    7  C   UNL     1      -9.641  11.407  68.661  1.00  0.00    -0.179 C  
HETATM    8  C   UNL     1      -9.528  10.521  67.433  1.00  0.00    -0.172 A  
HETATM    9  C   UNL     1     -10.049  10.911  66.183  1.00  0.00    -0.291 A  
HETATM   10  C   UNL     1      -9.855  10.048  65.083  1.00  0.00    -0.388 A  
HETATM   11  C   UNL     1      -8.887   9.273  67.565  1.00  0.00    -0.123 A  
HETATM   12  C   UNL     1      -8.733   8.427  66.473  1.00  0.00    -0.151 A  
HETATM   13  C   UNL     1      -9.213   8.817  65.229  1.00  0.00    -0.099 A  
BRANCH   7  14
HETATM   14  C   UNL     1     -10.678  10.922  69.672  1.00  0.00    -0.232 A  
HETATM   15 CL   UNL     1     -10.916   7.828  72.209  1.00  0.00    -0.316 Cl 
HETATM   16  C   UNL     1     -12.624   9.816  71.396  1.00  0.00    -0.386 A  
HETATM   17  C   UNL     1     -12.911  10.960  70.649  1.00  0.00    -0.340 A  
HETATM   18 CL   UNL     1     -13.882   9.151  72.374  1.00  0.00    -0.528 Cl 
HETATM   19  C   UNL     1     -10.388   9.794  70.463  1.00  0.00    -0.348 A  
HETATM   20  C   UNL     1     -11.352   9.241  71.315  1.00  0.00    -0.353 A  
HETATM   21  C   UNL     1     -11.944  11.515  69.803  1.00  0.00    -0.415 A  
ENDBRANCH   7  14
ENDBRANCH   2   4
TORSDOF 2
ENDMDL
MODEL       73
REMARK 921   NORMALIZED FREE ENERGY PREDICTED BY IDOCK:   -4.91 KCAL/MOL
REMARK 922        TOTAL FREE ENERGY PREDICTED BY IDOCK:   -6.08 KCAL/MOL
REMARK 923 INTER-LIGAND FREE ENERGY PREDICTED BY IDOCK:   -5.71 KCAL/MOL
REMARK 924 INTRA-LIGAND FREE ENERGY PREDICTED BY IDOCK:   -0.36 KCAL/MOL
REMARK 927      BINDING AFFINITY PREDICTED BY RF-SCORE:    0.00 PKD
ROOT
HETATM    1  C   UNL     1     -10.367   5.100  66.325  1.00  0.00    -0.268 C  
HETATM    2  N   UNL     1     -10.688   6.468  66.715  1.00  0.00    -0.489 NA 
HETATM    3  H   UNL     1     -11.649   6.532  67.051  1.00  0.00     0.000 HD 
ENDROOT
BRANCH   2   4
HETATM    4  C   UNL     1      -9.746   7.028  67.703  1.00  0.00    -0.136 C  
HETATM    5  C   UNL     1      -8.860   8.066  66.982  1.00  0.00    -0.143 C  
HETATM    6  C   UNL     1      -8.326   9.167  67.885  1.00  0.00    -0.117 C  
HETATM    7  C   UNL     1      -9.440   9.893  68.647  1.00  0.00    -0.153 C  
HETATM    8  C   UNL     1     -10.344   8.906  69.364  1.00  0.00    -0.217 A  
HETATM    9  C   UNL     1     -10.493   7.576  68.922  1.00  0.00    -0.214 A  
HETATM   10  C   UNL     1     -11.314   6.712  69.679  1.00  0.00    -0.387 A  
HETATM   11  C   UNL     1     -11.051   9.349  70.499  1.00  0.00    -0.330 A  
HETATM   12  C   UNL     1     -11.877   8.487  71.211  1.00  0.00    -0.335 A  
HETATM   13  C   UNL     1     -12.005   7.166  70.803  1.00  0.00    -0.352 A  
BRANCH   7  14
HETATM   14  C   UNL     1     -10.201  10.936  67.830  1.00  0.00    -0.209 A  
HETATM   15 CL   UNL     1     -11.849  14.499  68.635  1.00  0.00    -0.362 Cl 
HETATM   16  C   UNL     1     -11.809  12.817  66.467  1.00  0.00    -0.405 A  
HETATM   17  C   UNL     1     -11.397  11.646  65.829  1.00  0.00    -0.244 A  
HETATM   18 CL   UNL     1     -12.850  13.888  65.602  1.00  0.00    -0.538 Cl 
HETATM   19  C   UNL     1     -10.587  12.140  68.447  1.00  0.00    -0.243 A  
HETATM   20  C   UNL     1     -11.388  13.072  67.776  1.00  0.00    -0.292 A  
HETATM   21  C   UNL     1     -10.592  10.718  66.500  1.00  0.00    -0.279 A  
ENDBRANCH   7  14
ENDBRANCH   2   4
TORSDOF 2
ENDMDL
MODEL       74
REMARK 921   NORMALIZED FREE ENERGY PREDICTED BY IDOCK:   -4.89 KCAL/MOL
REMARK 922        TOTAL FREE ENERGY PREDICTED BY IDOCK:   -6.06 KCAL/MOL
REMARK 923 INTER-LIGAND FREE ENERGY PREDICTED BY IDOCK:   -5.49 KCAL/MOL
REMARK 924 INTRA-LIGAND FREE ENERGY PREDICTED BY IDOCK:   -0.58 KCAL/MOL
REMARK 927      BINDING AFFINITY PREDICTED BY RF-SCORE:    0.00 PKD
ROOT
HETATM    1  C   UNL     1     -12.164  15.185  72.592  1.00  0.00    -0.384 C  
HETATM    2  N   UNL     1     -11.389  14.535  71.543  1.00  0.00    -0.371 NA 
HETATM    3  H   UNL     1     -11.096  13.602  71.834  1.00  0.00     0.000 HD 
ENDROOT
BRANCH   2   4
HETATM    4  C   UNL     1     -12.092  14.485  70.247  1.00  0.00    -0.323 C  
HETATM    5  C   UNL     1     -11.819  15.810  69.504  1.00  0.00    -0.359 C  
HETATM    6  C   UNL     1     -11.878  15.701  67.988  1.00  0.00    -0.032 C  
HETATM    7  C   UNL     1     -10.948  14.612  67.442  1.00  0.00    -0.309 C  
HETATM    8  C   UNL     1     -11.177  13.291  68.154  1.00  0.00    -0.302 A  
HETATM    9  C   UNL     1     -11.701  13.230  69.460  1.00  0.00    -0.384 A  
HETATM   10  C   UNL     1     -11.929  11.957  70.026  1.00  0.00    -0.409 A  
HETATM   11  C   UNL     1     -10.845  12.101  67.477  1.00  0.00    -0.283 A  
HETATM   12  C   UNL     1     -11.051  10.859  68.067  1.00  0.00    -0.351 A  
HETATM   13  C   UNL     1     -11.599  10.787  69.341  1.00  0.00    -0.380 A  
BRANCH   7  14
HETATM   14  C   UNL     1      -9.476  15.012  67.353  1.00  0.00    -0.202 A  
HETATM   15 CL   UNL     1      -6.182  14.141  69.462  1.00  0.00    -0.112 Cl 
HETATM   16  C   UNL     1      -6.784  15.866  67.415  1.00  0.00    -0.194 A  
HETATM   17  C   UNL     1      -7.676  16.409  66.488  1.00  0.00    -0.295 A  
HETATM   18 CL   UNL     1      -5.173  16.485  67.447  1.00  0.00    -0.157 Cl 
HETATM   19  C   UNL     1      -8.557  14.442  68.252  1.00  0.00    -0.170 A  
HETATM   20  C   UNL     1      -7.223  14.867  68.289  1.00  0.00    -0.113 A  
HETATM   21  C   UNL     1      -9.007  15.979  66.450  1.00  0.00    -0.354 A  
ENDBRANCH   7  14
ENDBRANCH   2   4
TORSDOF 2
ENDMDL
MODEL       75
REMARK 921   NORMALIZED FREE ENERGY PREDICTED BY IDOCK:   -4.89 KCAL/MOL
REMARK 922        TOTAL FREE ENERGY PREDICTED BY IDOCK:   -6.05 KCAL/MOL
REMARK 923 INTER-LIGAND FREE ENERGY PREDICTED BY IDOCK:   -5.35 KCAL/MOL
REMARK 924 INTRA-LIGAND FREE ENERGY PREDICTED BY IDOCK:   -0.70 KCAL/MOL
REMARK 927      BINDING AFFINITY PREDICTED BY RF-SCORE:    0.00 PKD
ROOT
HETATM    1  C   UNL     1      -7.693   7.657  67.953  1.00  0.00    -0.115 C  
HETATM    2  N   UNL     1      -8.932   8.288  68.388  1.00  0.00    -0.137 NA 
HETATM    3  H   UNL     1      -9.498   7.638  68.934  1.00  0.00     0.000 HD 
ENDROOT
BRANCH   2   4
HETATM    4  C   UNL     1      -8.716   9.546  69.128  1.00  0.00    -0.146 C  
HETATM    5  C   UNL     1      -7.910  10.501  68.222  1.00  0.00    -0.111 C  
HETATM    6  C   UNL     1      -8.148  11.977  68.501  1.00  0.00    -0.123 C  
HETATM    7  C   UNL     1      -9.632  12.354  68.443  1.00  0.00    -0.180 C  
HETATM    8  C   UNL     1     -10.464  11.430  69.315  1.00  0.00    -0.104 A  
HETATM    9  C   UNL     1     -10.044  10.123  69.628  1.00  0.00    -0.265 A  
HETATM   10  C   UNL     1     -10.855   9.351  70.488  1.00  0.00    -0.336 A  
HETATM   11  C   UNL     1     -11.692  11.908  69.813  1.00  0.00    -0.403 A  
HETATM   12  C   UNL     1     -12.489  11.119  70.634  1.00  0.00    -0.448 A  
HETATM   13  C   UNL     1     -12.068   9.840  70.976  1.00  0.00    -0.434 A  
BRANCH   7  14
HETATM   14  C   UNL     1     -10.193  12.533  67.033  1.00  0.00    -0.231 A  
HETATM   15 CL   UNL     1     -11.085  15.690  64.732  1.00  0.00    -0.454 Cl 
HETATM   16  C   UNL     1     -11.433  12.976  64.534  1.00  0.00    -0.347 A  
HETATM   17  C   UNL     1     -11.278  11.678  65.025  1.00  0.00    -0.275 A  
HETATM   18 CL   UNL     1     -12.265  13.180  63.035  1.00  0.00    -0.316 Cl 
HETATM   19  C   UNL     1     -10.318  13.832  66.507  1.00  0.00    -0.286 A  
HETATM   20  C   UNL     1     -10.936  14.056  65.271  1.00  0.00    -0.334 A  
HETATM   21  C   UNL     1     -10.653  11.458  66.259  1.00  0.00    -0.312 A  
ENDBRANCH   7  14
ENDBRANCH   2   4
TORSDOF 2
ENDMDL
MODEL       76
REMARK 921   NORMALIZED FREE ENERGY PREDICTED BY IDOCK:   -4.87 KCAL/MOL
REMARK 922        TOTAL FREE ENERGY PREDICTED BY IDOCK:   -6.04 KCAL/MOL
REMARK 923 INTER-LIGAND FREE ENERGY PREDICTED BY IDOCK:   -5.69 KCAL/MOL
REMARK 924 INTRA-LIGAND FREE ENERGY PREDICTED BY IDOCK:   -0.35 KCAL/MOL
REMARK 927      BINDING AFFINITY PREDICTED BY RF-SCORE:    0.00 PKD
ROOT
HETATM    1  C   UNL     1     -10.113   5.699  74.559  1.00  0.00    -0.280 C  
HETATM    2  N   UNL     1     -10.451   6.893  73.795  1.00  0.00    -0.393 NA 
HETATM    3  H   UNL     1      -9.903   7.693  74.112  1.00  0.00     0.000 HD 
ENDROOT
BRANCH   2   4
HETATM    4  C   UNL     1     -10.316   6.707  72.337  1.00  0.00    -0.195 C  
HETATM    5  C   UNL     1     -11.720   6.836  71.708  1.00  0.00    -0.353 C  
HETATM    6  C   UNL     1     -11.717   7.321  70.266  1.00  0.00    -0.164 C  
HETATM    7  C   UNL     1     -10.960   8.642  70.093  1.00  0.00    -0.234 C  
HETATM    8  C   UNL     1      -9.574   8.562  70.709  1.00  0.00    -0.217 A  
HETATM    9  C   UNL     1      -9.275   7.670  71.756  1.00  0.00    -0.167 A  
HETATM   10  C   UNL     1      -7.948   7.626  72.234  1.00  0.00    -0.123 A  
HETATM   11  C   UNL     1      -8.571   9.417  70.210  1.00  0.00    -0.249 A  
HETATM   12  C   UNL     1      -7.277   9.376  70.717  1.00  0.00    -0.123 A  
HETATM   13  C   UNL     1      -6.964   8.476  71.727  1.00  0.00    -0.099 A  
BRANCH   7  14
HETATM   14  C   UNL     1     -11.742   9.888  70.507  1.00  0.00    -0.373 A  
HETATM   15 CL   UNL     1     -11.948  13.663  69.177  1.00  0.00    -0.387 Cl 
HETATM   16  C   UNL     1     -12.964  12.298  71.330  1.00  0.00    -0.256 A  
HETATM   17  C   UNL     1     -13.139  11.128  72.072  1.00  0.00    -0.433 A  
HETATM   18 CL   UNL     1     -13.678  13.751  71.929  1.00  0.00    -0.497 Cl 
HETATM   19  C   UNL     1     -11.609  11.064  69.746  1.00  0.00    -0.401 A  
HETATM   20  C   UNL     1     -12.209  12.261  70.154  1.00  0.00    -0.226 A  
HETATM   21  C   UNL     1     -12.543   9.931  71.659  1.00  0.00    -0.519 A  
ENDBRANCH   7  14
ENDBRANCH   2   4
TORSDOF 2
ENDMDL
MODEL       77
REMARK 921   NORMALIZED FREE ENERGY PREDICTED BY IDOCK:   -4.84 KCAL/MOL
REMARK 922        TOTAL FREE ENERGY PREDICTED BY IDOCK:   -6.00 KCAL/MOL
REMARK 923 INTER-LIGAND FREE ENERGY PREDICTED BY IDOCK:   -5.85 KCAL/MOL
REMARK 924 INTRA-LIGAND FREE ENERGY PREDICTED BY IDOCK:   -0.15 KCAL/MOL
REMARK 927      BINDING AFFINITY PREDICTED BY RF-SCORE:    0.00 PKD
ROOT
HETATM    1  C   UNL     1     -10.071  17.713  68.587  1.00  0.00    -0.377 C  
HETATM    2  N   UNL     1     -10.141  16.376  69.163  1.00  0.00    -0.264 NA 
HETATM    3  H   UNL     1     -10.089  16.417  70.181  1.00  0.00     0.000 HD 
ENDROOT
BRANCH   2   4
HETATM    4  C   UNL     1     -11.328  15.616  68.727  1.00  0.00    -0.349 C  
HETATM    5  C   UNL     1     -10.917  14.736  67.526  1.00  0.00    -0.304 C  
HETATM    6  C   UNL     1     -11.742  13.468  67.369  1.00  0.00    -0.419 C  
HETATM    7  C   UNL     1     -11.756  12.615  68.643  1.00  0.00    -0.364 C  
HETATM    8  C   UNL     1     -12.146  13.446  69.852  1.00  0.00    -0.389 A  
HETATM    9  C   UNL     1     -11.941  14.839  69.896  1.00  0.00    -0.378 A  
HETATM   10  C   UNL     1     -12.381  15.540  71.039  1.00  0.00    -0.471 A  
HETATM   11  C   UNL     1     -12.724  12.789  70.956  1.00  0.00    -0.331 A  
HETATM   12  C   UNL     1     -13.122  13.497  72.084  1.00  0.00    -0.487 A  
HETATM   13  C   UNL     1     -12.955  14.875  72.124  1.00  0.00    -0.415 A  
BRANCH   7  14
HETATM   14  C   UNL     1     -10.503  11.769  68.860  1.00  0.00    -0.182 A  
HETATM   15 CL   UNL     1      -6.819  11.723  67.284  1.00  0.00    -0.122 Cl 
HETATM   16  C   UNL     1      -8.213  10.123  69.023  1.00  0.00    -0.132 A  
HETATM   17  C   UNL     1      -9.356   9.817  69.763  1.00  0.00    -0.249 A  
HETATM   18 CL   UNL     1      -6.875   9.035  69.111  1.00  0.00    -0.054 Cl 
HETATM   19  C   UNL     1      -9.330  12.089  68.153  1.00  0.00    -0.199 A  
HETATM   20  C   UNL     1      -8.194  11.273  68.227  1.00  0.00    -0.143 A  
HETATM   21  C   UNL     1     -10.488  10.638  69.691  1.00  0.00    -0.219 A  
ENDBRANCH   7  14
ENDBRANCH   2   4
TORSDOF 2
ENDMDL
MODEL       78
REMARK 921   NORMALIZED FREE ENERGY PREDICTED BY IDOCK:   -4.83 KCAL/MOL
REMARK 922        TOTAL FREE ENERGY PREDICTED BY IDOCK:   -5.99 KCAL/MOL
REMARK 923 INTER-LIGAND FREE ENERGY PREDICTED BY IDOCK:   -5.59 KCAL/MOL
REMARK 924 INTRA-LIGAND FREE ENERGY PREDICTED BY IDOCK:   -0.40 KCAL/MOL
REMARK 927      BINDING AFFINITY PREDICTED BY RF-SCORE:    0.00 PKD
ROOT
HETATM    1  C   UNL     1      -6.355  12.996  69.038  1.00  0.00    -0.099 C  
HETATM    2  N   UNL     1      -7.456  13.649  68.340  1.00  0.00    -0.115 NA 
HETATM    3  H   UNL     1      -7.178  14.573  68.011  1.00  0.00     0.000 HD 
ENDROOT
BRANCH   2   4
HETATM    4  C   UNL     1      -8.005  12.840  67.234  1.00  0.00    -0.156 C  
HETATM    5  C   UNL     1      -7.894  11.352  67.630  1.00  0.00    -0.122 C  
HETATM    6  C   UNL     1      -8.939  10.455  66.985  1.00  0.00    -0.150 C  
HETATM    7  C   UNL     1     -10.369  10.942  67.240  1.00  0.00    -0.255 C  
HETATM    8  C   UNL     1     -10.520  12.408  66.873  1.00  0.00    -0.243 A  
HETATM    9  C   UNL     1      -9.424  13.293  66.877  1.00  0.00    -0.249 A  
HETATM   10  C   UNL     1      -9.645  14.627  66.472  1.00  0.00    -0.308 A  
HETATM   11  C   UNL     1     -11.800  12.882  66.525  1.00  0.00    -0.473 A  
HETATM   12  C   UNL     1     -11.999  14.208  66.158  1.00  0.00    -0.437 A  
HETATM   13  C   UNL     1     -10.919  15.081  66.127  1.00  0.00    -0.334 A  
BRANCH   7  14
HETATM   14  C   UNL     1     -10.928  10.597  68.619  1.00  0.00    -0.291 A  
HETATM   15 CL   UNL     1     -10.858   7.344  70.959  1.00  0.00    -0.247 Cl 
HETATM   16  C   UNL     1     -12.109   9.785  71.054  1.00  0.00    -0.346 A  
HETATM   17  C   UNL     1     -12.365  11.054  70.534  1.00  0.00    -0.462 A  
HETATM   18 CL   UNL     1     -12.920   9.326  72.507  1.00  0.00    -0.439 Cl 
HETATM   19  C   UNL     1     -10.644   9.337  69.176  1.00  0.00    -0.228 A  
HETATM   20  C   UNL     1     -11.231   8.929  70.380  1.00  0.00    -0.230 A  
HETATM   21  C   UNL     1     -11.772  11.462  69.333  1.00  0.00    -0.406 A  
ENDBRANCH   7  14
ENDBRANCH   2   4
TORSDOF 2
ENDMDL
MODEL       79
REMARK 921   NORMALIZED FREE ENERGY PREDICTED BY IDOCK:   -4.81 KCAL/MOL
REMARK 922        TOTAL FREE ENERGY PREDICTED BY IDOCK:   -5.97 KCAL/MOL
REMARK 923 INTER-LIGAND FREE ENERGY PREDICTED BY IDOCK:   -5.33 KCAL/MOL
REMARK 924 INTRA-LIGAND FREE ENERGY PREDICTED BY IDOCK:   -0.64 KCAL/MOL
REMARK 927      BINDING AFFINITY PREDICTED BY RF-SCORE:    0.00 PKD
ROOT
HETATM    1  C   UNL     1     -10.864   7.223  67.175  1.00  0.00    -0.308 C  
HETATM    2  N   UNL     1      -9.898   7.703  66.196  1.00  0.00    -0.451 NA 
HETATM    3  H   UNL     1     -10.302   7.705  65.259  1.00  0.00     0.000 HD 
ENDROOT
BRANCH   2   4
HETATM    4  C   UNL     1      -9.340   9.028  66.529  1.00  0.00    -0.191 C  
HETATM    5  C   UNL     1     -10.517  10.011  66.705  1.00  0.00    -0.267 C  
HETATM    6  C   UNL     1     -10.227  11.171  67.645  1.00  0.00    -0.208 C  
HETATM    7  C   UNL     1      -9.745  10.704  69.023  1.00  0.00    -0.214 C  
HETATM    8  C   UNL     1      -8.591   9.725  68.895  1.00  0.00    -0.134 A  
HETATM    9  C   UNL     1      -8.406   8.940  67.740  1.00  0.00    -0.110 A  
HETATM   10  C   UNL     1      -7.278   8.094  67.686  1.00  0.00    -0.092 A  
HETATM   11  C   UNL     1      -7.693   9.606  69.973  1.00  0.00    -0.162 A  
HETATM   12  C   UNL     1      -6.605   8.744  69.908  1.00  0.00    -0.041 A  
HETATM   13  C   UNL     1      -6.394   7.990  68.761  1.00  0.00    -0.044 A  
BRANCH   7  14
HETATM   14  C   UNL     1     -10.852  10.225  69.960  1.00  0.00    -0.364 A  
HETATM   15 CL   UNL     1     -12.102   6.644  71.255  1.00  0.00    -0.409 Cl 
HETATM   16  C   UNL     1     -13.005   9.225  71.492  1.00  0.00    -0.359 A  
HETATM   17  C   UNL     1     -12.886  10.595  71.252  1.00  0.00    -0.535 A  
HETATM   18 CL   UNL     1     -14.384   8.674  72.373  1.00  0.00    -0.494 Cl 
HETATM   19  C   UNL     1     -10.961   8.852  70.245  1.00  0.00    -0.266 A  
HETATM   20  C   UNL     1     -12.029   8.352  71.000  1.00  0.00    -0.231 A  
HETATM   21  C   UNL     1     -11.813  11.092  70.503  1.00  0.00    -0.448 A  
ENDBRANCH   7  14
ENDBRANCH   2   4
TORSDOF 2
ENDMDL
MODEL       80
REMARK 921   NORMALIZED FREE ENERGY PREDICTED BY IDOCK:   -4.79 KCAL/MOL
REMARK 922        TOTAL FREE ENERGY PREDICTED BY IDOCK:   -5.95 KCAL/MOL
REMARK 923 INTER-LIGAND FREE ENERGY PREDICTED BY IDOCK:   -5.59 KCAL/MOL
REMARK 924 INTRA-LIGAND FREE ENERGY PREDICTED BY IDOCK:   -0.36 KCAL/MOL
REMARK 927      BINDING AFFINITY PREDICTED BY RF-SCORE:    0.00 PKD
ROOT
HETATM    1  C   UNL     1      -5.937   9.301  71.354  1.00  0.00    -0.075 C  
HETATM    2  N   UNL     1      -7.276   9.797  71.064  1.00  0.00    -0.324 NA 
HETATM    3  H   UNL     1      -7.250  10.504  70.330  1.00  0.00     0.000 HD 
ENDROOT
BRANCH   2   4
HETATM    4  C   UNL     1      -8.232   8.725  70.727  1.00  0.00    -0.156 C  
HETATM    5  C   UNL     1      -9.330   8.705  71.812  1.00  0.00    -0.343 C  
HETATM    6  C   UNL     1     -10.673   8.177  71.333  1.00  0.00    -0.280 C  
HETATM    7  C   UNL     1     -11.192   8.925  70.101  1.00  0.00    -0.175 C  
HETATM    8  C   UNL     1     -10.138   8.978  69.010  1.00  0.00    -0.204 A  
HETATM    9  C   UNL     1      -8.762   8.892  69.299  1.00  0.00    -0.138 A  
HETATM   10  C   UNL     1      -7.854   8.898  68.219  1.00  0.00    -0.101 A  
HETATM   11  C   UNL     1     -10.564   9.122  67.675  1.00  0.00    -0.307 A  
HETATM   12  C   UNL     1      -9.648   9.154  66.629  1.00  0.00    -0.263 A  
HETATM   13  C   UNL     1      -8.291   9.037  66.901  1.00  0.00    -0.119 A  
BRANCH   7  14
HETATM   14  C   UNL     1     -11.833  10.280  70.397  1.00  0.00    -0.396 A  
HETATM   15 CL   UNL     1     -11.614  13.928  68.751  1.00  0.00    -0.345 Cl 
HETATM   16  C   UNL     1     -12.784  12.872  70.997  1.00  0.00    -0.251 A  
HETATM   17  C   UNL     1     -13.091  11.797  71.832  1.00  0.00    -0.482 A  
HETATM   18 CL   UNL     1     -13.335  14.441  71.461  1.00  0.00    -0.407 Cl 
HETATM   19  C   UNL     1     -11.567  11.365  69.541  1.00  0.00    -0.399 A  
HETATM   20  C   UNL     1     -12.033  12.652  69.838  1.00  0.00    -0.295 A  
HETATM   21  C   UNL     1     -12.629  10.510  71.530  1.00  0.00    -0.529 A  
ENDBRANCH   7  14
ENDBRANCH   2   4
TORSDOF 2
ENDMDL
MODEL       81
REMARK 921   NORMALIZED FREE ENERGY PREDICTED BY IDOCK:   -4.79 KCAL/MOL
REMARK 922        TOTAL FREE ENERGY PREDICTED BY IDOCK:   -5.94 KCAL/MOL
REMARK 923 INTER-LIGAND FREE ENERGY PREDICTED BY IDOCK:   -5.17 KCAL/MOL
REMARK 924 INTRA-LIGAND FREE ENERGY PREDICTED BY IDOCK:   -0.77 KCAL/MOL
REMARK 927      BINDING AFFINITY PREDICTED BY RF-SCORE:    0.00 PKD
ROOT
HETATM    1  C   UNL     1      -6.531  16.078  69.775  1.00  0.00    -0.164 C  
HETATM    2  N   UNL     1      -6.480  17.528  69.638  1.00  0.00    -0.202 NA 
HETATM    3  H   UNL     1      -5.596  17.894  69.990  1.00  0.00     0.000 HD 
ENDROOT
BRANCH   2   4
HETATM    4  C   UNL     1      -6.728  17.991  68.259  1.00  0.00    -0.207 C  
HETATM    5  C   UNL     1      -6.331  16.853  67.294  1.00  0.00    -0.203 C  
HETATM    6  C   UNL     1      -7.085  16.861  65.974  1.00  0.00     0.115 C  
HETATM    7  C   UNL     1      -8.605  16.856  66.166  1.00  0.00    -0.277 C  
HETATM    8  C   UNL     1      -9.039  17.955  67.118  1.00  0.00    -0.251 A  
HETATM    9  C   UNL     1      -8.171  18.479  68.096  1.00  0.00    -0.315 A  
HETATM   10  C   UNL     1      -8.641  19.536  68.906  1.00  0.00    -0.292 A  
HETATM   11  C   UNL     1     -10.354  18.452  67.011  1.00  0.00    -0.419 A  
HETATM   12  C   UNL     1     -10.803  19.474  67.840  1.00  0.00    -0.304 A  
HETATM   13  C   UNL     1      -9.945  20.020  68.785  1.00  0.00    -0.390 A  
BRANCH   7  14
HETATM   14  C   UNL     1      -9.204  15.489  66.496  1.00  0.00    -0.324 A  
HETATM   15 CL   UNL     1     -11.150  12.679  64.403  1.00  0.00    -0.357 Cl 
HETATM   16  C   UNL     1     -10.540  13.062  67.051  1.00  0.00    -0.257 A  
HETATM   17  C   UNL     1      -9.941  13.790  68.081  1.00  0.00    -0.242 A  
HETATM   18 CL   UNL     1     -11.402  11.626  67.469  1.00  0.00    -0.352 Cl 
HETATM   19  C   UNL     1      -9.774  14.724  65.462  1.00  0.00    -0.261 A  
HETATM   20  C   UNL     1     -10.441  13.523  65.734  1.00  0.00    -0.291 A  
HETATM   21  C   UNL     1      -9.270  14.987  67.805  1.00  0.00    -0.181 A  
ENDBRANCH   7  14
ENDBRANCH   2   4
TORSDOF 2
ENDMDL
MODEL       82
REMARK 921   NORMALIZED FREE ENERGY PREDICTED BY IDOCK:   -4.78 KCAL/MOL
REMARK 922        TOTAL FREE ENERGY PREDICTED BY IDOCK:   -5.93 KCAL/MOL
REMARK 923 INTER-LIGAND FREE ENERGY PREDICTED BY IDOCK:   -5.40 KCAL/MOL
REMARK 924 INTRA-LIGAND FREE ENERGY PREDICTED BY IDOCK:   -0.53 KCAL/MOL
REMARK 927      BINDING AFFINITY PREDICTED BY RF-SCORE:    0.00 PKD
ROOT
HETATM    1  C   UNL     1     -11.589   6.374  69.939  1.00  0.00    -0.353 C  
HETATM    2  N   UNL     1     -11.261   7.649  69.313  1.00  0.00    -0.433 NA 
HETATM    3  H   UNL     1     -11.178   8.386  70.013  1.00  0.00     0.000 HD 
ENDROOT
BRANCH   2   4
HETATM    4  C   UNL     1     -10.052   7.588  68.468  1.00  0.00    -0.184 C  
HETATM    5  C   UNL     1     -10.491   7.742  66.996  1.00  0.00    -0.419 C  
HETATM    6  C   UNL     1      -9.430   8.345  66.089  1.00  0.00    -0.263 C  
HETATM    7  C   UNL     1      -8.909   9.690  66.607  1.00  0.00    -0.153 C  
HETATM    8  C   UNL     1      -8.476   9.585  68.058  1.00  0.00    -0.119 A  
HETATM    9  C   UNL     1      -9.011   8.614  68.927  1.00  0.00    -0.142 A  
HETATM   10  C   UNL     1      -8.514   8.555  70.246  1.00  0.00    -0.128 A  
HETATM   11  C   UNL     1      -7.513  10.496  68.536  1.00  0.00    -0.091 A  
HETATM   12  C   UNL     1      -7.060  10.437  69.849  1.00  0.00    -0.160 A  
HETATM   13  C   UNL     1      -7.557   9.462  70.704  1.00  0.00    -0.163 A  
BRANCH   7  14
HETATM   14  C   UNL     1      -9.822  10.882  66.326  1.00  0.00    -0.261 A  
HETATM   15 CL   UNL     1     -12.019  13.350  68.594  1.00  0.00    -0.386 Cl 
HETATM   16  C   UNL     1     -11.704  12.945  65.898  1.00  0.00    -0.399 A  
HETATM   17  C   UNL     1     -11.109  12.297  64.815  1.00  0.00    -0.356 A  
HETATM   18 CL   UNL     1     -12.899  14.146  65.566  1.00  0.00    -0.498 Cl 
HETATM   19  C   UNL     1     -10.397  11.574  67.408  1.00  0.00    -0.235 A  
HETATM   20  C   UNL     1     -11.334  12.593  67.200  1.00  0.00    -0.319 A  
HETATM   21  C   UNL     1     -10.169  11.281  65.026  1.00  0.00    -0.339 A  
ENDBRANCH   7  14
ENDBRANCH   2   4
TORSDOF 2
ENDMDL
MODEL       83
REMARK 921   NORMALIZED FREE ENERGY PREDICTED BY IDOCK:   -4.77 KCAL/MOL
REMARK 922        TOTAL FREE ENERGY PREDICTED BY IDOCK:   -5.92 KCAL/MOL
REMARK 923 INTER-LIGAND FREE ENERGY PREDICTED BY IDOCK:   -5.57 KCAL/MOL
REMARK 924 INTRA-LIGAND FREE ENERGY PREDICTED BY IDOCK:   -0.35 KCAL/MOL
REMARK 927      BINDING AFFINITY PREDICTED BY RF-SCORE:    0.00 PKD
ROOT
HETATM    1  C   UNL     1     -12.862  13.860  65.094  1.00  0.00    -0.342 C  
HETATM    2  N   UNL     1     -12.260  12.645  65.627  1.00  0.00    -0.590 NA 
HETATM    3  H   UNL     1     -12.458  11.847  65.023  1.00  0.00     0.000 HD 
ENDROOT
BRANCH   2   4
HETATM    4  C   UNL     1     -10.810  12.773  65.870  1.00  0.00    -0.269 C  
HETATM    5  C   UNL     1     -10.571  12.676  67.392  1.00  0.00    -0.240 C  
HETATM    6  C   UNL     1      -9.200  12.140  67.776  1.00  0.00    -0.189 C  
HETATM    7  C   UNL     1      -8.897  10.785  67.127  1.00  0.00    -0.135 C  
HETATM    8  C   UNL     1      -9.129  10.833  65.628  1.00  0.00    -0.215 A  
HETATM    9  C   UNL     1     -10.023  11.751  65.043  1.00  0.00    -0.287 A  
HETATM   10  C   UNL     1     -10.140  11.761  63.636  1.00  0.00    -0.445 A  
HETATM   11  C   UNL     1      -8.427   9.924  64.813  1.00  0.00    -0.179 A  
HETATM   12  C   UNL     1      -8.581   9.933  63.432  1.00  0.00    -0.206 A  
HETATM   13  C   UNL     1      -9.435  10.856  62.841  1.00  0.00    -0.377 A  
BRANCH   7  14
HETATM   14  C   UNL     1      -9.553   9.587  67.810  1.00  0.00    -0.156 A  
HETATM   15 CL   UNL     1     -10.320   8.574  71.611  1.00  0.00    -0.307 Cl 
HETATM   16  C   UNL     1     -10.541   7.322  69.180  1.00  0.00    -0.208 A  
HETATM   17  C   UNL     1     -10.425   7.310  67.789  1.00  0.00    -0.292 A  
HETATM   18 CL   UNL     1     -11.082   5.879  69.959  1.00  0.00    -0.435 Cl 
HETATM   19  C   UNL     1      -9.716   9.600  69.208  1.00  0.00    -0.191 A  
HETATM   20  C   UNL     1     -10.201   8.477  69.890  1.00  0.00    -0.204 A  
HETATM   21  C   UNL     1      -9.945   8.436  67.108  1.00  0.00    -0.304 A  
ENDBRANCH   7  14
ENDBRANCH   2   4
TORSDOF 2
ENDMDL
MODEL       84
REMARK 921   NORMALIZED FREE ENERGY PREDICTED BY IDOCK:   -4.76 KCAL/MOL
REMARK 922        TOTAL FREE ENERGY PREDICTED BY IDOCK:   -5.91 KCAL/MOL
REMARK 923 INTER-LIGAND FREE ENERGY PREDICTED BY IDOCK:   -5.09 KCAL/MOL
REMARK 924 INTRA-LIGAND FREE ENERGY PREDICTED BY IDOCK:   -0.82 KCAL/MOL
REMARK 927      BINDING AFFINITY PREDICTED BY RF-SCORE:    0.00 PKD
ROOT
HETATM    1  C   UNL     1     -12.163  14.714  69.945  1.00  0.00    -0.316 C  
HETATM    2  N   UNL     1     -12.276  13.302  69.602  1.00  0.00    -0.248 NA 
HETATM    3  H   UNL     1     -13.214  12.955  69.802  1.00  0.00     0.000 HD 
ENDROOT
BRANCH   2   4
HETATM    4  C   UNL     1     -11.895  13.010  68.206  1.00  0.00    -0.343 C  
HETATM    5  C   UNL     1     -12.018  14.317  67.394  1.00  0.00    -0.426 C  
HETATM    6  C   UNL     1     -11.095  14.393  66.188  1.00  0.00    -0.330 C  
HETATM    7  C   UNL     1      -9.626  14.162  66.559  1.00  0.00    -0.310 C  
HETATM    8  C   UNL     1      -9.461  12.889  67.370  1.00  0.00    -0.198 A  
HETATM    9  C   UNL     1     -10.512  12.356  68.141  1.00  0.00    -0.228 A  
HETATM   10  C   UNL     1     -10.286  11.141  68.823  1.00  0.00    -0.222 A  
HETATM   11  C   UNL     1      -8.212  12.237  67.342  1.00  0.00    -0.178 A  
HETATM   12  C   UNL     1      -8.005  11.056  68.046  1.00  0.00    -0.115 A  
HETATM   13  C   UNL     1      -9.045  10.504  68.783  1.00  0.00    -0.166 A  
BRANCH   7  14
HETATM   14  C   UNL     1      -8.921  15.372  67.171  1.00  0.00    -0.236 A  
HETATM   15 CL   UNL     1      -6.933  18.525  65.698  1.00  0.00    -0.282 Cl 
HETATM   16  C   UNL     1      -7.402  17.517  68.207  1.00  0.00    -0.223 A  
HETATM   17  C   UNL     1      -7.981  16.582  69.067  1.00  0.00    -0.225 A  
HETATM   18 CL   UNL     1      -6.425  18.760  68.901  1.00  0.00    -0.270 Cl 
HETATM   19  C   UNL     1      -8.368  16.346  66.319  1.00  0.00    -0.362 A  
HETATM   20  C   UNL     1      -7.611  17.407  66.828  1.00  0.00    -0.228 A  
HETATM   21  C   UNL     1      -8.743  15.525  68.555  1.00  0.00    -0.184 A  
ENDBRANCH   7  14
ENDBRANCH   2   4
TORSDOF 2
ENDMDL
MODEL       85
REMARK 921   NORMALIZED FREE ENERGY PREDICTED BY IDOCK:   -4.70 KCAL/MOL
REMARK 922        TOTAL FREE ENERGY PREDICTED BY IDOCK:   -5.84 KCAL/MOL
REMARK 923 INTER-LIGAND FREE ENERGY PREDICTED BY IDOCK:   -5.40 KCAL/MOL
REMARK 924 INTRA-LIGAND FREE ENERGY PREDICTED BY IDOCK:   -0.44 KCAL/MOL
REMARK 927      BINDING AFFINITY PREDICTED BY RF-SCORE:    0.00 PKD
ROOT
HETATM    1  C   UNL     1     -10.147  11.661  63.252  1.00  0.00    -0.423 C  
HETATM    2  N   UNL     1     -10.158  13.032  63.748  1.00  0.00    -0.744 NA 
HETATM    3  H   UNL     1     -10.293  13.693  62.983  1.00  0.00     0.000 HD 
ENDROOT
BRANCH   2   4
HETATM    4  C   UNL     1     -11.151  13.256  64.817  1.00  0.00    -0.342 C  
HETATM    5  C   UNL     1     -11.330  11.930  65.587  1.00  0.00    -0.339 C  
HETATM    6  C   UNL     1     -11.758  12.102  67.037  1.00  0.00    -0.373 C  
HETATM    7  C   UNL     1     -10.817  13.022  67.821  1.00  0.00    -0.257 C  
HETATM    8  C   UNL     1     -10.604  14.336  67.092  1.00  0.00    -0.279 A  
HETATM    9  C   UNL     1     -10.752  14.445  65.696  1.00  0.00    -0.326 A  
HETATM   10  C   UNL     1     -10.585  15.717  65.106  1.00  0.00    -0.436 A  
HETATM   11  C   UNL     1     -10.244  15.469  67.848  1.00  0.00    -0.238 A  
HETATM   12  C   UNL     1     -10.057  16.706  67.241  1.00  0.00    -0.279 A  
HETATM   13  C   UNL     1     -10.232  16.832  65.869  1.00  0.00    -0.345 A  
BRANCH   7  14
HETATM   14  C   UNL     1      -9.518  12.363  68.286  1.00  0.00    -0.203 A  
HETATM   15 CL   UNL     1      -5.620  13.167  67.816  1.00  0.00    -0.126 Cl 
HETATM   16  C   UNL     1      -7.066  11.102  68.899  1.00  0.00    -0.101 A  
HETATM   17  C   UNL     1      -8.276  10.500  69.248  1.00  0.00    -0.151 A  
HETATM   18 CL   UNL     1      -5.608  10.242  69.237  1.00  0.00    -0.038 Cl 
HETATM   19  C   UNL     1      -8.291  12.979  67.979  1.00  0.00    -0.169 A  
HETATM   20  C   UNL     1      -7.074  12.354  68.276  1.00  0.00    -0.098 A  
HETATM   21  C   UNL     1      -9.492  11.129  68.954  1.00  0.00    -0.136 A  
ENDBRANCH   7  14
ENDBRANCH   2   4
TORSDOF 2
ENDMDL
MODEL       86
REMARK 921   NORMALIZED FREE ENERGY PREDICTED BY IDOCK:   -4.69 KCAL/MOL
REMARK 922        TOTAL FREE ENERGY PREDICTED BY IDOCK:   -5.83 KCAL/MOL
REMARK 923 INTER-LIGAND FREE ENERGY PREDICTED BY IDOCK:   -5.22 KCAL/MOL
REMARK 924 INTRA-LIGAND FREE ENERGY PREDICTED BY IDOCK:   -0.62 KCAL/MOL
REMARK 927      BINDING AFFINITY PREDICTED BY RF-SCORE:    0.00 PKD
ROOT
HETATM    1  C   UNL     1      -9.167   8.680  71.677  1.00  0.00    -0.256 C  
HETATM    2  N   UNL     1      -9.108   9.409  70.416  1.00  0.00    -0.242 NA 
HETATM    3  H   UNL     1      -8.350   9.059  69.830  1.00  0.00     0.000 HD 
ENDROOT
BRANCH   2   4
HETATM    4  C   UNL     1     -10.387   9.403  69.679  1.00  0.00    -0.216 C  
HETATM    5  C   UNL     1     -11.274  10.528  70.254  1.00  0.00    -0.391 C  
HETATM    6  C   UNL     1     -12.281  11.096  69.265  1.00  0.00    -0.295 C  
HETATM    7  C   UNL     1     -11.622  11.580  67.969  1.00  0.00    -0.370 C  
HETATM    8  C   UNL     1     -10.731  10.504  67.375  1.00  0.00    -0.334 A  
HETATM    9  C   UNL     1     -10.150   9.496  68.169  1.00  0.00    -0.214 A  
HETATM   10  C   UNL     1      -9.376   8.506  67.526  1.00  0.00    -0.169 A  
HETATM   11  C   UNL     1     -10.483  10.532  65.988  1.00  0.00    -0.226 A  
HETATM   12  C   UNL     1      -9.693   9.563  65.382  1.00  0.00    -0.314 A  
HETATM   13  C   UNL     1      -9.142   8.545  66.150  1.00  0.00    -0.245 A  
BRANCH   7  14
HETATM   14  C   UNL     1     -10.949  12.948  68.065  1.00  0.00    -0.271 A  
HETATM   15 CL   UNL     1      -7.236  14.217  68.881  1.00  0.00    -0.116 Cl 
HETATM   16  C   UNL     1      -9.667  15.429  68.489  1.00  0.00    -0.204 A  
HETATM   17  C   UNL     1     -11.031  15.381  68.198  1.00  0.00    -0.297 A  
HETATM   18 CL   UNL     1      -8.962  16.972  68.809  1.00  0.00    -0.267 Cl 
HETATM   19  C   UNL     1      -9.566  13.015  68.316  1.00  0.00    -0.213 A  
HETATM   20  C   UNL     1      -8.928  14.242  68.532  1.00  0.00    -0.185 A  
HETATM   21  C   UNL     1     -11.665  14.152  67.977  1.00  0.00    -0.394 A  
ENDBRANCH   7  14
ENDBRANCH   2   4
TORSDOF 2
ENDMDL
MODEL       87
REMARK 921   NORMALIZED FREE ENERGY PREDICTED BY IDOCK:   -4.67 KCAL/MOL
REMARK 922        TOTAL FREE ENERGY PREDICTED BY IDOCK:   -5.82 KCAL/MOL
REMARK 923 INTER-LIGAND FREE ENERGY PREDICTED BY IDOCK:   -5.09 KCAL/MOL
REMARK 924 INTRA-LIGAND FREE ENERGY PREDICTED BY IDOCK:   -0.73 KCAL/MOL
REMARK 927      BINDING AFFINITY PREDICTED BY RF-SCORE:    0.00 PKD
ROOT
HETATM    1  C   UNL     1      -9.310  11.711  65.892  1.00  0.00    -0.218 C  
HETATM    2  N   UNL     1      -9.168  13.088  66.347  1.00  0.00    -0.422 NA 
HETATM    3  H   UNL     1      -9.994  13.636  66.108  1.00  0.00     0.000 HD 
ENDROOT
BRANCH   2   4
HETATM    4  C   UNL     1      -8.864  13.197  67.787  1.00  0.00    -0.191 C  
HETATM    5  C   UNL     1      -7.414  13.706  67.931  1.00  0.00    -0.158 C  
HETATM    6  C   UNL     1      -7.147  14.478  69.214  1.00  0.00    -0.140 C  
HETATM    7  C   UNL     1      -8.118  15.648  69.407  1.00  0.00    -0.227 C  
HETATM    8  C   UNL     1      -9.559  15.192  69.262  1.00  0.00    -0.218 A  
HETATM    9  C   UNL     1      -9.908  14.058  68.504  1.00  0.00    -0.225 A  
HETATM   10  C   UNL     1     -11.266  13.676  68.465  1.00  0.00    -0.310 A  
HETATM   11  C   UNL     1     -10.565  15.939  69.907  1.00  0.00    -0.327 A  
HETATM   12  C   UNL     1     -11.900  15.560  69.831  1.00  0.00    -0.380 A  
HETATM   13  C   UNL     1     -12.251  14.424  69.113  1.00  0.00    -0.255 A  
BRANCH   7  14
HETATM   14  C   UNL     1      -7.787  16.896  68.591  1.00  0.00    -0.244 A  
HETATM   15 CL   UNL     1      -5.926  20.361  69.361  1.00  0.00    -0.373 Cl 
HETATM   16  C   UNL     1      -7.329  19.334  67.238  1.00  0.00    -0.223 A  
HETATM   17  C   UNL     1      -8.035  18.304  66.616  1.00  0.00    -0.273 A  
HETATM   18 CL   UNL     1      -7.148  20.823  66.383  1.00  0.00    -0.242 Cl 
HETATM   19  C   UNL     1      -7.039  17.927  69.189  1.00  0.00    -0.182 A  
HETATM   20  C   UNL     1      -6.814  19.138  68.524  1.00  0.00    -0.277 A  
HETATM   21  C   UNL     1      -8.254  17.091  67.282  1.00  0.00    -0.205 A  
ENDBRANCH   7  14
ENDBRANCH   2   4
TORSDOF 2
ENDMDL
MODEL       88
REMARK 921   NORMALIZED FREE ENERGY PREDICTED BY IDOCK:   -4.67 KCAL/MOL
REMARK 922        TOTAL FREE ENERGY PREDICTED BY IDOCK:   -5.81 KCAL/MOL
REMARK 923 INTER-LIGAND FREE ENERGY PREDICTED BY IDOCK:   -5.54 KCAL/MOL
REMARK 924 INTRA-LIGAND FREE ENERGY PREDICTED BY IDOCK:   -0.27 KCAL/MOL
REMARK 927      BINDING AFFINITY PREDICTED BY RF-SCORE:    0.00 PKD
ROOT
HETATM    1  C   UNL     1     -10.576  19.304  65.913  1.00  0.00    -0.435 C  
HETATM    2  N   UNL     1      -9.686  20.458  65.887  1.00  0.00    -0.635 NA 
HETATM    3  H   UNL     1     -10.206  21.319  66.056  1.00  0.00     0.000 HD 
ENDROOT
BRANCH   2   4
HETATM    4  C   UNL     1      -8.550  20.338  66.821  1.00  0.00    -0.254 C  
HETATM    5  C   UNL     1      -9.051  19.623  68.094  1.00  0.00    -0.392 C  
HETATM    6  C   UNL     1      -7.976  18.849  68.841  1.00  0.00    -0.300 C  
HETATM    7  C   UNL     1      -7.250  17.840  67.945  1.00  0.00    -0.210 C  
HETATM    8  C   UNL     1      -6.748  18.500  66.673  1.00  0.00    -0.218 A  
HETATM    9  C   UNL     1      -7.355  19.656  66.145  1.00  0.00    -0.300 A  
HETATM   10  C   UNL     1      -6.792  20.234  64.987  1.00  0.00    -0.276 A  
HETATM   11  C   UNL     1      -5.646  17.924  66.011  1.00  0.00    -0.241 A  
HETATM   12  C   UNL     1      -5.126  18.495  64.855  1.00  0.00    -0.196 A  
HETATM   13  C   UNL     1      -5.697  19.654  64.344  1.00  0.00    -0.299 A  
BRANCH   7  14
HETATM   14  C   UNL     1      -8.012  16.538  67.698  1.00  0.00    -0.178 A  
HETATM   15 CL   UNL     1     -11.769  15.301  68.343  1.00  0.00    -0.359 Cl 
HETATM   16  C   UNL     1      -9.446  14.112  67.496  1.00  0.00    -0.210 A  
HETATM   17  C   UNL     1      -8.094  14.164  67.153  1.00  0.00    -0.139 A  
HETATM   18 CL   UNL     1     -10.243  12.583  67.419  1.00  0.00    -0.212 Cl 
HETATM   19  C   UNL     1      -9.385  16.482  68.000  1.00  0.00    -0.218 A  
HETATM   20  C   UNL     1     -10.098  15.280  67.905  1.00  0.00    -0.233 A  
HETATM   21  C   UNL     1      -7.385  15.368  67.243  1.00  0.00    -0.239 A  
ENDBRANCH   7  14
ENDBRANCH   2   4
TORSDOF 2
ENDMDL
MODEL       89
REMARK 921   NORMALIZED FREE ENERGY PREDICTED BY IDOCK:   -4.65 KCAL/MOL
REMARK 922        TOTAL FREE ENERGY PREDICTED BY IDOCK:   -5.79 KCAL/MOL
REMARK 923 INTER-LIGAND FREE ENERGY PREDICTED BY IDOCK:   -5.10 KCAL/MOL
REMARK 924 INTRA-LIGAND FREE ENERGY PREDICTED BY IDOCK:   -0.69 KCAL/MOL
REMARK 927      BINDING AFFINITY PREDICTED BY RF-SCORE:    0.00 PKD
ROOT
HETATM    1  C   UNL     1     -12.395  13.702  66.582  1.00  0.00    -0.331 C  
HETATM    2  N   UNL     1     -11.920  12.371  66.934  1.00  0.00    -0.575 NA 
HETATM    3  H   UNL     1     -11.257  12.027  66.239  1.00  0.00     0.000 HD 
ENDROOT
BRANCH   2   4
HETATM    4  C   UNL     1     -11.344  12.298  68.291  1.00  0.00    -0.289 C  
HETATM    5  C   UNL     1     -12.149  11.257  69.097  1.00  0.00    -0.348 C  
HETATM    6  C   UNL     1     -11.362  10.583  70.210  1.00  0.00    -0.407 C  
HETATM    7  C   UNL     1     -10.065   9.941  69.705  1.00  0.00    -0.274 C  
HETATM    8  C   UNL     1      -9.245  10.931  68.897  1.00  0.00    -0.168 A  
HETATM    9  C   UNL     1      -9.838  12.022  68.233  1.00  0.00    -0.204 A  
HETATM   10  C   UNL     1      -8.994  12.921  67.547  1.00  0.00    -0.193 A  
HETATM   11  C   UNL     1      -7.852  10.734  68.814  1.00  0.00    -0.129 A  
HETATM   12  C   UNL     1      -7.045  11.618  68.107  1.00  0.00    -0.078 A  
HETATM   13  C   UNL     1      -7.615  12.716  67.476  1.00  0.00    -0.160 A  
BRANCH   7  14
HETATM   14  C   UNL     1     -10.244   8.589  69.017  1.00  0.00    -0.218 A  
HETATM   15 CL   UNL     1     -10.008   4.767  70.199  1.00  0.00    -0.311 Cl 
HETATM   16  C   UNL     1     -10.329   6.045  67.792  1.00  0.00    -0.204 A  
HETATM   17  C   UNL     1     -10.470   7.203  67.025  1.00  0.00    -0.392 A  
HETATM   18 CL   UNL     1     -10.317   4.526  66.971  1.00  0.00    -0.124 Cl 
HETATM   19  C   UNL     1     -10.147   7.413  69.783  1.00  0.00    -0.193 A  
HETATM   20  C   UNL     1     -10.184   6.150  69.179  1.00  0.00    -0.194 A  
HETATM   21  C   UNL     1     -10.438   8.463  67.633  1.00  0.00    -0.307 A  
ENDBRANCH   7  14
ENDBRANCH   2   4
TORSDOF 2
ENDMDL
MODEL       90
REMARK 921   NORMALIZED FREE ENERGY PREDICTED BY IDOCK:   -4.63 KCAL/MOL
REMARK 922        TOTAL FREE ENERGY PREDICTED BY IDOCK:   -5.77 KCAL/MOL
REMARK 923 INTER-LIGAND FREE ENERGY PREDICTED BY IDOCK:   -5.30 KCAL/MOL
REMARK 924 INTRA-LIGAND FREE ENERGY PREDICTED BY IDOCK:   -0.47 KCAL/MOL
REMARK 927      BINDING AFFINITY PREDICTED BY RF-SCORE:    0.00 PKD
ROOT
HETATM    1  C   UNL     1     -12.029  12.077  69.319  1.00  0.00    -0.270 C  
HETATM    2  N   UNL     1     -12.142  10.811  68.606  1.00  0.00    -0.816 NA 
HETATM    3  H   UNL     1     -13.073  10.704  68.202  1.00  0.00     0.000 HD 
ENDROOT
BRANCH   2   4
HETATM    4  C   UNL     1     -11.098  10.625  67.580  1.00  0.00    -0.319 C  
HETATM    5  C   UNL     1     -11.416  11.569  66.400  1.00  0.00    -0.150 C  
HETATM    6  C   UNL     1     -10.196  12.002  65.602  1.00  0.00    -0.284 C  
HETATM    7  C   UNL     1      -9.113  12.636  66.482  1.00  0.00    -0.163 C  
HETATM    8  C   UNL     1      -8.778  11.743  67.663  1.00  0.00    -0.159 A  
HETATM    9  C   UNL     1      -9.701  10.813  68.179  1.00  0.00    -0.169 A  
HETATM   10  C   UNL     1      -9.287   9.988  69.247  1.00  0.00    -0.224 A  
HETATM   11  C   UNL     1      -7.503  11.864  68.251  1.00  0.00    -0.104 A  
HETATM   12  C   UNL     1      -7.129  11.059  69.321  1.00  0.00    -0.123 A  
HETATM   13  C   UNL     1      -8.020  10.116  69.817  1.00  0.00    -0.172 A  
BRANCH   7  14
HETATM   14  C   UNL     1      -9.373  14.091  66.870  1.00  0.00    -0.266 A  
HETATM   15 CL   UNL     1     -10.833  15.929  70.118  1.00  0.00    -0.338 Cl 
HETATM   16  C   UNL     1     -10.102  16.722  67.595  1.00  0.00    -0.275 A  
HETATM   17  C   UNL     1      -9.592  16.456  66.323  1.00  0.00    -0.338 A  
HETATM   18 CL   UNL     1     -10.596  18.338  67.948  1.00  0.00    -0.417 Cl 
HETATM   19  C   UNL     1      -9.848  14.380  68.162  1.00  0.00    -0.223 A  
HETATM   20  C   UNL     1     -10.216  15.682  68.523  1.00  0.00    -0.211 A  
HETATM   21  C   UNL     1      -9.221  15.154  65.967  1.00  0.00    -0.273 A  
ENDBRANCH   7  14
ENDBRANCH   2   4
TORSDOF 2
ENDMDL
MODEL       91
REMARK 921   NORMALIZED FREE ENERGY PREDICTED BY IDOCK:   -4.62 KCAL/MOL
REMARK 922        TOTAL FREE ENERGY PREDICTED BY IDOCK:   -5.76 KCAL/MOL
REMARK 923 INTER-LIGAND FREE ENERGY PREDICTED BY IDOCK:   -5.12 KCAL/MOL
REMARK 924 INTRA-LIGAND FREE ENERGY PREDICTED BY IDOCK:   -0.64 KCAL/MOL
REMARK 927      BINDING AFFINITY PREDICTED BY RF-SCORE:    0.00 PKD
ROOT
HETATM    1  C   UNL     1      -8.200  10.974  66.142  1.00  0.00    -0.155 C  
HETATM    2  N   UNL     1      -8.608  12.357  66.354  1.00  0.00    -0.411 NA 
HETATM    3  H   UNL     1      -9.578  12.496  66.072  1.00  0.00     0.000 HD 
ENDROOT
BRANCH   2   4
HETATM    4  C   UNL     1      -8.390  12.823  67.737  1.00  0.00    -0.177 C  
HETATM    5  C   UNL     1      -7.425  14.027  67.689  1.00  0.00    -0.186 C  
HETATM    6  C   UNL     1      -7.591  15.007  68.839  1.00  0.00    -0.144 C  
HETATM    7  C   UNL     1      -9.031  15.516  68.974  1.00  0.00    -0.237 C  
HETATM    8  C   UNL     1     -10.016  14.361  69.014  1.00  0.00    -0.135 A  
HETATM    9  C   UNL     1      -9.723  13.112  68.434  1.00  0.00    -0.196 A  
HETATM   10  C   UNL     1     -10.676  12.079  68.563  1.00  0.00    -0.261 A  
HETATM   11  C   UNL     1     -11.257  14.564  69.650  1.00  0.00    -0.292 A  
HETATM   12  C   UNL     1     -12.192  13.539  69.740  1.00  0.00    -0.330 A  
HETATM   13  C   UNL     1     -11.900  12.294  69.200  1.00  0.00    -0.355 A  
BRANCH   7  14
HETATM   14  C   UNL     1      -9.417  16.615  67.985  1.00  0.00    -0.224 A  
HETATM   15 CL   UNL     1     -10.202  20.533  68.285  1.00  0.00    -0.271 Cl 
HETATM   16  C   UNL     1     -10.353  18.665  66.281  1.00  0.00    -0.444 A  
HETATM   17  C   UNL     1     -10.181  17.368  65.796  1.00  0.00    -0.204 A  
HETATM   18 CL   UNL     1     -10.998  19.853  65.207  1.00  0.00    -0.157 Cl 
HETATM   19  C   UNL     1      -9.554  17.936  68.449  1.00  0.00    -0.320 A  
HETATM   20  C   UNL     1     -10.022  18.953  67.609  1.00  0.00    -0.349 A  
HETATM   21  C   UNL     1      -9.707  16.353  66.637  1.00  0.00    -0.272 A  
ENDBRANCH   7  14
ENDBRANCH   2   4
TORSDOF 2
ENDMDL
MODEL       92
REMARK 921   NORMALIZED FREE ENERGY PREDICTED BY IDOCK:   -4.61 KCAL/MOL
REMARK 922        TOTAL FREE ENERGY PREDICTED BY IDOCK:   -5.75 KCAL/MOL
REMARK 923 INTER-LIGAND FREE ENERGY PREDICTED BY IDOCK:   -5.19 KCAL/MOL
REMARK 924 INTRA-LIGAND FREE ENERGY PREDICTED BY IDOCK:   -0.55 KCAL/MOL
REMARK 927      BINDING AFFINITY PREDICTED BY RF-SCORE:    0.00 PKD
ROOT
HETATM    1  C   UNL     1     -10.749   5.946  66.584  1.00  0.00    -0.252 C  
HETATM    2  N   UNL     1     -11.312   6.345  67.868  1.00  0.00    -0.625 NA 
HETATM    3  H   UNL     1     -12.127   5.776  68.098  1.00  0.00     0.000 HD 
ENDROOT
BRANCH   2   4
HETATM    4  C   UNL     1     -10.328   6.322  68.967  1.00  0.00    -0.206 C  
HETATM    5  C   UNL     1      -8.996   6.885  68.427  1.00  0.00    -0.121 C  
HETATM    6  C   UNL     1      -8.118   7.536  69.485  1.00  0.00    -0.128 C  
HETATM    7  C   UNL     1      -8.854   8.631  70.265  1.00  0.00    -0.158 C  
HETATM    8  C   UNL     1     -10.177   8.121  70.806  1.00  0.00    -0.215 A  
HETATM    9  C   UNL     1     -10.868   7.054  70.200  1.00  0.00    -0.285 A  
HETATM   10  C   UNL     1     -12.066   6.611  70.800  1.00  0.00    -0.364 A  
HETATM   11  C   UNL     1     -10.720   8.749  71.945  1.00  0.00    -0.429 A  
HETATM   12  C   UNL     1     -11.917   8.313  72.501  1.00  0.00    -0.420 A  
HETATM   13  C   UNL     1     -12.590   7.240  71.931  1.00  0.00    -0.326 A  
BRANCH   7  14
HETATM   14  C   UNL     1      -8.965   9.971  69.538  1.00  0.00    -0.220 A  
HETATM   15 CL   UNL     1     -11.956  12.003  67.810  1.00  0.00    -0.290 Cl 
HETATM   16  C   UNL     1      -9.235  12.315  67.985  1.00  0.00    -0.195 A  
HETATM   17  C   UNL     1      -7.979  11.912  68.442  1.00  0.00    -0.154 A  
HETATM   18 CL   UNL     1      -9.319  13.715  66.979  1.00  0.00    -0.239 Cl 
HETATM   19  C   UNL     1     -10.230  10.411  69.106  1.00  0.00    -0.239 A  
HETATM   20  C   UNL     1     -10.367  11.570  68.332  1.00  0.00    -0.202 A  
HETATM   21  C   UNL     1      -7.846  10.756  69.221  1.00  0.00    -0.124 A  
ENDBRANCH   7  14
ENDBRANCH   2   4
TORSDOF 2
ENDMDL
MODEL       93
REMARK 921   NORMALIZED FREE ENERGY PREDICTED BY IDOCK:   -4.59 KCAL/MOL
REMARK 922        TOTAL FREE ENERGY PREDICTED BY IDOCK:   -5.73 KCAL/MOL
REMARK 923 INTER-LIGAND FREE ENERGY PREDICTED BY IDOCK:   -5.16 KCAL/MOL
REMARK 924 INTRA-LIGAND FREE ENERGY PREDICTED BY IDOCK:   -0.57 KCAL/MOL
REMARK 927      BINDING AFFINITY PREDICTED BY RF-SCORE:    0.00 PKD
ROOT
HETATM    1  C   UNL     1     -10.262   8.793  66.524  1.00  0.00    -0.244 C  
HETATM    2  N   UNL     1      -9.756   9.430  65.315  1.00  0.00    -0.453 NA 
HETATM    3  H   UNL     1     -10.279   9.120  64.496  1.00  0.00     0.000 HD 
ENDROOT
BRANCH   2   4
HETATM    4  C   UNL     1      -9.735  10.903  65.399  1.00  0.00    -0.238 C  
HETATM    5  C   UNL     1     -11.158  11.381  65.758  1.00  0.00    -0.217 C  
HETATM    6  C   UNL     1     -11.202  12.705  66.505  1.00  0.00    -0.342 C  
HETATM    7  C   UNL     1     -10.336  12.695  67.769  1.00  0.00    -0.221 C  
HETATM    8  C   UNL     1      -8.927  12.220  67.462  1.00  0.00    -0.180 A  
HETATM    9  C   UNL     1      -8.647  11.381  66.366  1.00  0.00    -0.174 A  
HETATM   10  C   UNL     1      -7.301  11.030  66.124  1.00  0.00    -0.060 A  
HETATM   11  C   UNL     1      -7.882  12.635  68.310  1.00  0.00    -0.144 A  
HETATM   12  C   UNL     1      -6.568  12.251  68.069  1.00  0.00    -0.076 A  
HETATM   13  C   UNL     1      -6.276  11.451  66.972  1.00  0.00    -0.123 A  
BRANCH   7  14
HETATM   14  C   UNL     1     -10.967  11.998  68.973  1.00  0.00    -0.260 A  
HETATM   15 CL   UNL     1     -10.908   8.263  70.423  1.00  0.00    -0.235 Cl 
HETATM   16  C   UNL     1     -12.267  10.567  71.034  1.00  0.00    -0.400 A  
HETATM   17  C   UNL     1     -12.544  11.920  70.831  1.00  0.00    -0.361 A  
HETATM   18 CL   UNL     1     -13.150   9.735  72.262  1.00  0.00    -0.488 Cl 
HETATM   19  C   UNL     1     -10.666  10.646  69.217  1.00  0.00    -0.275 A  
HETATM   20  C   UNL     1     -11.311   9.932  70.233  1.00  0.00    -0.291 A  
HETATM   21  C   UNL     1     -11.893  12.633  69.816  1.00  0.00    -0.379 A  
ENDBRANCH   7  14
ENDBRANCH   2   4
TORSDOF 2
ENDMDL
MODEL       94
REMARK 921   NORMALIZED FREE ENERGY PREDICTED BY IDOCK:   -4.44 KCAL/MOL
REMARK 922        TOTAL FREE ENERGY PREDICTED BY IDOCK:   -5.56 KCAL/MOL
REMARK 923 INTER-LIGAND FREE ENERGY PREDICTED BY IDOCK:   -4.93 KCAL/MOL
REMARK 924 INTRA-LIGAND FREE ENERGY PREDICTED BY IDOCK:   -0.63 KCAL/MOL
REMARK 927      BINDING AFFINITY PREDICTED BY RF-SCORE:    0.00 PKD
ROOT
HETATM    1  C   UNL     1      -9.183   9.904  63.395  1.00  0.00    -0.240 C  
HETATM    2  N   UNL     1      -9.618   9.746  64.777  1.00  0.00    -0.411 NA 
HETATM    3  H   UNL     1      -9.064   9.033  65.251  1.00  0.00     0.000 HD 
ENDROOT
BRANCH   2   4
HETATM    4  C   UNL     1      -9.608  11.011  65.538  1.00  0.00    -0.222 C  
HETATM    5  C   UNL     1     -11.026  11.236  66.107  1.00  0.00    -0.252 C  
HETATM    6  C   UNL     1     -11.063  12.058  67.386  1.00  0.00    -0.337 C  
HETATM    7  C   UNL     1     -10.162  11.478  68.482  1.00  0.00    -0.219 C  
HETATM    8  C   UNL     1      -8.757  11.231  67.961  1.00  0.00    -0.144 A  
HETATM    9  C   UNL     1      -8.499  11.006  66.594  1.00  0.00    -0.153 A  
HETATM   10  C   UNL     1      -7.158  10.836  66.190  1.00  0.00    -0.122 A  
HETATM   11  C   UNL     1      -7.693  11.224  68.884  1.00  0.00    -0.125 A  
HETATM   12  C   UNL     1      -6.383  11.025  68.466  1.00  0.00    -0.049 A  
HETATM   13  C   UNL     1      -6.113  10.836  67.116  1.00  0.00    -0.063 A  
BRANCH   7  14
HETATM   14  C   UNL     1     -10.754  10.287  69.234  1.00  0.00    -0.265 A  
HETATM   15 CL   UNL     1     -13.412   9.861  72.202  1.00  0.00    -0.503 Cl 
HETATM   16  C   UNL     1     -11.734   8.175  70.834  1.00  0.00    -0.244 A  
HETATM   17  C   UNL     1     -10.781   7.927  69.844  1.00  0.00    -0.244 A  
HETATM   18 CL   UNL     1     -12.236   6.853  71.824  1.00  0.00    -0.379 Cl 
HETATM   19  C   UNL     1     -11.745  10.515  70.205  1.00  0.00    -0.420 A  
HETATM   20  C   UNL     1     -12.230   9.472  71.004  1.00  0.00    -0.304 A  
HETATM   21  C   UNL     1     -10.303   8.971  69.044  1.00  0.00    -0.233 A  
ENDBRANCH   7  14
ENDBRANCH   2   4
TORSDOF 2
ENDMDL
MODEL       95
REMARK 921   NORMALIZED FREE ENERGY PREDICTED BY IDOCK:   -4.44 KCAL/MOL
REMARK 922        TOTAL FREE ENERGY PREDICTED BY IDOCK:   -5.56 KCAL/MOL
REMARK 923 INTER-LIGAND FREE ENERGY PREDICTED BY IDOCK:   -4.81 KCAL/MOL
REMARK 924 INTRA-LIGAND FREE ENERGY PREDICTED BY IDOCK:   -0.75 KCAL/MOL
REMARK 927      BINDING AFFINITY PREDICTED BY RF-SCORE:    0.00 PKD
ROOT
HETATM    1  C   UNL     1     -11.996   6.396  72.057  1.00  0.00    -0.326 C  
HETATM    2  N   UNL     1     -10.598   5.985  72.019  1.00  0.00    -0.215 NA 
HETATM    3  H   UNL     1     -10.447   5.162  72.604  1.00  0.00     0.000 HD 
ENDROOT
BRANCH   2   4
HETATM    4  C   UNL     1     -10.095   5.756  70.651  1.00  0.00    -0.203 C  
HETATM    5  C   UNL     1     -11.229   6.100  69.662  1.00  0.00    -0.488 C  
HETATM    6  C   UNL     1     -10.748   6.555  68.293  1.00  0.00    -0.341 C  
HETATM    7  C   UNL     1      -9.771   7.733  68.375  1.00  0.00    -0.167 C  
HETATM    8  C   UNL     1      -8.643   7.440  69.348  1.00  0.00    -0.134 A  
HETATM    9  C   UNL     1      -8.794   6.528  70.410  1.00  0.00    -0.151 A  
HETATM   10  C   UNL     1      -7.676   6.278  71.235  1.00  0.00    -0.103 A  
HETATM   11  C   UNL     1      -7.417   8.113  69.172  1.00  0.00    -0.087 A  
HETATM   12  C   UNL     1      -6.340   7.871  70.016  1.00  0.00    -0.033 A  
HETATM   13  C   UNL     1      -6.467   6.949  71.046  1.00  0.00    -0.044 A  
BRANCH   7  14
HETATM   14  C   UNL     1     -10.428   9.095  68.593  1.00  0.00    -0.235 A  
HETATM   15 CL   UNL     1     -11.222  12.252  66.255  1.00  0.00    -0.347 Cl 
HETATM   16  C   UNL     1     -11.417  11.719  68.940  1.00  0.00    -0.297 A  
HETATM   17  C   UNL     1     -11.289  10.862  70.035  1.00  0.00    -0.386 A  
HETATM   18 CL   UNL     1     -11.958  13.332  69.233  1.00  0.00    -0.365 Cl 
HETATM   19  C   UNL     1     -10.603   9.955  67.492  1.00  0.00    -0.333 A  
HETATM   20  C   UNL     1     -11.088  11.257  67.661  1.00  0.00    -0.277 A  
HETATM   21  C   UNL     1     -10.809   9.558  69.862  1.00  0.00    -0.272 A  
ENDBRANCH   7  14
ENDBRANCH   2   4
TORSDOF 2
ENDMDL
MODEL       96
REMARK 921   NORMALIZED FREE ENERGY PREDICTED BY IDOCK:   -4.43 KCAL/MOL
REMARK 922        TOTAL FREE ENERGY PREDICTED BY IDOCK:   -5.54 KCAL/MOL
REMARK 923 INTER-LIGAND FREE ENERGY PREDICTED BY IDOCK:   -4.99 KCAL/MOL
REMARK 924 INTRA-LIGAND FREE ENERGY PREDICTED BY IDOCK:   -0.55 KCAL/MOL
REMARK 927      BINDING AFFINITY PREDICTED BY RF-SCORE:    0.00 PKD
ROOT
HETATM    1  C   UNL     1     -12.172  10.684  69.990  1.00  0.00    -0.298 C  
HETATM    2  N   UNL     1     -12.202  11.097  68.593  1.00  0.00    -0.705 NA 
HETATM    3  H   UNL     1     -13.121  11.464  68.343  1.00  0.00     0.000 HD 
ENDROOT
BRANCH   2   4
HETATM    4  C   UNL     1     -11.140  12.062  68.248  1.00  0.00    -0.243 C  
HETATM    5  C   UNL     1      -9.787  11.457  68.681  1.00  0.00    -0.199 C  
HETATM    6  C   UNL     1      -8.597  11.942  67.868  1.00  0.00    -0.162 C  
HETATM    7  C   UNL     1      -8.790  11.730  66.362  1.00  0.00    -0.170 C  
HETATM    8  C   UNL     1     -10.116  12.302  65.895  1.00  0.00    -0.272 A  
HETATM    9  C   UNL     1     -11.211  12.450  66.768  1.00  0.00    -0.363 A  
HETATM   10  C   UNL     1     -12.390  13.039  66.262  1.00  0.00    -0.278 A  
HETATM   11  C   UNL     1     -10.240  12.687  64.546  1.00  0.00    -0.331 A  
HETATM   12  C   UNL     1     -11.422  13.237  64.063  1.00  0.00    -0.432 A  
HETATM   13  C   UNL     1     -12.497  13.418  64.923  1.00  0.00    -0.447 A  
BRANCH   7  14
HETATM   14  C   UNL     1      -8.535  10.303  65.878  1.00  0.00    -0.154 A  
HETATM   15 CL   UNL     1      -6.154   8.642  63.116  1.00  0.00    -0.085 Cl 
HETATM   16  C   UNL     1      -8.158   7.737  64.758  1.00  0.00    -0.131 A  
HETATM   17  C   UNL     1      -9.113   7.938  65.756  1.00  0.00    -0.084 A  
HETATM   18 CL   UNL     1      -8.030   6.161  64.065  1.00  0.00    -0.120 Cl 
HETATM   19  C   UNL     1      -7.547  10.077  64.903  1.00  0.00    -0.139 A  
HETATM   20  C   UNL     1      -7.361   8.808  64.341  1.00  0.00    -0.103 A  
HETATM   21  C   UNL     1      -9.293   9.207  66.319  1.00  0.00    -0.274 A  
ENDBRANCH   7  14
ENDBRANCH   2   4
TORSDOF 2
ENDMDL
MODEL       97
REMARK 921   NORMALIZED FREE ENERGY PREDICTED BY IDOCK:   -4.42 KCAL/MOL
REMARK 922        TOTAL FREE ENERGY PREDICTED BY IDOCK:   -5.53 KCAL/MOL
REMARK 923 INTER-LIGAND FREE ENERGY PREDICTED BY IDOCK:   -5.09 KCAL/MOL
REMARK 924 INTRA-LIGAND FREE ENERGY PREDICTED BY IDOCK:   -0.44 KCAL/MOL
REMARK 927      BINDING AFFINITY PREDICTED BY RF-SCORE:    0.00 PKD
ROOT
HETATM    1  C   UNL     1      -8.721   6.546  68.606  1.00  0.00    -0.123 C  
HETATM    2  N   UNL     1      -9.073   7.908  68.987  1.00  0.00    -0.145 NA 
HETATM    3  H   UNL     1      -8.469   8.241  69.740  1.00  0.00     0.000 HD 
ENDROOT
BRANCH   2   4
HETATM    4  C   UNL     1      -9.066   8.850  67.852  1.00  0.00    -0.139 C  
HETATM    5  C   UNL     1     -10.531   9.129  67.454  1.00  0.00    -0.339 C  
HETATM    6  C   UNL     1     -10.755  10.487  66.808  1.00  0.00    -0.252 C  
HETATM    7  C   UNL     1     -10.236  11.641  67.672  1.00  0.00    -0.206 C  
HETATM    8  C   UNL     1      -8.798  11.402  68.096  1.00  0.00    -0.162 A  
HETATM    9  C   UNL     1      -8.254  10.106  68.187  1.00  0.00    -0.113 A  
HETATM   10  C   UNL     1      -6.893   9.978  68.539  1.00  0.00    -0.054 A  
HETATM   11  C   UNL     1      -7.998  12.519  68.408  1.00  0.00    -0.139 A  
HETATM   12  C   UNL     1      -6.668  12.367  68.781  1.00  0.00    -0.092 A  
HETATM   13  C   UNL     1      -6.113  11.095  68.842  1.00  0.00    -0.045 A  
BRANCH   7  14
HETATM   14  C   UNL     1     -11.154  12.041  68.826  1.00  0.00    -0.298 A  
HETATM   15 CL   UNL     1     -12.402  15.526  70.363  1.00  0.00    -0.434 Cl 
HETATM   16  C   UNL     1     -12.648  12.886  71.070  1.00  0.00    -0.287 A  
HETATM   17  C   UNL     1     -12.423  11.528  70.843  1.00  0.00    -0.464 A  
HETATM   18 CL   UNL     1     -13.506  13.337  72.498  1.00  0.00    -0.669 Cl 
HETATM   19  C   UNL     1     -11.426  13.405  69.043  1.00  0.00    -0.348 A  
HETATM   20  C   UNL     1     -12.162  13.828  70.157  1.00  0.00    -0.356 A  
HETATM   21  C   UNL     1     -11.691  11.107  69.725  1.00  0.00    -0.419 A  
ENDBRANCH   7  14
ENDBRANCH   2   4
TORSDOF 2
ENDMDL
MODEL       98
REMARK 921   NORMALIZED FREE ENERGY PREDICTED BY IDOCK:   -4.40 KCAL/MOL
REMARK 922        TOTAL FREE ENERGY PREDICTED BY IDOCK:   -5.51 KCAL/MOL
REMARK 923 INTER-LIGAND FREE ENERGY PREDICTED BY IDOCK:   -4.85 KCAL/MOL
REMARK 924 INTRA-LIGAND FREE ENERGY PREDICTED BY IDOCK:   -0.67 KCAL/MOL
REMARK 927      BINDING AFFINITY PREDICTED BY RF-SCORE:    0.00 PKD
ROOT
HETATM    1  C   UNL     1      -9.718   4.723  68.797  1.00  0.00    -0.167 C  
HETATM    2  N   UNL     1      -9.923   6.106  69.209  1.00  0.00    -0.151 NA 
HETATM    3  H   UNL     1      -9.544   6.266  70.143  1.00  0.00     0.000 HD 
ENDROOT
BRANCH   2   4
HETATM    4  C   UNL     1      -9.381   7.086  68.248  1.00  0.00    -0.126 C  
HETATM    5  C   UNL     1     -10.571   7.796  67.568  1.00  0.00    -0.319 C  
HETATM    6  C   UNL     1     -10.265   9.205  67.084  1.00  0.00    -0.329 C  
HETATM    7  C   UNL     1      -9.707  10.100  68.196  1.00  0.00    -0.155 C  
HETATM    8  C   UNL     1      -8.538   9.433  68.899  1.00  0.00    -0.131 A  
HETATM    9  C   UNL     1      -8.389   8.033  68.930  1.00  0.00    -0.126 A  
HETATM   10  C   UNL     1      -7.245   7.500  69.562  1.00  0.00    -0.082 A  
HETATM   11  C   UNL     1      -7.587  10.253  69.538  1.00  0.00    -0.150 A  
HETATM   12  C   UNL     1      -6.483   9.703  70.179  1.00  0.00    -0.075 A  
HETATM   13  C   UNL     1      -6.309   8.325  70.188  1.00  0.00    -0.035 A  
BRANCH   7  14
HETATM   14  C   UNL     1     -10.757  10.661  69.154  1.00  0.00    -0.264 A  
HETATM   15 CL   UNL     1     -12.289  14.299  69.845  1.00  0.00    -0.390 Cl 
HETATM   16  C   UNL     1     -12.511  11.835  71.032  1.00  0.00    -0.309 A  
HETATM   17  C   UNL     1     -12.212  10.473  71.100  1.00  0.00    -0.496 A  
HETATM   18 CL   UNL     1     -13.532  12.502  72.254  1.00  0.00    -0.610 Cl 
HETATM   19  C   UNL     1     -11.101  12.023  69.071  1.00  0.00    -0.291 A  
HETATM   20  C   UNL     1     -11.966  12.609  70.003  1.00  0.00    -0.306 A  
HETATM   21  C   UNL     1     -11.351   9.888  70.163  1.00  0.00    -0.335 A  
ENDBRANCH   7  14
ENDBRANCH   2   4
TORSDOF 2
ENDMDL
MODEL       99
REMARK 921   NORMALIZED FREE ENERGY PREDICTED BY IDOCK:   -4.39 KCAL/MOL
REMARK 922        TOTAL FREE ENERGY PREDICTED BY IDOCK:   -5.50 KCAL/MOL
REMARK 923 INTER-LIGAND FREE ENERGY PREDICTED BY IDOCK:   -5.13 KCAL/MOL
REMARK 924 INTRA-LIGAND FREE ENERGY PREDICTED BY IDOCK:   -0.37 KCAL/MOL
REMARK 927      BINDING AFFINITY PREDICTED BY RF-SCORE:    0.00 PKD
ROOT
HETATM    1  C   UNL     1      -8.013  12.751  68.625  1.00  0.00    -0.023 C  
HETATM    2  N   UNL     1      -8.091  11.440  69.257  1.00  0.00    -0.367 NA 
HETATM    3  H   UNL     1      -8.190  11.530  70.268  1.00  0.00     0.000 HD 
ENDROOT
BRANCH   2   4
HETATM    4  C   UNL     1      -9.158  10.587  68.698  1.00  0.00    -0.158 C  
HETATM    5  C   UNL     1     -10.494  11.351  68.822  1.00  0.00    -0.228 C  
HETATM    6  C   UNL     1     -11.529  10.973  67.774  1.00  0.00    -0.339 C  
HETATM    7  C   UNL     1     -10.995  11.113  66.345  1.00  0.00    -0.248 C  
HETATM    8  C   UNL     1      -9.674  10.384  66.181  1.00  0.00    -0.262 A  
HETATM    9  C   UNL     1      -8.815  10.145  67.272  1.00  0.00    -0.137 A  
HETATM   10  C   UNL     1      -7.631   9.414  67.038  1.00  0.00    -0.091 A  
HETATM   11  C   UNL     1      -9.308   9.945  64.893  1.00  0.00    -0.329 A  
HETATM   12  C   UNL     1      -8.122   9.252  64.683  1.00  0.00    -0.136 A  
HETATM   13  C   UNL     1      -7.283   8.982  65.757  1.00  0.00    -0.089 A  
BRANCH   7  14
HETATM   14  C   UNL     1     -10.976  12.543  65.806  1.00  0.00    -0.327 A  
HETATM   15 CL   UNL     1      -8.724  15.787  66.491  1.00  0.00    -0.328 Cl 
HETATM   16  C   UNL     1     -10.997  15.264  65.046  1.00  0.00    -0.437 A  
HETATM   17  C   UNL     1     -11.979  14.392  64.575  1.00  0.00    -0.487 A  
HETATM   18 CL   UNL     1     -11.112  16.928  64.602  1.00  0.00    -0.077 Cl 
HETATM   19  C   UNL     1      -9.967  13.424  66.239  1.00  0.00    -0.298 A  
HETATM   20  C   UNL     1      -9.978  14.774  65.869  1.00  0.00    -0.326 A  
HETATM   21  C   UNL     1     -11.963  13.041  64.942  1.00  0.00    -0.441 A  
ENDBRANCH   7  14
ENDBRANCH   2   4
TORSDOF 2
ENDMDL
MODEL      100
REMARK 921   NORMALIZED FREE ENERGY PREDICTED BY IDOCK:   -4.36 KCAL/MOL
REMARK 922        TOTAL FREE ENERGY PREDICTED BY IDOCK:   -5.47 KCAL/MOL
REMARK 923 INTER-LIGAND FREE ENERGY PREDICTED BY IDOCK:   -4.69 KCAL/MOL
REMARK 924 INTRA-LIGAND FREE ENERGY PREDICTED BY IDOCK:   -0.78 KCAL/MOL
REMARK 927      BINDING AFFINITY PREDICTED BY RF-SCORE:    0.00 PKD
ROOT
HETATM    1  C   UNL     1      -9.183   7.907  73.184  1.00  0.00    -0.267 C  
HETATM    2  N   UNL     1     -10.063   6.952  73.844  1.00  0.00    -0.331 NA 
HETATM    3  H   UNL     1     -10.520   7.378  74.651  1.00  0.00     0.000 HD 
ENDROOT
BRANCH   2   4
HETATM    4  C   UNL     1     -11.057   6.350  72.934  1.00  0.00    -0.226 C  
HETATM    5  C   UNL     1     -11.654   7.478  72.066  1.00  0.00    -0.326 C  
HETATM    6  C   UNL     1     -12.156   7.021  70.705  1.00  0.00    -0.374 C  
HETATM    7  C   UNL     1     -11.081   6.278  69.903  1.00  0.00    -0.469 C  
HETATM    8  C   UNL     1     -10.459   5.164  70.726  1.00  0.00    -0.263 A  
HETATM    9  C   UNL     1     -10.440   5.199  72.133  1.00  0.00    -0.281 A  
HETATM   10  C   UNL     1      -9.887   4.096  72.819  1.00  0.00    -0.197 A  
HETATM   11  C   UNL     1      -9.884   4.072  70.045  1.00  0.00    -0.198 A  
HETATM   12  C   UNL     1      -9.318   3.011  70.742  1.00  0.00    -0.223 A  
HETATM   13  C   UNL     1      -9.324   3.020  72.131  1.00  0.00    -0.182 A  
BRANCH   7  14
HETATM   14  C   UNL     1     -10.055   7.180  69.219  1.00  0.00    -0.178 A  
HETATM   15 CL   UNL     1     -10.097   9.570  66.003  1.00  0.00    -0.353 Cl 
HETATM   16  C   UNL     1      -8.173   8.691  67.751  1.00  0.00    -0.118 A  
HETATM   17  C   UNL     1      -7.774   7.966  68.875  1.00  0.00    -0.105 A  
HETATM   18 CL   UNL     1      -6.960   9.534  66.858  1.00  0.00    -0.081 Cl 
HETATM   19  C   UNL     1     -10.452   7.949  68.110  1.00  0.00    -0.227 A  
HETATM   20  C   UNL     1      -9.521   8.696  67.377  1.00  0.00    -0.150 A  
HETATM   21  C   UNL     1      -8.708   7.225  69.609  1.00  0.00    -0.141 A  
ENDBRANCH   7  14
ENDBRANCH   2   4
TORSDOF 2
ENDMDL
MODEL      101
REMARK 921   NORMALIZED FREE ENERGY PREDICTED BY IDOCK:   -4.35 KCAL/MOL
REMARK 922        TOTAL FREE ENERGY PREDICTED BY IDOCK:   -5.45 KCAL/MOL
REMARK 923 INTER-LIGAND FREE ENERGY PREDICTED BY IDOCK:   -4.95 KCAL/MOL
REMARK 924 INTRA-LIGAND FREE ENERGY PREDICTED BY IDOCK:   -0.50 KCAL/MOL
REMARK 927      BINDING AFFINITY PREDICTED BY RF-SCORE:    0.00 PKD
ROOT
HETATM    1  C   UNL     1      -7.679   8.775  70.382  1.00  0.00    -0.091 C  
HETATM    2  N   UNL     1      -8.731   9.725  70.042  1.00  0.00    -0.234 NA 
HETATM    3  H   UNL     1      -8.357  10.497  69.489  1.00  0.00     0.000 HD 
ENDROOT
BRANCH   2   4
HETATM    4  C   UNL     1      -9.881   9.101  69.361  1.00  0.00    -0.172 C  
HETATM    5  C   UNL     1      -9.387   7.808  68.677  1.00  0.00    -0.148 C  
HETATM    6  C   UNL     1     -10.458   6.741  68.510  1.00  0.00    -0.234 C  
HETATM    7  C   UNL     1     -11.143   6.385  69.834  1.00  0.00    -0.444 C  
HETATM    8  C   UNL     1     -11.637   7.632  70.546  1.00  0.00    -0.195 A  
HETATM    9  C   UNL     1     -11.047   8.893  70.333  1.00  0.00    -0.270 A  
HETATM   10  C   UNL     1     -11.602  10.008  70.998  1.00  0.00    -0.476 A  
HETATM   11  C   UNL     1     -12.713   7.506  71.446  1.00  0.00    -0.382 A  
HETATM   12  C   UNL     1     -13.224   8.614  72.112  1.00  0.00    -0.420 A  
HETATM   13  C   UNL     1     -12.671   9.868  71.885  1.00  0.00    -0.501 A  
BRANCH   7  14
HETATM   14  C   UNL     1     -10.347   5.441  70.734  1.00  0.00    -0.322 A  
HETATM   15 CL   UNL     1      -9.138   5.534  74.554  1.00  0.00    -0.120 Cl 
HETATM   16  C   UNL     1      -8.697   3.878  72.411  1.00  0.00    -0.105 A  
HETATM   17  C   UNL     1      -8.906   3.507  71.082  1.00  0.00    -0.136 A  
HETATM   18 CL   UNL     1      -7.619   2.920  73.360  1.00  0.00    -0.050 Cl 
HETATM   19  C   UNL     1     -10.162   5.780  72.087  1.00  0.00    -0.240 A  
HETATM   20  C   UNL     1      -9.341   5.011  72.920  1.00  0.00    -0.134 A  
HETATM   21  C   UNL     1      -9.732   4.275  70.253  1.00  0.00    -0.280 A  
ENDBRANCH   7  14
ENDBRANCH   2   4
TORSDOF 2
ENDMDL
MODEL      102
REMARK 921   NORMALIZED FREE ENERGY PREDICTED BY IDOCK:   -4.34 KCAL/MOL
REMARK 922        TOTAL FREE ENERGY PREDICTED BY IDOCK:   -5.44 KCAL/MOL
REMARK 923 INTER-LIGAND FREE ENERGY PREDICTED BY IDOCK:   -4.77 KCAL/MOL
REMARK 924 INTRA-LIGAND FREE ENERGY PREDICTED BY IDOCK:   -0.67 KCAL/MOL
REMARK 927      BINDING AFFINITY PREDICTED BY RF-SCORE:    0.00 PKD
ROOT
HETATM    1  C   UNL     1      -8.049   7.057  67.801  1.00  0.00    -0.114 C  
HETATM    2  N   UNL     1      -9.000   8.010  67.243  1.00  0.00    -0.136 NA 
HETATM    3  H   UNL     1      -9.045   7.924  66.228  1.00  0.00     0.000 HD 
ENDROOT
BRANCH   2   4
HETATM    4  C   UNL     1     -10.346   7.905  67.840  1.00  0.00    -0.221 C  
HETATM    5  C   UNL     1     -10.333   6.733  68.844  1.00  0.00    -0.208 C  
HETATM    6  C   UNL     1     -11.337   6.871  69.978  1.00  0.00    -0.343 C  
HETATM    7  C   UNL     1     -11.183   8.192  70.739  1.00  0.00    -0.275 C  
HETATM    8  C   UNL     1     -11.180   9.374  69.786  1.00  0.00    -0.139 A  
HETATM    9  C   UNL     1     -10.784   9.244  68.441  1.00  0.00    -0.192 A  
HETATM   10  C   UNL     1     -10.861  10.384  67.612  1.00  0.00    -0.361 A  
HETATM   11  C   UNL     1     -11.583  10.631  70.279  1.00  0.00    -0.424 A  
HETATM   12  C   UNL     1     -11.623  11.746  69.450  1.00  0.00    -0.386 A  
HETATM   13  C   UNL     1     -11.266  11.622  68.114  1.00  0.00    -0.325 A  
BRANCH   7  14
HETATM   14  C   UNL     1     -10.039   8.220  71.751  1.00  0.00    -0.290 A  
HETATM   15 CL   UNL     1      -6.157   9.201  71.596  1.00  0.00    -0.077 Cl 
HETATM   16  C   UNL     1      -7.810   8.089  73.483  1.00  0.00    -0.180 A  
HETATM   17  C   UNL     1      -9.064   7.650  73.911  1.00  0.00    -0.316 A  
HETATM   18 CL   UNL     1      -6.477   7.914  74.565  1.00  0.00    -0.106 Cl 
HETATM   19  C   UNL     1      -8.779   8.699  71.347  1.00  0.00    -0.262 A  
HETATM   20  C   UNL     1      -7.672   8.631  72.201  1.00  0.00    -0.017 A  
HETATM   21  C   UNL     1     -10.171   7.724  73.058  1.00  0.00    -0.393 A  
ENDBRANCH   7  14
ENDBRANCH   2   4
TORSDOF 2
ENDMDL
MODEL      103
REMARK 921   NORMALIZED FREE ENERGY PREDICTED BY IDOCK:   -4.29 KCAL/MOL
REMARK 922        TOTAL FREE ENERGY PREDICTED BY IDOCK:   -5.39 KCAL/MOL
REMARK 923 INTER-LIGAND FREE ENERGY PREDICTED BY IDOCK:   -4.72 KCAL/MOL
REMARK 924 INTRA-LIGAND FREE ENERGY PREDICTED BY IDOCK:   -0.67 KCAL/MOL
REMARK 927      BINDING AFFINITY PREDICTED BY RF-SCORE:    0.00 PKD
ROOT
HETATM    1  C   UNL     1     -10.997   5.909  67.186  1.00  0.00    -0.195 C  
HETATM    2  N   UNL     1      -9.806   6.124  66.375  1.00  0.00    -0.310 NA 
HETATM    3  H   UNL     1     -10.058   6.398  65.425  1.00  0.00     0.000 HD 
ENDROOT
BRANCH   2   4
HETATM    4  C   UNL     1      -8.864   7.092  66.969  1.00  0.00    -0.124 C  
HETATM    5  C   UNL     1      -9.576   8.459  67.056  1.00  0.00    -0.248 C  
HETATM    6  C   UNL     1      -9.067   9.358  68.172  1.00  0.00    -0.129 C  
HETATM    7  C   UNL     1      -9.112   8.674  69.543  1.00  0.00    -0.146 C  
HETATM    8  C   UNL     1      -8.431   7.318  69.499  1.00  0.00    -0.133 A  
HETATM    9  C   UNL     1      -8.321   6.578  68.306  1.00  0.00    -0.117 A  
HETATM   10  C   UNL     1      -7.626   5.350  68.346  1.00  0.00    -0.080 A  
HETATM   11  C   UNL     1      -7.903   6.797  70.697  1.00  0.00    -0.105 A  
HETATM   12  C   UNL     1      -7.248   5.571  70.718  1.00  0.00    -0.074 A  
HETATM   13  C   UNL     1      -7.104   4.848  69.540  1.00  0.00    -0.055 A  
BRANCH   7  14
HETATM   14  C   UNL     1     -10.492   8.644  70.199  1.00  0.00    -0.228 A  
HETATM   15 CL   UNL     1     -12.991  11.423  71.645  1.00  0.00    -0.558 Cl 
HETATM   16  C   UNL     1     -12.932   8.680  71.622  1.00  0.00    -0.344 A  
HETATM   17  C   UNL     1     -12.343   7.467  71.261  1.00  0.00    -0.380 A  
HETATM   18 CL   UNL     1     -14.384   8.629  72.555  1.00  0.00    -0.437 Cl 
HETATM   19  C   UNL     1     -11.118   9.859  70.532  1.00  0.00    -0.398 A  
HETATM   20  C   UNL     1     -12.325   9.881  71.241  1.00  0.00    -0.381 A  
HETATM   21  C   UNL     1     -11.140   7.448  70.546  1.00  0.00    -0.280 A  
ENDBRANCH   7  14
ENDBRANCH   2   4
TORSDOF 2
ENDMDL
MODEL      104
REMARK 921   NORMALIZED FREE ENERGY PREDICTED BY IDOCK:   -4.29 KCAL/MOL
REMARK 922        TOTAL FREE ENERGY PREDICTED BY IDOCK:   -5.39 KCAL/MOL
REMARK 923 INTER-LIGAND FREE ENERGY PREDICTED BY IDOCK:   -4.62 KCAL/MOL
REMARK 924 INTRA-LIGAND FREE ENERGY PREDICTED BY IDOCK:   -0.77 KCAL/MOL
REMARK 927      BINDING AFFINITY PREDICTED BY RF-SCORE:    0.00 PKD
ROOT
HETATM    1  C   UNL     1      -6.643   7.581  66.885  1.00  0.00    -0.061 C  
HETATM    2  N   UNL     1      -7.239   8.319  65.779  1.00  0.00    -0.071 NA 
HETATM    3  H   UNL     1      -6.780   8.086  64.898  1.00  0.00     0.000 HD 
ENDROOT
BRANCH   2   4
HETATM    4  C   UNL     1      -8.699   8.135  65.676  1.00  0.00    -0.145 C  
HETATM    5  C   UNL     1      -9.076   6.861  66.463  1.00  0.00    -0.179 C  
HETATM    6  C   UNL     1     -10.493   6.864  67.015  1.00  0.00    -0.374 C  
HETATM    7  C   UNL     1     -10.785   8.098  67.876  1.00  0.00    -0.138 C  
HETATM    8  C   UNL     1     -10.418   9.375  67.142  1.00  0.00    -0.315 A  
HETATM    9  C   UNL     1      -9.444   9.396  66.125  1.00  0.00    -0.287 A  
HETATM   10  C   UNL     1      -9.202  10.617  65.460  1.00  0.00    -0.228 A  
HETATM   11  C   UNL     1     -11.076  10.567  67.505  1.00  0.00    -0.358 A  
HETATM   12  C   UNL     1     -10.800  11.764  66.855  1.00  0.00    -0.312 A  
HETATM   13  C   UNL     1      -9.865  11.789  65.828  1.00  0.00    -0.267 A  
BRANCH   7  14
HETATM   14  C   UNL     1     -10.234   8.030  69.299  1.00  0.00    -0.214 A  
HETATM   15 CL   UNL     1     -11.399   6.251  72.696  1.00  0.00    -0.301 Cl 
HETATM   16  C   UNL     1      -9.425   8.028  72.006  1.00  0.00    -0.197 A  
HETATM   17  C   UNL     1      -8.736   8.794  71.064  1.00  0.00    -0.248 A  
HETATM   18 CL   UNL     1      -8.924   8.130  73.655  1.00  0.00    -0.314 Cl 
HETATM   19  C   UNL     1     -10.892   7.230  70.251  1.00  0.00    -0.264 A  
HETATM   20  C   UNL     1     -10.497   7.230  71.594  1.00  0.00    -0.198 A  
HETATM   21  C   UNL     1      -9.130   8.787  69.721  1.00  0.00    -0.151 A  
ENDBRANCH   7  14
ENDBRANCH   2   4
TORSDOF 2
ENDMDL
MODEL      105
REMARK 921   NORMALIZED FREE ENERGY PREDICTED BY IDOCK:   -4.29 KCAL/MOL
REMARK 922        TOTAL FREE ENERGY PREDICTED BY IDOCK:   -5.38 KCAL/MOL
REMARK 923 INTER-LIGAND FREE ENERGY PREDICTED BY IDOCK:   -4.63 KCAL/MOL
REMARK 924 INTRA-LIGAND FREE ENERGY PREDICTED BY IDOCK:   -0.76 KCAL/MOL
REMARK 927      BINDING AFFINITY PREDICTED BY RF-SCORE:    0.00 PKD
ROOT
HETATM    1  C   UNL     1      -6.981  11.314  68.540  1.00  0.00    -0.078 C  
HETATM    2  N   UNL     1      -7.010   9.997  67.918  1.00  0.00    -0.083 NA 
HETATM    3  H   UNL     1      -6.504   9.317  68.486  1.00  0.00     0.000 HD 
ENDROOT
BRANCH   2   4
HETATM    4  C   UNL     1      -8.376   9.522  67.624  1.00  0.00    -0.125 C  
HETATM    5  C   UNL     1      -9.200   9.600  68.927  1.00  0.00    -0.147 C  
HETATM    6  C   UNL     1     -10.693   9.791  68.712  1.00  0.00    -0.243 C  
HETATM    7  C   UNL     1     -11.009  11.010  67.838  1.00  0.00    -0.317 C  
HETATM    8  C   UNL     1     -10.210  10.978  66.547  1.00  0.00    -0.280 A  
HETATM    9  C   UNL     1      -8.983  10.294  66.448  1.00  0.00    -0.166 A  
HETATM   10  C   UNL     1      -8.333  10.273  65.195  1.00  0.00    -0.162 A  
HETATM   11  C   UNL     1     -10.722  11.663  65.427  1.00  0.00    -0.341 A  
HETATM   12  C   UNL     1     -10.049  11.653  64.212  1.00  0.00    -0.328 A  
HETATM   13  C   UNL     1      -8.854  10.953  64.094  1.00  0.00    -0.055 A  
BRANCH   7  14
HETATM   14  C   UNL     1     -10.944  12.353  68.564  1.00  0.00    -0.277 A  
HETATM   15 CL   UNL     1     -13.323  14.280  71.150  1.00  0.00    -0.390 Cl 
HETATM   16  C   UNL     1     -11.032  14.904  69.775  1.00  0.00    -0.258 A  
HETATM   17  C   UNL     1      -9.995  14.572  68.902  1.00  0.00    -0.206 A  
HETATM   18 CL   UNL     1     -11.066  16.504  70.422  1.00  0.00    -0.267 Cl 
HETATM   19  C   UNL     1     -11.960  12.685  69.479  1.00  0.00    -0.332 A  
HETATM   20  C   UNL     1     -12.010  13.950  70.077  1.00  0.00    -0.336 A  
HETATM   21  C   UNL     1      -9.945  13.305  68.310  1.00  0.00    -0.236 A  
ENDBRANCH   7  14
ENDBRANCH   2   4
TORSDOF 2
ENDMDL
MODEL      106
REMARK 921   NORMALIZED FREE ENERGY PREDICTED BY IDOCK:   -4.29 KCAL/MOL
REMARK 922        TOTAL FREE ENERGY PREDICTED BY IDOCK:   -5.38 KCAL/MOL
REMARK 923 INTER-LIGAND FREE ENERGY PREDICTED BY IDOCK:   -4.73 KCAL/MOL
REMARK 924 INTRA-LIGAND FREE ENERGY PREDICTED BY IDOCK:   -0.65 KCAL/MOL
REMARK 927      BINDING AFFINITY PREDICTED BY RF-SCORE:    0.00 PKD
ROOT
HETATM    1  C   UNL     1     -14.411   8.079  71.593  1.00  0.00    -0.473 C  
HETATM    2  N   UNL     1     -13.065   7.690  71.189  1.00  0.00    -0.559 NA 
HETATM    3  H   UNL     1     -12.967   7.727  70.174  1.00  0.00     0.000 HD 
ENDROOT
BRANCH   2   4
HETATM    4  C   UNL     1     -12.008   8.480  71.849  1.00  0.00    -0.345 C  
HETATM    5  C   UNL     1     -11.099   7.504  72.627  1.00  0.00    -0.398 C  
HETATM    6  C   UNL     1      -9.668   7.989  72.803  1.00  0.00    -0.348 C  
HETATM    7  C   UNL     1      -9.003   8.351  71.471  1.00  0.00    -0.251 C  
HETATM    8  C   UNL     1      -9.871   9.303  70.668  1.00  0.00    -0.332 A  
HETATM    9  C   UNL     1     -11.268   9.359  70.837  1.00  0.00    -0.393 A  
HETATM   10  C   UNL     1     -11.991  10.310  70.085  1.00  0.00    -0.313 A  
HETATM   11  C   UNL     1      -9.246  10.145  69.726  1.00  0.00    -0.175 A  
HETATM   12  C   UNL     1      -9.983  11.053  68.976  1.00  0.00    -0.184 A  
HETATM   13  C   UNL     1     -11.357  11.140  69.159  1.00  0.00    -0.340 A  
BRANCH   7  14
HETATM   14  C   UNL     1      -8.495   7.157  70.663  1.00  0.00    -0.138 A  
HETATM   15 CL   UNL     1      -5.244   4.820  70.821  1.00  0.00    -0.003 Cl 
HETATM   16  C   UNL     1      -7.361   5.097  69.098  1.00  0.00    -0.058 A  
HETATM   17  C   UNL     1      -8.567   5.689  68.719  1.00  0.00    -0.104 A  
HETATM   18 CL   UNL     1      -6.687   3.896  68.058  1.00  0.00    -0.046 Cl 
HETATM   19  C   UNL     1      -7.303   6.523  71.056  1.00  0.00    -0.083 A  
HETATM   20  C   UNL     1      -6.735   5.505  70.280  1.00  0.00    -0.047 A  
HETATM   21  C   UNL     1      -9.135   6.703  69.500  1.00  0.00    -0.144 A  
ENDBRANCH   7  14
ENDBRANCH   2   4
TORSDOF 2
ENDMDL
MODEL      107
REMARK 921   NORMALIZED FREE ENERGY PREDICTED BY IDOCK:   -4.28 KCAL/MOL
REMARK 922        TOTAL FREE ENERGY PREDICTED BY IDOCK:   -5.38 KCAL/MOL
REMARK 923 INTER-LIGAND FREE ENERGY PREDICTED BY IDOCK:   -4.62 KCAL/MOL
REMARK 924 INTRA-LIGAND FREE ENERGY PREDICTED BY IDOCK:   -0.76 KCAL/MOL
REMARK 927      BINDING AFFINITY PREDICTED BY RF-SCORE:    0.00 PKD
ROOT
HETATM    1  C   UNL     1      -6.996   7.344  72.094  1.00  0.00    -0.063 C  
HETATM    2  N   UNL     1      -6.563   5.953  72.122  1.00  0.00    -0.061 NA 
HETATM    3  H   UNL     1      -6.003   5.764  72.954  1.00  0.00     0.000 HD 
ENDROOT
BRANCH   2   4
HETATM    4  C   UNL     1      -7.679   4.994  72.013  1.00  0.00    -0.104 C  
HETATM    5  C   UNL     1      -8.734   5.365  73.078  1.00  0.00    -0.121 C  
HETATM    6  C   UNL     1     -10.155   4.963  72.717  1.00  0.00    -0.215 C  
HETATM    7  C   UNL     1     -10.593   5.513  71.356  1.00  0.00    -0.310 C  
HETATM    8  C   UNL     1      -9.577   5.179  70.278  1.00  0.00    -0.249 A  
HETATM    9  C   UNL     1      -8.221   4.944  70.581  1.00  0.00    -0.096 A  
HETATM   10  C   UNL     1      -7.356   4.589  69.524  1.00  0.00    -0.051 A  
HETATM   11  C   UNL     1     -10.017   5.110  68.942  1.00  0.00    -0.245 A  
HETATM   12  C   UNL     1      -9.140   4.786  67.914  1.00  0.00    -0.133 A  
HETATM   13  C   UNL     1      -7.808   4.520  68.205  1.00  0.00    -0.080 A  
BRANCH   7  14
HETATM   14  C   UNL     1     -11.014   6.982  71.364  1.00  0.00    -0.266 A  
HETATM   15 CL   UNL     1     -14.324   8.964  72.449  1.00  0.00    -0.474 Cl 
HETATM   16  C   UNL     1     -11.971   9.636  71.208  1.00  0.00    -0.380 A  
HETATM   17  C   UNL     1     -10.705   9.312  70.717  1.00  0.00    -0.350 A  
HETATM   18 CL   UNL     1     -12.523  11.260  71.014  1.00  0.00    -0.501 Cl 
HETATM   19  C   UNL     1     -12.270   7.331  71.893  1.00  0.00    -0.348 A  
HETATM   20  C   UNL     1     -12.750   8.644  71.813  1.00  0.00    -0.359 A  
HETATM   21  C   UNL     1     -10.226   7.999  70.804  1.00  0.00    -0.209 A  
ENDBRANCH   7  14
ENDBRANCH   2   4
TORSDOF 2
ENDMDL
MODEL      108
REMARK 921   NORMALIZED FREE ENERGY PREDICTED BY IDOCK:   -4.27 KCAL/MOL
REMARK 922        TOTAL FREE ENERGY PREDICTED BY IDOCK:   -5.37 KCAL/MOL
REMARK 923 INTER-LIGAND FREE ENERGY PREDICTED BY IDOCK:   -4.80 KCAL/MOL
REMARK 924 INTRA-LIGAND FREE ENERGY PREDICTED BY IDOCK:   -0.56 KCAL/MOL
REMARK 927      BINDING AFFINITY PREDICTED BY RF-SCORE:    0.00 PKD
ROOT
HETATM    1  C   UNL     1      -9.466   3.440  69.153  1.00  0.00    -0.141 C  
HETATM    2  N   UNL     1      -9.701   4.868  69.324  1.00  0.00    -0.172 NA 
HETATM    3  H   UNL     1      -9.146   5.237  70.097  1.00  0.00     0.000 HD 
ENDROOT
BRANCH   2   4
HETATM    4  C   UNL     1      -9.471   5.647  68.093  1.00  0.00    -0.110 C  
HETATM    5  C   UNL     1     -10.816   6.273  67.666  1.00  0.00    -0.433 C  
HETATM    6  C   UNL     1     -10.681   7.565  66.875  1.00  0.00    -0.299 C  
HETATM    7  C   UNL     1      -9.842   8.617  67.608  1.00  0.00    -0.229 C  
HETATM    8  C   UNL     1      -8.511   8.039  68.056  1.00  0.00    -0.126 A  
HETATM    9  C   UNL     1      -8.339   6.660  68.289  1.00  0.00    -0.117 A  
HETATM   10  C   UNL     1      -7.054   6.203  68.653  1.00  0.00    -0.082 A  
HETATM   11  C   UNL     1      -7.429   8.921  68.245  1.00  0.00    -0.087 A  
HETATM   12  C   UNL     1      -6.180   8.450  68.632  1.00  0.00    -0.045 A  
HETATM   13  C   UNL     1      -5.991   7.088  68.832  1.00  0.00    -0.022 A  
BRANCH   7  14
HETATM   14  C   UNL     1     -10.582   9.373  68.711  1.00  0.00    -0.234 A  
HETATM   15 CL   UNL     1     -11.768   8.485  72.435  1.00  0.00    -0.447 Cl 
HETATM   16  C   UNL     1     -12.139  10.598  70.725  1.00  0.00    -0.374 A  
HETATM   17  C   UNL     1     -11.920  11.247  69.508  1.00  0.00    -0.421 A  
HETATM   18 CL   UNL     1     -13.160  11.371  71.883  1.00  0.00    -0.578 Cl 
HETATM   19  C   UNL     1     -10.775   8.749  69.957  1.00  0.00    -0.236 A  
HETATM   20  C   UNL     1     -11.550   9.351  70.956  1.00  0.00    -0.330 A  
HETATM   21  C   UNL     1     -11.140  10.645  68.514  1.00  0.00    -0.318 A  
ENDBRANCH   7  14
ENDBRANCH   2   4
TORSDOF 2
ENDMDL
MODEL      109
REMARK 921   NORMALIZED FREE ENERGY PREDICTED BY IDOCK:   -4.26 KCAL/MOL
REMARK 922        TOTAL FREE ENERGY PREDICTED BY IDOCK:   -5.35 KCAL/MOL
REMARK 923 INTER-LIGAND FREE ENERGY PREDICTED BY IDOCK:   -4.96 KCAL/MOL
REMARK 924 INTRA-LIGAND FREE ENERGY PREDICTED BY IDOCK:   -0.39 KCAL/MOL
REMARK 927      BINDING AFFINITY PREDICTED BY RF-SCORE:    0.00 PKD
ROOT
HETATM    1  C   UNL     1      -9.767   4.088  69.861  1.00  0.00    -0.193 C  
HETATM    2  N   UNL     1     -10.627   5.256  70.000  1.00  0.00    -0.286 NA 
HETATM    3  H   UNL     1     -11.604   5.007  69.849  1.00  0.00     0.000 HD 
ENDROOT
BRANCH   2   4
HETATM    4  C   UNL     1     -10.456   5.955  71.289  1.00  0.00    -0.233 C  
HETATM    5  C   UNL     1      -8.984   6.405  71.397  1.00  0.00    -0.138 C  
HETATM    6  C   UNL     1      -8.769   7.637  72.262  1.00  0.00    -0.160 C  
HETATM    7  C   UNL     1      -9.631   8.824  71.818  1.00  0.00    -0.371 C  
HETATM    8  C   UNL     1     -11.089   8.421  71.689  1.00  0.00    -0.344 A  
HETATM    9  C   UNL     1     -11.474   7.090  71.436  1.00  0.00    -0.312 A  
HETATM   10  C   UNL     1     -12.854   6.795  71.382  1.00  0.00    -0.287 A  
HETATM   11  C   UNL     1     -12.073   9.420  71.824  1.00  0.00    -0.454 A  
HETATM   12  C   UNL     1     -13.425   9.111  71.738  1.00  0.00    -0.478 A  
HETATM   13  C   UNL     1     -13.817   7.796  71.522  1.00  0.00    -0.439 A  
BRANCH   7  14
HETATM   14  C   UNL     1      -9.098   9.586  70.606  1.00  0.00    -0.236 A  
HETATM   15 CL   UNL     1      -5.485  10.885  69.455  1.00  0.00    -0.041 Cl 
HETATM   16  C   UNL     1      -8.050  11.183  68.525  1.00  0.00    -0.146 A  
HETATM   17  C   UNL     1      -9.419  10.923  68.594  1.00  0.00    -0.192 A  
HETATM   18 CL   UNL     1      -7.486  12.227  67.271  1.00  0.00    -0.154 Cl 
HETATM   19  C   UNL     1      -7.714   9.820  70.500  1.00  0.00    -0.094 A  
HETATM   20  C   UNL     1      -7.192  10.616  69.473  1.00  0.00    -0.140 A  
HETATM   21  C   UNL     1      -9.938  10.123  69.619  1.00  0.00    -0.262 A  
ENDBRANCH   7  14
ENDBRANCH   2   4
TORSDOF 2
ENDMDL
MODEL      110
REMARK 921   NORMALIZED FREE ENERGY PREDICTED BY IDOCK:   -4.25 KCAL/MOL
REMARK 922        TOTAL FREE ENERGY PREDICTED BY IDOCK:   -5.34 KCAL/MOL
REMARK 923 INTER-LIGAND FREE ENERGY PREDICTED BY IDOCK:   -4.64 KCAL/MOL
REMARK 924 INTRA-LIGAND FREE ENERGY PREDICTED BY IDOCK:   -0.71 KCAL/MOL
REMARK 927      BINDING AFFINITY PREDICTED BY RF-SCORE:    0.00 PKD
ROOT
HETATM    1  C   UNL     1      -7.187   5.925  72.828  1.00  0.00    -0.090 C  
HETATM    2  N   UNL     1      -7.771   6.946  71.969  1.00  0.00    -0.093 NA 
HETATM    3  H   UNL     1      -7.426   6.856  71.013  1.00  0.00     0.000 HD 
ENDROOT
BRANCH   2   4
HETATM    4  C   UNL     1      -9.246   6.956  71.996  1.00  0.00    -0.140 C  
HETATM    5  C   UNL     1      -9.704   8.322  72.551  1.00  0.00    -0.368 C  
HETATM    6  C   UNL     1     -11.074   8.768  72.064  1.00  0.00    -0.441 C  
HETATM    7  C   UNL     1     -11.177   8.781  70.534  1.00  0.00    -0.278 C  
HETATM    8  C   UNL     1     -10.725   7.456  69.945  1.00  0.00    -0.254 A  
HETATM    9  C   UNL     1      -9.822   6.611  70.620  1.00  0.00    -0.198 A  
HETATM   10  C   UNL     1      -9.496   5.374  70.022  1.00  0.00    -0.212 A  
HETATM   11  C   UNL     1     -11.228   7.079  68.685  1.00  0.00     0.004 A  
HETATM   12  C   UNL     1     -10.870   5.869  68.103  1.00  0.00    -0.323 A  
HETATM   13  C   UNL     1     -10.006   5.013  68.774  1.00  0.00    -0.225 A  
BRANCH   7  14
HETATM   14  C   UNL     1     -10.544   9.997  69.860  1.00  0.00    -0.324 A  
HETATM   15 CL   UNL     1     -11.924  13.506  68.501  1.00  0.00    -0.398 Cl 
HETATM   16  C   UNL     1      -9.516  12.192  68.408  1.00  0.00    -0.179 A  
HETATM   17  C   UNL     1      -8.696  11.109  68.725  1.00  0.00    -0.130 A  
HETATM   18 CL   UNL     1      -8.845  13.466  67.456  1.00  0.00    -0.197 Cl 
HETATM   19  C   UNL     1     -11.349  11.115  69.571  1.00  0.00    -0.359 A  
HETATM   20  C   UNL     1     -10.844  12.202  68.848  1.00  0.00    -0.200 A  
HETATM   21  C   UNL     1      -9.201  10.025  69.454  1.00  0.00    -0.229 A  
ENDBRANCH   7  14
ENDBRANCH   2   4
TORSDOF 2
ENDMDL
MODEL      111
REMARK 921   NORMALIZED FREE ENERGY PREDICTED BY IDOCK:   -4.22 KCAL/MOL
REMARK 922        TOTAL FREE ENERGY PREDICTED BY IDOCK:   -5.31 KCAL/MOL
REMARK 923 INTER-LIGAND FREE ENERGY PREDICTED BY IDOCK:   -4.99 KCAL/MOL
REMARK 924 INTRA-LIGAND FREE ENERGY PREDICTED BY IDOCK:   -0.32 KCAL/MOL
REMARK 927      BINDING AFFINITY PREDICTED BY RF-SCORE:    0.00 PKD
ROOT
HETATM    1  C   UNL     1      -7.128  11.139  66.933  1.00  0.00    -0.131 C  
HETATM    2  N   UNL     1      -7.565  11.005  65.550  1.00  0.00    -0.365 NA 
HETATM    3  H   UNL     1      -6.905  10.440  65.014  1.00  0.00     0.000 HD 
ENDROOT
BRANCH   2   4
HETATM    4  C   UNL     1      -8.936  10.474  65.421  1.00  0.00    -0.186 C  
HETATM    5  C   UNL     1      -8.939   9.026  65.957  1.00  0.00    -0.227 C  
HETATM    6  C   UNL     1     -10.280   8.565  66.507  1.00  0.00    -0.286 C  
HETATM    7  C   UNL     1     -10.826   9.507  67.586  1.00  0.00    -0.253 C  
HETATM    8  C   UNL     1     -10.831  10.946  67.103  1.00  0.00    -0.337 A  
HETATM    9  C   UNL     1      -9.949  11.399  66.103  1.00  0.00    -0.265 A  
HETATM   10  C   UNL     1     -10.057  12.741  65.679  1.00  0.00    -0.281 A  
HETATM   11  C   UNL     1     -11.747  11.843  67.687  1.00  0.00    -0.346 A  
HETATM   12  C   UNL     1     -11.815  13.168  67.272  1.00  0.00    -0.420 A  
HETATM   13  C   UNL     1     -10.973  13.617  66.264  1.00  0.00    -0.300 A  
BRANCH   7  14
HETATM   14  C   UNL     1     -10.200   9.327  68.968  1.00  0.00    -0.217 A  
HETATM   15 CL   UNL     1      -6.634  10.182  70.586  1.00  0.00    -0.105 Cl 
HETATM   16  C   UNL     1      -8.877   8.836  71.416  1.00  0.00    -0.225 A  
HETATM   17  C   UNL     1     -10.179   8.377  71.213  1.00  0.00    -0.269 A  
HETATM   18 CL   UNL     1      -8.100   8.438  72.905  1.00  0.00    -0.201 Cl 
HETATM   19  C   UNL     1      -8.904   9.821  69.202  1.00  0.00    -0.160 A  
HETATM   20  C   UNL     1      -8.243   9.575  70.412  1.00  0.00    -0.190 A  
HETATM   21  C   UNL     1     -10.840   8.629  70.004  1.00  0.00    -0.226 A  
ENDBRANCH   7  14
ENDBRANCH   2   4
TORSDOF 2
ENDMDL
MODEL      112
REMARK 921   NORMALIZED FREE ENERGY PREDICTED BY IDOCK:   -4.20 KCAL/MOL
REMARK 922        TOTAL FREE ENERGY PREDICTED BY IDOCK:   -5.29 KCAL/MOL
REMARK 923 INTER-LIGAND FREE ENERGY PREDICTED BY IDOCK:   -4.97 KCAL/MOL
REMARK 924 INTRA-LIGAND FREE ENERGY PREDICTED BY IDOCK:   -0.32 KCAL/MOL
REMARK 927      BINDING AFFINITY PREDICTED BY RF-SCORE:    0.00 PKD
ROOT
HETATM    1  C   UNL     1     -11.608   9.706  70.718  1.00  0.00    -0.321 C  
HETATM    2  N   UNL     1     -10.563   9.418  71.693  1.00  0.00    -0.288 NA 
HETATM    3  H   UNL     1     -10.370  10.237  72.269  1.00  0.00     0.000 HD 
ENDROOT
BRANCH   2   4
HETATM    4  C   UNL     1     -10.860   8.242  72.533  1.00  0.00    -0.351 C  
HETATM    5  C   UNL     1     -11.917   7.387  71.802  1.00  0.00    -0.338 C  
HETATM    6  C   UNL     1     -11.866   5.906  72.141  1.00  0.00    -0.247 C  
HETATM    7  C   UNL     1     -10.477   5.299  71.913  1.00  0.00    -0.282 C  
HETATM    8  C   UNL     1      -9.403   6.117  72.608  1.00  0.00    -0.146 A  
HETATM    9  C   UNL     1      -9.576   7.486  72.890  1.00  0.00    -0.247 A  
HETATM   10  C   UNL     1      -8.547   8.157  73.585  1.00  0.00    -0.312 A  
HETATM   11  C   UNL     1      -8.202   5.475  72.969  1.00  0.00    -0.119 A  
HETATM   12  C   UNL     1      -7.191   6.164  73.628  1.00  0.00    -0.084 A  
HETATM   13  C   UNL     1      -7.364   7.506  73.940  1.00  0.00    -0.122 A  
BRANCH   7  14
HETATM   14  C   UNL     1     -10.151   4.975  70.456  1.00  0.00    -0.323 A  
HETATM   15 CL   UNL     1     -10.946   6.710  66.932  1.00  0.00    -0.451 Cl 
HETATM   16  C   UNL     1      -9.800   4.346  67.724  1.00  0.00    -0.094 A  
HETATM   17  C   UNL     1      -9.361   3.464  68.713  1.00  0.00    -0.234 A  
HETATM   18 CL   UNL     1      -9.621   3.867  66.075  1.00  0.00    -0.191 Cl 
HETATM   19  C   UNL     1     -10.549   5.874  69.449  1.00  0.00    -0.379 A  
HETATM   20  C   UNL     1     -10.381   5.563  68.094  1.00  0.00    -0.176 A  
HETATM   21  C   UNL     1      -9.526   3.780  70.067  1.00  0.00    -0.264 A  
ENDBRANCH   7  14
ENDBRANCH   2   4
TORSDOF 2
ENDMDL
MODEL      113
REMARK 921   NORMALIZED FREE ENERGY PREDICTED BY IDOCK:   -4.17 KCAL/MOL
REMARK 922        TOTAL FREE ENERGY PREDICTED BY IDOCK:   -5.26 KCAL/MOL
REMARK 923 INTER-LIGAND FREE ENERGY PREDICTED BY IDOCK:   -4.85 KCAL/MOL
REMARK 924 INTRA-LIGAND FREE ENERGY PREDICTED BY IDOCK:   -0.41 KCAL/MOL
REMARK 927      BINDING AFFINITY PREDICTED BY RF-SCORE:    0.00 PKD
ROOT
HETATM    1  C   UNL     1     -10.406   4.751  67.428  1.00  0.00    -0.019 C  
HETATM    2  N   UNL     1     -10.769   5.679  68.492  1.00  0.00    -0.199 NA 
HETATM    3  H   UNL     1     -11.457   5.260  69.118  1.00  0.00     0.000 HD 
ENDROOT
BRANCH   2   4
HETATM    4  C   UNL     1      -9.605   6.180  69.249  1.00  0.00    -0.133 C  
HETATM    5  C   UNL     1      -8.841   7.173  68.347  1.00  0.00    -0.127 C  
HETATM    6  C   UNL     1      -8.065   8.237  69.108  1.00  0.00    -0.120 C  
HETATM    7  C   UNL     1      -8.945   9.016  70.091  1.00  0.00    -0.200 C  
HETATM    8  C   UNL     1      -9.724   8.074  70.992  1.00  0.00    -0.185 A  
HETATM    9  C   UNL     1     -10.038   6.758  70.599  1.00  0.00    -0.204 A  
HETATM   10  C   UNL     1     -10.721   5.935  71.520  1.00  0.00    -0.313 A  
HETATM   11  C   UNL     1     -10.142   8.547  72.251  1.00  0.00    -0.386 A  
HETATM   12  C   UNL     1     -10.839   7.726  73.130  1.00  0.00    -0.401 A  
HETATM   13  C   UNL     1     -11.125   6.416  72.766  1.00  0.00    -0.281 A  
BRANCH   7  14
HETATM   14  C   UNL     1      -9.807  10.105  69.454  1.00  0.00    -0.247 A  
HETATM   15 CL   UNL     1      -9.164  12.993  66.750  1.00  0.00    -0.234 Cl 
HETATM   16  C   UNL     1     -11.249  12.290  68.390  1.00  0.00    -0.266 A  
HETATM   17  C   UNL     1     -11.833  11.457  69.346  1.00  0.00    -0.419 A  
HETATM   18 CL   UNL     1     -12.158  13.649  67.837  1.00  0.00    -0.372 Cl 
HETATM   19  C   UNL     1      -9.246  10.927  68.459  1.00  0.00    -0.181 A  
HETATM   20  C   UNL     1      -9.956  12.014  67.933  1.00  0.00    -0.197 A  
HETATM   21  C   UNL     1     -11.123  10.368  69.866  1.00  0.00    -0.367 A  
ENDBRANCH   7  14
ENDBRANCH   2   4
TORSDOF 2
ENDMDL
MODEL      114
REMARK 921   NORMALIZED FREE ENERGY PREDICTED BY IDOCK:   -4.12 KCAL/MOL
REMARK 922        TOTAL FREE ENERGY PREDICTED BY IDOCK:   -5.20 KCAL/MOL
REMARK 923 INTER-LIGAND FREE ENERGY PREDICTED BY IDOCK:   -4.56 KCAL/MOL
REMARK 924 INTRA-LIGAND FREE ENERGY PREDICTED BY IDOCK:   -0.64 KCAL/MOL
REMARK 927      BINDING AFFINITY PREDICTED BY RF-SCORE:    0.00 PKD
ROOT
HETATM    1  C   UNL     1      -8.794   7.995  72.869  1.00  0.00    -0.224 C  
HETATM    2  N   UNL     1     -10.095   7.422  73.190  1.00  0.00    -0.259 NA 
HETATM    3  H   UNL     1     -10.417   7.743  74.104  1.00  0.00     0.000 HD 
ENDROOT
BRANCH   2   4
HETATM    4  C   UNL     1     -11.115   7.677  72.155  1.00  0.00    -0.267 C  
HETATM    5  C   UNL     1     -11.335   9.203  72.068  1.00  0.00    -0.333 C  
HETATM    6  C   UNL     1     -11.803   9.690  70.705  1.00  0.00    -0.378 C  
HETATM    7  C   UNL     1     -10.871   9.246  69.572  1.00  0.00    -0.211 C  
HETATM    8  C   UNL     1     -10.619   7.750  69.627  1.00  0.00    -0.242 A  
HETATM    9  C   UNL     1     -10.725   7.021  70.827  1.00  0.00    -0.252 A  
HETATM   10  C   UNL     1     -10.524   5.625  70.777  1.00  0.00    -0.335 A  
HETATM   11  C   UNL     1     -10.265   7.088  68.435  1.00  0.00    -0.196 A  
HETATM   12  C   UNL     1     -10.044   5.716  68.416  1.00  0.00    -0.224 A  
HETATM   13  C   UNL     1     -10.177   4.982  69.587  1.00  0.00    -0.306 A  
BRANCH   7  14
HETATM   14  C   UNL     1      -9.596  10.076  69.428  1.00  0.00    -0.237 A  
HETATM   15 CL   UNL     1      -8.536  13.266  67.246  1.00  0.00    -0.204 Cl 
HETATM   16  C   UNL     1      -7.228  11.530  68.921  1.00  0.00    -0.117 A  
HETATM   17  C   UNL     1      -7.213  10.438  69.790  1.00  0.00    -0.155 A  
HETATM   18 CL   UNL     1      -5.732  12.328  68.598  1.00  0.00    -0.053 Cl 
HETATM   19  C   UNL     1      -9.606  11.205  68.588  1.00  0.00    -0.200 A  
HETATM   20  C   UNL     1      -8.433  11.924  68.330  1.00  0.00    -0.161 A  
HETATM   21  C   UNL     1      -8.389   9.724  70.051  1.00  0.00    -0.211 A  
ENDBRANCH   7  14
ENDBRANCH   2   4
TORSDOF 2
ENDMDL
MODEL      115
REMARK 921   NORMALIZED FREE ENERGY PREDICTED BY IDOCK:   -4.08 KCAL/MOL
REMARK 922        TOTAL FREE ENERGY PREDICTED BY IDOCK:   -5.15 KCAL/MOL
REMARK 923 INTER-LIGAND FREE ENERGY PREDICTED BY IDOCK:   -4.82 KCAL/MOL
REMARK 924 INTRA-LIGAND FREE ENERGY PREDICTED BY IDOCK:   -0.34 KCAL/MOL
REMARK 927      BINDING AFFINITY PREDICTED BY RF-SCORE:    0.00 PKD
ROOT
HETATM    1  C   UNL     1      -7.849   9.383  68.605  1.00  0.00    -0.088 C  
HETATM    2  N   UNL     1      -6.753   8.442  68.411  1.00  0.00    -0.063 NA 
HETATM    3  H   UNL     1      -5.903   8.779  68.862  1.00  0.00     0.000 HD 
ENDROOT
BRANCH   2   4
HETATM    4  C   UNL     1      -7.076   7.072  68.854  1.00  0.00    -0.085 C  
HETATM    5  C   UNL     1      -7.232   7.092  70.390  1.00  0.00    -0.070 C  
HETATM    6  C   UNL     1      -8.161   6.019  70.938  1.00  0.00    -0.121 C  
HETATM    7  C   UNL     1      -9.547   6.055  70.286  1.00  0.00    -0.194 C  
HETATM    8  C   UNL     1      -9.440   6.047  68.772  1.00  0.00    -0.137 A  
HETATM    9  C   UNL     1      -8.295   6.526  68.104  1.00  0.00    -0.116 A  
HETATM   10  C   UNL     1      -8.259   6.434  66.696  1.00  0.00    -0.111 A  
HETATM   11  C   UNL     1     -10.526   5.548  68.027  1.00  0.00    -0.240 A  
HETATM   12  C   UNL     1     -10.479   5.494  66.638  1.00  0.00    -0.355 A  
HETATM   13  C   UNL     1      -9.342   5.933  65.972  1.00  0.00    -0.117 A  
BRANCH   7  14
HETATM   14  C   UNL     1     -10.482   7.136  70.827  1.00  0.00    -0.227 A  
HETATM   15 CL   UNL     1     -14.410   7.348  71.591  1.00  0.00    -0.598 Cl 
HETATM   16  C   UNL     1     -12.326   9.132  71.600  1.00  0.00    -0.360 A  
HETATM   17  C   UNL     1     -10.974   9.443  71.441  1.00  0.00    -0.443 A  
HETATM   18 CL   UNL     1     -13.410  10.415  72.001  1.00  0.00    -0.514 Cl 
HETATM   19  C   UNL     1     -11.839   6.828  71.032  1.00  0.00    -0.427 A  
HETATM   20  C   UNL     1     -12.757   7.815  71.410  1.00  0.00    -0.308 A  
HETATM   21  C   UNL     1     -10.058   8.452  71.068  1.00  0.00    -0.242 A  
ENDBRANCH   7  14
ENDBRANCH   2   4
TORSDOF 2
ENDMDL
MODEL      116
REMARK 921   NORMALIZED FREE ENERGY PREDICTED BY IDOCK:   -4.08 KCAL/MOL
REMARK 922        TOTAL FREE ENERGY PREDICTED BY IDOCK:   -5.15 KCAL/MOL
REMARK 923 INTER-LIGAND FREE ENERGY PREDICTED BY IDOCK:   -4.79 KCAL/MOL
REMARK 924 INTRA-LIGAND FREE ENERGY PREDICTED BY IDOCK:   -0.36 KCAL/MOL
REMARK 927      BINDING AFFINITY PREDICTED BY RF-SCORE:    0.00 PKD
ROOT
HETATM    1  C   UNL     1     -13.823   8.780  72.243  1.00  0.00    -0.447 C  
HETATM    2  N   UNL     1     -12.866   8.895  71.150  1.00  0.00    -0.501 NA 
HETATM    3  H   UNL     1     -13.151   9.623  70.495  1.00  0.00     0.000 HD 
ENDROOT
BRANCH   2   4
HETATM    4  C   UNL     1     -11.481   9.115  71.610  1.00  0.00    -0.381 C  
HETATM    5  C   UNL     1     -11.068   7.904  72.475  1.00  0.00    -0.423 C  
HETATM    6  C   UNL     1      -9.573   7.624  72.483  1.00  0.00    -0.230 C  
HETATM    7  C   UNL     1      -8.999   7.459  71.071  1.00  0.00    -0.151 C  
HETATM    8  C   UNL     1      -9.391   8.626  70.183  1.00  0.00    -0.171 A  
HETATM    9  C   UNL     1     -10.548   9.392  70.427  1.00  0.00    -0.316 A  
HETATM   10  C   UNL     1     -10.809  10.491  69.581  1.00  0.00    -0.320 A  
HETATM   11  C   UNL     1      -8.567   8.936  69.083  1.00  0.00    -0.134 A  
HETATM   12  C   UNL     1      -8.861  10.006  68.246  1.00  0.00    -0.116 A  
HETATM   13  C   UNL     1      -9.981  10.788  68.498  1.00  0.00    -0.186 A  
BRANCH   7  14
HETATM   14  C   UNL     1      -9.249   6.094  70.433  1.00  0.00    -0.162 A  
HETATM   15 CL   UNL     1      -9.251   2.314  71.765  1.00  0.00    -0.147 Cl 
HETATM   16  C   UNL     1      -9.468   3.513  69.306  1.00  0.00    -0.163 A  
HETATM   17  C   UNL     1      -9.531   4.646  68.493  1.00  0.00    -0.206 A  
HETATM   18 CL   UNL     1      -9.534   1.965  68.544  1.00  0.00    -0.241 Cl 
HETATM   19  C   UNL     1      -9.230   4.945  71.246  1.00  0.00    -0.190 A  
HETATM   20  C   UNL     1      -9.333   3.664  70.690  1.00  0.00    -0.158 A  
HETATM   21  C   UNL     1      -9.433   5.925  69.052  1.00  0.00    -0.149 A  
ENDBRANCH   7  14
ENDBRANCH   2   4
TORSDOF 2
ENDMDL
MODEL      117
REMARK 921   NORMALIZED FREE ENERGY PREDICTED BY IDOCK:   -4.08 KCAL/MOL
REMARK 922        TOTAL FREE ENERGY PREDICTED BY IDOCK:   -5.15 KCAL/MOL
REMARK 923 INTER-LIGAND FREE ENERGY PREDICTED BY IDOCK:   -4.89 KCAL/MOL
REMARK 924 INTRA-LIGAND FREE ENERGY PREDICTED BY IDOCK:   -0.26 KCAL/MOL
REMARK 927      BINDING AFFINITY PREDICTED BY RF-SCORE:    0.00 PKD
ROOT
HETATM    1  C   UNL     1      -6.744   4.587  67.162  1.00  0.00    -0.051 C  
HETATM    2  N   UNL     1      -6.916   5.914  66.583  1.00  0.00    -0.063 NA 
HETATM    3  H   UNL     1      -6.187   6.106  65.895  1.00  0.00     0.000 HD 
ENDROOT
BRANCH   2   4
HETATM    4  C   UNL     1      -8.256   6.127  66.003  1.00  0.00    -0.127 C  
HETATM    5  C   UNL     1      -9.147   4.934  66.410  1.00  0.00    -0.127 C  
HETATM    6  C   UNL     1     -10.630   5.261  66.488  1.00  0.00    -0.348 C  
HETATM    7  C   UNL     1     -10.922   6.451  67.408  1.00  0.00    -0.463 C  
HETATM    8  C   UNL     1     -10.057   7.645  67.048  1.00  0.00    -0.338 A  
HETATM    9  C   UNL     1      -8.814   7.496  66.401  1.00  0.00    -0.178 A  
HETATM   10  C   UNL     1      -8.099   8.663  66.057  1.00  0.00    -0.109 A  
HETATM   11  C   UNL     1     -10.522   8.932  67.381  1.00  0.00    -0.347 A  
HETATM   12  C   UNL     1      -9.786  10.066  67.058  1.00  0.00    -0.238 A  
HETATM   13  C   UNL     1      -8.575   9.933  66.391  1.00  0.00    -0.136 A  
BRANCH   7  14
HETATM   14  C   UNL     1     -10.919   6.122  68.900  1.00  0.00    -0.424 A  
HETATM   15 CL   UNL     1     -12.488   7.829  72.170  1.00  0.00    -0.300 Cl 
HETATM   16  C   UNL     1     -10.784   5.731  71.695  1.00  0.00    -0.256 A  
HETATM   17  C   UNL     1     -10.083   4.889  70.830  1.00  0.00    -0.303 A  
HETATM   18 CL   UNL     1     -10.600   5.482  73.393  1.00  0.00    -0.266 Cl 
HETATM   19  C   UNL     1     -11.655   6.936  69.782  1.00  0.00    -0.205 A  
HETATM   20  C   UNL     1     -11.586   6.748  71.168  1.00  0.00    -0.329 A  
HETATM   21  C   UNL     1     -10.158   5.076  69.444  1.00  0.00    -0.288 A  
ENDBRANCH   7  14
ENDBRANCH   2   4
TORSDOF 2
ENDMDL
MODEL      118
REMARK 921   NORMALIZED FREE ENERGY PREDICTED BY IDOCK:   -4.07 KCAL/MOL
REMARK 922        TOTAL FREE ENERGY PREDICTED BY IDOCK:   -5.14 KCAL/MOL
REMARK 923 INTER-LIGAND FREE ENERGY PREDICTED BY IDOCK:   -4.83 KCAL/MOL
REMARK 924 INTRA-LIGAND FREE ENERGY PREDICTED BY IDOCK:   -0.31 KCAL/MOL
REMARK 927      BINDING AFFINITY PREDICTED BY RF-SCORE:    0.00 PKD
ROOT
HETATM    1  C   UNL     1      -7.633  10.708  65.614  1.00  0.00    -0.100 C  
HETATM    2  N   UNL     1      -8.788   9.822  65.549  1.00  0.00    -0.153 NA 
HETATM    3  H   UNL     1      -8.548   8.889  65.885  1.00  0.00     0.000 HD 
ENDROOT
BRANCH   2   4
HETATM    4  C   UNL     1      -9.967  10.350  66.262  1.00  0.00    -0.226 C  
HETATM    5  C   UNL     1      -9.524  10.752  67.685  1.00  0.00    -0.166 C  
HETATM    6  C   UNL     1     -10.357  11.862  68.309  1.00  0.00    -0.211 C  
HETATM    7  C   UNL     1     -10.424  13.112  67.426  1.00  0.00    -0.243 C  
HETATM    8  C   UNL     1     -10.847  12.760  66.011  1.00  0.00    -0.301 A  
HETATM    9  C   UNL     1     -10.629  11.479  65.466  1.00  0.00    -0.334 A  
HETATM   10  C   UNL     1     -11.101  11.223  64.161  1.00  0.00    -0.306 A  
HETATM   11  C   UNL     1     -11.470  13.755  65.232  1.00  0.00    -0.320 A  
HETATM   12  C   UNL     1     -11.900  13.487  63.938  1.00  0.00    -0.460 A  
HETATM   13  C   UNL     1     -11.720  12.218  63.402  1.00  0.00    -0.542 A  
BRANCH   7  14
HETATM   14  C   UNL     1      -9.188  14.008  67.489  1.00  0.00    -0.197 A  
HETATM   15 CL   UNL     1      -6.047  14.315  69.959  1.00  0.00    -0.139 Cl 
HETATM   16  C   UNL     1      -6.995  15.757  67.826  1.00  0.00    -0.152 A  
HETATM   17  C   UNL     1      -7.915  15.969  66.798  1.00  0.00    -0.302 A  
HETATM   18 CL   UNL     1      -5.720  16.904  68.021  1.00  0.00    -0.119 Cl 
HETATM   19  C   UNL     1      -8.230  13.782  68.494  1.00  0.00    -0.124 A  
HETATM   20  C   UNL     1      -7.144  14.649  68.667  1.00  0.00    -0.115 A  
HETATM   21  C   UNL     1      -8.996  15.096  66.624  1.00  0.00    -0.319 A  
ENDBRANCH   7  14
ENDBRANCH   2   4
TORSDOF 2
ENDMDL
MODEL      119
REMARK 921   NORMALIZED FREE ENERGY PREDICTED BY IDOCK:   -4.07 KCAL/MOL
REMARK 922        TOTAL FREE ENERGY PREDICTED BY IDOCK:   -5.14 KCAL/MOL
REMARK 923 INTER-LIGAND FREE ENERGY PREDICTED BY IDOCK:   -4.51 KCAL/MOL
REMARK 924 INTRA-LIGAND FREE ENERGY PREDICTED BY IDOCK:   -0.63 KCAL/MOL
REMARK 927      BINDING AFFINITY PREDICTED BY RF-SCORE:    0.00 PKD
ROOT
HETATM    1  C   UNL     1      -7.804   8.500  71.494  1.00  0.00    -0.125 C  
HETATM    2  N   UNL     1      -8.344   8.678  72.836  1.00  0.00    -0.415 NA 
HETATM    3  H   UNL     1      -8.343   9.663  73.099  1.00  0.00     0.000 HD 
ENDROOT
BRANCH   2   4
HETATM    4  C   UNL     1      -9.688   8.090  73.005  1.00  0.00    -0.278 C  
HETATM    5  C   UNL     1     -10.580   8.599  71.853  1.00  0.00    -0.411 C  
HETATM    6  C   UNL     1     -11.714   7.657  71.478  1.00  0.00    -0.310 C  
HETATM    7  C   UNL     1     -11.219   6.244  71.151  1.00  0.00    -0.365 C  
HETATM    8  C   UNL     1     -10.327   5.709  72.257  1.00  0.00    -0.250 A  
HETATM    9  C   UNL     1      -9.609   6.565  73.114  1.00  0.00    -0.164 A  
HETATM   10  C   UNL     1      -8.844   5.982  74.148  1.00  0.00    -0.124 A  
HETATM   11  C   UNL     1     -10.221   4.312  72.412  1.00  0.00    -0.248 A  
HETATM   12  C   UNL     1      -9.438   3.761  73.420  1.00  0.00    -0.125 A  
HETATM   13  C   UNL     1      -8.752   4.597  74.292  1.00  0.00    -0.106 A  
BRANCH   7  14
HETATM   14  C   UNL     1     -10.624   6.081  69.753  1.00  0.00    -0.356 A  
HETATM   15 CL   UNL     1      -7.007   5.125  68.317  1.00  0.00    -0.060 Cl 
HETATM   16  C   UNL     1      -9.374   5.977  67.222  1.00  0.00    -0.113 A  
HETATM   17  C   UNL     1     -10.712   6.357  67.333  1.00  0.00    -0.411 A  
HETATM   18 CL   UNL     1      -8.651   6.006  65.654  1.00  0.00    -0.154 Cl 
HETATM   19  C   UNL     1      -9.289   5.659  69.622  1.00  0.00    -0.171 A  
HETATM   20  C   UNL     1      -8.664   5.611  68.370  1.00  0.00    -0.109 A  
HETATM   21  C   UNL     1     -11.336   6.399  68.585  1.00  0.00    -0.214 A  
ENDBRANCH   7  14
ENDBRANCH   2   4
TORSDOF 2
ENDMDL
MODEL      120
REMARK 921   NORMALIZED FREE ENERGY PREDICTED BY IDOCK:   -4.06 KCAL/MOL
REMARK 922        TOTAL FREE ENERGY PREDICTED BY IDOCK:   -5.13 KCAL/MOL
REMARK 923 INTER-LIGAND FREE ENERGY PREDICTED BY IDOCK:   -4.75 KCAL/MOL
REMARK 924 INTRA-LIGAND FREE ENERGY PREDICTED BY IDOCK:   -0.38 KCAL/MOL
REMARK 927      BINDING AFFINITY PREDICTED BY RF-SCORE:    0.00 PKD
ROOT
HETATM    1  C   UNL     1      -9.793   4.743  67.906  1.00  0.00    -0.134 C  
HETATM    2  N   UNL     1     -10.120   4.810  69.324  1.00  0.00    -0.186 NA 
HETATM    3  H   UNL     1     -10.475   3.914  69.657  1.00  0.00     0.000 HD 
ENDROOT
BRANCH   2   4
HETATM    4  C   UNL     1      -8.994   5.271  70.160  1.00  0.00    -0.129 C  
HETATM    5  C   UNL     1      -8.194   6.313  69.349  1.00  0.00    -0.114 C  
HETATM    6  C   UNL     1      -7.457   7.335  70.201  1.00  0.00    -0.088 C  
HETATM    7  C   UNL     1      -8.385   8.059  71.182  1.00  0.00    -0.122 C  
HETATM    8  C   UNL     1      -9.200   7.069  71.995  1.00  0.00    -0.148 A  
HETATM    9  C   UNL     1      -9.491   5.776  71.518  1.00  0.00    -0.171 A  
HETATM   10  C   UNL     1     -10.211   4.903  72.361  1.00  0.00    -0.255 A  
HETATM   11  C   UNL     1      -9.677   7.473  73.257  1.00  0.00    -0.326 A  
HETATM   12  C   UNL     1     -10.410   6.605  74.058  1.00  0.00    -0.377 A  
HETATM   13  C   UNL     1     -10.674   5.316  73.611  1.00  0.00    -0.343 A  
BRANCH   7  14
HETATM   14  C   UNL     1      -9.221   9.180  70.566  1.00  0.00    -0.286 A  
HETATM   15 CL   UNL     1     -13.082  10.240  70.734  1.00  0.00    -0.424 Cl 
HETATM   16  C   UNL     1     -10.895  11.071  69.299  1.00  0.00    -0.238 A  
HETATM   17  C   UNL     1      -9.537  11.004  68.981  1.00  0.00    -0.136 A  
HETATM   18 CL   UNL     1     -11.875  12.199  68.435  1.00  0.00    -0.383 Cl 
HETATM   19  C   UNL     1     -10.581   9.286  70.908  1.00  0.00    -0.366 A  
HETATM   20  C   UNL     1     -11.415  10.219  70.279  1.00  0.00    -0.317 A  
HETATM   21  C   UNL     1      -8.705  10.075  69.616  1.00  0.00    -0.210 A  
ENDBRANCH   7  14
ENDBRANCH   2   4
TORSDOF 2
ENDMDL
MODEL      121
REMARK 921   NORMALIZED FREE ENERGY PREDICTED BY IDOCK:   -3.99 KCAL/MOL
REMARK 922        TOTAL FREE ENERGY PREDICTED BY IDOCK:   -5.06 KCAL/MOL
REMARK 923 INTER-LIGAND FREE ENERGY PREDICTED BY IDOCK:   -4.34 KCAL/MOL
REMARK 924 INTRA-LIGAND FREE ENERGY PREDICTED BY IDOCK:   -0.72 KCAL/MOL
REMARK 927      BINDING AFFINITY PREDICTED BY RF-SCORE:    0.00 PKD
ROOT
HETATM    1  C   UNL     1      -8.456   3.264  72.539  1.00  0.00    -0.084 C  
HETATM    2  N   UNL     1      -8.607   4.464  71.726  1.00  0.00    -0.112 NA 
HETATM    3  H   UNL     1      -7.914   4.483  70.977  1.00  0.00     0.000 HD 
ENDROOT
BRANCH   2   4
HETATM    4  C   UNL     1      -9.969   4.633  71.185  1.00  0.00    -0.195 C  
HETATM    5  C   UNL     1     -10.588   5.889  71.835  1.00  0.00    -0.280 C  
HETATM    6  C   UNL     1     -11.640   6.580  70.981  1.00  0.00    -0.405 C  
HETATM    7  C   UNL     1     -11.122   6.934  69.583  1.00  0.00    -0.302 C  
HETATM    8  C   UNL     1     -10.494   5.726  68.911  1.00  0.00    -0.326 A  
HETATM    9  C   UNL     1      -9.951   4.660  69.653  1.00  0.00    -0.281 A  
HETATM   10  C   UNL     1      -9.434   3.553  68.947  1.00  0.00    -0.210 A  
HETATM   11  C   UNL     1     -10.457   5.689  67.503  1.00  0.00    -0.294 A  
HETATM   12  C   UNL     1      -9.915   4.601  66.829  1.00  0.00    -0.250 A  
HETATM   13  C   UNL     1      -9.407   3.529  67.551  1.00  0.00    -0.249 A  
BRANCH   7  14
HETATM   14  C   UNL     1     -10.252   8.189  69.522  1.00  0.00    -0.213 A  
HETATM   15 CL   UNL     1     -10.942  12.068  68.785  1.00  0.00    -0.262 Cl 
HETATM   16  C   UNL     1      -8.704  10.524  69.160  1.00  0.00    -0.147 A  
HETATM   17  C   UNL     1      -8.086   9.302  69.429  1.00  0.00    -0.108 A  
HETATM   18 CL   UNL     1      -7.696  11.897  68.877  1.00  0.00    -0.069 Cl 
HETATM   19  C   UNL     1     -10.864   9.435  69.293  1.00  0.00    -0.190 A  
HETATM   20  C   UNL     1     -10.100  10.594  69.108  1.00  0.00    -0.216 A  
HETATM   21  C   UNL     1      -8.853   8.146  69.619  1.00  0.00    -0.143 A  
ENDBRANCH   7  14
ENDBRANCH   2   4
TORSDOF 2
ENDMDL
MODEL      122
REMARK 921   NORMALIZED FREE ENERGY PREDICTED BY IDOCK:   -3.99 KCAL/MOL
REMARK 922        TOTAL FREE ENERGY PREDICTED BY IDOCK:   -5.06 KCAL/MOL
REMARK 923 INTER-LIGAND FREE ENERGY PREDICTED BY IDOCK:   -4.42 KCAL/MOL
REMARK 924 INTRA-LIGAND FREE ENERGY PREDICTED BY IDOCK:   -0.63 KCAL/MOL
REMARK 927      BINDING AFFINITY PREDICTED BY RF-SCORE:    0.00 PKD
ROOT
HETATM    1  C   UNL     1      -6.933   7.624  69.603  1.00  0.00    -0.052 C  
HETATM    2  N   UNL     1      -7.572   8.624  70.449  1.00  0.00    -0.069 NA 
HETATM    3  H   UNL     1      -6.962   9.431  70.579  1.00  0.00     0.000 HD 
ENDROOT
BRANCH   2   4
HETATM    4  C   UNL     1      -8.899   9.041  69.957  1.00  0.00    -0.173 C  
HETATM    5  C   UNL     1      -8.917   8.862  68.424  1.00  0.00    -0.134 C  
HETATM    6  C   UNL     1     -10.299   8.605  67.841  1.00  0.00    -0.286 C  
HETATM    7  C   UNL     1     -11.000   7.413  68.500  1.00  0.00     0.021 C  
HETATM    8  C   UNL     1     -10.996   7.544  70.012  1.00  0.00    -0.252 A  
HETATM    9  C   UNL     1     -10.016   8.294  70.692  1.00  0.00    -0.204 A  
HETATM   10  C   UNL     1     -10.118   8.404  72.095  1.00  0.00    -0.376 A  
HETATM   11  C   UNL     1     -12.005   6.885  70.743  1.00  0.00    -0.424 A  
HETATM   12  C   UNL     1     -12.067   6.985  72.128  1.00  0.00    -0.281 A  
HETATM   13  C   UNL     1     -11.125   7.749  72.805  1.00  0.00    -0.457 A  
BRANCH   7  14
HETATM   14  C   UNL     1     -10.539   6.043  68.003  1.00  0.00    -0.330 A  
HETATM   15 CL   UNL     1      -8.544   2.974  69.634  1.00  0.00    -0.103 Cl 
HETATM   16  C   UNL     1      -9.446   3.593  67.118  1.00  0.00    -0.194 A  
HETATM   17  C   UNL     1     -10.115   4.431  66.225  1.00  0.00    -0.249 A  
HETATM   18 CL   UNL     1      -8.739   2.147  66.496  1.00  0.00    -0.117 Cl 
HETATM   19  C   UNL     1      -9.899   5.170  68.901  1.00  0.00    -0.241 A  
HETATM   20  C   UNL     1      -9.352   3.957  68.465  1.00  0.00    -0.163 A  
HETATM   21  C   UNL     1     -10.666   5.641  66.664  1.00  0.00    -0.339 A  
ENDBRANCH   7  14
ENDBRANCH   2   4
TORSDOF 2
ENDMDL
MODEL      123
REMARK 921   NORMALIZED FREE ENERGY PREDICTED BY IDOCK:   -3.99 KCAL/MOL
REMARK 922        TOTAL FREE ENERGY PREDICTED BY IDOCK:   -5.05 KCAL/MOL
REMARK 923 INTER-LIGAND FREE ENERGY PREDICTED BY IDOCK:   -4.41 KCAL/MOL
REMARK 924 INTRA-LIGAND FREE ENERGY PREDICTED BY IDOCK:   -0.64 KCAL/MOL
REMARK 927      BINDING AFFINITY PREDICTED BY RF-SCORE:    0.00 PKD
ROOT
HETATM    1  C   UNL     1      -8.990   7.251  73.722  1.00  0.00    -0.209 C  
HETATM    2  N   UNL     1     -10.117   6.382  74.037  1.00  0.00    -0.278 NA 
HETATM    3  H   UNL     1     -10.566   6.672  74.905  1.00  0.00     0.000 HD 
ENDROOT
BRANCH   2   4
HETATM    4  C   UNL     1     -11.102   6.286  72.942  1.00  0.00    -0.236 C  
HETATM    5  C   UNL     1     -11.541   7.719  72.569  1.00  0.00    -0.422 C  
HETATM    6  C   UNL     1     -11.996   7.877  71.126  1.00  0.00    -0.304 C  
HETATM    7  C   UNL     1     -10.944   7.391  70.123  1.00  0.00    -0.272 C  
HETATM    8  C   UNL     1     -10.476   5.986  70.460  1.00  0.00    -0.303 A  
HETATM    9  C   UNL     1     -10.541   5.474  71.770  1.00  0.00    -0.296 A  
HETATM   10  C   UNL     1     -10.132   4.140  71.984  1.00  0.00    -0.234 A  
HETATM   11  C   UNL     1      -9.959   5.187  69.421  1.00  0.00    -0.292 A  
HETATM   12  C   UNL     1      -9.535   3.885  69.662  1.00  0.00    -0.263 A  
HETATM   13  C   UNL     1      -9.626   3.359  70.944  1.00  0.00    -0.239 A  
BRANCH   7  14
HETATM   14  C   UNL     1      -9.801   8.372  69.867  1.00  0.00    -0.186 A  
HETATM   15 CL   UNL     1      -5.951   8.567  70.963  1.00  0.00    -0.034 Cl 
HETATM   16  C   UNL     1      -7.688  10.233  69.645  1.00  0.00    -0.160 A  
HETATM   17  C   UNL     1      -8.941  10.520  69.101  1.00  0.00    -0.171 A  
HETATM   18 CL   UNL     1      -6.462  11.445  69.538  1.00  0.00    -0.109 Cl 
HETATM   19  C   UNL     1      -8.521   8.078  70.373  1.00  0.00    -0.130 A  
HETATM   20  C   UNL     1      -7.473   9.000  70.269  1.00  0.00    -0.083 A  
HETATM   21  C   UNL     1      -9.986   9.593  69.202  1.00  0.00    -0.189 A  
ENDBRANCH   7  14
ENDBRANCH   2   4
TORSDOF 2
ENDMDL
MODEL      124
REMARK 921   NORMALIZED FREE ENERGY PREDICTED BY IDOCK:   -3.98 KCAL/MOL
REMARK 922        TOTAL FREE ENERGY PREDICTED BY IDOCK:   -5.05 KCAL/MOL
REMARK 923 INTER-LIGAND FREE ENERGY PREDICTED BY IDOCK:   -4.77 KCAL/MOL
REMARK 924 INTRA-LIGAND FREE ENERGY PREDICTED BY IDOCK:   -0.28 KCAL/MOL
REMARK 927      BINDING AFFINITY PREDICTED BY RF-SCORE:    0.00 PKD
ROOT
HETATM    1  C   UNL     1     -11.154   6.350  67.433  1.00  0.00    -0.322 C  
HETATM    2  N   UNL     1     -10.007   5.495  67.158  1.00  0.00    -0.152 NA 
HETATM    3  H   UNL     1      -9.705   5.595  66.189  1.00  0.00     0.000 HD 
ENDROOT
BRANCH   2   4
HETATM    4  C   UNL     1      -8.880   5.718  68.084  1.00  0.00    -0.105 C  
HETATM    5  C   UNL     1      -8.622   7.238  68.166  1.00  0.00    -0.122 C  
HETATM    6  C   UNL     1      -8.006   7.698  69.478  1.00  0.00    -0.125 C  
HETATM    7  C   UNL     1      -8.823   7.256  70.697  1.00  0.00    -0.148 C  
HETATM    8  C   UNL     1      -9.108   5.765  70.651  1.00  0.00    -0.164 A  
HETATM    9  C   UNL     1      -9.142   5.051  69.438  1.00  0.00    -0.143 A  
HETATM   10  C   UNL     1      -9.364   3.658  69.492  1.00  0.00    -0.247 A  
HETATM   11  C   UNL     1      -9.349   5.093  71.866  1.00  0.00    -0.171 A  
HETATM   12  C   UNL     1      -9.594   3.725  71.892  1.00  0.00    -0.220 A  
HETATM   13  C   UNL     1      -9.597   3.005  70.704  1.00  0.00    -0.201 A  
BRANCH   7  14
HETATM   14  C   UNL     1     -10.060   8.107  70.982  1.00  0.00    -0.221 A  
HETATM   15 CL   UNL     1     -11.785  11.262  69.213  1.00  0.00    -0.367 Cl 
HETATM   16  C   UNL     1     -12.188   9.877  71.547  1.00  0.00    -0.416 A  
HETATM   17  C   UNL     1     -11.878   8.841  72.430  1.00  0.00    -0.356 A  
HETATM   18 CL   UNL     1     -13.453  10.966  71.989  1.00  0.00    -0.405 Cl 
HETATM   19  C   UNL     1     -10.411   9.128  70.080  1.00  0.00    -0.244 A  
HETATM   20  C   UNL     1     -11.462  10.010  70.359  1.00  0.00    -0.314 A  
HETATM   21  C   UNL     1     -10.830   7.957  72.146  1.00  0.00    -0.327 A  
ENDBRANCH   7  14
ENDBRANCH   2   4
TORSDOF 2
ENDMDL
MODEL      125
REMARK 921   NORMALIZED FREE ENERGY PREDICTED BY IDOCK:   -3.97 KCAL/MOL
REMARK 922        TOTAL FREE ENERGY PREDICTED BY IDOCK:   -5.03 KCAL/MOL
REMARK 923 INTER-LIGAND FREE ENERGY PREDICTED BY IDOCK:   -4.42 KCAL/MOL
REMARK 924 INTRA-LIGAND FREE ENERGY PREDICTED BY IDOCK:   -0.61 KCAL/MOL
REMARK 927      BINDING AFFINITY PREDICTED BY RF-SCORE:    0.00 PKD
ROOT
HETATM    1  C   UNL     1     -10.123   5.273  71.260  1.00  0.00    -0.213 C  
HETATM    2  N   UNL     1     -10.325   6.352  70.301  1.00  0.00    -0.197 NA 
HETATM    3  H   UNL     1      -9.978   7.236  70.672  1.00  0.00     0.000 HD 
ENDROOT
BRANCH   2   4
HETATM    4  C   UNL     1      -9.737   6.070  68.977  1.00  0.00    -0.133 C  
HETATM    5  C   UNL     1     -10.825   6.313  67.910  1.00  0.00    -0.417 C  
HETATM    6  C   UNL     1     -10.285   6.712  66.545  1.00  0.00    -0.129 C  
HETATM    7  C   UNL     1      -9.360   7.932  66.614  1.00  0.00    -0.244 C  
HETATM    8  C   UNL     1      -8.278   7.739  67.661  1.00  0.00    -0.125 A  
HETATM    9  C   UNL     1      -8.454   6.881  68.764  1.00  0.00    -0.121 A  
HETATM   10  C   UNL     1      -7.377   6.722  69.662  1.00  0.00    -0.087 A  
HETATM   11  C   UNL     1      -7.071   8.451  67.515  1.00  0.00    -0.083 A  
HETATM   12  C   UNL     1      -6.035   8.300  68.428  1.00  0.00    -0.041 A  
HETATM   13  C   UNL     1      -6.185   7.431  69.501  1.00  0.00    -0.031 A  
BRANCH   7  14
HETATM   14  C   UNL     1     -10.080   9.276  66.718  1.00  0.00    -0.331 A  
HETATM   15 CL   UNL     1     -10.833  12.279  64.174  1.00  0.00    -0.370 Cl 
HETATM   16  C   UNL     1     -11.186  11.871  66.865  1.00  0.00    -0.325 A  
HETATM   17  C   UNL     1     -11.099  11.076  68.008  1.00  0.00    -0.343 A  
HETATM   18 CL   UNL     1     -11.804  13.474  67.039  1.00  0.00    -0.426 Cl 
HETATM   19  C   UNL     1     -10.213  10.072  65.566  1.00  0.00    -0.248 A  
HETATM   20  C   UNL     1     -10.756  11.361  65.636  1.00  0.00    -0.242 A  
HETATM   21  C   UNL     1     -10.561   9.785  67.935  1.00  0.00    -0.310 A  
ENDBRANCH   7  14
ENDBRANCH   2   4
TORSDOF 2
ENDMDL
MODEL      126
REMARK 921   NORMALIZED FREE ENERGY PREDICTED BY IDOCK:   -3.96 KCAL/MOL
REMARK 922        TOTAL FREE ENERGY PREDICTED BY IDOCK:   -5.02 KCAL/MOL
REMARK 923 INTER-LIGAND FREE ENERGY PREDICTED BY IDOCK:   -4.62 KCAL/MOL
REMARK 924 INTRA-LIGAND FREE ENERGY PREDICTED BY IDOCK:   -0.40 KCAL/MOL
REMARK 927      BINDING AFFINITY PREDICTED BY RF-SCORE:    0.00 PKD
ROOT
HETATM    1  C   UNL     1      -9.313   8.407  72.385  1.00  0.00    -0.285 C  
HETATM    2  N   UNL     1      -9.112   9.037  71.086  1.00  0.00    -0.245 NA 
HETATM    3  H   UNL     1      -8.376   8.562  70.563  1.00  0.00     0.000 HD 
ENDROOT
BRANCH   2   4
HETATM    4  C   UNL     1     -10.349   9.128  70.286  1.00  0.00    -0.214 C  
HETATM    5  C   UNL     1     -10.359  10.500  69.578  1.00  0.00    -0.251 C  
HETATM    6  C   UNL     1     -11.140  10.525  68.274  1.00  0.00    -0.340 C  
HETATM    7  C   UNL     1     -10.672   9.448  67.289  1.00  0.00    -0.258 C  
HETATM    8  C   UNL     1     -10.637   8.082  67.949  1.00  0.00    -0.210 A  
HETATM    9  C   UNL     1     -10.480   7.931  69.340  1.00  0.00    -0.222 A  
HETATM   10  C   UNL     1     -10.510   6.625  69.875  1.00  0.00    -0.247 A  
HETATM   11  C   UNL     1     -10.762   6.941  67.131  1.00  0.00    -0.436 A  
HETATM   12  C   UNL     1     -10.760   5.663  67.678  1.00  0.00    -0.260 A  
HETATM   13  C   UNL     1     -10.639   5.505  69.053  1.00  0.00    -0.271 A  
BRANCH   7  14
HETATM   14  C   UNL     1      -9.393   9.792  66.526  1.00  0.00    -0.207 A  
HETATM   15 CL   UNL     1      -8.488  10.419  62.672  1.00  0.00    -0.177 Cl 
HETATM   16  C   UNL     1      -7.051  10.199  65.000  1.00  0.00    -0.135 A  
HETATM   17  C   UNL     1      -6.971  10.026  66.382  1.00  0.00    -0.101 A  
HETATM   18 CL   UNL     1      -5.576  10.370  64.118  1.00  0.00    -0.141 Cl 
HETATM   19  C   UNL     1      -9.463  10.010  65.137  1.00  0.00    -0.331 A  
HETATM   20  C   UNL     1      -8.304  10.207  64.377  1.00  0.00    -0.171 A  
HETATM   21  C   UNL     1      -8.132   9.835  67.141  1.00  0.00    -0.116 A  
ENDBRANCH   7  14
ENDBRANCH   2   4
TORSDOF 2
ENDMDL
MODEL      127
REMARK 921   NORMALIZED FREE ENERGY PREDICTED BY IDOCK:   -3.95 KCAL/MOL
REMARK 922        TOTAL FREE ENERGY PREDICTED BY IDOCK:   -5.00 KCAL/MOL
REMARK 923 INTER-LIGAND FREE ENERGY PREDICTED BY IDOCK:   -4.21 KCAL/MOL
REMARK 924 INTRA-LIGAND FREE ENERGY PREDICTED BY IDOCK:   -0.80 KCAL/MOL
REMARK 927      BINDING AFFINITY PREDICTED BY RF-SCORE:    0.00 PKD
ROOT
HETATM    1  C   UNL     1     -11.919   7.683  71.524  1.00  0.00    -0.303 C  
HETATM    2  N   UNL     1     -11.567   7.890  72.923  1.00  0.00    -0.586 NA 
HETATM    3  H   UNL     1     -12.396   8.106  73.476  1.00  0.00     0.000 HD 
ENDROOT
BRANCH   2   4
HETATM    4  C   UNL     1     -10.824   6.759  73.509  1.00  0.00    -0.214 C  
HETATM    5  C   UNL     1     -11.452   5.450  72.982  1.00  0.00    -0.324 C  
HETATM    6  C   UNL     1     -10.489   4.274  72.924  1.00  0.00    -0.246 C  
HETATM    7  C   UNL     1      -9.224   4.591  72.118  1.00  0.00    -0.165 C  
HETATM    8  C   UNL     1      -8.579   5.879  72.598  1.00  0.00    -0.119 A  
HETATM    9  C   UNL     1      -9.322   6.890  73.238  1.00  0.00    -0.170 A  
HETATM   10  C   UNL     1      -8.632   8.033  73.697  1.00  0.00    -0.322 A  
HETATM   11  C   UNL     1      -7.197   6.054  72.384  1.00  0.00    -0.086 A  
HETATM   12  C   UNL     1      -6.545   7.201  72.820  1.00  0.00    -0.063 A  
HETATM   13  C   UNL     1      -7.262   8.190  73.482  1.00  0.00    -0.174 A  
BRANCH   7  14
HETATM   14  C   UNL     1      -9.397   4.522  70.602  1.00  0.00    -0.223 A  
HETATM   15 CL   UNL     1      -9.521   1.557  67.908  1.00  0.00    -0.193 Cl 
HETATM   16  C   UNL     1      -9.479   4.298  67.787  1.00  0.00    -0.168 A  
HETATM   17  C   UNL     1      -9.461   5.554  68.395  1.00  0.00    -0.144 A  
HETATM   18 CL   UNL     1      -9.456   4.233  66.062  1.00  0.00    -0.162 Cl 
HETATM   19  C   UNL     1      -9.459   3.262  69.977  1.00  0.00    -0.231 A  
HETATM   20  C   UNL     1      -9.495   3.147  68.582  1.00  0.00    -0.126 A  
HETATM   21  C   UNL     1      -9.431   5.666  69.790  1.00  0.00    -0.189 A  
ENDBRANCH   7  14
ENDBRANCH   2   4
TORSDOF 2
ENDMDL
MODEL      128
REMARK 921   NORMALIZED FREE ENERGY PREDICTED BY IDOCK:   -3.94 KCAL/MOL
REMARK 922        TOTAL FREE ENERGY PREDICTED BY IDOCK:   -5.00 KCAL/MOL
REMARK 923 INTER-LIGAND FREE ENERGY PREDICTED BY IDOCK:   -4.38 KCAL/MOL
REMARK 924 INTRA-LIGAND FREE ENERGY PREDICTED BY IDOCK:   -0.61 KCAL/MOL
REMARK 927      BINDING AFFINITY PREDICTED BY RF-SCORE:    0.00 PKD
ROOT
HETATM    1  C   UNL     1      -9.484   5.954  69.976  1.00  0.00    -0.159 C  
HETATM    2  N   UNL     1     -10.417   6.823  70.682  1.00  0.00    -0.211 NA 
HETATM    3  H   UNL     1     -10.818   6.343  71.489  1.00  0.00     0.000 HD 
ENDROOT
BRANCH   2   4
HETATM    4  C   UNL     1      -9.824   8.114  71.080  1.00  0.00    -0.179 C  
HETATM    5  C   UNL     1      -8.401   8.188  70.486  1.00  0.00    -0.123 C  
HETATM    6  C   UNL     1      -7.908   9.602  70.219  1.00  0.00    -0.193 C  
HETATM    7  C   UNL     1      -8.870  10.401  69.333  1.00  0.00    -0.138 C  
HETATM    8  C   UNL     1     -10.286  10.346  69.877  1.00  0.00    -0.231 A  
HETATM    9  C   UNL     1     -10.734   9.280  70.682  1.00  0.00    -0.331 A  
HETATM   10  C   UNL     1     -12.051   9.335  71.187  1.00  0.00    -0.389 A  
HETATM   11  C   UNL     1     -11.168  11.396  69.553  1.00  0.00    -0.322 A  
HETATM   12  C   UNL     1     -12.470  11.414  70.039  1.00  0.00    -0.224 A  
HETATM   13  C   UNL     1     -12.912  10.385  70.860  1.00  0.00    -0.475 A  
BRANCH   7  14
HETATM   14  C   UNL     1      -8.775  10.090  67.841  1.00  0.00    -0.125 A  
HETATM   15 CL   UNL     1      -6.006  10.680  65.004  1.00  0.00    -0.095 Cl 
HETATM   16  C   UNL     1      -8.593   9.766  65.040  1.00  0.00    -0.162 A  
HETATM   17  C   UNL     1      -9.765   9.422  65.716  1.00  0.00    -0.354 A  
HETATM   18 CL   UNL     1      -8.575   9.612  63.321  1.00  0.00    -0.193 Cl 
HETATM   19  C   UNL     1      -7.586  10.392  67.153  1.00  0.00    -0.096 A  
HETATM   20  C   UNL     1      -7.493  10.237  65.764  1.00  0.00    -0.144 A  
HETATM   21  C   UNL     1      -9.853   9.572  67.105  1.00  0.00    -0.239 A  
ENDBRANCH   7  14
ENDBRANCH   2   4
TORSDOF 2
ENDMDL
MODEL      129
REMARK 921   NORMALIZED FREE ENERGY PREDICTED BY IDOCK:   -3.91 KCAL/MOL
REMARK 922        TOTAL FREE ENERGY PREDICTED BY IDOCK:   -4.96 KCAL/MOL
REMARK 923 INTER-LIGAND FREE ENERGY PREDICTED BY IDOCK:   -4.25 KCAL/MOL
REMARK 924 INTRA-LIGAND FREE ENERGY PREDICTED BY IDOCK:   -0.71 KCAL/MOL
REMARK 927      BINDING AFFINITY PREDICTED BY RF-SCORE:    0.00 PKD
ROOT
HETATM    1  C   UNL     1     -12.772  14.364  65.281  1.00  0.00    -0.267 C  
HETATM    2  N   UNL     1     -12.556  12.939  65.499  1.00  0.00    -0.583 NA 
HETATM    3  H   UNL     1     -12.590  12.428  64.617  1.00  0.00     0.000 HD 
ENDROOT
BRANCH   2   4
HETATM    4  C   UNL     1     -11.307  12.645  66.228  1.00  0.00    -0.329 C  
HETATM    5  C   UNL     1     -10.130  13.213  65.407  1.00  0.00    -0.260 C  
HETATM    6  C   UNL     1      -8.914  13.593  66.239  1.00  0.00     0.106 C  
HETATM    7  C   UNL     1      -9.259  14.565  67.372  1.00  0.00    -0.202 C  
HETATM    8  C   UNL     1     -10.422  14.049  68.200  1.00  0.00    -0.243 A  
HETATM    9  C   UNL     1     -11.378  13.162  67.668  1.00  0.00    -0.335 A  
HETATM   10  C   UNL     1     -12.398  12.692  68.524  1.00  0.00     0.275 A  
HETATM   11  C   UNL     1     -10.536  14.482  69.536  1.00  0.00    -0.080 A  
HETATM   12  C   UNL     1     -11.566  14.027  70.351  1.00  0.00    -0.206 A  
HETATM   13  C   UNL     1     -12.495  13.127  69.847  1.00  0.00    -0.091 A  
BRANCH   7  14
HETATM   14  C   UNL     1      -9.416  16.023  66.940  1.00  0.00    -0.242 A  
HETATM   15 CL   UNL     1      -6.916  18.854  65.600  1.00  0.00    -0.293 Cl 
HETATM   16  C   UNL     1      -9.557  18.780  66.340  1.00  0.00    -0.335 A  
HETATM   17  C   UNL     1     -10.688  18.096  66.788  1.00  0.00    -0.216 A  
HETATM   18 CL   UNL     1      -9.694  20.478  66.062  1.00  0.00    -0.241 Cl 
HETATM   19  C   UNL     1      -8.294  16.715  66.448  1.00  0.00    -0.353 A  
HETATM   20  C   UNL     1      -8.359  18.082  66.154  1.00  0.00    -0.123 A  
HETATM   21  C   UNL     1     -10.622  16.727  67.075  1.00  0.00    -0.234 A  
ENDBRANCH   7  14
ENDBRANCH   2   4
TORSDOF 2
ENDMDL
MODEL      130
REMARK 921   NORMALIZED FREE ENERGY PREDICTED BY IDOCK:   -3.89 KCAL/MOL
REMARK 922        TOTAL FREE ENERGY PREDICTED BY IDOCK:   -4.95 KCAL/MOL
REMARK 923 INTER-LIGAND FREE ENERGY PREDICTED BY IDOCK:   -4.23 KCAL/MOL
REMARK 924 INTRA-LIGAND FREE ENERGY PREDICTED BY IDOCK:   -0.72 KCAL/MOL
REMARK 927      BINDING AFFINITY PREDICTED BY RF-SCORE:    0.00 PKD
ROOT
HETATM    1  C   UNL     1      -8.653   4.949  66.855  1.00  0.00    -0.104 C  
HETATM    2  N   UNL     1      -9.415   6.092  67.340  1.00  0.00    -0.114 NA 
HETATM    3  H   UNL     1     -10.367   5.816  67.583  1.00  0.00     0.000 HD 
ENDROOT
BRANCH   2   4
HETATM    4  C   UNL     1      -8.766   6.790  68.466  1.00  0.00    -0.124 C  
HETATM    5  C   UNL     1      -7.649   7.688  67.891  1.00  0.00    -0.117 C  
HETATM    6  C   UNL     1      -7.333   8.911  68.737  1.00  0.00    -0.076 C  
HETATM    7  C   UNL     1      -8.574   9.764  69.021  1.00  0.00    -0.146 C  
HETATM    8  C   UNL     1      -9.703   8.917  69.580  1.00  0.00    -0.175 A  
HETATM    9  C   UNL     1      -9.798   7.536  69.317  1.00  0.00    -0.170 A  
HETATM   10  C   UNL     1     -10.852   6.816  69.919  1.00  0.00    -0.310 A  
HETATM   11  C   UNL     1     -10.679   9.546  70.378  1.00  0.00    -0.341 A  
HETATM   12  C   UNL     1     -11.725   8.820  70.936  1.00  0.00    -0.299 A  
HETATM   13  C   UNL     1     -11.809   7.452  70.710  1.00  0.00    -0.288 A  
BRANCH   7  14
HETATM   14  C   UNL     1      -9.003  10.674  67.871  1.00  0.00    -0.138 A  
HETATM   15 CL   UNL     1      -8.475  14.547  66.988  1.00  0.00    -0.237 Cl 
HETATM   16  C   UNL     1      -9.936  12.486  65.915  1.00  0.00    -0.257 A  
HETATM   17  C   UNL     1     -10.343  11.152  65.892  1.00  0.00    -0.314 A  
HETATM   18 CL   UNL     1     -10.600  13.557  64.735  1.00  0.00    -0.404 Cl 
HETATM   19  C   UNL     1      -8.568  12.012  67.858  1.00  0.00    -0.165 A  
HETATM   20  C   UNL     1      -9.031  12.914  66.893  1.00  0.00    -0.210 A  
HETATM   21  C   UNL     1      -9.873  10.250  66.855  1.00  0.00    -0.244 A  
ENDBRANCH   7  14
ENDBRANCH   2   4
TORSDOF 2
ENDMDL
MODEL      131
REMARK 921   NORMALIZED FREE ENERGY PREDICTED BY IDOCK:   -3.88 KCAL/MOL
REMARK 922        TOTAL FREE ENERGY PREDICTED BY IDOCK:   -4.94 KCAL/MOL
REMARK 923 INTER-LIGAND FREE ENERGY PREDICTED BY IDOCK:   -4.20 KCAL/MOL
REMARK 924 INTRA-LIGAND FREE ENERGY PREDICTED BY IDOCK:   -0.73 KCAL/MOL
REMARK 927      BINDING AFFINITY PREDICTED BY RF-SCORE:    0.00 PKD
ROOT
HETATM    1  C   UNL     1      -7.702   9.961  70.030  1.00  0.00    -0.178 C  
HETATM    2  N   UNL     1      -6.992   9.095  69.097  1.00  0.00    -0.057 NA 
HETATM    3  H   UNL     1      -6.465   8.379  69.598  1.00  0.00     0.000 HD 
ENDROOT
BRANCH   2   4
HETATM    4  C   UNL     1      -7.873   8.486  68.082  1.00  0.00    -0.103 C  
HETATM    5  C   UNL     1      -9.336   8.768  68.489  1.00  0.00    -0.142 C  
HETATM    6  C   UNL     1     -10.310   8.818  67.322  1.00  0.00    -0.360 C  
HETATM    7  C   UNL     1      -9.882   9.818  66.243  1.00  0.00    -0.315 C  
HETATM    8  C   UNL     1      -8.443   9.583  65.820  1.00  0.00    -0.143 A  
HETATM    9  C   UNL     1      -7.506   8.971  66.676  1.00  0.00    -0.086 A  
HETATM   10  C   UNL     1      -6.203   8.744  66.183  1.00  0.00    -0.059 A  
HETATM   11  C   UNL     1      -8.047   9.999  64.534  1.00  0.00    -0.156 A  
HETATM   12  C   UNL     1      -6.750   9.791  64.081  1.00  0.00    -0.120 A  
HETATM   13  C   UNL     1      -5.827   9.159  64.904  1.00  0.00    -0.063 A  
BRANCH   7  14
HETATM   14  C   UNL     1     -10.194  11.279  66.563  1.00  0.00    -0.269 A  
HETATM   15 CL   UNL     1     -12.754  14.002  65.115  1.00  0.00    -0.449 Cl 
HETATM   16  C   UNL     1     -10.687  14.038  66.920  1.00  0.00    -0.285 A  
HETATM   17  C   UNL     1      -9.677  13.402  67.644  1.00  0.00    -0.222 A  
HETATM   18 CL   UNL     1     -10.887  15.740  67.132  1.00  0.00    -0.315 Cl 
HETATM   19  C   UNL     1     -11.237  11.923  65.872  1.00  0.00    -0.373 A  
HETATM   20  C   UNL     1     -11.481  13.292  66.043  1.00  0.00    -0.330 A  
HETATM   21  C   UNL     1      -9.439  12.033  67.475  1.00  0.00    -0.178 A  
ENDBRANCH   7  14
ENDBRANCH   2   4
TORSDOF 2
ENDMDL
MODEL      132
REMARK 921   NORMALIZED FREE ENERGY PREDICTED BY IDOCK:   -3.86 KCAL/MOL
REMARK 922        TOTAL FREE ENERGY PREDICTED BY IDOCK:   -4.91 KCAL/MOL
REMARK 923 INTER-LIGAND FREE ENERGY PREDICTED BY IDOCK:   -4.66 KCAL/MOL
REMARK 924 INTRA-LIGAND FREE ENERGY PREDICTED BY IDOCK:   -0.25 KCAL/MOL
REMARK 927      BINDING AFFINITY PREDICTED BY RF-SCORE:    0.00 PKD
ROOT
HETATM    1  C   UNL     1      -6.850   6.678  67.579  1.00  0.00    -0.076 C  
HETATM    2  N   UNL     1      -7.015   6.731  66.132  1.00  0.00    -0.060 NA 
HETATM    3  H   UNL     1      -6.503   5.973  65.682  1.00  0.00     0.000 HD 
ENDROOT
BRANCH   2   4
HETATM    4  C   UNL     1      -8.429   6.734  65.708  1.00  0.00    -0.147 C  
HETATM    5  C   UNL     1      -9.090   5.445  66.240  1.00  0.00    -0.144 C  
HETATM    6  C   UNL     1     -10.587   5.565  66.483  1.00  0.00    -0.343 C  
HETATM    7  C   UNL     1     -10.939   6.735  67.408  1.00  0.00    -0.407 C  
HETATM    8  C   UNL     1     -10.298   8.024  66.926  1.00  0.00    -0.408 A  
HETATM    9  C   UNL     1      -9.128   8.026  66.143  1.00  0.00    -0.224 A  
HETATM   10  C   UNL     1      -8.629   9.269  65.695  1.00  0.00    -0.172 A  
HETATM   11  C   UNL     1     -10.901   9.246  67.286  1.00  0.00    -0.140 A  
HETATM   12  C   UNL     1     -10.375  10.458  66.858  1.00  0.00    -0.297 A  
HETATM   13  C   UNL     1      -9.240  10.470  66.057  1.00  0.00    -0.205 A  
BRANCH   7  14
HETATM   14  C   UNL     1     -10.721   6.463  68.896  1.00  0.00    -0.339 A  
HETATM   15 CL   UNL     1      -9.471   3.315  71.037  1.00  0.00    -0.218 Cl 
HETATM   16  C   UNL     1     -10.505   5.786  71.630  1.00  0.00    -0.231 A  
HETATM   17  C   UNL     1     -10.992   7.038  71.250  1.00  0.00    -0.270 A  
HETATM   18 CL   UNL     1     -10.468   5.410  73.315  1.00  0.00    -0.234 Cl 
HETATM   19  C   UNL     1     -10.192   5.222  69.295  1.00  0.00    -0.301 A  
HETATM   20  C   UNL     1     -10.088   4.881  70.649  1.00  0.00    -0.236 A  
HETATM   21  C   UNL     1     -11.089   7.378  69.895  1.00  0.00    -0.208 A  
ENDBRANCH   7  14
ENDBRANCH   2   4
TORSDOF 2
ENDMDL
MODEL      133
REMARK 921   NORMALIZED FREE ENERGY PREDICTED BY IDOCK:   -3.76 KCAL/MOL
REMARK 922        TOTAL FREE ENERGY PREDICTED BY IDOCK:   -4.80 KCAL/MOL
REMARK 923 INTER-LIGAND FREE ENERGY PREDICTED BY IDOCK:   -4.51 KCAL/MOL
REMARK 924 INTRA-LIGAND FREE ENERGY PREDICTED BY IDOCK:   -0.29 KCAL/MOL
REMARK 927      BINDING AFFINITY PREDICTED BY RF-SCORE:    0.00 PKD
ROOT
HETATM    1  C   UNL     1     -10.953   7.345  73.111  1.00  0.00    -0.359 C  
HETATM    2  N   UNL     1      -9.667   6.835  72.652  1.00  0.00    -0.149 NA 
HETATM    3  H   UNL     1      -9.371   6.039  73.216  1.00  0.00     0.000 HD 
ENDROOT
BRANCH   2   4
HETATM    4  C   UNL     1      -9.655   6.496  71.216  1.00  0.00    -0.166 C  
HETATM    5  C   UNL     1     -11.043   6.836  70.633  1.00  0.00    -0.338 C  
HETATM    6  C   UNL     1     -11.032   7.177  69.151  1.00  0.00    -0.142 C  
HETATM    7  C   UNL     1     -10.050   8.306  68.816  1.00  0.00    -0.212 C  
HETATM    8  C   UNL     1      -8.671   8.016  69.382  1.00  0.00    -0.137 A  
HETATM    9  C   UNL     1      -8.486   7.181  70.501  1.00  0.00    -0.139 A  
HETATM   10  C   UNL     1      -7.166   6.925  70.929  1.00  0.00    -0.072 A  
HETATM   11  C   UNL     1      -7.555   8.611  68.761  1.00  0.00    -0.096 A  
HETATM   12  C   UNL     1      -6.266   8.367  69.218  1.00  0.00    -0.038 A  
HETATM   13  C   UNL     1      -6.070   7.519  70.300  1.00  0.00    -0.027 A  
BRANCH   7  14
HETATM   14  C   UNL     1     -10.558   9.712  69.134  1.00  0.00    -0.237 A  
HETATM   15 CL   UNL     1     -13.113  11.253  71.810  1.00  0.00    -0.573 Cl 
HETATM   16  C   UNL     1     -11.729  12.230  69.651  1.00  0.00    -0.316 A  
HETATM   17  C   UNL     1     -10.832  12.072  68.593  1.00  0.00    -0.273 A  
HETATM   18 CL   UNL     1     -12.464  13.777  69.865  1.00  0.00    -0.316 Cl 
HETATM   19  C   UNL     1     -11.431   9.894  70.222  1.00  0.00    -0.349 A  
HETATM   20  C   UNL     1     -12.017  11.140  70.478  1.00  0.00    -0.380 A  
HETATM   21  C   UNL     1     -10.243  10.827  68.343  1.00  0.00    -0.192 A  
ENDBRANCH   7  14
ENDBRANCH   2   4
TORSDOF 2
ENDMDL
MODEL      134
REMARK 921   NORMALIZED FREE ENERGY PREDICTED BY IDOCK:   -3.74 KCAL/MOL
REMARK 922        TOTAL FREE ENERGY PREDICTED BY IDOCK:   -4.77 KCAL/MOL
REMARK 923 INTER-LIGAND FREE ENERGY PREDICTED BY IDOCK:   -4.35 KCAL/MOL
REMARK 924 INTRA-LIGAND FREE ENERGY PREDICTED BY IDOCK:   -0.42 KCAL/MOL
REMARK 927      BINDING AFFINITY PREDICTED BY RF-SCORE:    0.00 PKD
ROOT
HETATM    1  C   UNL     1      -7.029   5.801  69.043  1.00  0.00    -0.067 C  
HETATM    2  N   UNL     1      -7.596   4.596  69.634  1.00  0.00    -0.058 NA 
HETATM    3  H   UNL     1      -7.385   4.547  70.631  1.00  0.00     0.000 HD 
ENDROOT
BRANCH   2   4
HETATM    4  C   UNL     1      -9.046   4.459  69.398  1.00  0.00    -0.113 C  
HETATM    5  C   UNL     1      -9.752   5.668  70.049  1.00  0.00    -0.227 C  
HETATM    6  C   UNL     1     -11.069   6.051  69.391  1.00  0.00    -0.445 C  
HETATM    7  C   UNL     1     -10.923   6.299  67.885  1.00  0.00    -0.421 C  
HETATM    8  C   UNL     1     -10.222   5.136  67.206  1.00  0.00    -0.239 A  
HETATM    9  C   UNL     1      -9.344   4.284  67.905  1.00  0.00    -0.200 A  
HETATM   10  C   UNL     1      -8.776   3.197  67.207  1.00  0.00    -0.138 A  
HETATM   11  C   UNL     1     -10.463   4.919  65.835  1.00  0.00    -0.282 A  
HETATM   12  C   UNL     1      -9.869   3.858  65.162  1.00  0.00    -0.184 A  
HETATM   13  C   UNL     1      -9.028   2.992  65.850  1.00  0.00    -0.145 A  
BRANCH   7  14
HETATM   14  C   UNL     1     -10.343   7.663  67.514  1.00  0.00    -0.326 A  
HETATM   15 CL   UNL     1     -10.598  11.353  69.058  1.00  0.00    -0.233 Cl 
HETATM   16  C   UNL     1      -9.512  10.263  66.786  1.00  0.00    -0.163 A  
HETATM   17  C   UNL     1      -9.213   9.171  65.969  1.00  0.00    -0.271 A  
HETATM   18 CL   UNL     1      -9.038  11.833  66.246  1.00  0.00    -0.216 Cl 
HETATM   19  C   UNL     1     -10.600   8.766  68.349  1.00  0.00    -0.185 A  
HETATM   20  C   UNL     1     -10.194  10.056  67.989  1.00  0.00    -0.181 A  
HETATM   21  C   UNL     1      -9.615   7.881  66.334  1.00  0.00    -0.251 A  
ENDBRANCH   7  14
ENDBRANCH   2   4
TORSDOF 2
ENDMDL
MODEL      135
REMARK 921   NORMALIZED FREE ENERGY PREDICTED BY IDOCK:   -3.74 KCAL/MOL
REMARK 922        TOTAL FREE ENERGY PREDICTED BY IDOCK:   -4.77 KCAL/MOL
REMARK 923 INTER-LIGAND FREE ENERGY PREDICTED BY IDOCK:   -4.17 KCAL/MOL
REMARK 924 INTRA-LIGAND FREE ENERGY PREDICTED BY IDOCK:   -0.60 KCAL/MOL
REMARK 927      BINDING AFFINITY PREDICTED BY RF-SCORE:    0.00 PKD
ROOT
HETATM    1  C   UNL     1      -7.238   8.588  71.150  1.00  0.00    -0.076 C  
HETATM    2  N   UNL     1      -8.007   8.522  72.386  1.00  0.00    -0.314 NA 
HETATM    3  H   UNL     1      -7.919   9.390  72.915  1.00  0.00     0.000 HD 
ENDROOT
BRANCH   2   4
HETATM    4  C   UNL     1      -9.426   8.180  72.170  1.00  0.00    -0.225 C  
HETATM    5  C   UNL     1     -10.058   9.289  71.302  1.00  0.00    -0.361 C  
HETATM    6  C   UNL     1     -11.236   8.828  70.459  1.00  0.00    -0.278 C  
HETATM    7  C   UNL     1     -10.889   7.626  69.573  1.00  0.00    -0.171 C  
HETATM    8  C   UNL     1     -10.255   6.513  70.387  1.00  0.00    -0.227 A  
HETATM    9  C   UNL     1      -9.568   6.769  71.590  1.00  0.00    -0.163 A  
HETATM   10  C   UNL     1      -9.053   5.669  72.309  1.00  0.00    -0.144 A  
HETATM   11  C   UNL     1     -10.360   5.192  69.910  1.00  0.00    -0.347 A  
HETATM   12  C   UNL     1      -9.819   4.127  70.621  1.00  0.00    -0.249 A  
HETATM   13  C   UNL     1      -9.168   4.365  71.825  1.00  0.00    -0.182 A  
BRANCH   7  14
HETATM   14  C   UNL     1     -10.117   7.970  68.300  1.00  0.00    -0.227 A  
HETATM   15 CL   UNL     1      -6.358   7.389  67.037  1.00  0.00    -0.050 Cl 
HETATM   16  C   UNL     1      -8.541   8.757  66.091  1.00  0.00    -0.146 A  
HETATM   17  C   UNL     1      -9.875   9.156  66.185  1.00  0.00    -0.363 A  
HETATM   18 CL   UNL     1      -7.615   9.333  64.753  1.00  0.00    -0.106 Cl 
HETATM   19  C   UNL     1      -8.783   7.539  68.172  1.00  0.00    -0.122 A  
HETATM   20  C   UNL     1      -7.998   7.931  67.081  1.00  0.00    -0.117 A  
HETATM   21  C   UNL     1     -10.660   8.758  67.274  1.00  0.00    -0.303 A  
ENDBRANCH   7  14
ENDBRANCH   2   4
TORSDOF 2
ENDMDL
MODEL      136
REMARK 921   NORMALIZED FREE ENERGY PREDICTED BY IDOCK:   -3.65 KCAL/MOL
REMARK 922        TOTAL FREE ENERGY PREDICTED BY IDOCK:   -4.67 KCAL/MOL
REMARK 923 INTER-LIGAND FREE ENERGY PREDICTED BY IDOCK:   -3.96 KCAL/MOL
REMARK 924 INTRA-LIGAND FREE ENERGY PREDICTED BY IDOCK:   -0.71 KCAL/MOL
REMARK 927      BINDING AFFINITY PREDICTED BY RF-SCORE:    0.00 PKD
ROOT
HETATM    1  C   UNL     1     -11.162  10.187  69.895  1.00  0.00    -0.287 C  
HETATM    2  N   UNL     1     -10.916  10.011  71.320  1.00  0.00    -0.226 NA 
HETATM    3  H   UNL     1     -11.398  10.728  71.862  1.00  0.00     0.000 HD 
ENDROOT
BRANCH   2   4
HETATM    4  C   UNL     1     -11.263   8.662  71.809  1.00  0.00    -0.326 C  
HETATM    5  C   UNL     1     -12.213   8.012  70.780  1.00  0.00    -0.030 C  
HETATM    6  C   UNL     1     -12.152   6.492  70.747  1.00  0.00    -0.286 C  
HETATM    7  C   UNL     1     -10.730   5.966  70.528  1.00  0.00    -0.363 C  
HETATM    8  C   UNL     1      -9.759   6.590  71.515  1.00  0.00    -0.179 A  
HETATM    9  C   UNL     1     -10.001   7.845  72.105  1.00  0.00    -0.266 A  
HETATM   10  C   UNL     1      -9.070   8.327  73.051  1.00  0.00    -0.319 A  
HETATM   11  C   UNL     1      -8.584   5.881  71.835  1.00  0.00    -0.137 A  
HETATM   12  C   UNL     1      -7.667   6.390  72.748  1.00  0.00    -0.103 A  
HETATM   13  C   UNL     1      -7.912   7.612  73.360  1.00  0.00    -0.172 A  
BRANCH   7  14
HETATM   14  C   UNL     1     -10.245   6.014  69.080  1.00  0.00    -0.258 A  
HETATM   15 CL   UNL     1      -9.456   3.262  66.276  1.00  0.00    -0.140 Cl 
HETATM   16  C   UNL     1      -9.138   5.980  66.481  1.00  0.00    -0.146 A  
HETATM   17  C   UNL     1      -9.277   7.183  67.173  1.00  0.00    -0.153 A  
HETATM   18 CL   UNL     1      -8.387   6.021  64.927  1.00  0.00    -0.131 Cl 
HETATM   19  C   UNL     1     -10.139   4.813  68.354  1.00  0.00    -0.111 A  
HETATM   20  C   UNL     1      -9.587   4.792  67.068  1.00  0.00    -0.171 A  
HETATM   21  C   UNL     1      -9.834   7.203  68.457  1.00  0.00    -0.155 A  
ENDBRANCH   7  14
ENDBRANCH   2   4
TORSDOF 2
ENDMDL
MODEL      137
REMARK 921   NORMALIZED FREE ENERGY PREDICTED BY IDOCK:   -3.65 KCAL/MOL
REMARK 922        TOTAL FREE ENERGY PREDICTED BY IDOCK:   -4.67 KCAL/MOL
REMARK 923 INTER-LIGAND FREE ENERGY PREDICTED BY IDOCK:   -4.39 KCAL/MOL
REMARK 924 INTRA-LIGAND FREE ENERGY PREDICTED BY IDOCK:   -0.28 KCAL/MOL
REMARK 927      BINDING AFFINITY PREDICTED BY RF-SCORE:    0.00 PKD
ROOT
HETATM    1  C   UNL     1      -8.042  13.878  67.550  1.00  0.00    -0.182 C  
HETATM    2  N   UNL     1      -9.159  13.821  68.484  1.00  0.00    -0.310 NA 
HETATM    3  H   UNL     1      -9.533  14.753  68.660  1.00  0.00     0.000 HD 
ENDROOT
BRANCH   2   4
HETATM    4  C   UNL     1     -10.228  12.898  68.056  1.00  0.00    -0.229 C  
HETATM    5  C   UNL     1      -9.569  11.713  67.319  1.00  0.00    -0.182 C  
HETATM    6  C   UNL     1     -10.360  10.415  67.389  1.00  0.00    -0.275 C  
HETATM    7  C   UNL     1     -10.682  10.002  68.829  1.00  0.00    -0.250 C  
HETATM    8  C   UNL     1     -11.324  11.145  69.595  1.00  0.00    -0.366 A  
HETATM    9  C   UNL     1     -11.108  12.491  69.242  1.00  0.00    -0.203 A  
HETATM   10  C   UNL     1     -11.786  13.488  69.977  1.00  0.00    -0.311 A  
HETATM   11  C   UNL     1     -12.152  10.833  70.692  1.00  0.00    -0.467 A  
HETATM   12  C   UNL     1     -12.786  11.834  71.419  1.00  0.00    -0.413 A  
HETATM   13  C   UNL     1     -12.606  13.164  71.059  1.00  0.00    -0.397 A  
BRANCH   7  14
HETATM   14  C   UNL     1      -9.529   9.336  69.578  1.00  0.00    -0.178 A  
HETATM   15 CL   UNL     1      -5.547   9.789  69.606  1.00  0.00    -0.033 Cl 
HETATM   16  C   UNL     1      -7.313   8.019  70.735  1.00  0.00    -0.057 A  
HETATM   17  C   UNL     1      -8.610   7.562  70.975  1.00  0.00    -0.132 A  
HETATM   18 CL   UNL     1      -6.001   7.125  71.413  1.00  0.00    -0.036 Cl 
HETATM   19  C   UNL     1      -8.219   9.811  69.379  1.00  0.00    -0.135 A  
HETATM   20  C   UNL     1      -7.119   9.158  69.947  1.00  0.00    -0.056 A  
HETATM   21  C   UNL     1      -9.709   8.221  70.410  1.00  0.00    -0.175 A  
ENDBRANCH   7  14
ENDBRANCH   2   4
TORSDOF 2
ENDMDL
MODEL      138
REMARK 921   NORMALIZED FREE ENERGY PREDICTED BY IDOCK:   -3.64 KCAL/MOL
REMARK 922        TOTAL FREE ENERGY PREDICTED BY IDOCK:   -4.66 KCAL/MOL
REMARK 923 INTER-LIGAND FREE ENERGY PREDICTED BY IDOCK:   -4.23 KCAL/MOL
REMARK 924 INTRA-LIGAND FREE ENERGY PREDICTED BY IDOCK:   -0.43 KCAL/MOL
REMARK 927      BINDING AFFINITY PREDICTED BY RF-SCORE:    0.00 PKD
ROOT
HETATM    1  C   UNL     1      -7.554   9.032  67.267  1.00  0.00    -0.088 C  
HETATM    2  N   UNL     1      -6.508   8.057  67.550  1.00  0.00    -0.055 NA 
HETATM    3  H   UNL     1      -5.721   8.498  68.025  1.00  0.00     0.000 HD 
ENDROOT
BRANCH   2   4
HETATM    4  C   UNL     1      -6.993   6.888  68.310  1.00  0.00    -0.080 C  
HETATM    5  C   UNL     1      -7.142   7.308  69.788  1.00  0.00    -0.072 C  
HETATM    6  C   UNL     1      -8.192   6.522  70.557  1.00  0.00    -0.118 C  
HETATM    7  C   UNL     1      -9.566   6.556  69.878  1.00  0.00    -0.163 C  
HETATM    8  C   UNL     1      -9.463   6.159  68.417  1.00  0.00    -0.119 A  
HETATM    9  C   UNL     1      -8.270   6.320  67.684  1.00  0.00    -0.117 A  
HETATM   10  C   UNL     1      -8.248   5.876  66.344  1.00  0.00    -0.112 A  
HETATM   11  C   UNL     1     -10.603   5.621  67.788  1.00  0.00    -0.274 A  
HETATM   12  C   UNL     1     -10.565   5.218  66.458  1.00  0.00    -0.348 A  
HETATM   13  C   UNL     1      -9.385   5.341  65.736  1.00  0.00    -0.151 A  
BRANCH   7  14
HETATM   14  C   UNL     1     -10.362   7.840  70.108  1.00  0.00    -0.218 A  
HETATM   15 CL   UNL     1     -11.274  11.036  67.869  1.00  0.00    -0.349 Cl 
HETATM   16  C   UNL     1     -11.616  10.341  70.501  1.00  0.00    -0.338 A  
HETATM   17  C   UNL     1     -11.489   9.440  71.561  1.00  0.00    -0.467 A  
HETATM   18 CL   UNL     1     -12.326  11.880  70.828  1.00  0.00    -0.458 Cl 
HETATM   19  C   UNL     1     -10.535   8.739  69.040  1.00  0.00    -0.220 A  
HETATM   20  C   UNL     1     -11.151   9.981  69.232  1.00  0.00    -0.206 A  
HETATM   21  C   UNL     1     -10.878   8.196  71.364  1.00  0.00    -0.281 A  
ENDBRANCH   7  14
ENDBRANCH   2   4
TORSDOF 2
ENDMDL
MODEL      139
REMARK 921   NORMALIZED FREE ENERGY PREDICTED BY IDOCK:   -3.60 KCAL/MOL
REMARK 922        TOTAL FREE ENERGY PREDICTED BY IDOCK:   -4.62 KCAL/MOL
REMARK 923 INTER-LIGAND FREE ENERGY PREDICTED BY IDOCK:   -4.44 KCAL/MOL
REMARK 924 INTRA-LIGAND FREE ENERGY PREDICTED BY IDOCK:   -0.18 KCAL/MOL
REMARK 927      BINDING AFFINITY PREDICTED BY RF-SCORE:    0.00 PKD
ROOT
HETATM    1  C   UNL     1      -9.103   9.719  65.053  1.00  0.00    -0.231 C  
HETATM    2  N   UNL     1      -9.432   8.362  65.470  1.00  0.00    -0.418 NA 
HETATM    3  H   UNL     1      -9.596   7.764  64.660  1.00  0.00     0.000 HD 
ENDROOT
BRANCH   2   4
HETATM    4  C   UNL     1      -8.422   7.767  66.366  1.00  0.00    -0.136 C  
HETATM    5  C   UNL     1      -7.991   8.846  67.382  1.00  0.00    -0.101 C  
HETATM    6  C   UNL     1      -7.505   8.293  68.713  1.00  0.00    -0.096 C  
HETATM    7  C   UNL     1      -8.527   7.358  69.368  1.00  0.00    -0.133 C  
HETATM    8  C   UNL     1      -8.987   6.285  68.397  1.00  0.00    -0.116 A  
HETATM    9  C   UNL     1      -8.945   6.476  67.002  1.00  0.00    -0.121 A  
HETATM   10  C   UNL     1      -9.344   5.406  66.172  1.00  0.00    -0.167 A  
HETATM   11  C   UNL     1      -9.471   5.071  68.923  1.00  0.00    -0.195 A  
HETATM   12  C   UNL     1      -9.885   4.042  68.085  1.00  0.00    -0.060 A  
HETATM   13  C   UNL     1      -9.818   4.207  66.708  1.00  0.00    -0.203 A  
BRANCH   7  14
HETATM   14  C   UNL     1      -9.676   8.066  70.085  1.00  0.00    -0.176 A  
HETATM   15 CL   UNL     1     -13.334   6.982  71.311  1.00  0.00    -0.361 Cl 
HETATM   16  C   UNL     1     -11.937   9.342  71.198  1.00  0.00    -0.322 A  
HETATM   17  C   UNL     1     -10.786  10.075  70.905  1.00  0.00    -0.276 A  
HETATM   18 CL   UNL     1     -13.308  10.195  71.808  1.00  0.00    -0.496 Cl 
HETATM   19  C   UNL     1     -10.827   7.332  70.425  1.00  0.00    -0.265 A  
HETATM   20  C   UNL     1     -11.951   7.961  70.972  1.00  0.00    -0.252 A  
HETATM   21  C   UNL     1      -9.661   9.442  70.363  1.00  0.00    -0.315 A  
ENDBRANCH   7  14
ENDBRANCH   2   4
TORSDOF 2
ENDMDL
MODEL      140
REMARK 921   NORMALIZED FREE ENERGY PREDICTED BY IDOCK:   -3.58 KCAL/MOL
REMARK 922        TOTAL FREE ENERGY PREDICTED BY IDOCK:   -4.59 KCAL/MOL
REMARK 923 INTER-LIGAND FREE ENERGY PREDICTED BY IDOCK:   -3.93 KCAL/MOL
REMARK 924 INTRA-LIGAND FREE ENERGY PREDICTED BY IDOCK:   -0.67 KCAL/MOL
REMARK 927      BINDING AFFINITY PREDICTED BY RF-SCORE:    0.00 PKD
ROOT
HETATM    1  C   UNL     1      -6.834   6.745  70.096  1.00  0.00    -0.061 C  
HETATM    2  N   UNL     1      -7.784   7.174  71.114  1.00  0.00    -0.089 NA 
HETATM    3  H   UNL     1      -7.554   6.766  72.020  1.00  0.00     0.000 HD 
ENDROOT
BRANCH   2   4
HETATM    4  C   UNL     1      -7.906   8.642  71.215  1.00  0.00    -0.128 C  
HETATM    5  C   UNL     1      -6.883   9.273  70.247  1.00  0.00    -0.071 C  
HETATM    6  C   UNL     1      -7.279  10.648  69.729  1.00  0.00    -0.135 C  
HETATM    7  C   UNL     1      -8.666  10.652  69.077  1.00  0.00    -0.152 C  
HETATM    8  C   UNL     1      -9.703  10.029  69.994  1.00  0.00    -0.224 A  
HETATM    9  C   UNL     1      -9.353   9.089  70.983  1.00  0.00    -0.339 A  
HETATM   10  C   UNL     1     -10.374   8.598  71.825  1.00  0.00    -0.386 A  
HETATM   11  C   UNL     1     -11.050  10.408  69.834  1.00  0.00    -0.367 A  
HETATM   12  C   UNL     1     -12.043   9.889  70.657  1.00  0.00    -0.343 A  
HETATM   13  C   UNL     1     -11.704   8.986  71.657  1.00  0.00    -0.431 A  
BRANCH   7  14
HETATM   14  C   UNL     1      -8.704  10.107  67.650  1.00  0.00    -0.121 A  
HETATM   15 CL   UNL     1      -8.925   6.447  66.032  1.00  0.00    -0.162 Cl 
HETATM   16  C   UNL     1      -8.551   8.986  65.061  1.00  0.00    -0.181 A  
HETATM   17  C   UNL     1      -8.442  10.366  65.241  1.00  0.00    -0.173 A  
HETATM   18 CL   UNL     1      -8.375   8.361  63.462  1.00  0.00    -0.107 Cl 
HETATM   19  C   UNL     1      -8.855   8.722  67.450  1.00  0.00    -0.140 A  
HETATM   20  C   UNL     1      -8.775   8.163  66.169  1.00  0.00    -0.156 A  
HETATM   21  C   UNL     1      -8.528  10.923  66.522  1.00  0.00    -0.159 A  
ENDBRANCH   7  14
ENDBRANCH   2   4
TORSDOF 2
ENDMDL
MODEL      141
REMARK 921   NORMALIZED FREE ENERGY PREDICTED BY IDOCK:   -3.55 KCAL/MOL
REMARK 922        TOTAL FREE ENERGY PREDICTED BY IDOCK:   -4.56 KCAL/MOL
REMARK 923 INTER-LIGAND FREE ENERGY PREDICTED BY IDOCK:   -4.14 KCAL/MOL
REMARK 924 INTRA-LIGAND FREE ENERGY PREDICTED BY IDOCK:   -0.43 KCAL/MOL
REMARK 927      BINDING AFFINITY PREDICTED BY RF-SCORE:    0.00 PKD
ROOT
HETATM    1  C   UNL     1      -8.368   8.696  62.814  1.00  0.00    -0.174 C  
HETATM    2  N   UNL     1      -8.364   9.327  64.128  1.00  0.00    -0.166 NA 
HETATM    3  H   UNL     1      -8.140  10.320  64.052  1.00  0.00     0.000 HD 
ENDROOT
BRANCH   2   4
HETATM    4  C   UNL     1      -9.621   9.127  64.874  1.00  0.00     0.269 C  
HETATM    5  C   UNL     1      -9.319   8.213  66.081  1.00  0.00    -0.232 C  
HETATM    6  C   UNL     1     -10.248   8.418  67.268  1.00  0.00    -0.349 C  
HETATM    7  C   UNL     1     -10.290   9.877  67.734  1.00  0.00    -0.268 C  
HETATM    8  C   UNL     1     -10.575  10.813  66.574  1.00  0.00    -0.279 A  
HETATM    9  C   UNL     1     -10.258  10.470  65.245  1.00  0.00    -0.352 A  
HETATM   10  C   UNL     1     -10.604  11.380  64.223  1.00  0.00    -0.416 A  
HETATM   11  C   UNL     1     -11.168  12.061  66.852  1.00  0.00    -0.375 A  
HETATM   12  C   UNL     1     -11.473  12.952  65.830  1.00  0.00    -0.387 A  
HETATM   13  C   UNL     1     -11.195  12.610  64.513  1.00  0.00    -0.375 A  
BRANCH   7  14
HETATM   14  C   UNL     1      -9.102  10.309  68.593  1.00  0.00    -0.152 A  
HETATM   15 CL   UNL     1      -6.453  13.312  68.437  1.00  0.00    -0.082 Cl 
HETATM   16  C   UNL     1      -6.757  11.062  69.977  1.00  0.00    -0.094 A  
HETATM   17  C   UNL     1      -7.452   9.907  70.341  1.00  0.00    -0.137 A  
HETATM   18 CL   UNL     1      -5.293  11.424  70.816  1.00  0.00    -0.122 Cl 
HETATM   19  C   UNL     1      -8.416  11.493  68.264  1.00  0.00    -0.159 A  
HETATM   20  C   UNL     1      -7.251  11.867  68.945  1.00  0.00    -0.098 A  
HETATM   21  C   UNL     1      -8.620   9.539  69.662  1.00  0.00    -0.189 A  
ENDBRANCH   7  14
ENDBRANCH   2   4
TORSDOF 2
ENDMDL
MODEL      142
REMARK 921   NORMALIZED FREE ENERGY PREDICTED BY IDOCK:   -3.53 KCAL/MOL
REMARK 922        TOTAL FREE ENERGY PREDICTED BY IDOCK:   -4.54 KCAL/MOL
REMARK 923 INTER-LIGAND FREE ENERGY PREDICTED BY IDOCK:   -4.30 KCAL/MOL
REMARK 924 INTRA-LIGAND FREE ENERGY PREDICTED BY IDOCK:   -0.24 KCAL/MOL
REMARK 927      BINDING AFFINITY PREDICTED BY RF-SCORE:    0.00 PKD
ROOT
HETATM    1  C   UNL     1     -11.372   6.639  70.140  1.00  0.00    -0.382 C  
HETATM    2  N   UNL     1     -11.622   8.074  70.107  1.00  0.00    -0.470 NA 
HETATM    3  H   UNL     1     -12.398   8.321  70.721  1.00  0.00     0.000 HD 
ENDROOT
BRANCH   2   4
HETATM    4  C   UNL     1     -10.427   8.881  70.420  1.00  0.00    -0.210 C  
HETATM    5  C   UNL     1      -9.192   8.141  69.862  1.00  0.00    -0.151 C  
HETATM    6  C   UNL     1      -8.028   9.051  69.501  1.00  0.00    -0.099 C  
HETATM    7  C   UNL     1      -8.433  10.165  68.530  1.00  0.00    -0.121 C  
HETATM    8  C   UNL     1      -9.653  10.914  69.037  1.00  0.00    -0.170 A  
HETATM    9  C   UNL     1     -10.584  10.316  69.909  1.00  0.00    -0.324 A  
HETATM   10  C   UNL     1     -11.662  11.102  70.370  1.00  0.00    -0.415 A  
HETATM   11  C   UNL     1      -9.848  12.242  68.608  1.00  0.00    -0.098 A  
HETATM   12  C   UNL     1     -10.934  12.986  69.054  1.00  0.00    -0.242 A  
HETATM   13  C   UNL     1     -11.840  12.418  69.940  1.00  0.00    -0.376 A  
BRANCH   7  14
HETATM   14  C   UNL     1      -8.544   9.732  67.069  1.00  0.00    -0.127 A  
HETATM   15 CL   UNL     1      -6.992   6.754  64.882  1.00  0.00    -0.053 Cl 
HETATM   16  C   UNL     1      -8.500   8.983  64.345  1.00  0.00    -0.174 A  
HETATM   17  C   UNL     1      -9.189  10.127  64.752  1.00  0.00    -0.291 A  
HETATM   18 CL   UNL     1      -8.452   8.624  62.658  1.00  0.00    -0.191 Cl 
HETATM   19  C   UNL     1      -7.890   8.559  66.652  1.00  0.00    -0.090 A  
HETATM   20  C   UNL     1      -7.862   8.187  65.302  1.00  0.00    -0.115 A  
HETATM   21  C   UNL     1      -9.220  10.493  66.103  1.00  0.00    -0.197 A  
ENDBRANCH   7  14
ENDBRANCH   2   4
TORSDOF 2
ENDMDL
MODEL      143
REMARK 921   NORMALIZED FREE ENERGY PREDICTED BY IDOCK:   -3.50 KCAL/MOL
REMARK 922        TOTAL FREE ENERGY PREDICTED BY IDOCK:   -4.51 KCAL/MOL
REMARK 923 INTER-LIGAND FREE ENERGY PREDICTED BY IDOCK:   -4.01 KCAL/MOL
REMARK 924 INTRA-LIGAND FREE ENERGY PREDICTED BY IDOCK:   -0.50 KCAL/MOL
REMARK 927      BINDING AFFINITY PREDICTED BY RF-SCORE:    0.00 PKD
ROOT
HETATM    1  C   UNL     1      -7.139   4.920  67.465  1.00  0.00    -0.066 C  
HETATM    2  N   UNL     1      -7.290   5.498  66.136  1.00  0.00    -0.077 NA 
HETATM    3  H   UNL     1      -6.909   4.874  65.424  1.00  0.00     0.000 HD 
ENDROOT
BRANCH   2   4
HETATM    4  C   UNL     1      -8.682   5.870  65.817  1.00  0.00    -0.151 C  
HETATM    5  C   UNL     1      -9.600   5.252  66.893  1.00  0.00    -0.153 C  
HETATM    6  C   UNL     1     -10.894   6.016  67.125  1.00  0.00    -0.414 C  
HETATM    7  C   UNL     1     -10.652   7.493  67.452  1.00  0.00    -0.364 C  
HETATM    8  C   UNL     1      -9.744   8.139  66.422  1.00  0.00    -0.275 A  
HETATM    9  C   UNL     1      -8.822   7.388  65.666  1.00  0.00    -0.056 A  
HETATM   10  C   UNL     1      -8.053   8.063  64.694  1.00  0.00    -0.140 A  
HETATM   11  C   UNL     1      -9.834   9.533  66.232  1.00  0.00    -0.334 A  
HETATM   12  C   UNL     1      -9.044  10.179  65.288  1.00  0.00    -0.234 A  
HETATM   13  C   UNL     1      -8.156   9.443  64.514  1.00  0.00    -0.136 A  
BRANCH   7  14
HETATM   14  C   UNL     1     -10.234   7.770  68.896  1.00  0.00    -0.220 A  
HETATM   15 CL   UNL     1      -7.084   9.537  70.632  1.00  0.00    -0.126 Cl 
HETATM   16  C   UNL     1      -9.261   8.126  71.524  1.00  0.00    -0.161 A  
HETATM   17  C   UNL     1     -10.456   7.439  71.300  1.00  0.00    -0.221 A  
HETATM   18 CL   UNL     1      -8.687   8.243  73.148  1.00  0.00    -0.307 Cl 
HETATM   19  C   UNL     1      -9.054   8.496  69.139  1.00  0.00    -0.146 A  
HETATM   20  C   UNL     1      -8.566   8.671  70.440  1.00  0.00    -0.153 A  
HETATM   21  C   UNL     1     -10.944   7.271  69.999  1.00  0.00    -0.273 A  
ENDBRANCH   7  14
ENDBRANCH   2   4
TORSDOF 2
ENDMDL
MODEL      144
REMARK 921   NORMALIZED FREE ENERGY PREDICTED BY IDOCK:   -3.49 KCAL/MOL
REMARK 922        TOTAL FREE ENERGY PREDICTED BY IDOCK:   -4.50 KCAL/MOL
REMARK 923 INTER-LIGAND FREE ENERGY PREDICTED BY IDOCK:   -4.30 KCAL/MOL
REMARK 924 INTRA-LIGAND FREE ENERGY PREDICTED BY IDOCK:   -0.20 KCAL/MOL
REMARK 927      BINDING AFFINITY PREDICTED BY RF-SCORE:    0.00 PKD
ROOT
HETATM    1  C   UNL     1      -6.260   9.222  66.655  1.00  0.00    -0.065 C  
HETATM    2  N   UNL     1      -6.862   7.977  67.114  1.00  0.00    -0.072 NA 
HETATM    3  H   UNL     1      -6.289   7.177  66.846  1.00  0.00     0.000 HD 
ENDROOT
BRANCH   2   4
HETATM    4  C   UNL     1      -7.139   7.964  68.564  1.00  0.00    -0.076 C  
HETATM    5  C   UNL     1      -6.922   9.394  69.104  1.00  0.00    -0.058 C  
HETATM    6  C   UNL     1      -7.746   9.727  70.338  1.00  0.00    -0.159 C  
HETATM    7  C   UNL     1      -9.245   9.485  70.126  1.00  0.00    -0.281 C  
HETATM    8  C   UNL     1      -9.502   8.091  69.584  1.00  0.00    -0.163 A  
HETATM    9  C   UNL     1      -8.527   7.385  68.852  1.00  0.00    -0.129 A  
HETATM   10  C   UNL     1      -8.833   6.073  68.430  1.00  0.00    -0.112 A  
HETATM   11  C   UNL     1     -10.758   7.501  69.826  1.00  0.00    -0.249 A  
HETATM   12  C   UNL     1     -11.046   6.218  69.375  1.00  0.00    -0.477 A  
HETATM   13  C   UNL     1     -10.081   5.501  68.680  1.00  0.00    -0.246 A  
BRANCH   7  14
HETATM   14  C   UNL     1      -9.968  10.586  69.350  1.00  0.00    -0.220 A  
HETATM   15 CL   UNL     1      -8.804  13.587  66.963  1.00  0.00    -0.228 Cl 
HETATM   16  C   UNL     1     -11.186  12.788  68.067  1.00  0.00    -0.270 A  
HETATM   17  C   UNL     1     -11.949  11.910  68.838  1.00  0.00    -0.313 A  
HETATM   18 CL   UNL     1     -11.979  14.154  67.372  1.00  0.00    -0.446 Cl 
HETATM   19  C   UNL     1      -9.218  11.454  68.536  1.00  0.00    -0.174 A  
HETATM   20  C   UNL     1      -9.817  12.550  67.903  1.00  0.00    -0.207 A  
HETATM   21  C   UNL     1     -11.348  10.812  69.465  1.00  0.00    -0.355 A  
ENDBRANCH   7  14
ENDBRANCH   2   4
TORSDOF 2
ENDMDL
MODEL      145
REMARK 921   NORMALIZED FREE ENERGY PREDICTED BY IDOCK:   -3.45 KCAL/MOL
REMARK 922        TOTAL FREE ENERGY PREDICTED BY IDOCK:   -4.45 KCAL/MOL
REMARK 923 INTER-LIGAND FREE ENERGY PREDICTED BY IDOCK:   -4.01 KCAL/MOL
REMARK 924 INTRA-LIGAND FREE ENERGY PREDICTED BY IDOCK:   -0.44 KCAL/MOL
REMARK 927      BINDING AFFINITY PREDICTED BY RF-SCORE:    0.00 PKD
ROOT
HETATM    1  C   UNL     1      -6.375   8.208  68.243  1.00  0.00    -0.051 C  
HETATM    2  N   UNL     1      -6.177   6.867  68.780  1.00  0.00    -0.026 NA 
HETATM    3  H   UNL     1      -5.237   6.530  68.575  1.00  0.00     0.000 HD 
ENDROOT
BRANCH   2   4
HETATM    4  C   UNL     1      -6.467   6.770  70.223  1.00  0.00    -0.043 C  
HETATM    5  C   UNL     1      -6.384   8.191  70.823  1.00  0.00    -0.036 C  
HETATM    6  C   UNL     1      -7.248   8.399  72.058  1.00  0.00    -0.114 C  
HETATM    7  C   UNL     1      -8.717   8.036  71.814  1.00  0.00    -0.178 C  
HETATM    8  C   UNL     1      -8.844   6.647  71.213  1.00  0.00    -0.133 A  
HETATM    9  C   UNL     1      -7.803   6.061  70.468  1.00  0.00    -0.102 A  
HETATM   10  C   UNL     1      -7.987   4.746  69.989  1.00  0.00    -0.069 A  
HETATM   11  C   UNL     1     -10.046   5.941  71.412  1.00  0.00    -0.245 A  
HETATM   12  C   UNL     1     -10.215   4.657  70.906  1.00  0.00    -0.213 A  
HETATM   13  C   UNL     1      -9.182   4.056  70.197  1.00  0.00    -0.212 A  
BRANCH   7  14
HETATM   14  C   UNL     1      -9.525   9.099  71.072  1.00  0.00    -0.344 A  
HETATM   15 CL   UNL     1     -13.245  10.555  71.398  1.00  0.00    -0.463 Cl 
HETATM   16  C   UNL     1     -11.176  10.878  69.625  1.00  0.00    -0.282 A  
HETATM   17  C   UNL     1      -9.873  10.617  69.197  1.00  0.00    -0.217 A  
HETATM   18 CL   UNL     1     -12.154  11.917  68.654  1.00  0.00    -0.275 Cl 
HETATM   19  C   UNL     1     -10.825   9.404  71.516  1.00  0.00    -0.398 A  
HETATM   20  C   UNL     1     -11.648  10.281  70.799  1.00  0.00    -0.355 A  
HETATM   21  C   UNL     1      -9.051   9.744  69.919  1.00  0.00    -0.257 A  
ENDBRANCH   7  14
ENDBRANCH   2   4
TORSDOF 2
ENDMDL
MODEL      146
REMARK 921   NORMALIZED FREE ENERGY PREDICTED BY IDOCK:   -3.41 KCAL/MOL
REMARK 922        TOTAL FREE ENERGY PREDICTED BY IDOCK:   -4.41 KCAL/MOL
REMARK 923 INTER-LIGAND FREE ENERGY PREDICTED BY IDOCK:   -4.01 KCAL/MOL
REMARK 924 INTRA-LIGAND FREE ENERGY PREDICTED BY IDOCK:   -0.40 KCAL/MOL
REMARK 927      BINDING AFFINITY PREDICTED BY RF-SCORE:    0.00 PKD
ROOT
HETATM    1  C   UNL     1      -7.272   7.383  73.403  1.00  0.00    -0.077 C  
HETATM    2  N   UNL     1      -6.738   8.030  72.211  1.00  0.00    -0.065 NA 
HETATM    3  H   UNL     1      -5.746   8.238  72.326  1.00  0.00     0.000 HD 
ENDROOT
BRANCH   2   4
HETATM    4  C   UNL     1      -6.974   7.259  70.975  1.00  0.00    -0.060 C  
HETATM    5  C   UNL     1      -8.010   6.158  71.289  1.00  0.00    -0.113 C  
HETATM    6  C   UNL     1      -8.840   5.721  70.092  1.00  0.00    -0.144 C  
HETATM    7  C   UNL     1      -9.541   6.897  69.403  1.00  0.00    -0.147 C  
HETATM    8  C   UNL     1      -8.558   8.009  69.085  1.00  0.00    -0.137 A  
HETATM    9  C   UNL     1      -7.368   8.183  69.819  1.00  0.00    -0.065 A  
HETATM   10  C   UNL     1      -6.487   9.212  69.422  1.00  0.00    -0.044 A  
HETATM   11  C   UNL     1      -8.861   8.887  68.026  1.00  0.00    -0.133 A  
HETATM   12  C   UNL     1      -7.991   9.911  67.672  1.00  0.00    -0.109 A  
HETATM   13  C   UNL     1      -6.799  10.071  68.368  1.00  0.00    -0.062 A  
BRANCH   7  14
HETATM   14  C   UNL     1     -10.810   7.384  70.102  1.00  0.00    -0.270 A  
HETATM   15 CL   UNL     1     -12.203  10.961  71.254  1.00  0.00    -0.430 Cl 
HETATM   16  C   UNL     1     -13.007   8.358  71.586  1.00  0.00    -0.334 A  
HETATM   17  C   UNL     1     -12.855   6.988  71.367  1.00  0.00    -0.407 A  
HETATM   18 CL   UNL     1     -14.331   8.880  72.563  1.00  0.00    -0.436 Cl 
HETATM   19  C   UNL     1     -10.999   8.765  70.293  1.00  0.00    -0.255 A  
HETATM   20  C   UNL     1     -12.083   9.251  71.033  1.00  0.00    -0.280 A  
HETATM   21  C   UNL     1     -11.772   6.505  70.623  1.00  0.00    -0.436 A  
ENDBRANCH   7  14
ENDBRANCH   2   4
TORSDOF 2
ENDMDL
MODEL      147
REMARK 921   NORMALIZED FREE ENERGY PREDICTED BY IDOCK:   -3.34 KCAL/MOL
REMARK 922        TOTAL FREE ENERGY PREDICTED BY IDOCK:   -4.32 KCAL/MOL
REMARK 923 INTER-LIGAND FREE ENERGY PREDICTED BY IDOCK:   -3.73 KCAL/MOL
REMARK 924 INTRA-LIGAND FREE ENERGY PREDICTED BY IDOCK:   -0.59 KCAL/MOL
REMARK 927      BINDING AFFINITY PREDICTED BY RF-SCORE:    0.00 PKD
ROOT
HETATM    1  C   UNL     1      -9.645  10.221  64.042  1.00  0.00    -0.304 C  
HETATM    2  N   UNL     1      -9.527   9.702  65.399  1.00  0.00    -0.262 NA 
HETATM    3  H   UNL     1      -8.631   9.233  65.530  1.00  0.00     0.000 HD 
ENDROOT
BRANCH   2   4
HETATM    4  C   UNL     1      -9.740  10.730  66.435  1.00  0.00    -0.199 C  
HETATM    5  C   UNL     1     -11.006  10.349  67.232  1.00  0.00    -0.306 C  
HETATM    6  C   UNL     1     -11.019  10.858  68.666  1.00  0.00    -0.274 C  
HETATM    7  C   UNL     1      -9.776  10.429  69.452  1.00  0.00    -0.222 C  
HETATM    8  C   UNL     1      -8.505  10.777  68.697  1.00  0.00    -0.143 A  
HETATM    9  C   UNL     1      -8.485  10.910  67.295  1.00  0.00    -0.125 A  
HETATM   10  C   UNL     1      -7.271  11.285  66.680  1.00  0.00    -0.126 A  
HETATM   11  C   UNL     1      -7.319  10.963  69.435  1.00  0.00    -0.116 A  
HETATM   12  C   UNL     1      -6.129  11.305  68.803  1.00  0.00    -0.044 A  
HETATM   13  C   UNL     1      -6.105  11.471  67.424  1.00  0.00    -0.083 A  
BRANCH   7  14
HETATM   14  C   UNL     1      -9.808   8.991  69.966  1.00  0.00    -0.203 A  
HETATM   15 CL   UNL     1      -8.105   5.547  68.824  1.00  0.00    -0.098 Cl 
HETATM   16  C   UNL     1      -9.978   6.267  70.695  1.00  0.00    -0.186 A  
HETATM   17  C   UNL     1     -10.747   7.225  71.359  1.00  0.00    -0.247 A  
HETATM   18 CL   UNL     1     -10.185   4.612  71.141  1.00  0.00    -0.239 Cl 
HETATM   19  C   UNL     1      -9.008   8.021  69.334  1.00  0.00    -0.148 A  
HETATM   20  C   UNL     1      -9.093   6.669  69.690  1.00  0.00    -0.142 A  
HETATM   21  C   UNL     1     -10.655   8.576  71.005  1.00  0.00    -0.267 A  
ENDBRANCH   7  14
ENDBRANCH   2   4
TORSDOF 2
ENDMDL
MODEL      148
REMARK 921   NORMALIZED FREE ENERGY PREDICTED BY IDOCK:   -3.33 KCAL/MOL
REMARK 922        TOTAL FREE ENERGY PREDICTED BY IDOCK:   -4.32 KCAL/MOL
REMARK 923 INTER-LIGAND FREE ENERGY PREDICTED BY IDOCK:   -3.84 KCAL/MOL
REMARK 924 INTRA-LIGAND FREE ENERGY PREDICTED BY IDOCK:   -0.48 KCAL/MOL
REMARK 927      BINDING AFFINITY PREDICTED BY RF-SCORE:    0.00 PKD
ROOT
HETATM    1  C   UNL     1      -8.253   3.224  71.435  1.00  0.00    -0.064 C  
HETATM    2  N   UNL     1      -8.422   4.361  70.539  1.00  0.00    -0.076 NA 
HETATM    3  H   UNL     1      -7.722   4.344  69.797  1.00  0.00     0.000 HD 
ENDROOT
BRANCH   2   4
HETATM    4  C   UNL     1      -9.782   4.462  69.977  1.00  0.00    -0.216 C  
HETATM    5  C   UNL     1     -10.442   5.735  70.550  1.00  0.00    -0.331 C  
HETATM    6  C   UNL     1     -11.503   6.348  69.650  1.00  0.00    -0.446 C  
HETATM    7  C   UNL     1     -10.980   6.639  68.239  1.00  0.00    -0.321 C  
HETATM    8  C   UNL     1     -10.312   5.414  67.641  1.00  0.00    -0.235 A  
HETATM    9  C   UNL     1      -9.749   4.405  68.447  1.00  0.00    -0.172 A  
HETATM   10  C   UNL     1      -9.194   3.275  67.807  1.00  0.00    -0.240 A  
HETATM   11  C   UNL     1     -10.259   5.300  66.238  1.00  0.00    -0.263 A  
HETATM   12  C   UNL     1      -9.681   4.191  65.630  1.00  0.00    -0.204 A  
HETATM   13  C   UNL     1      -9.152   3.175  66.416  1.00  0.00    -0.164 A  
BRANCH   7  14
HETATM   14  C   UNL     1     -10.143   7.912  68.116  1.00  0.00    -0.228 A  
HETATM   15 CL   UNL     1      -6.368   8.716  67.040  1.00  0.00    -0.056 Cl 
HETATM   16  C   UNL     1      -8.450  10.173  68.075  1.00  0.00    -0.118 A  
HETATM   17  C   UNL     1      -9.768  10.286  68.521  1.00  0.00    -0.167 A  
HETATM   18 CL   UNL     1      -7.448  11.577  68.145  1.00  0.00    -0.095 Cl 
HETATM   19  C   UNL     1      -8.827   7.821  67.629  1.00  0.00    -0.128 A  
HETATM   20  C   UNL     1      -7.983   8.938  67.612  1.00  0.00    -0.102 A  
HETATM   21  C   UNL     1     -10.611   9.168  68.532  1.00  0.00    -0.209 A  
ENDBRANCH   7  14
ENDBRANCH   2   4
TORSDOF 2
ENDMDL
MODEL      149
REMARK 921   NORMALIZED FREE ENERGY PREDICTED BY IDOCK:   -3.32 KCAL/MOL
REMARK 922        TOTAL FREE ENERGY PREDICTED BY IDOCK:   -4.30 KCAL/MOL
REMARK 923 INTER-LIGAND FREE ENERGY PREDICTED BY IDOCK:   -4.14 KCAL/MOL
REMARK 924 INTRA-LIGAND FREE ENERGY PREDICTED BY IDOCK:   -0.17 KCAL/MOL
REMARK 927      BINDING AFFINITY PREDICTED BY RF-SCORE:    0.00 PKD
ROOT
HETATM    1  C   UNL     1     -10.011  10.632  66.228  1.00  0.00    -0.222 C  
HETATM    2  N   UNL     1      -8.636  10.971  65.882  1.00  0.00    -0.192 NA 
HETATM    3  H   UNL     1      -8.504  11.982  65.870  1.00  0.00     0.000 HD 
ENDROOT
BRANCH   2   4
HETATM    4  C   UNL     1      -7.639  10.321  66.755  1.00  0.00    -0.107 C  
HETATM    5  C   UNL     1      -7.600  11.093  68.091  1.00  0.00    -0.103 C  
HETATM    6  C   UNL     1      -7.174  10.253  69.285  1.00  0.00    -0.093 C  
HETATM    7  C   UNL     1      -8.031   8.993  69.452  1.00  0.00    -0.100 C  
HETATM    8  C   UNL     1      -8.105   8.208  68.154  1.00  0.00    -0.128 A  
HETATM    9  C   UNL     1      -7.931   8.824  66.900  1.00  0.00    -0.098 A  
HETATM   10  C   UNL     1      -7.965   8.009  65.748  1.00  0.00    -0.111 A  
HETATM   11  C   UNL     1      -8.362   6.824  68.224  1.00  0.00    -0.118 A  
HETATM   12  C   UNL     1      -8.419   6.047  67.073  1.00  0.00    -0.108 A  
HETATM   13  C   UNL     1      -8.216   6.639  65.833  1.00  0.00    -0.132 A  
BRANCH   7  14
HETATM   14  C   UNL     1      -9.393   9.226  70.104  1.00  0.00    -0.258 A  
HETATM   15 CL   UNL     1     -12.279  11.978  69.708  1.00  0.00    -0.272 Cl 
HETATM   16  C   UNL     1     -11.815   9.873  71.406  1.00  0.00    -0.394 A  
HETATM   17  C   UNL     1     -11.053   8.785  71.834  1.00  0.00    -0.434 A  
HETATM   18 CL   UNL     1     -13.246  10.257  72.292  1.00  0.00    -0.438 Cl 
HETATM   19  C   UNL     1     -10.192  10.293  69.657  1.00  0.00    -0.268 A  
HETATM   20  C   UNL     1     -11.391  10.620  70.303  1.00  0.00    -0.319 A  
HETATM   21  C   UNL     1      -9.857   8.457  71.182  1.00  0.00    -0.242 A  
ENDBRANCH   7  14
ENDBRANCH   2   4
TORSDOF 2
ENDMDL
MODEL      150
REMARK 921   NORMALIZED FREE ENERGY PREDICTED BY IDOCK:   -3.32 KCAL/MOL
REMARK 922        TOTAL FREE ENERGY PREDICTED BY IDOCK:   -4.30 KCAL/MOL
REMARK 923 INTER-LIGAND FREE ENERGY PREDICTED BY IDOCK:   -3.74 KCAL/MOL
REMARK 924 INTRA-LIGAND FREE ENERGY PREDICTED BY IDOCK:   -0.56 KCAL/MOL
REMARK 927      BINDING AFFINITY PREDICTED BY RF-SCORE:    0.00 PKD
ROOT
HETATM    1  C   UNL     1      -9.025   8.422  65.461  1.00  0.00    -0.098 C  
HETATM    2  N   UNL     1      -9.089   8.092  66.879  1.00  0.00    -0.145 NA 
HETATM    3  H   UNL     1      -8.342   7.445  67.134  1.00  0.00     0.000 HD 
ENDROOT
BRANCH   2   4
HETATM    4  C   UNL     1      -9.077   9.280  67.755  1.00  0.00    -0.126 C  
HETATM    5  C   UNL     1     -10.440   9.355  68.476  1.00  0.00    -0.239 C  
HETATM    6  C   UNL     1     -10.394  10.053  69.826  1.00  0.00    -0.290 C  
HETATM    7  C   UNL     1      -9.354   9.440  70.770  1.00  0.00    -0.292 C  
HETATM    8  C   UNL     1      -7.998   9.338  70.095  1.00  0.00    -0.143 A  
HETATM    9  C   UNL     1      -7.867   9.256  68.695  1.00  0.00    -0.089 A  
HETATM   10  C   UNL     1      -6.566   9.215  68.149  1.00  0.00    -0.060 A  
HETATM   11  C   UNL     1      -6.847   9.320  70.907  1.00  0.00    -0.103 A  
HETATM   12  C   UNL     1      -5.576   9.250  70.347  1.00  0.00    -0.035 A  
HETATM   13  C   UNL     1      -5.435   9.202  68.967  1.00  0.00    -0.037 A  
BRANCH   7  14
HETATM   14  C   UNL     1      -9.794   8.148  71.456  1.00  0.00    -0.233 A  
HETATM   15 CL   UNL     1     -10.276   4.348  70.276  1.00  0.00    -0.171 Cl 
HETATM   16  C   UNL     1     -10.811   5.758  72.569  1.00  0.00    -0.250 A  
HETATM   17  C   UNL     1     -10.790   6.934  73.321  1.00  0.00    -0.321 A  
HETATM   18 CL   UNL     1     -11.513   4.352  73.283  1.00  0.00    -0.342 Cl 
HETATM   19  C   UNL     1      -9.783   6.946  70.724  1.00  0.00    -0.176 A  
HETATM   20  C   UNL     1     -10.290   5.761  71.270  1.00  0.00    -0.223 A  
HETATM   21  C   UNL     1     -10.276   8.116  72.774  1.00  0.00    -0.372 A  
ENDBRANCH   7  14
ENDBRANCH   2   4
TORSDOF 2
ENDMDL
MODEL      151
REMARK 921   NORMALIZED FREE ENERGY PREDICTED BY IDOCK:   -3.22 KCAL/MOL
REMARK 922        TOTAL FREE ENERGY PREDICTED BY IDOCK:   -4.19 KCAL/MOL
REMARK 923 INTER-LIGAND FREE ENERGY PREDICTED BY IDOCK:   -3.56 KCAL/MOL
REMARK 924 INTRA-LIGAND FREE ENERGY PREDICTED BY IDOCK:   -0.63 KCAL/MOL
REMARK 927      BINDING AFFINITY PREDICTED BY RF-SCORE:    0.00 PKD
ROOT
HETATM    1  C   UNL     1      -6.126   7.311  69.243  1.00  0.00    -0.030 C  
HETATM    2  N   UNL     1      -6.351   7.825  70.588  1.00  0.00    -0.037 NA 
HETATM    3  H   UNL     1      -5.563   8.397  70.893  1.00  0.00     0.000 HD 
ENDROOT
BRANCH   2   4
HETATM    4  C   UNL     1      -7.620   8.565  70.724  1.00  0.00    -0.074 C  
HETATM    5  C   UNL     1      -7.503   9.869  69.906  1.00  0.00    -0.156 C  
HETATM    6  C   UNL     1      -8.830  10.406  69.393  1.00  0.00    -0.138 C  
HETATM    7  C   UNL     1      -9.609   9.366  68.581  1.00  0.00    -0.152 C  
HETATM    8  C   UNL     1      -9.739   8.061  69.346  1.00  0.00    -0.170 A  
HETATM    9  C   UNL     1      -8.812   7.684  70.337  1.00  0.00    -0.144 A  
HETATM   10  C   UNL     1      -9.038   6.478  71.035  1.00  0.00    -0.150 A  
HETATM   11  C   UNL     1     -10.821   7.212  69.041  1.00  0.00    -0.172 A  
HETATM   12  C   UNL     1     -11.007   6.014  69.722  1.00  0.00    -0.471 A  
HETATM   13  C   UNL     1     -10.117   5.648  70.723  1.00  0.00    -0.270 A  
BRANCH   7  14
HETATM   14  C   UNL     1      -9.129   9.185  67.142  1.00  0.00    -0.146 A  
HETATM   15 CL   UNL     1      -9.958  10.960  63.646  1.00  0.00    -0.382 Cl 
HETATM   16  C   UNL     1      -8.479   8.783  64.422  1.00  0.00    -0.129 A  
HETATM   17  C   UNL     1      -7.966   7.934  65.403  1.00  0.00    -0.123 A  
HETATM   18 CL   UNL     1      -8.102   8.437  62.773  1.00  0.00    -0.167 Cl 
HETATM   19  C   UNL     1      -9.604  10.060  66.147  1.00  0.00    -0.265 A  
HETATM   20  C   UNL     1      -9.288   9.861  64.798  1.00  0.00    -0.278 A  
HETATM   21  C   UNL     1      -8.279   8.138  66.752  1.00  0.00    -0.107 A  
ENDBRANCH   7  14
ENDBRANCH   2   4
TORSDOF 2
ENDMDL
MODEL      152
REMARK 921   NORMALIZED FREE ENERGY PREDICTED BY IDOCK:   -3.22 KCAL/MOL
REMARK 922        TOTAL FREE ENERGY PREDICTED BY IDOCK:   -4.19 KCAL/MOL
REMARK 923 INTER-LIGAND FREE ENERGY PREDICTED BY IDOCK:   -3.66 KCAL/MOL
REMARK 924 INTRA-LIGAND FREE ENERGY PREDICTED BY IDOCK:   -0.53 KCAL/MOL
REMARK 927      BINDING AFFINITY PREDICTED BY RF-SCORE:    0.00 PKD
ROOT
HETATM    1  C   UNL     1      -7.062   8.417  74.412  1.00  0.00    -0.170 C  
HETATM    2  N   UNL     1      -7.562   7.906  73.142  1.00  0.00    -0.119 NA 
HETATM    3  H   UNL     1      -7.097   7.033  72.894  1.00  0.00     0.000 HD 
ENDROOT
BRANCH   2   4
HETATM    4  C   UNL     1      -9.029   7.745  73.116  1.00  0.00    -0.213 C  
HETATM    5  C   UNL     1      -9.596   8.710  72.053  1.00  0.00    -0.385 C  
HETATM    6  C   UNL     1     -10.907   8.255  71.432  1.00  0.00    -0.293 C  
HETATM    7  C   UNL     1     -10.817   6.844  70.840  1.00  0.00    -0.277 C  
HETATM    8  C   UNL     1     -10.253   5.862  71.852  1.00  0.00    -0.246 A  
HETATM    9  C   UNL     1      -9.416   6.278  72.905  1.00  0.00    -0.147 A  
HETATM   10  C   UNL     1      -8.978   5.306  73.830  1.00  0.00    -0.123 A  
HETATM   11  C   UNL     1     -10.581   4.499  71.715  1.00  0.00    -0.029 A  
HETATM   12  C   UNL     1     -10.113   3.555  72.622  1.00  0.00    -0.234 A  
HETATM   13  C   UNL     1      -9.314   3.959  73.684  1.00  0.00    -0.116 A  
BRANCH   7  14
HETATM   14  C   UNL     1     -10.144   6.765  69.470  1.00  0.00    -0.192 A  
HETATM   15 CL   UNL     1     -11.144   5.199  65.920  1.00  0.00    -0.041 Cl 
HETATM   16  C   UNL     1      -8.893   6.367  66.969  1.00  0.00    -0.115 A  
HETATM   17  C   UNL     1      -8.205   6.991  68.011  1.00  0.00    -0.119 A  
HETATM   18 CL   UNL     1      -8.046   6.089  65.491  1.00  0.00    -0.126 Cl 
HETATM   19  C   UNL     1     -10.840   6.177  68.399  1.00  0.00    -0.382 A  
HETATM   20  C   UNL     1     -10.222   5.973  67.159  1.00  0.00    -0.202 A  
HETATM   21  C   UNL     1      -8.828   7.198  69.247  1.00  0.00    -0.136 A  
ENDBRANCH   7  14
ENDBRANCH   2   4
TORSDOF 2
ENDMDL
MODEL      153
REMARK 921   NORMALIZED FREE ENERGY PREDICTED BY IDOCK:   -3.22 KCAL/MOL
REMARK 922        TOTAL FREE ENERGY PREDICTED BY IDOCK:   -4.19 KCAL/MOL
REMARK 923 INTER-LIGAND FREE ENERGY PREDICTED BY IDOCK:   -3.59 KCAL/MOL
REMARK 924 INTRA-LIGAND FREE ENERGY PREDICTED BY IDOCK:   -0.60 KCAL/MOL
REMARK 927      BINDING AFFINITY PREDICTED BY RF-SCORE:    0.00 PKD
ROOT
HETATM    1  C   UNL     1     -11.524   8.934  70.890  1.00  0.00    -0.288 C  
HETATM    2  N   UNL     1     -11.438   8.689  72.324  1.00  0.00    -0.370 NA 
HETATM    3  H   UNL     1     -12.319   8.919  72.785  1.00  0.00     0.000 HD 
ENDROOT
BRANCH   2   4
HETATM    4  C   UNL     1     -11.014   7.315  72.655  1.00  0.00    -0.299 C  
HETATM    5  C   UNL     1     -11.498   6.381  71.524  1.00  0.00    -0.360 C  
HETATM    6  C   UNL     1     -10.648   5.134  71.338  1.00  0.00    -0.207 C  
HETATM    7  C   UNL     1      -9.165   5.460  71.128  1.00  0.00    -0.175 C  
HETATM    8  C   UNL     1      -8.651   6.387  72.215  1.00  0.00    -0.117 A  
HETATM    9  C   UNL     1      -9.507   7.255  72.920  1.00  0.00    -0.200 A  
HETATM   10  C   UNL     1      -8.952   8.044  73.950  1.00  0.00    -0.224 A  
HETATM   11  C   UNL     1      -7.273   6.370  72.511  1.00  0.00    -0.083 A  
HETATM   12  C   UNL     1      -6.745   7.179  73.510  1.00  0.00    -0.065 A  
HETATM   13  C   UNL     1      -7.586   8.014  74.234  1.00  0.00    -0.246 A  
BRANCH   7  14
HETATM   14  C   UNL     1      -8.803   5.915  69.715  1.00  0.00    -0.129 A  
HETATM   15 CL   UNL     1      -9.077   9.372  67.705  1.00  0.00    -0.131 Cl 
HETATM   16  C   UNL     1      -8.383   6.796  67.063  1.00  0.00    -0.114 A  
HETATM   17  C   UNL     1      -8.159   5.462  67.408  1.00  0.00    -0.101 A  
HETATM   18 CL   UNL     1      -8.179   7.251  65.410  1.00  0.00    -0.136 Cl 
HETATM   19  C   UNL     1      -8.984   7.266  69.363  1.00  0.00    -0.139 A  
HETATM   20  C   UNL     1      -8.782   7.705  68.049  1.00  0.00    -0.125 A  
HETATM   21  C   UNL     1      -8.356   5.027  68.724  1.00  0.00    -0.084 A  
ENDBRANCH   7  14
ENDBRANCH   2   4
TORSDOF 2
ENDMDL
MODEL      154
REMARK 921   NORMALIZED FREE ENERGY PREDICTED BY IDOCK:   -3.22 KCAL/MOL
REMARK 922        TOTAL FREE ENERGY PREDICTED BY IDOCK:   -4.19 KCAL/MOL
REMARK 923 INTER-LIGAND FREE ENERGY PREDICTED BY IDOCK:   -3.61 KCAL/MOL
REMARK 924 INTRA-LIGAND FREE ENERGY PREDICTED BY IDOCK:   -0.58 KCAL/MOL
REMARK 927      BINDING AFFINITY PREDICTED BY RF-SCORE:    0.00 PKD
ROOT
HETATM    1  C   UNL     1     -10.074  10.742  66.210  1.00  0.00    -0.232 C  
HETATM    2  N   UNL     1      -9.031  11.684  65.824  1.00  0.00    -0.380 NA 
HETATM    3  H   UNL     1      -9.392  12.638  65.809  1.00  0.00     0.000 HD 
ENDROOT
BRANCH   2   4
HETATM    4  C   UNL     1      -7.822  11.592  66.665  1.00  0.00    -0.112 C  
HETATM    5  C   UNL     1      -8.229  11.906  68.121  1.00  0.00    -0.158 C  
HETATM    6  C   UNL     1      -7.346  11.251  69.171  1.00  0.00    -0.104 C  
HETATM    7  C   UNL     1      -7.244   9.733  68.989  1.00  0.00    -0.076 C  
HETATM    8  C   UNL     1      -6.855   9.379  67.565  1.00  0.00    -0.076 A  
HETATM    9  C   UNL     1      -7.130  10.238  66.483  1.00  0.00    -0.108 A  
HETATM   10  C   UNL     1      -6.687   9.853  65.199  1.00  0.00    -0.109 A  
HETATM   11  C   UNL     1      -6.206   8.150  67.335  1.00  0.00    -0.055 A  
HETATM   12  C   UNL     1      -5.805   7.779  66.056  1.00  0.00    -0.037 A  
HETATM   13  C   UNL     1      -6.042   8.633  64.987  1.00  0.00    -0.060 A  
BRANCH   7  14
HETATM   14  C   UNL     1      -8.443   8.943  69.510  1.00  0.00    -0.128 A  
HETATM   15 CL   UNL     1     -11.106   6.441  67.862  1.00  0.00    -0.404 Cl 
HETATM   16  C   UNL     1     -10.808   7.625  70.319  1.00  0.00    -0.246 A  
HETATM   17  C   UNL     1     -10.111   8.439  71.214  1.00  0.00    -0.260 A  
HETATM   18 CL   UNL     1     -12.284   6.909  70.856  1.00  0.00    -0.433 Cl 
HETATM   19  C   UNL     1      -9.132   8.086  68.631  1.00  0.00    -0.140 A  
HETATM   20  C   UNL     1     -10.307   7.435  69.027  1.00  0.00    -0.210 A  
HETATM   21  C   UNL     1      -8.934   9.084  70.817  1.00  0.00    -0.286 A  
ENDBRANCH   7  14
ENDBRANCH   2   4
TORSDOF 2
ENDMDL
MODEL      155
REMARK 921   NORMALIZED FREE ENERGY PREDICTED BY IDOCK:   -3.19 KCAL/MOL
REMARK 922        TOTAL FREE ENERGY PREDICTED BY IDOCK:   -4.16 KCAL/MOL
REMARK 923 INTER-LIGAND FREE ENERGY PREDICTED BY IDOCK:   -3.53 KCAL/MOL
REMARK 924 INTRA-LIGAND FREE ENERGY PREDICTED BY IDOCK:   -0.63 KCAL/MOL
REMARK 927      BINDING AFFINITY PREDICTED BY RF-SCORE:    0.00 PKD
ROOT
HETATM    1  C   UNL     1     -10.476   6.666  71.831  1.00  0.00    -0.201 C  
HETATM    2  N   UNL     1      -9.558   5.757  71.156  1.00  0.00    -0.165 NA 
HETATM    3  H   UNL     1      -9.331   4.962  71.754  1.00  0.00     0.000 HD 
ENDROOT
BRANCH   2   4
HETATM    4  C   UNL     1     -10.051   5.301  69.842  1.00  0.00    -0.263 C  
HETATM    5  C   UNL     1     -11.140   6.290  69.372  1.00  0.00    -0.477 C  
HETATM    6  C   UNL     1     -11.284   6.387  67.861  1.00  0.00    -0.262 C  
HETATM    7  C   UNL     1      -9.960   6.721  67.165  1.00  0.00    -0.220 C  
HETATM    8  C   UNL     1      -8.857   5.776  67.608  1.00  0.00    -0.105 A  
HETATM    9  C   UNL     1      -8.894   5.122  68.855  1.00  0.00    -0.106 A  
HETATM   10  C   UNL     1      -7.852   4.221  69.164  1.00  0.00    -0.057 A  
HETATM   11  C   UNL     1      -7.770   5.564  66.738  1.00  0.00    -0.100 A  
HETATM   12  C   UNL     1      -6.740   4.694  67.077  1.00  0.00    -0.051 A  
HETATM   13  C   UNL     1      -6.783   4.017  68.290  1.00  0.00    -0.047 A  
BRANCH   7  14
HETATM   14  C   UNL     1      -9.561   8.195  67.219  1.00  0.00    -0.211 A  
HETATM   15 CL   UNL     1      -7.373  10.437  69.718  1.00  0.00    -0.152 Cl 
HETATM   16  C   UNL     1      -8.959  10.937  67.535  1.00  0.00    -0.136 A  
HETATM   17  C   UNL     1      -9.781  10.511  66.491  1.00  0.00    -0.237 A  
HETATM   18 CL   UNL     1      -8.691  12.633  67.715  1.00  0.00    -0.168 Cl 
HETATM   19  C   UNL     1      -8.700   8.634  68.241  1.00  0.00    -0.142 A  
HETATM   20  C   UNL     1      -8.403   9.992  68.404  1.00  0.00    -0.111 A  
HETATM   21  C   UNL     1     -10.072   9.151  66.327  1.00  0.00    -0.319 A  
ENDBRANCH   7  14
ENDBRANCH   2   4
TORSDOF 2
ENDMDL
MODEL      156
REMARK 921   NORMALIZED FREE ENERGY PREDICTED BY IDOCK:   -3.17 KCAL/MOL
REMARK 922        TOTAL FREE ENERGY PREDICTED BY IDOCK:   -4.14 KCAL/MOL
REMARK 923 INTER-LIGAND FREE ENERGY PREDICTED BY IDOCK:   -3.73 KCAL/MOL
REMARK 924 INTRA-LIGAND FREE ENERGY PREDICTED BY IDOCK:   -0.41 KCAL/MOL
REMARK 927      BINDING AFFINITY PREDICTED BY RF-SCORE:    0.00 PKD
ROOT
HETATM    1  C   UNL     1      -6.928  11.160  66.805  1.00  0.00    -0.137 C  
HETATM    2  N   UNL     1      -7.371  11.058  65.420  1.00  0.00    -0.351 NA 
HETATM    3  H   UNL     1      -6.724  10.488  64.874  1.00  0.00     0.000 HD 
ENDROOT
BRANCH   2   4
HETATM    4  C   UNL     1      -8.753  10.559  65.287  1.00  0.00    -0.188 C  
HETATM    5  C   UNL     1      -8.704   9.016  65.273  1.00  0.00    -0.226 C  
HETATM    6  C   UNL     1      -9.967   8.346  65.789  1.00  0.00     0.380 C  
HETATM    7  C   UNL     1     -10.356   8.828  67.191  1.00  0.00    -0.364 C  
HETATM    8  C   UNL     1     -10.406  10.345  67.252  1.00  0.00    -0.278 A  
HETATM    9  C   UNL     1      -9.656  11.150  66.374  1.00  0.00    -0.227 A  
HETATM   10  C   UNL     1      -9.802  12.551  66.467  1.00  0.00    -0.251 A  
HETATM   11  C   UNL     1     -11.227  10.947  68.226  1.00  0.00    -0.347 A  
HETATM   12  C   UNL     1     -11.332  12.330  68.318  1.00  0.00    -0.339 A  
HETATM   13  C   UNL     1     -10.623  13.134  67.435  1.00  0.00    -0.247 A  
BRANCH   7  14
HETATM   14  C   UNL     1      -9.558   8.196  68.330  1.00  0.00    -0.155 A  
HETATM   15 CL   UNL     1      -9.554   4.613  70.125  1.00  0.00    -0.247 Cl 
HETATM   16  C   UNL     1      -8.302   7.014  70.568  1.00  0.00    -0.132 A  
HETATM   17  C   UNL     1      -8.032   8.340  70.226  1.00  0.00    -0.102 A  
HETATM   18 CL   UNL     1      -7.557   6.376  71.988  1.00  0.00    -0.094 Cl 
HETATM   19  C   UNL     1      -9.788   6.848  68.661  1.00  0.00    -0.145 A  
HETATM   20  C   UNL     1      -9.171   6.260  69.772  1.00  0.00    -0.146 A  
HETATM   21  C   UNL     1      -8.646   8.923  69.111  1.00  0.00    -0.134 A  
ENDBRANCH   7  14
ENDBRANCH   2   4
TORSDOF 2
ENDMDL
MODEL      157
REMARK 921   NORMALIZED FREE ENERGY PREDICTED BY IDOCK:   -3.15 KCAL/MOL
REMARK 922        TOTAL FREE ENERGY PREDICTED BY IDOCK:   -4.11 KCAL/MOL
REMARK 923 INTER-LIGAND FREE ENERGY PREDICTED BY IDOCK:   -3.50 KCAL/MOL
REMARK 924 INTRA-LIGAND FREE ENERGY PREDICTED BY IDOCK:   -0.61 KCAL/MOL
REMARK 927      BINDING AFFINITY PREDICTED BY RF-SCORE:    0.00 PKD
ROOT
HETATM    1  C   UNL     1      -6.201   6.669  69.772  1.00  0.00    -0.041 C  
HETATM    2  N   UNL     1      -6.757   7.744  70.584  1.00  0.00    -0.038 NA 
HETATM    3  H   UNL     1      -6.034   8.420  70.832  1.00  0.00     0.000 HD 
ENDROOT
BRANCH   2   4
HETATM    4  C   UNL     1      -7.909   8.415  69.952  1.00  0.00    -0.101 C  
HETATM    5  C   UNL     1      -7.688   8.405  68.424  1.00  0.00    -0.105 C  
HETATM    6  C   UNL     1      -8.971   8.432  67.607  1.00  0.00    -0.141 C  
HETATM    7  C   UNL     1      -9.933   7.302  67.988  1.00  0.00    -0.186 C  
HETATM    8  C   UNL     1     -10.170   7.269  69.487  1.00  0.00    -0.200 A  
HETATM    9  C   UNL     1      -9.228   7.779  70.401  1.00  0.00    -0.156 A  
HETATM   10  C   UNL     1      -9.553   7.755  71.775  1.00  0.00    -0.204 A  
HETATM   11  C   UNL     1     -11.371   6.704  69.962  1.00  0.00    -0.440 A  
HETATM   12  C   UNL     1     -11.655   6.665  71.322  1.00  0.00    -0.374 A  
HETATM   13  C   UNL     1     -10.748   7.195  72.230  1.00  0.00    -0.252 A  
BRANCH   7  14
HETATM   14  C   UNL     1      -9.586   5.937  67.394  1.00  0.00    -0.117 A  
HETATM   15 CL   UNL     1      -8.993   4.542  63.684  1.00  0.00    -0.140 Cl 
HETATM   16  C   UNL     1      -9.173   3.419  66.181  1.00  0.00    -0.163 A  
HETATM   17  C   UNL     1      -9.330   3.519  67.565  1.00  0.00    -0.249 A  
HETATM   18 CL   UNL     1      -8.998   1.844  65.498  1.00  0.00    -0.124 Cl 
HETATM   19  C   UNL     1      -9.384   5.827  66.006  1.00  0.00    -0.134 A  
HETATM   20  C   UNL     1      -9.184   4.580  65.401  1.00  0.00    -0.154 A  
HETATM   21  C   UNL     1      -9.524   4.768  68.168  1.00  0.00    -0.186 A  
ENDBRANCH   7  14
ENDBRANCH   2   4
TORSDOF 2
ENDMDL
MODEL      158
REMARK 921   NORMALIZED FREE ENERGY PREDICTED BY IDOCK:   -3.14 KCAL/MOL
REMARK 922        TOTAL FREE ENERGY PREDICTED BY IDOCK:   -4.10 KCAL/MOL
REMARK 923 INTER-LIGAND FREE ENERGY PREDICTED BY IDOCK:   -3.95 KCAL/MOL
REMARK 924 INTRA-LIGAND FREE ENERGY PREDICTED BY IDOCK:   -0.15 KCAL/MOL
REMARK 927      BINDING AFFINITY PREDICTED BY RF-SCORE:    0.00 PKD
ROOT
HETATM    1  C   UNL     1      -8.158   9.104  70.806  1.00  0.00    -0.174 C  
HETATM    2  N   UNL     1      -8.974   9.939  69.933  1.00  0.00    -0.284 NA 
HETATM    3  H   UNL     1      -8.399  10.385  69.218  1.00  0.00     0.000 HD 
ENDROOT
BRANCH   2   4
HETATM    4  C   UNL     1     -10.104   9.212  69.322  1.00  0.00    -0.194 C  
HETATM    5  C   UNL     1      -9.538   8.290  68.221  1.00  0.00    -0.158 C  
HETATM    6  C   UNL     1     -10.376   7.050  67.953  1.00  0.00    -0.247 C  
HETATM    7  C   UNL     1     -10.632   6.229  69.222  1.00  0.00    -0.332 C  
HETATM    8  C   UNL     1     -11.181   7.102  70.336  1.00  0.00    -0.320 A  
HETATM    9  C   UNL     1     -10.930   8.487  70.388  1.00  0.00    -0.254 A  
HETATM   10  C   UNL     1     -11.522   9.231  71.432  1.00  0.00    -0.439 A  
HETATM   11  C   UNL     1     -11.956   6.493  71.342  1.00  0.00    -0.371 A  
HETATM   12  C   UNL     1     -12.505   7.242  72.376  1.00  0.00     0.007 A  
HETATM   13  C   UNL     1     -12.292   8.614  72.419  1.00  0.00    -0.426 A  
BRANCH   7  14
HETATM   14  C   UNL     1      -9.466   5.343  69.657  1.00  0.00    -0.194 A  
HETATM   15 CL   UNL     1      -6.144   3.974  67.881  1.00  0.00    -0.031 Cl 
HETATM   16  C   UNL     1      -7.388   3.535  70.287  1.00  0.00    -0.041 A  
HETATM   17  C   UNL     1      -8.411   3.781  71.203  1.00  0.00    -0.097 A  
HETATM   18 CL   UNL     1      -6.190   2.365  70.705  1.00  0.00    -0.019 Cl 
HETATM   19  C   UNL     1      -8.405   5.118  68.760  1.00  0.00    -0.088 A  
HETATM   20  C   UNL     1      -7.376   4.219  69.067  1.00  0.00    -0.055 A  
HETATM   21  C   UNL     1      -9.436   4.685  70.896  1.00  0.00    -0.233 A  
ENDBRANCH   7  14
ENDBRANCH   2   4
TORSDOF 2
ENDMDL
MODEL      159
REMARK 921   NORMALIZED FREE ENERGY PREDICTED BY IDOCK:   -3.09 KCAL/MOL
REMARK 922        TOTAL FREE ENERGY PREDICTED BY IDOCK:   -4.05 KCAL/MOL
REMARK 923 INTER-LIGAND FREE ENERGY PREDICTED BY IDOCK:   -3.27 KCAL/MOL
REMARK 924 INTRA-LIGAND FREE ENERGY PREDICTED BY IDOCK:   -0.78 KCAL/MOL
REMARK 927      BINDING AFFINITY PREDICTED BY RF-SCORE:    0.00 PKD
ROOT
HETATM    1  C   UNL     1     -11.071   6.307  66.867  1.00  0.00    -0.253 C  
HETATM    2  N   UNL     1     -10.378   5.518  65.856  1.00  0.00    -0.441 NA 
HETATM    3  H   UNL     1     -10.506   5.923  64.929  1.00  0.00     0.000 HD 
ENDROOT
BRANCH   2   4
HETATM    4  C   UNL     1      -8.945   5.324  66.151  1.00  0.00    -0.139 C  
HETATM    5  C   UNL     1      -8.409   6.624  66.788  1.00  0.00    -0.115 C  
HETATM    6  C   UNL     1      -7.223   6.420  67.719  1.00  0.00    -0.087 C  
HETATM    7  C   UNL     1      -7.512   5.396  68.822  1.00  0.00    -0.075 C  
HETATM    8  C   UNL     1      -8.053   4.103  68.238  1.00  0.00    -0.081 A  
HETATM    9  C   UNL     1      -8.725   4.068  67.001  1.00  0.00    -0.116 A  
HETATM   10  C   UNL     1      -9.150   2.815  66.509  1.00  0.00    -0.144 A  
HETATM   11  C   UNL     1      -7.873   2.912  68.970  1.00  0.00    -0.051 A  
HETATM   12  C   UNL     1      -8.326   1.694  68.478  1.00  0.00    -0.076 A  
HETATM   13  C   UNL     1      -8.961   1.644  67.244  1.00  0.00    -0.147 A  
BRANCH   7  14
HETATM   14  C   UNL     1      -8.336   5.930  69.992  1.00  0.00    -0.122 A  
HETATM   15 CL   UNL     1      -7.571   8.295  73.136  1.00  0.00    -0.187 Cl 
HETATM   16  C   UNL     1      -9.707   6.783  72.311  1.00  0.00    -0.147 A  
HETATM   17  C   UNL     1     -10.330   5.934  71.394  1.00  0.00    -0.271 A  
HETATM   18 CL   UNL     1     -10.575   7.206  73.742  1.00  0.00    -0.387 Cl 
HETATM   19  C   UNL     1      -7.736   6.819  70.902  1.00  0.00    -0.093 A  
HETATM   20  C   UNL     1      -8.410   7.240  72.055  1.00  0.00    -0.106 A  
HETATM   21  C   UNL     1      -9.655   5.519  70.240  1.00  0.00    -0.227 A  
ENDBRANCH   7  14
ENDBRANCH   2   4
TORSDOF 2
ENDMDL
MODEL      160
REMARK 921   NORMALIZED FREE ENERGY PREDICTED BY IDOCK:   -3.07 KCAL/MOL
REMARK 922        TOTAL FREE ENERGY PREDICTED BY IDOCK:   -4.02 KCAL/MOL
REMARK 923 INTER-LIGAND FREE ENERGY PREDICTED BY IDOCK:   -3.43 KCAL/MOL
REMARK 924 INTRA-LIGAND FREE ENERGY PREDICTED BY IDOCK:   -0.60 KCAL/MOL
REMARK 927      BINDING AFFINITY PREDICTED BY RF-SCORE:    0.00 PKD
ROOT
HETATM    1  C   UNL     1     -11.250   7.010  72.561  1.00  0.00    -0.275 C  
HETATM    2  N   UNL     1     -11.028   6.587  73.938  1.00  0.00    -0.397 NA 
HETATM    3  H   UNL     1     -11.895   6.252  74.358  1.00  0.00     0.000 HD 
ENDROOT
BRANCH   2   4
HETATM    4  C   UNL     1      -9.957   5.581  74.072  1.00  0.00    -0.207 C  
HETATM    5  C   UNL     1     -10.379   4.325  73.280  1.00  0.00    -0.232 C  
HETATM    6  C   UNL     1      -9.217   3.493  72.761  1.00  0.00    -0.131 C  
HETATM    7  C   UNL     1      -8.236   4.317  71.919  1.00  0.00    -0.097 C  
HETATM    8  C   UNL     1      -7.802   5.571  72.658  1.00  0.00    -0.102 A  
HETATM    9  C   UNL     1      -8.603   6.164  73.653  1.00  0.00    -0.124 A  
HETATM   10  C   UNL     1      -8.099   7.298  74.325  1.00  0.00    -0.188 A  
HETATM   11  C   UNL     1      -6.561   6.148  72.323  1.00  0.00    -0.063 A  
HETATM   12  C   UNL     1      -6.098   7.283  72.979  1.00  0.00    -0.055 A  
HETATM   13  C   UNL     1      -6.866   7.856  73.985  1.00  0.00    -0.131 A  
BRANCH   7  14
HETATM   14  C   UNL     1      -8.687   4.579  70.483  1.00  0.00    -0.127 A  
HETATM   15 CL   UNL     1      -9.963   7.801  68.468  1.00  0.00    -0.184 Cl 
HETATM   16  C   UNL     1      -9.752   5.120  67.923  1.00  0.00    -0.145 A  
HETATM   17  C   UNL     1      -9.391   3.819  68.277  1.00  0.00    -0.225 A  
HETATM   18 CL   UNL     1     -10.464   5.368  66.370  1.00  0.00    -0.318 Cl 
HETATM   19  C   UNL     1      -9.015   5.892  70.098  1.00  0.00    -0.148 A  
HETATM   20  C   UNL     1      -9.547   6.163  68.831  1.00  0.00    -0.129 A  
HETATM   21  C   UNL     1      -8.853   3.552  69.542  1.00  0.00    -0.148 A  
ENDBRANCH   7  14
ENDBRANCH   2   4
TORSDOF 2
ENDMDL
MODEL      161
REMARK 921   NORMALIZED FREE ENERGY PREDICTED BY IDOCK:   -2.98 KCAL/MOL
REMARK 922        TOTAL FREE ENERGY PREDICTED BY IDOCK:   -3.92 KCAL/MOL
REMARK 923 INTER-LIGAND FREE ENERGY PREDICTED BY IDOCK:   -3.38 KCAL/MOL
REMARK 924 INTRA-LIGAND FREE ENERGY PREDICTED BY IDOCK:   -0.55 KCAL/MOL
REMARK 927      BINDING AFFINITY PREDICTED BY RF-SCORE:    0.00 PKD
ROOT
HETATM    1  C   UNL     1      -9.922  10.699  66.161  1.00  0.00    -0.228 C  
HETATM    2  N   UNL     1      -8.632  11.101  65.615  1.00  0.00    -0.330 NA 
HETATM    3  H   UNL     1      -8.473  12.098  65.759  1.00  0.00     0.000 HD 
ENDROOT
BRANCH   2   4
HETATM    4  C   UNL     1      -7.505  10.307  66.140  1.00  0.00    -0.121 C  
HETATM    5  C   UNL     1      -7.190  10.811  67.565  1.00  0.00    -0.090 C  
HETATM    6  C   UNL     1      -6.567   9.763  68.475  1.00  0.00    -0.051 C  
HETATM    7  C   UNL     1      -7.409   8.486  68.562  1.00  0.00    -0.092 C  
HETATM    8  C   UNL     1      -7.751   7.961  67.179  1.00  0.00    -0.101 A  
HETATM    9  C   UNL     1      -7.803   8.807  66.054  1.00  0.00    -0.105 A  
HETATM   10  C   UNL     1      -8.078   8.227  64.797  1.00  0.00    -0.151 A  
HETATM   11  C   UNL     1      -8.027   6.587  67.034  1.00  0.00    -0.112 A  
HETATM   12  C   UNL     1      -8.324   6.043  65.790  1.00  0.00    -0.142 A  
HETATM   13  C   UNL     1      -8.346   6.863  64.669  1.00  0.00     0.047 A  
BRANCH   7  14
HETATM   14  C   UNL     1      -8.615   8.576  69.497  1.00  0.00    -0.131 A  
HETATM   15 CL   UNL     1      -9.192   8.009  73.422  1.00  0.00    -0.340 Cl 
HETATM   16  C   UNL     1     -10.817   8.492  71.264  1.00  0.00    -0.251 A  
HETATM   17  C   UNL     1     -11.012   8.743  69.905  1.00  0.00    -0.184 A  
HETATM   18 CL   UNL     1     -12.212   8.381  72.276  1.00  0.00    -0.429 Cl 
HETATM   19  C   UNL     1      -8.429   8.367  70.876  1.00  0.00    -0.158 A  
HETATM   20  C   UNL     1      -9.518   8.319  71.754  1.00  0.00    -0.209 A  
HETATM   21  C   UNL     1      -9.920   8.795  69.030  1.00  0.00    -0.197 A  
ENDBRANCH   7  14
ENDBRANCH   2   4
TORSDOF 2
ENDMDL
MODEL      162
REMARK 921   NORMALIZED FREE ENERGY PREDICTED BY IDOCK:   -2.97 KCAL/MOL
REMARK 922        TOTAL FREE ENERGY PREDICTED BY IDOCK:   -3.91 KCAL/MOL
REMARK 923 INTER-LIGAND FREE ENERGY PREDICTED BY IDOCK:   -3.65 KCAL/MOL
REMARK 924 INTRA-LIGAND FREE ENERGY PREDICTED BY IDOCK:   -0.27 KCAL/MOL
REMARK 927      BINDING AFFINITY PREDICTED BY RF-SCORE:    0.00 PKD
ROOT
HETATM    1  C   UNL     1     -10.534   6.881  66.652  1.00  0.00    -0.143 C  
HETATM    2  N   UNL     1      -9.383   6.136  66.159  1.00  0.00    -0.271 NA 
HETATM    3  H   UNL     1      -8.935   6.630  65.387  1.00  0.00     0.000 HD 
ENDROOT
BRANCH   2   4
HETATM    4  C   UNL     1      -8.404   5.812  67.215  1.00  0.00    -0.104 C  
HETATM    5  C   UNL     1      -8.295   7.031  68.155  1.00  0.00    -0.123 C  
HETATM    6  C   UNL     1      -7.889   6.687  69.580  1.00  0.00    -0.106 C  
HETATM    7  C   UNL     1      -8.808   5.637  70.214  1.00  0.00    -0.146 C  
HETATM    8  C   UNL     1      -8.952   4.422  69.315  1.00  0.00    -0.148 A  
HETATM    9  C   UNL     1      -8.772   4.503  67.920  1.00  0.00    -0.114 A  
HETATM   10  C   UNL     1      -8.874   3.314  67.167  1.00  0.00    -0.154 A  
HETATM   11  C   UNL     1      -9.280   3.187  69.908  1.00  0.00    -0.222 A  
HETATM   12  C   UNL     1      -9.404   2.035  69.141  1.00  0.00    -0.184 A  
HETATM   13  C   UNL     1      -9.196   2.096  67.769  1.00  0.00    -0.217 A  
BRANCH   7  14
HETATM   14  C   UNL     1     -10.141   6.179  70.727  1.00  0.00    -0.238 A  
HETATM   15 CL   UNL     1     -11.985   9.735  70.587  1.00  0.00    -0.346 Cl 
HETATM   16  C   UNL     1     -12.471   7.336  71.828  1.00  0.00    -0.343 A  
HETATM   17  C   UNL     1     -12.149   6.006  72.099  1.00  0.00    -0.201 A  
HETATM   18 CL   UNL     1     -13.869   8.002  72.592  1.00  0.00     0.088 Cl 
HETATM   19  C   UNL     1     -10.501   7.506  70.428  1.00  0.00    -0.227 A  
HETATM   20  C   UNL     1     -11.653   8.084  70.976  1.00  0.00    -0.283 A  
HETATM   21  C   UNL     1     -10.999   5.428  71.546  1.00  0.00    -0.164 A  
ENDBRANCH   7  14
ENDBRANCH   2   4
TORSDOF 2
ENDMDL
MODEL      163
REMARK 921   NORMALIZED FREE ENERGY PREDICTED BY IDOCK:   -2.94 KCAL/MOL
REMARK 922        TOTAL FREE ENERGY PREDICTED BY IDOCK:   -3.88 KCAL/MOL
REMARK 923 INTER-LIGAND FREE ENERGY PREDICTED BY IDOCK:   -3.39 KCAL/MOL
REMARK 924 INTRA-LIGAND FREE ENERGY PREDICTED BY IDOCK:   -0.49 KCAL/MOL
REMARK 927      BINDING AFFINITY PREDICTED BY RF-SCORE:    0.00 PKD
ROOT
HETATM    1  C   UNL     1     -11.871   6.571  70.424  1.00  0.00    -0.313 C  
HETATM    2  N   UNL     1     -11.348   5.497  71.259  1.00  0.00    -0.003 NA 
HETATM    3  H   UNL     1     -11.899   4.647  71.142  1.00  0.00     0.000 HD 
ENDROOT
BRANCH   2   4
HETATM    4  C   UNL     1      -9.915   5.230  71.032  1.00  0.00    -0.201 C  
HETATM    5  C   UNL     1      -9.736   4.804  69.559  1.00  0.00    -0.271 C  
HETATM    6  C   UNL     1      -8.365   5.118  68.980  1.00  0.00    -0.087 C  
HETATM    7  C   UNL     1      -7.988   6.596  69.131  1.00  0.00    -0.112 C  
HETATM    8  C   UNL     1      -8.160   7.060  70.567  1.00  0.00    -0.114 A  
HETATM    9  C   UNL     1      -9.060   6.431  71.449  1.00  0.00    -0.145 A  
HETATM   10  C   UNL     1      -9.119   6.894  72.781  1.00  0.00    -0.151 A  
HETATM   11  C   UNL     1      -7.394   8.155  71.012  1.00  0.00    -0.058 A  
HETATM   12  C   UNL     1      -7.491   8.612  72.321  1.00  0.00    -0.036 A  
HETATM   13  C   UNL     1      -8.351   7.979  73.209  1.00  0.00    -0.269 A  
BRANCH   7  14
HETATM   14  C   UNL     1      -8.632   7.529  68.106  1.00  0.00    -0.123 A  
HETATM   15 CL   UNL     1      -7.269   9.731  65.047  1.00  0.00    -0.121 Cl 
HETATM   16  C   UNL     1      -9.685   9.443  66.315  1.00  0.00    -0.264 A  
HETATM   17  C   UNL     1     -10.504   8.853  67.280  1.00  0.00    -0.348 A  
HETATM   18 CL   UNL     1     -10.375  10.659  65.302  1.00  0.00    -0.347 Cl 
HETATM   19  C   UNL     1      -7.828   8.100  67.102  1.00  0.00    -0.101 A  
HETATM   20  C   UNL     1      -8.346   9.053  66.216  1.00  0.00    -0.120 A  
HETATM   21  C   UNL     1      -9.985   7.897  68.161  1.00  0.00    -0.210 A  
ENDBRANCH   7  14
ENDBRANCH   2   4
TORSDOF 2
ENDMDL
MODEL      164
REMARK 921   NORMALIZED FREE ENERGY PREDICTED BY IDOCK:   -2.94 KCAL/MOL
REMARK 922        TOTAL FREE ENERGY PREDICTED BY IDOCK:   -3.88 KCAL/MOL
REMARK 923 INTER-LIGAND FREE ENERGY PREDICTED BY IDOCK:   -3.17 KCAL/MOL
REMARK 924 INTRA-LIGAND FREE ENERGY PREDICTED BY IDOCK:   -0.71 KCAL/MOL
REMARK 927      BINDING AFFINITY PREDICTED BY RF-SCORE:    0.00 PKD
ROOT
HETATM    1  C   UNL     1      -6.597  11.476  68.545  1.00  0.00    -0.063 C  
HETATM    2  N   UNL     1      -7.000  10.115  68.213  1.00  0.00    -0.070 NA 
HETATM    3  H   UNL     1      -6.644   9.453  68.903  1.00  0.00     0.000 HD 
ENDROOT
BRANCH   2   4
HETATM    4  C   UNL     1      -8.459   9.965  68.046  1.00  0.00    -0.117 C  
HETATM    5  C   UNL     1      -8.730   9.527  66.591  1.00  0.00    -0.146 C  
HETATM    6  C   UNL     1     -10.005   8.719  66.409  1.00  0.00    -0.346 C  
HETATM    7  C   UNL     1     -10.060   7.493  67.327  1.00  0.00    -0.300 C  
HETATM    8  C   UNL     1      -9.788   7.879  68.770  1.00  0.00    -0.171 A  
HETATM    9  C   UNL     1      -9.038   9.023  69.106  1.00  0.00    -0.140 A  
HETATM   10  C   UNL     1      -8.877   9.335  70.473  1.00  0.00    -0.285 A  
HETATM   11  C   UNL     1     -10.303   7.055  69.790  1.00  0.00    -0.225 A  
HETATM   12  C   UNL     1     -10.106   7.367  71.130  1.00  0.00    -0.189 A  
HETATM   13  C   UNL     1      -9.397   8.511  71.473  1.00  0.00    -0.289 A  
BRANCH   7  14
HETATM   14  C   UNL     1      -9.238   6.298  66.848  1.00  0.00    -0.138 A  
HETATM   15 CL   UNL     1     -10.025   3.013  64.691  1.00  0.00    -0.069 Cl 
HETATM   16  C   UNL     1      -7.867   3.940  66.109  1.00  0.00    -0.090 A  
HETATM   17  C   UNL     1      -7.235   4.910  66.889  1.00  0.00    -0.077 A  
HETATM   18 CL   UNL     1      -6.998   2.491  65.756  1.00  0.00    -0.050 Cl 
HETATM   19  C   UNL     1      -9.849   5.332  66.026  1.00  0.00    -0.155 A  
HETATM   20  C   UNL     1      -9.174   4.160  65.662  1.00  0.00    -0.149 A  
HETATM   21  C   UNL     1      -7.910   6.083  67.247  1.00  0.00    -0.102 A  
ENDBRANCH   7  14
ENDBRANCH   2   4
TORSDOF 2
ENDMDL
MODEL      165
REMARK 921   NORMALIZED FREE ENERGY PREDICTED BY IDOCK:   -2.94 KCAL/MOL
REMARK 922        TOTAL FREE ENERGY PREDICTED BY IDOCK:   -3.88 KCAL/MOL
REMARK 923 INTER-LIGAND FREE ENERGY PREDICTED BY IDOCK:   -3.54 KCAL/MOL
REMARK 924 INTRA-LIGAND FREE ENERGY PREDICTED BY IDOCK:   -0.34 KCAL/MOL
REMARK 927      BINDING AFFINITY PREDICTED BY RF-SCORE:    0.00 PKD
ROOT
HETATM    1  C   UNL     1     -12.870  14.167  65.714  1.00  0.00    -0.329 C  
HETATM    2  N   UNL     1     -13.034  12.777  65.306  1.00  0.00    -0.658 NA 
HETATM    3  H   UNL     1     -13.434  12.720  64.369  1.00  0.00     0.000 HD 
ENDROOT
BRANCH   2   4
HETATM    4  C   UNL     1     -11.786  11.994  65.393  1.00  0.00    -0.192 C  
HETATM    5  C   UNL     1     -10.768  12.608  64.407  1.00  0.00    -0.384 C  
HETATM    6  C   UNL     1      -9.314  12.398  64.801  1.00  0.00     0.406 C  
HETATM    7  C   UNL     1      -9.012  12.897  66.218  1.00  0.00     0.069 C  
HETATM    8  C   UNL     1      -9.999  12.324  67.220  1.00  0.00    -0.210 A  
HETATM    9  C   UNL     1     -11.291  11.911  66.840  1.00  0.00    -0.392 A  
HETATM   10  C   UNL     1     -12.125  11.343  67.827  1.00  0.00     0.150 A  
HETATM   11  C   UNL     1      -9.597  12.214  68.566  1.00  0.00    -0.137 A  
HETATM   12  C   UNL     1     -10.447  11.678  69.526  1.00  0.00     0.175 A  
HETATM   13  C   UNL     1     -11.711  11.237  69.156  1.00  0.00    -0.410 A  
BRANCH   7  14
HETATM   14  C   UNL     1      -8.825  14.408  66.340  1.00  0.00    -0.033 A  
HETATM   15 CL   UNL     1      -6.625  16.800  68.685  1.00  0.00    -0.161 Cl 
HETATM   16  C   UNL     1      -8.580  17.185  66.798  1.00  0.00    -0.243 A  
HETATM   17  C   UNL     1      -9.482  16.703  65.848  1.00  0.00    -0.218 A  
HETATM   18 CL   UNL     1      -8.533  18.888  67.081  1.00  0.00    -0.282 Cl 
HETATM   19  C   UNL     1      -7.889  14.910  67.263  1.00  0.00    -0.235 A  
HETATM   20  C   UNL     1      -7.769  16.285  67.497  1.00  0.00    -0.146 A  
HETATM   21  C   UNL     1      -9.597  15.328  65.613  1.00  0.00    -0.313 A  
ENDBRANCH   7  14
ENDBRANCH   2   4
TORSDOF 2
ENDMDL
MODEL      166
REMARK 921   NORMALIZED FREE ENERGY PREDICTED BY IDOCK:   -2.92 KCAL/MOL
REMARK 922        TOTAL FREE ENERGY PREDICTED BY IDOCK:   -3.86 KCAL/MOL
REMARK 923 INTER-LIGAND FREE ENERGY PREDICTED BY IDOCK:   -3.43 KCAL/MOL
REMARK 924 INTRA-LIGAND FREE ENERGY PREDICTED BY IDOCK:   -0.43 KCAL/MOL
REMARK 927      BINDING AFFINITY PREDICTED BY RF-SCORE:    0.00 PKD
ROOT
HETATM    1  C   UNL     1      -7.237   8.517  66.873  1.00  0.00    -0.075 C  
HETATM    2  N   UNL     1      -6.271   7.463  67.154  1.00  0.00    -0.049 NA 
HETATM    3  H   UNL     1      -5.321   7.836  67.166  1.00  0.00     0.000 HD 
ENDROOT
BRANCH   2   4
HETATM    4  C   UNL     1      -6.561   6.723  68.397  1.00  0.00    -0.059 C  
HETATM    5  C   UNL     1      -6.431   7.708  69.579  1.00  0.00    -0.032 C  
HETATM    6  C   UNL     1      -7.285   7.351  70.786  1.00  0.00    -0.068 C  
HETATM    7  C   UNL     1      -8.765   7.180  70.427  1.00  0.00    -0.150 C  
HETATM    8  C   UNL     1      -8.938   6.226  69.260  1.00  0.00    -0.125 A  
HETATM    9  C   UNL     1      -7.918   6.018  68.311  1.00  0.00    -0.106 A  
HETATM   10  C   UNL     1      -8.145   5.074  67.287  1.00  0.00    -0.107 A  
HETATM   11  C   UNL     1     -10.162   5.540  69.132  1.00  0.00    -0.309 A  
HETATM   12  C   UNL     1     -10.373   4.636  68.097  1.00  0.00     0.092 A  
HETATM   13  C   UNL     1      -9.361   4.399  67.176  1.00  0.00    -0.173 A  
BRANCH   7  14
HETATM   14  C   UNL     1      -9.541   8.488  70.269  1.00  0.00    -0.177 A  
HETATM   15 CL   UNL     1     -12.721  10.121  72.080  1.00  0.00    -0.469 Cl 
HETATM   16  C   UNL     1     -11.175  10.763  69.905  1.00  0.00    -0.300 A  
HETATM   17  C   UNL     1     -10.101  10.521  69.047  1.00  0.00    -0.230 A  
HETATM   18 CL   UNL     1     -12.177  12.131  69.582  1.00  0.00    -0.238 Cl 
HETATM   19  C   UNL     1     -10.600   8.766  71.152  1.00  0.00    -0.310 A  
HETATM   20  C   UNL     1     -11.415   9.890  70.971  1.00  0.00    -0.388 A  
HETATM   21  C   UNL     1      -9.284   9.399  69.233  1.00  0.00    -0.159 A  
ENDBRANCH   7  14
ENDBRANCH   2   4
TORSDOF 2
ENDMDL
MODEL      167
REMARK 921   NORMALIZED FREE ENERGY PREDICTED BY IDOCK:   -2.88 KCAL/MOL
REMARK 922        TOTAL FREE ENERGY PREDICTED BY IDOCK:   -3.81 KCAL/MOL
REMARK 923 INTER-LIGAND FREE ENERGY PREDICTED BY IDOCK:   -3.16 KCAL/MOL
REMARK 924 INTRA-LIGAND FREE ENERGY PREDICTED BY IDOCK:   -0.65 KCAL/MOL
REMARK 927      BINDING AFFINITY PREDICTED BY RF-SCORE:    0.00 PKD
ROOT
HETATM    1  C   UNL     1     -11.075   6.477  69.645  1.00  0.00    -0.376 C  
HETATM    2  N   UNL     1     -10.385   5.312  70.185  1.00  0.00    -0.281 NA 
HETATM    3  H   UNL     1     -10.954   4.472  70.076  1.00  0.00     0.000 HD 
ENDROOT
BRANCH   2   4
HETATM    4  C   UNL     1      -9.040   5.114  69.612  1.00  0.00    -0.115 C  
HETATM    5  C   UNL     1      -9.172   5.111  68.074  1.00  0.00    -0.132 C  
HETATM    6  C   UNL     1      -7.922   5.569  67.339  1.00  0.00    -0.101 C  
HETATM    7  C   UNL     1      -7.439   6.948  67.804  1.00  0.00    -0.098 C  
HETATM    8  C   UNL     1      -7.306   6.998  69.316  1.00  0.00    -0.092 A  
HETATM    9  C   UNL     1      -8.054   6.152  70.158  1.00  0.00    -0.116 A  
HETATM   10  C   UNL     1      -7.829   6.230  71.549  1.00  0.00    -0.101 A  
HETATM   11  C   UNL     1      -6.407   7.926  69.877  1.00  0.00    -0.030 A  
HETATM   12  C   UNL     1      -6.224   8.005  71.253  1.00  0.00    -0.034 A  
HETATM   13  C   UNL     1      -6.932   7.153  72.090  1.00  0.00    -0.067 A  
BRANCH   7  14
HETATM   14  C   UNL     1      -8.213   8.128  67.219  1.00  0.00    -0.121 A  
HETATM   15 CL   UNL     1     -10.808  10.807  68.686  1.00  0.00    -0.235 Cl 
HETATM   16  C   UNL     1      -9.858  10.181  66.189  1.00  0.00    -0.237 A  
HETATM   17  C   UNL     1      -9.040   9.437  65.337  1.00  0.00    -0.280 A  
HETATM   18 CL   UNL     1     -10.892  11.371  65.484  1.00  0.00    -0.312 Cl 
HETATM   19  C   UNL     1      -9.010   8.914  68.072  1.00  0.00    -0.140 A  
HETATM   20  C   UNL     1      -9.830   9.929  67.564  1.00  0.00    -0.169 A  
HETATM   21  C   UNL     1      -8.216   8.427  65.848  1.00  0.00    -0.123 A  
ENDBRANCH   7  14
ENDBRANCH   2   4
TORSDOF 2
ENDMDL
MODEL      168
REMARK 921   NORMALIZED FREE ENERGY PREDICTED BY IDOCK:   -2.86 KCAL/MOL
REMARK 922        TOTAL FREE ENERGY PREDICTED BY IDOCK:   -3.79 KCAL/MOL
REMARK 923 INTER-LIGAND FREE ENERGY PREDICTED BY IDOCK:   -3.84 KCAL/MOL
REMARK 924 INTRA-LIGAND FREE ENERGY PREDICTED BY IDOCK:    0.05 KCAL/MOL
REMARK 927      BINDING AFFINITY PREDICTED BY RF-SCORE:    0.00 PKD
ROOT
HETATM    1  C   UNL     1     -11.449  15.330  67.524  1.00  0.00    -0.265 C  
HETATM    2  N   UNL     1     -11.331  13.940  67.104  1.00  0.00    -0.313 NA 
HETATM    3  H   UNL     1     -10.730  13.859  66.284  1.00  0.00     0.000 HD 
ENDROOT
BRANCH   2   4
HETATM    4  C   UNL     1     -10.872  13.043  68.183  1.00  0.00    -0.247 C  
HETATM    5  C   UNL     1     -11.377  11.619  67.867  1.00  0.00    -0.369 C  
HETATM    6  C   UNL     1     -10.512  10.507  68.440  1.00  0.00    -0.212 C  
HETATM    7  C   UNL     1      -9.044  10.630  68.019  1.00  0.00    -0.147 C  
HETATM    8  C   UNL     1      -8.508  12.022  68.303  1.00  0.00    -0.167 A  
HETATM    9  C   UNL     1      -9.355  13.145  68.372  1.00  0.00    -0.154 A  
HETATM   10  C   UNL     1      -8.779  14.393  68.692  1.00  0.00    -0.164 A  
HETATM   11  C   UNL     1      -7.121  12.178  68.495  1.00  0.00    -0.099 A  
HETATM   12  C   UNL     1      -6.573  13.423  68.780  1.00  0.00    -0.102 A  
HETATM   13  C   UNL     1      -7.403  14.532  68.883  1.00  0.00    -0.128 A  
BRANCH   7  14
HETATM   14  C   UNL     1      -8.740  10.134  66.606  1.00  0.00    -0.134 A  
HETATM   15 CL   UNL     1     -10.145  10.988  62.951  1.00  0.00    -0.274 Cl 
HETATM   16  C   UNL     1      -8.416   9.126  63.986  1.00  0.00    -0.184 A  
HETATM   17  C   UNL     1      -7.718   8.557  65.053  1.00  0.00    -0.102 A  
HETATM   18 CL   UNL     1      -8.228   8.415  62.424  1.00  0.00    -0.176 Cl 
HETATM   19  C   UNL     1      -9.404  10.725  65.515  1.00  0.00    -0.242 A  
HETATM   20  C   UNL     1      -9.250  10.225  64.217  1.00  0.00    -0.257 A  
HETATM   21  C   UNL     1      -7.870   9.063  66.350  1.00  0.00    -0.099 A  
ENDBRANCH   7  14
ENDBRANCH   2   4
TORSDOF 2
ENDMDL
MODEL      169
REMARK 921   NORMALIZED FREE ENERGY PREDICTED BY IDOCK:   -2.81 KCAL/MOL
REMARK 922        TOTAL FREE ENERGY PREDICTED BY IDOCK:   -3.74 KCAL/MOL
REMARK 923 INTER-LIGAND FREE ENERGY PREDICTED BY IDOCK:   -3.50 KCAL/MOL
REMARK 924 INTRA-LIGAND FREE ENERGY PREDICTED BY IDOCK:   -0.24 KCAL/MOL
REMARK 927      BINDING AFFINITY PREDICTED BY RF-SCORE:    0.00 PKD
ROOT
HETATM    1  C   UNL     1      -9.538   7.540  73.367  1.00  0.00    -0.270 C  
HETATM    2  N   UNL     1     -10.859   7.009  73.682  1.00  0.00    -0.542 NA 
HETATM    3  H   UNL     1     -11.547   7.760  73.738  1.00  0.00     0.000 HD 
ENDROOT
BRANCH   2   4
HETATM    4  C   UNL     1     -11.302   5.959  72.745  1.00  0.00    -0.263 C  
HETATM    5  C   UNL     1     -11.459   6.600  71.349  1.00  0.00    -0.349 C  
HETATM    6  C   UNL     1     -11.262   5.632  70.192  1.00  0.00    -0.056 C  
HETATM    7  C   UNL     1      -9.920   4.896  70.266  1.00  0.00    -0.321 C  
HETATM    8  C   UNL     1      -9.721   4.258  71.629  1.00  0.00    -0.243 A  
HETATM    9  C   UNL     1     -10.356   4.755  72.783  1.00  0.00    -0.244 A  
HETATM   10  C   UNL     1     -10.155   4.070  74.001  1.00  0.00    -0.200 A  
HETATM   11  C   UNL     1      -8.868   3.141  71.726  1.00  0.00    -0.130 A  
HETATM   12  C   UNL     1      -8.662   2.500  72.942  1.00  0.00    -0.075 A  
HETATM   13  C   UNL     1      -9.310   2.962  74.081  1.00  0.00    -0.099 A  
BRANCH   7  14
HETATM   14  C   UNL     1      -8.717   5.707  69.788  1.00  0.00    -0.125 A  
HETATM   15 CL   UNL     1      -7.370   9.421  70.462  1.00  0.00    -0.121 Cl 
HETATM   16  C   UNL     1      -6.658   7.365  68.791  1.00  0.00    -0.048 A  
HETATM   17  C   UNL     1      -6.816   6.066  68.305  1.00  0.00    -0.070 A  
HETATM   18 CL   UNL     1      -5.427   8.349  68.087  1.00  0.00    -0.034 Cl 
HETATM   19  C   UNL     1      -8.519   7.003  70.300  1.00  0.00    -0.138 A  
HETATM   20  C   UNL     1      -7.503   7.829  69.804  1.00  0.00    -0.089 A  
HETATM   21  C   UNL     1      -7.829   5.240  68.806  1.00  0.00    -0.083 A  
ENDBRANCH   7  14
ENDBRANCH   2   4
TORSDOF 2
ENDMDL
MODEL      170
REMARK 921   NORMALIZED FREE ENERGY PREDICTED BY IDOCK:   -2.72 KCAL/MOL
REMARK 922        TOTAL FREE ENERGY PREDICTED BY IDOCK:   -3.63 KCAL/MOL
REMARK 923 INTER-LIGAND FREE ENERGY PREDICTED BY IDOCK:   -3.37 KCAL/MOL
REMARK 924 INTRA-LIGAND FREE ENERGY PREDICTED BY IDOCK:   -0.26 KCAL/MOL
REMARK 927      BINDING AFFINITY PREDICTED BY RF-SCORE:    0.00 PKD
ROOT
HETATM    1  C   UNL     1      -7.026   7.990  67.167  1.00  0.00    -0.075 C  
HETATM    2  N   UNL     1      -6.055   7.037  66.645  1.00  0.00    -0.036 NA 
HETATM    3  H   UNL     1      -5.104   7.327  66.875  1.00  0.00     0.000 HD 
ENDROOT
BRANCH   2   4
HETATM    4  C   UNL     1      -6.303   5.652  67.087  1.00  0.00    -0.042 C  
HETATM    5  C   UNL     1      -6.228   5.622  68.629  1.00  0.00    -0.033 C  
HETATM    6  C   UNL     1      -7.061   4.525  69.274  1.00  0.00    -0.051 C  
HETATM    7  C   UNL     1      -8.530   4.571  68.839  1.00  0.00    -0.093 C  
HETATM    8  C   UNL     1      -8.649   4.612  67.326  1.00  0.00    -0.104 A  
HETATM    9  C   UNL     1      -7.619   5.120  66.511  1.00  0.00    -0.088 A  
HETATM   10  C   UNL     1      -7.794   5.073  65.111  1.00  0.00    -0.089 A  
HETATM   11  C   UNL     1      -9.834   4.128  66.736  1.00  0.00    -0.203 A  
HETATM   12  C   UNL     1      -9.994   4.118  65.355  1.00  0.00    -0.211 A  
HETATM   13  C   UNL     1      -8.971   4.587  64.541  1.00  0.00    -0.152 A  
BRANCH   7  14
HETATM   14  C   UNL     1      -9.376   5.627  69.548  1.00  0.00    -0.165 A  
HETATM   15 CL   UNL     1      -8.754   8.172  72.581  1.00  0.00    -0.254 Cl 
HETATM   16  C   UNL     1     -10.923   7.436  71.069  1.00  0.00    -0.251 A  
HETATM   17  C   UNL     1     -11.508   6.703  70.036  1.00  0.00    -0.434 A  
HETATM   18 CL   UNL     1     -11.941   8.469  72.006  1.00  0.00    -0.398 Cl 
HETATM   19  C   UNL     1      -8.790   6.404  70.564  1.00  0.00    -0.144 A  
HETATM   20  C   UNL     1      -9.555   7.298  71.323  1.00  0.00    -0.162 A  
HETATM   21  C   UNL     1     -10.740   5.814  69.274  1.00  0.00    -0.386 A  
ENDBRANCH   7  14
ENDBRANCH   2   4
TORSDOF 2
ENDMDL
MODEL      171
REMARK 921   NORMALIZED FREE ENERGY PREDICTED BY IDOCK:   -2.61 KCAL/MOL
REMARK 922        TOTAL FREE ENERGY PREDICTED BY IDOCK:   -3.51 KCAL/MOL
REMARK 923 INTER-LIGAND FREE ENERGY PREDICTED BY IDOCK:   -2.78 KCAL/MOL
REMARK 924 INTRA-LIGAND FREE ENERGY PREDICTED BY IDOCK:   -0.73 KCAL/MOL
REMARK 927      BINDING AFFINITY PREDICTED BY RF-SCORE:    0.00 PKD
ROOT
HETATM    1  C   UNL     1     -10.890  10.547  69.815  1.00  0.00    -0.281 C  
HETATM    2  N   UNL     1     -10.469   9.937  71.069  1.00  0.00    -0.313 NA 
HETATM    3  H   UNL     1     -11.116  10.172  71.822  1.00  0.00     0.000 HD 
ENDROOT
BRANCH   2   4
HETATM    4  C   UNL     1     -10.283   8.477  70.973  1.00  0.00    -0.203 C  
HETATM    5  C   UNL     1     -10.844   8.013  69.612  1.00  0.00    -0.172 C  
HETATM    6  C   UNL     1     -10.189   6.755  69.062  1.00  0.00    -0.191 C  
HETATM    7  C   UNL     1      -8.665   6.880  68.967  1.00  0.00    -0.131 C  
HETATM    8  C   UNL     1      -8.072   7.345  70.285  1.00  0.00    -0.116 A  
HETATM    9  C   UNL     1      -8.819   8.093  71.215  1.00  0.00    -0.176 A  
HETATM   10  C   UNL     1      -8.204   8.440  72.437  1.00  0.00    -0.202 A  
HETATM   11  C   UNL     1      -6.731   7.015  70.568  1.00  0.00    -0.053 A  
HETATM   12  C   UNL     1      -6.138   7.393  71.767  1.00  0.00    -0.036 A  
HETATM   13  C   UNL     1      -6.877   8.103  72.705  1.00  0.00    -0.105 A  
BRANCH   7  14
HETATM   14  C   UNL     1      -8.161   7.667  67.758  1.00  0.00    -0.119 A  
HETATM   15 CL   UNL     1      -7.713   6.866  63.857  1.00  0.00    -0.112 Cl 
HETATM   16  C   UNL     1      -7.039   8.953  65.507  1.00  0.00    -0.080 A  
HETATM   17  C   UNL     1      -7.024   9.576  66.756  1.00  0.00    -0.081 A  
HETATM   18 CL   UNL     1      -6.271   9.762  64.189  1.00  0.00    -0.108 Cl 
HETATM   19  C   UNL     1      -8.208   7.069  66.485  1.00  0.00    -0.114 A  
HETATM   20  C   UNL     1      -7.648   7.701  65.368  1.00  0.00    -0.094 A  
HETATM   21  C   UNL     1      -7.589   8.944  67.870  1.00  0.00    -0.093 A  
ENDBRANCH   7  14
ENDBRANCH   2   4
TORSDOF 2
ENDMDL
MODEL      172
REMARK 921   NORMALIZED FREE ENERGY PREDICTED BY IDOCK:   -2.57 KCAL/MOL
REMARK 922        TOTAL FREE ENERGY PREDICTED BY IDOCK:   -3.47 KCAL/MOL
REMARK 923 INTER-LIGAND FREE ENERGY PREDICTED BY IDOCK:   -3.18 KCAL/MOL
REMARK 924 INTRA-LIGAND FREE ENERGY PREDICTED BY IDOCK:   -0.29 KCAL/MOL
REMARK 927      BINDING AFFINITY PREDICTED BY RF-SCORE:    0.00 PKD
ROOT
HETATM    1  C   UNL     1      -6.081   8.538  64.919  1.00  0.00    -0.060 C  
HETATM    2  N   UNL     1      -5.722   8.281  66.308  1.00  0.00    -0.039 NA 
HETATM    3  H   UNL     1      -4.811   7.827  66.368  1.00  0.00     0.000 HD 
ENDROOT
BRANCH   2   4
HETATM    4  C   UNL     1      -5.765   9.490  67.153  1.00  0.00    -0.047 C  
HETATM    5  C   UNL     1      -5.924  10.714  66.227  1.00  0.00    -0.106 C  
HETATM    6  C   UNL     1      -6.620  11.901  66.874  1.00  0.00    -0.083 C  
HETATM    7  C   UNL     1      -7.985  11.531  67.465  1.00  0.00    -0.133 C  
HETATM    8  C   UNL     1      -7.875  10.322  68.376  1.00  0.00    -0.102 A  
HETATM    9  C   UNL     1      -6.849   9.368  68.228  1.00  0.00    -0.063 A  
HETATM   10  C   UNL     1      -6.793   8.303  69.152  1.00  0.00    -0.051 A  
HETATM   11  C   UNL     1      -8.839  10.161  69.391  1.00  0.00    -0.197 A  
HETATM   12  C   UNL     1      -8.780   9.086  70.271  1.00  0.00    -0.202 A  
HETATM   13  C   UNL     1      -7.753   8.158  70.155  1.00  0.00    -0.085 A  
BRANCH   7  14
HETATM   14  C   UNL     1      -9.118  11.427  66.444  1.00  0.00    -0.201 A  
HETATM   15 CL   UNL     1      -9.324  10.574  62.534  1.00  0.00    -0.307 Cl 
HETATM   16  C   UNL     1     -11.105  11.433  64.437  1.00  0.00    -0.259 A  
HETATM   17  C   UNL     1     -11.425  11.791  65.748  1.00  0.00    -0.258 A  
HETATM   18 CL   UNL     1     -12.350  11.529  63.245  1.00  0.00    -0.301 Cl 
HETATM   19  C   UNL     1      -8.819  11.028  65.129  1.00  0.00    -0.116 A  
HETATM   20  C   UNL     1      -9.800  11.035  64.130  1.00  0.00    -0.308 A  
HETATM   21  C   UNL     1     -10.443  11.778  66.745  1.00  0.00    -0.260 A  
ENDBRANCH   7  14
ENDBRANCH   2   4
TORSDOF 2
ENDMDL
MODEL      173
REMARK 921   NORMALIZED FREE ENERGY PREDICTED BY IDOCK:   -2.57 KCAL/MOL
REMARK 922        TOTAL FREE ENERGY PREDICTED BY IDOCK:   -3.47 KCAL/MOL
REMARK 923 INTER-LIGAND FREE ENERGY PREDICTED BY IDOCK:   -3.01 KCAL/MOL
REMARK 924 INTRA-LIGAND FREE ENERGY PREDICTED BY IDOCK:   -0.46 KCAL/MOL
REMARK 927      BINDING AFFINITY PREDICTED BY RF-SCORE:    0.00 PKD
ROOT
HETATM    1  C   UNL     1      -6.656   6.538  68.599  1.00  0.00    -0.051 C  
HETATM    2  N   UNL     1      -5.647   5.792  67.858  1.00  0.00    -0.011 NA 
HETATM    3  H   UNL     1      -4.750   5.816  68.343  1.00  0.00     0.000 HD 
ENDROOT
BRANCH   2   4
HETATM    4  C   UNL     1      -6.049   4.402  67.566  1.00  0.00    -0.031 C  
HETATM    5  C   UNL     1      -6.046   3.616  68.895  1.00  0.00    -0.028 C  
HETATM    6  C   UNL     1      -7.010   2.439  68.926  1.00  0.00    -0.040 C  
HETATM    7  C   UNL     1      -8.446   2.848  68.581  1.00  0.00    -0.095 C  
HETATM    8  C   UNL     1      -8.493   3.635  67.284  1.00  0.00    -0.105 A  
HETATM    9  C   UNL     1      -7.382   4.364  66.814  1.00  0.00    -0.080 A  
HETATM   10  C   UNL     1      -7.498   5.025  65.573  1.00  0.00    -0.077 A  
HETATM   11  C   UNL     1      -9.691   3.630  66.542  1.00  0.00    -0.100 A  
HETATM   12  C   UNL     1      -9.789   4.313  65.336  1.00  0.00    -0.218 A  
HETATM   13  C   UNL     1      -8.690   5.008  64.847  1.00  0.00    -0.150 A  
BRANCH   7  14
HETATM   14  C   UNL     1      -9.217   3.507  69.724  1.00  0.00    -0.219 A  
HETATM   15 CL   UNL     1     -11.221   6.950  70.162  1.00  0.00    -0.341 Cl 
HETATM   16  C   UNL     1     -10.466   4.910  71.834  1.00  0.00    -0.163 A  
HETATM   17  C   UNL     1      -9.858   3.676  72.070  1.00  0.00    -0.244 A  
HETATM   18 CL   UNL     1     -11.146   5.748  73.182  1.00  0.00    -0.302 Cl 
HETATM   19  C   UNL     1      -9.870   4.731  69.493  1.00  0.00    -0.292 A  
HETATM   20  C   UNL     1     -10.486   5.432  70.537  1.00  0.00    -0.265 A  
HETATM   21  C   UNL     1      -9.248   2.975  71.023  1.00  0.00    -0.200 A  
ENDBRANCH   7  14
ENDBRANCH   2   4
TORSDOF 2
ENDMDL
MODEL      174
REMARK 921   NORMALIZED FREE ENERGY PREDICTED BY IDOCK:   -2.55 KCAL/MOL
REMARK 922        TOTAL FREE ENERGY PREDICTED BY IDOCK:   -3.45 KCAL/MOL
REMARK 923 INTER-LIGAND FREE ENERGY PREDICTED BY IDOCK:   -2.80 KCAL/MOL
REMARK 924 INTRA-LIGAND FREE ENERGY PREDICTED BY IDOCK:   -0.65 KCAL/MOL
REMARK 927      BINDING AFFINITY PREDICTED BY RF-SCORE:    0.00 PKD
ROOT
HETATM    1  C   UNL     1      -7.461   9.644  70.487  1.00  0.00    -0.132 C  
HETATM    2  N   UNL     1      -7.199   8.393  69.787  1.00  0.00    -0.055 NA 
HETATM    3  H   UNL     1      -6.898   7.669  70.439  1.00  0.00     0.000 HD 
ENDROOT
BRANCH   2   4
HETATM    4  C   UNL     1      -8.341   7.930  68.976  1.00  0.00    -0.130 C  
HETATM    5  C   UNL     1      -9.545   8.847  69.280  1.00  0.00    -0.162 C  
HETATM    6  C   UNL     1     -10.545   8.964  68.140  1.00  0.00    -0.211 C  
HETATM    7  C   UNL     1      -9.890   9.405  66.827  1.00  0.00    -0.280 C  
HETATM    8  C   UNL     1      -8.692   8.533  66.495  1.00  0.00    -0.149 A  
HETATM    9  C   UNL     1      -7.967   7.853  67.493  1.00  0.00    -0.123 A  
HETATM   10  C   UNL     1      -6.898   7.024  67.090  1.00  0.00    -0.065 A  
HETATM   11  C   UNL     1      -8.304   8.416  65.146  1.00  0.00    -0.177 A  
HETATM   12  C   UNL     1      -7.229   7.616  64.776  1.00  0.00    -0.067 A  
HETATM   13  C   UNL     1      -6.528   6.915  65.749  1.00  0.00    -0.050 A  
BRANCH   7  14
HETATM   14  C   UNL     1      -9.603  10.902  66.726  1.00  0.00    -0.210 A  
HETATM   15 CL   UNL     1      -6.327  13.181  67.092  1.00  0.00     0.110 Cl 
HETATM   16  C   UNL     1      -9.011  13.664  66.786  1.00  0.00    -0.181 A  
HETATM   17  C   UNL     1     -10.326  13.228  66.617  1.00  0.00    -0.274 A  
HETATM   18 CL   UNL     1      -8.728  15.364  66.887  1.00  0.00    -0.261 Cl 
HETATM   19  C   UNL     1      -8.277  11.355  66.852  1.00  0.00    -0.157 A  
HETATM   20  C   UNL     1      -7.980  12.723  66.887  1.00  0.00     0.052 A  
HETATM   21  C   UNL     1     -10.619  11.859  66.577  1.00  0.00    -0.278 A  
ENDBRANCH   7  14
ENDBRANCH   2   4
TORSDOF 2
ENDMDL
MODEL      175
REMARK 921   NORMALIZED FREE ENERGY PREDICTED BY IDOCK:   -2.51 KCAL/MOL
REMARK 922        TOTAL FREE ENERGY PREDICTED BY IDOCK:   -3.40 KCAL/MOL
REMARK 923 INTER-LIGAND FREE ENERGY PREDICTED BY IDOCK:   -3.03 KCAL/MOL
REMARK 924 INTRA-LIGAND FREE ENERGY PREDICTED BY IDOCK:   -0.37 KCAL/MOL
REMARK 927      BINDING AFFINITY PREDICTED BY RF-SCORE:    0.00 PKD
ROOT
HETATM    1  C   UNL     1      -7.984   8.615  65.483  1.00  0.00    -0.108 C  
HETATM    2  N   UNL     1      -7.870   8.852  66.916  1.00  0.00    -0.101 NA 
HETATM    3  H   UNL     1      -7.657   9.832  67.105  1.00  0.00     0.000 HD 
ENDROOT
BRANCH   2   4
HETATM    4  C   UNL     1      -9.059   8.418  67.674  1.00  0.00    -0.135 C  
HETATM    5  C   UNL     1     -10.136   7.974  66.661  1.00  0.00    -0.329 C  
HETATM    6  C   UNL     1     -11.106   6.932  67.196  1.00  0.00    -0.362 C  
HETATM    7  C   UNL     1     -10.392   5.696  67.753  1.00  0.00    -0.260 C  
HETATM    8  C   UNL     1      -9.315   6.089  68.749  1.00  0.00    -0.128 A  
HETATM    9  C   UNL     1      -8.690   7.351  68.709  1.00  0.00    -0.128 A  
HETATM   10  C   UNL     1      -7.736   7.652  69.705  1.00  0.00    -0.099 A  
HETATM   11  C   UNL     1      -8.939   5.152  69.731  1.00  0.00    -0.141 A  
HETATM   12  C   UNL     1      -7.975   5.461  70.684  1.00  0.00    -0.105 A  
HETATM   13  C   UNL     1      -7.376   6.714  70.674  1.00  0.00    -0.075 A  
BRANCH   7  14
HETATM   14  C   UNL     1      -9.913   4.702  66.695  1.00  0.00    -0.260 A  
HETATM   15 CL   UNL     1      -6.597   2.513  66.175  1.00  0.00    -0.031 Cl 
HETATM   16  C   UNL     1      -8.842   3.031  64.685  1.00  0.00    -0.110 A  
HETATM   17  C   UNL     1     -10.089   3.635  64.511  1.00  0.00    -0.186 A  
HETATM   18 CL   UNL     1      -8.214   2.081  63.387  1.00  0.00    -0.072 Cl 
HETATM   19  C   UNL     1      -8.678   4.053  66.876  1.00  0.00    -0.118 A  
HETATM   20  C   UNL     1      -8.142   3.228  65.880  1.00  0.00    -0.093 A  
HETATM   21  C   UNL     1     -10.625   4.455  65.511  1.00  0.00    -0.193 A  
ENDBRANCH   7  14
ENDBRANCH   2   4
TORSDOF 2
ENDMDL
MODEL      176
REMARK 921   NORMALIZED FREE ENERGY PREDICTED BY IDOCK:   -2.49 KCAL/MOL
REMARK 922        TOTAL FREE ENERGY PREDICTED BY IDOCK:   -3.38 KCAL/MOL
REMARK 923 INTER-LIGAND FREE ENERGY PREDICTED BY IDOCK:   -3.24 KCAL/MOL
REMARK 924 INTRA-LIGAND FREE ENERGY PREDICTED BY IDOCK:   -0.14 KCAL/MOL
REMARK 927      BINDING AFFINITY PREDICTED BY RF-SCORE:    0.00 PKD
ROOT
HETATM    1  C   UNL     1      -9.144   2.350  70.225  1.00  0.00    -0.108 C  
HETATM    2  N   UNL     1      -9.574   3.738  70.336  1.00  0.00    -0.188 NA 
HETATM    3  H   UNL     1     -10.447   3.806  70.859  1.00  0.00     0.000 HD 
ENDROOT
BRANCH   2   4
HETATM    4  C   UNL     1      -8.544   4.622  70.915  1.00  0.00    -0.105 C  
HETATM    5  C   UNL     1      -7.487   4.902  69.824  1.00  0.00    -0.056 C  
HETATM    6  C   UNL     1      -6.762   6.230  69.983  1.00  0.00    -0.053 C  
HETATM    7  C   UNL     1      -7.726   7.418  70.074  1.00  0.00    -0.095 C  
HETATM    8  C   UNL     1      -8.790   7.179  71.130  1.00  0.00    -0.144 A  
HETATM    9  C   UNL     1      -9.177   5.881  71.516  1.00  0.00    -0.157 A  
HETATM   10  C   UNL     1     -10.137   5.751  72.543  1.00  0.00    -0.207 A  
HETATM   11  C   UNL     1      -9.403   8.298  71.727  1.00  0.00    -0.266 A  
HETATM   12  C   UNL     1     -10.368   8.145  72.715  1.00  0.00    -0.384 A  
HETATM   13  C   UNL     1     -10.733   6.870  73.127  1.00  0.00    -0.338 A  
BRANCH   7  14
HETATM   14  C   UNL     1      -8.289   7.889  68.734  1.00  0.00    -0.128 A  
HETATM   15 CL   UNL     1      -8.322   6.411  65.009  1.00  0.00    -0.122 Cl 
HETATM   16  C   UNL     1      -9.089   8.774  66.173  1.00  0.00    -0.202 A  
HETATM   17  C   UNL     1      -9.256   9.597  67.288  1.00  0.00    -0.154 A  
HETATM   18 CL   UNL     1      -9.531   9.405  64.628  1.00  0.00    -0.146 Cl 
HETATM   19  C   UNL     1      -8.166   7.054  67.608  1.00  0.00    -0.117 A  
HETATM   20  C   UNL     1      -8.557   7.491  66.337  1.00  0.00    -0.140 A  
HETATM   21  C   UNL     1      -8.869   9.155  68.559  1.00  0.00    -0.129 A  
ENDBRANCH   7  14
ENDBRANCH   2   4
TORSDOF 2
ENDMDL
MODEL      177
REMARK 921   NORMALIZED FREE ENERGY PREDICTED BY IDOCK:   -2.47 KCAL/MOL
REMARK 922        TOTAL FREE ENERGY PREDICTED BY IDOCK:   -3.36 KCAL/MOL
REMARK 923 INTER-LIGAND FREE ENERGY PREDICTED BY IDOCK:   -3.12 KCAL/MOL
REMARK 924 INTRA-LIGAND FREE ENERGY PREDICTED BY IDOCK:   -0.23 KCAL/MOL
REMARK 927      BINDING AFFINITY PREDICTED BY RF-SCORE:    0.00 PKD
ROOT
HETATM    1  C   UNL     1     -12.362   8.096  71.240  1.00  0.00    -0.265 C  
HETATM    2  N   UNL     1     -11.479   7.718  70.144  1.00  0.00    -0.473 NA 
HETATM    3  H   UNL     1     -11.917   7.910  69.244  1.00  0.00     0.000 HD 
ENDROOT
BRANCH   2   4
HETATM    4  C   UNL     1     -10.147   8.349  70.226  1.00  0.00    -0.189 C  
HETATM    5  C   UNL     1      -9.115   7.247  70.548  1.00  0.00    -0.158 C  
HETATM    6  C   UNL     1      -7.711   7.538  70.042  1.00  0.00    -0.094 C  
HETATM    7  C   UNL     1      -7.680   7.840  68.540  1.00  0.00    -0.118 C  
HETATM    8  C   UNL     1      -8.689   8.915  68.177  1.00  0.00    -0.134 A  
HETATM    9  C   UNL     1      -9.840   9.148  68.955  1.00  0.00    -0.176 A  
HETATM   10  C   UNL     1     -10.699  10.201  68.574  1.00  0.00    -0.264 A  
HETATM   11  C   UNL     1      -8.457   9.689  67.023  1.00  0.00    -0.124 A  
HETATM   12  C   UNL     1      -9.332  10.702  66.651  1.00  0.00    -0.189 A  
HETATM   13  C   UNL     1     -10.453  10.962  67.430  1.00  0.00    -0.263 A  
BRANCH   7  14
HETATM   14  C   UNL     1      -7.746   6.609  67.637  1.00  0.00    -0.107 A  
HETATM   15 CL   UNL     1      -6.662   5.815  63.862  1.00  0.00    -0.036 Cl 
HETATM   16  C   UNL     1      -8.030   4.465  65.820  1.00  0.00    -0.095 A  
HETATM   17  C   UNL     1      -8.547   4.367  67.113  1.00  0.00    -0.104 A  
HETATM   18 CL   UNL     1      -8.302   3.147  64.738  1.00  0.00    -0.090 Cl 
HETATM   19  C   UNL     1      -7.193   6.677  66.345  1.00  0.00    -0.072 A  
HETATM   20  C   UNL     1      -7.336   5.618  65.440  1.00  0.00    -0.072 A  
HETATM   21  C   UNL     1      -8.398   5.426  68.018  1.00  0.00    -0.098 A  
ENDBRANCH   7  14
ENDBRANCH   2   4
TORSDOF 2
ENDMDL
MODEL      178
REMARK 921   NORMALIZED FREE ENERGY PREDICTED BY IDOCK:   -2.46 KCAL/MOL
REMARK 922        TOTAL FREE ENERGY PREDICTED BY IDOCK:   -3.35 KCAL/MOL
REMARK 923 INTER-LIGAND FREE ENERGY PREDICTED BY IDOCK:   -2.90 KCAL/MOL
REMARK 924 INTRA-LIGAND FREE ENERGY PREDICTED BY IDOCK:   -0.45 KCAL/MOL
REMARK 927      BINDING AFFINITY PREDICTED BY RF-SCORE:    0.00 PKD
ROOT
HETATM    1  C   UNL     1      -9.893   8.617  66.041  1.00  0.00    -0.113 C  
HETATM    2  N   UNL     1      -8.773   8.159  65.229  1.00  0.00    -0.349 NA 
HETATM    3  H   UNL     1      -8.928   8.373  64.244  1.00  0.00     0.000 HD 
ENDROOT
BRANCH   2   4
HETATM    4  C   UNL     1      -7.471   8.684  65.683  1.00  0.00    -0.085 C  
HETATM    5  C   UNL     1      -7.286  10.090  65.073  1.00  0.00    -0.139 C  
HETATM    6  C   UNL     1      -6.399  11.015  65.893  1.00  0.00    -0.019 C  
HETATM    7  C   UNL     1      -6.876  11.150  67.344  1.00  0.00    -0.089 C  
HETATM    8  C   UNL     1      -7.081   9.787  67.980  1.00  0.00    -0.079 A  
HETATM    9  C   UNL     1      -7.366   8.642  67.210  1.00  0.00    -0.088 A  
HETATM   10  C   UNL     1      -7.491   7.405  67.880  1.00  0.00    -0.101 A  
HETATM   11  C   UNL     1      -6.987   9.682  69.382  1.00  0.00    -0.056 A  
HETATM   12  C   UNL     1      -7.144   8.458  70.021  1.00  0.00    -0.047 A  
HETATM   13  C   UNL     1      -7.392   7.317  69.269  1.00  0.00    -0.087 A  
BRANCH   7  14
HETATM   14  C   UNL     1      -8.053  12.103  67.546  1.00  0.00    -0.163 A  
HETATM   15 CL   UNL     1      -8.489  16.087  67.554  1.00  0.00    -0.171 Cl 
HETATM   16  C   UNL     1     -10.110  13.949  68.129  1.00  0.00    -0.250 A  
HETATM   17  C   UNL     1     -10.345  12.576  68.226  1.00  0.00    -0.241 A  
HETATM   18 CL   UNL     1     -11.388  15.022  68.571  1.00  0.00    -0.299 Cl 
HETATM   19  C   UNL     1      -7.843  13.488  67.411  1.00  0.00    -0.157 A  
HETATM   20  C   UNL     1      -8.859  14.406  67.704  1.00  0.00    -0.193 A  
HETATM   21  C   UNL     1      -9.329  11.661  67.927  1.00  0.00    -0.174 A  
ENDBRANCH   7  14
ENDBRANCH   2   4
TORSDOF 2
ENDMDL
MODEL      179
REMARK 921   NORMALIZED FREE ENERGY PREDICTED BY IDOCK:   -2.41 KCAL/MOL
REMARK 922        TOTAL FREE ENERGY PREDICTED BY IDOCK:   -3.29 KCAL/MOL
REMARK 923 INTER-LIGAND FREE ENERGY PREDICTED BY IDOCK:   -2.59 KCAL/MOL
REMARK 924 INTRA-LIGAND FREE ENERGY PREDICTED BY IDOCK:   -0.70 KCAL/MOL
REMARK 927      BINDING AFFINITY PREDICTED BY RF-SCORE:    0.00 PKD
ROOT
HETATM    1  C   UNL     1      -8.260  12.052  67.555  1.00  0.00    -0.159 C  
HETATM    2  N   UNL     1      -9.558  12.605  67.924  1.00  0.00    -0.204 NA 
HETATM    3  H   UNL     1      -9.693  13.523  67.502  1.00  0.00     0.000 HD 
ENDROOT
BRANCH   2   4
HETATM    4  C   UNL     1     -10.684  11.708  67.603  1.00  0.00    -0.207 C  
HETATM    5  C   UNL     1     -10.275  10.841  66.392  1.00  0.00    -0.294 C  
HETATM    6  C   UNL     1     -10.966   9.488  66.331  1.00  0.00     0.420 C  
HETATM    7  C   UNL     1     -10.785   8.678  67.619  1.00  0.00    -0.194 C  
HETATM    8  C   UNL     1     -11.168   9.498  68.838  1.00  0.00     0.037 A  
HETATM    9  C   UNL     1     -11.114  10.905  68.835  1.00  0.00    -0.307 A  
HETATM   10  C   UNL     1     -11.537  11.590  69.995  1.00  0.00    -0.364 A  
HETATM   11  C   UNL     1     -11.581   8.816  70.000  1.00  0.00     0.149 A  
HETATM   12  C   UNL     1     -11.964   9.512  71.141  1.00  0.00    -0.429 A  
HETATM   13  C   UNL     1     -11.947  10.900  71.137  1.00  0.00    -0.317 A  
BRANCH   7  14
HETATM   14  C   UNL     1      -9.433   7.979  67.752  1.00  0.00    -0.166 A  
HETATM   15 CL   UNL     1      -5.912   8.936  69.409  1.00  0.00    -0.037 Cl 
HETATM   16  C   UNL     1      -6.835   6.873  67.853  1.00  0.00    -0.081 A  
HETATM   17  C   UNL     1      -7.855   6.217  67.163  1.00  0.00    -0.102 A  
HETATM   18 CL   UNL     1      -5.255   6.180  67.814  1.00  0.00    -0.004 Cl 
HETATM   19  C   UNL     1      -8.406   8.607  68.481  1.00  0.00    -0.123 A  
HETATM   20  C   UNL     1      -7.117   8.065  68.529  1.00  0.00    -0.080 A  
HETATM   21  C   UNL     1      -9.146   6.759  67.121  1.00  0.00    -0.130 A  
ENDBRANCH   7  14
ENDBRANCH   2   4
TORSDOF 2
ENDMDL
MODEL      180
REMARK 921   NORMALIZED FREE ENERGY PREDICTED BY IDOCK:   -2.40 KCAL/MOL
REMARK 922        TOTAL FREE ENERGY PREDICTED BY IDOCK:   -3.28 KCAL/MOL
REMARK 923 INTER-LIGAND FREE ENERGY PREDICTED BY IDOCK:   -2.89 KCAL/MOL
REMARK 924 INTRA-LIGAND FREE ENERGY PREDICTED BY IDOCK:   -0.38 KCAL/MOL
REMARK 927      BINDING AFFINITY PREDICTED BY RF-SCORE:    0.00 PKD
ROOT
HETATM    1  C   UNL     1      -9.314   3.687  69.657  1.00  0.00    -0.173 C  
HETATM    2  N   UNL     1      -9.827   5.050  69.606  1.00  0.00    -0.199 NA 
HETATM    3  H   UNL     1     -10.840   5.061  69.729  1.00  0.00     0.000 HD 
ENDROOT
BRANCH   2   4
HETATM    4  C   UNL     1      -9.171   5.955  70.569  1.00  0.00    -0.152 C  
HETATM    5  C   UNL     1      -7.662   5.983  70.246  1.00  0.00    -0.097 C  
HETATM    6  C   UNL     1      -6.960   7.272  70.646  1.00  0.00    -0.057 C  
HETATM    7  C   UNL     1      -7.630   8.514  70.049  1.00  0.00    -0.064 C  
HETATM    8  C   UNL     1      -9.121   8.521  70.335  1.00  0.00    -0.164 A  
HETATM    9  C   UNL     1      -9.840   7.333  70.569  1.00  0.00    -0.183 A  
HETATM   10  C   UNL     1     -11.214   7.437  70.878  1.00  0.00    -0.292 A  
HETATM   11  C   UNL     1      -9.791   9.761  70.357  1.00  0.00    -0.269 A  
HETATM   12  C   UNL     1     -11.151   9.835  70.635  1.00  0.00    -0.398 A  
HETATM   13  C   UNL     1     -11.863   8.673  70.900  1.00  0.00    -0.257 A  
BRANCH   7  14
HETATM   14  C   UNL     1      -7.287   8.785  68.585  1.00  0.00    -0.080 A  
HETATM   15 CL   UNL     1      -7.305   6.593  65.229  1.00  0.00    -0.077 Cl 
HETATM   16  C   UNL     1      -6.462   9.116  65.903  1.00  0.00    -0.061 A  
HETATM   17  C   UNL     1      -6.303  10.153  66.824  1.00  0.00    -0.070 A  
HETATM   18 CL   UNL     1      -5.870   9.359  64.300  1.00  0.00    -0.073 Cl 
HETATM   19  C   UNL     1      -7.480   7.763  67.636  1.00  0.00    -0.104 A  
HETATM   20  C   UNL     1      -7.068   7.922  66.307  1.00  0.00    -0.063 A  
HETATM   21  C   UNL     1      -6.721   9.993  68.150  1.00  0.00    -0.059 A  
ENDBRANCH   7  14
ENDBRANCH   2   4
TORSDOF 2
ENDMDL
MODEL      181
REMARK 921   NORMALIZED FREE ENERGY PREDICTED BY IDOCK:   -2.29 KCAL/MOL
REMARK 922        TOTAL FREE ENERGY PREDICTED BY IDOCK:   -3.16 KCAL/MOL
REMARK 923 INTER-LIGAND FREE ENERGY PREDICTED BY IDOCK:   -2.60 KCAL/MOL
REMARK 924 INTRA-LIGAND FREE ENERGY PREDICTED BY IDOCK:   -0.56 KCAL/MOL
REMARK 927      BINDING AFFINITY PREDICTED BY RF-SCORE:    0.00 PKD
ROOT
HETATM    1  C   UNL     1     -11.423   9.036  70.754  1.00  0.00    -0.282 C  
HETATM    2  N   UNL     1     -10.549   8.564  69.688  1.00  0.00    -0.225 NA 
HETATM    3  H   UNL     1     -11.088   8.331  68.854  1.00  0.00     0.000 HD 
ENDROOT
BRANCH   2   4
HETATM    4  C   UNL     1      -9.462   9.509  69.365  1.00  0.00    -0.176 C  
HETATM    5  C   UNL     1      -8.145   8.930  69.925  1.00  0.00    -0.112 C  
HETATM    6  C   UNL     1      -6.899   9.370  69.171  1.00  0.00    -0.050 C  
HETATM    7  C   UNL     1      -6.986   9.073  67.670  1.00  0.00    -0.075 C  
HETATM    8  C   UNL     1      -8.275   9.616  67.080  1.00  0.00    -0.117 A  
HETATM    9  C   UNL     1      -9.429   9.812  67.864  1.00  0.00    -0.146 A  
HETATM   10  C   UNL     1     -10.567  10.370  67.244  1.00  0.00    -0.322 A  
HETATM   11  C   UNL     1      -8.303   9.923  65.705  1.00  0.00    -0.140 A  
HETATM   12  C   UNL     1      -9.446  10.445  65.110  1.00  0.00    -0.303 A  
HETATM   13  C   UNL     1     -10.579  10.673  65.881  1.00  0.00    -0.178 A  
BRANCH   7  14
HETATM   14  C   UNL     1      -6.703   7.621  67.287  1.00  0.00    -0.068 A  
HETATM   15 CL   UNL     1      -8.929   4.568  65.950  1.00  0.00    -0.121 Cl 
HETATM   16  C   UNL     1      -6.328   4.868  66.774  1.00  0.00    -0.040 A  
HETATM   17  C   UNL     1      -5.269   5.650  67.237  1.00  0.00    -0.005 A  
HETATM   18 CL   UNL     1      -6.051   3.179  66.551  1.00  0.00    -0.024 Cl 
HETATM   19  C   UNL     1      -7.750   6.830  66.779  1.00  0.00    -0.106 A  
HETATM   20  C   UNL     1      -7.570   5.464  66.528  1.00  0.00    -0.088 A  
HETATM   21  C   UNL     1      -5.451   7.017  67.482  1.00  0.00    -0.019 A  
ENDBRANCH   7  14
ENDBRANCH   2   4
TORSDOF 2
ENDMDL
MODEL      182
REMARK 921   NORMALIZED FREE ENERGY PREDICTED BY IDOCK:   -2.24 KCAL/MOL
REMARK 922        TOTAL FREE ENERGY PREDICTED BY IDOCK:   -3.10 KCAL/MOL
REMARK 923 INTER-LIGAND FREE ENERGY PREDICTED BY IDOCK:   -2.68 KCAL/MOL
REMARK 924 INTRA-LIGAND FREE ENERGY PREDICTED BY IDOCK:   -0.42 KCAL/MOL
REMARK 927      BINDING AFFINITY PREDICTED BY RF-SCORE:    0.00 PKD
ROOT
HETATM    1  C   UNL     1     -10.230   7.391  73.121  1.00  0.00    -0.312 C  
HETATM    2  N   UNL     1      -9.857   6.964  74.463  1.00  0.00    -0.471 NA 
HETATM    3  H   UNL     1     -10.629   6.473  74.914  1.00  0.00     0.000 HD 
ENDROOT
BRANCH   2   4
HETATM    4  C   UNL     1      -8.627   6.150  74.494  1.00  0.00    -0.129 C  
HETATM    5  C   UNL     1      -8.911   4.827  73.750  1.00  0.00    -0.106 C  
HETATM    6  C   UNL     1      -7.683   4.188  73.121  1.00  0.00    -0.081 C  
HETATM    7  C   UNL     1      -6.937   5.146  72.186  1.00  0.00    -0.081 C  
HETATM    8  C   UNL     1      -6.646   6.466  72.876  1.00  0.00    -0.065 A  
HETATM    9  C   UNL     1      -7.434   6.938  73.943  1.00  0.00    -0.097 A  
HETATM   10  C   UNL     1      -7.061   8.152  74.560  1.00  0.00    -0.210 A  
HETATM   11  C   UNL     1      -5.555   7.233  72.420  1.00  0.00    -0.037 A  
HETATM   12  C   UNL     1      -5.224   8.440  73.025  1.00  0.00    -0.046 A  
HETATM   13  C   UNL     1      -5.975   8.898  74.100  1.00  0.00    -0.110 A  
BRANCH   7  14
HETATM   14  C   UNL     1      -7.561   5.304  70.800  1.00  0.00    -0.083 A  
HETATM   15 CL   UNL     1      -9.389   2.833  68.228  1.00  0.00    -0.257 Cl 
HETATM   16  C   UNL     1      -8.533   5.440  68.151  1.00  0.00    -0.097 A  
HETATM   17  C   UNL     1      -7.947   6.558  68.746  1.00  0.00    -0.111 A  
HETATM   18 CL   UNL     1      -9.040   5.569  66.506  1.00  0.00    -0.134 Cl 
HETATM   19  C   UNL     1      -8.193   4.198  70.203  1.00  0.00    -0.068 A  
HETATM   20  C   UNL     1      -8.671   4.259  68.889  1.00  0.00    -0.091 A  
HETATM   21  C   UNL     1      -7.474   6.495  70.062  1.00  0.00    -0.094 A  
ENDBRANCH   7  14
ENDBRANCH   2   4
TORSDOF 2
ENDMDL
MODEL      183
REMARK 921   NORMALIZED FREE ENERGY PREDICTED BY IDOCK:   -2.10 KCAL/MOL
REMARK 922        TOTAL FREE ENERGY PREDICTED BY IDOCK:   -2.94 KCAL/MOL
REMARK 923 INTER-LIGAND FREE ENERGY PREDICTED BY IDOCK:   -2.77 KCAL/MOL
REMARK 924 INTRA-LIGAND FREE ENERGY PREDICTED BY IDOCK:   -0.17 KCAL/MOL
REMARK 927      BINDING AFFINITY PREDICTED BY RF-SCORE:    0.00 PKD
ROOT
HETATM    1  C   UNL     1      -7.649  10.480  64.911  1.00  0.00    -0.006 C  
HETATM    2  N   UNL     1      -8.135   9.285  64.233  1.00  0.00    -0.135 NA 
HETATM    3  H   UNL     1      -7.401   8.579  64.171  1.00  0.00     0.000 HD 
ENDROOT
BRANCH   2   4
HETATM    4  C   UNL     1      -9.354   8.723  64.846  1.00  0.00     0.346 C  
HETATM    5  C   UNL     1      -8.933   7.549  65.755  1.00  0.00    -0.077 C  
HETATM    6  C   UNL     1      -9.879   7.288  66.917  1.00  0.00    -0.279 C  
HETATM    7  C   UNL     1     -10.113   8.536  67.775  1.00  0.00    -0.266 C  
HETATM    8  C   UNL     1     -10.519   9.720  66.917  1.00  0.00    -0.281 A  
HETATM    9  C   UNL     1     -10.161   9.813  65.558  1.00  0.00    -0.114 A  
HETATM   10  C   UNL     1     -10.626  10.924  64.822  1.00  0.00    -0.316 A  
HETATM   11  C   UNL     1     -11.272  10.751  67.514  1.00  0.00    -0.346 A  
HETATM   12  C   UNL     1     -11.693  11.851  66.776  1.00  0.00    -0.281 A  
HETATM   13  C   UNL     1     -11.374  11.936  65.427  1.00  0.00    -0.334 A  
BRANCH   7  14
HETATM   14  C   UNL     1      -8.991   8.853  68.763  1.00  0.00    -0.134 A  
HETATM   15 CL   UNL     1      -8.605   8.670  72.748  1.00  0.00    -0.156 Cl 
HETATM   16  C   UNL     1      -7.068   9.623  70.684  1.00  0.00    -0.109 A  
HETATM   17  C   UNL     1      -6.836   9.843  69.326  1.00  0.00    -0.057 A  
HETATM   18 CL   UNL     1      -5.885  10.184  71.809  1.00  0.00     0.175 Cl 
HETATM   19  C   UNL     1      -9.193   8.598  70.132  1.00  0.00    -0.165 A  
HETATM   20  C   UNL     1      -8.245   8.983  71.088  1.00  0.00    -0.149 A  
HETATM   21  C   UNL     1      -7.784   9.452  68.372  1.00  0.00    -0.086 A  
ENDBRANCH   7  14
ENDBRANCH   2   4
TORSDOF 2
ENDMDL
MODEL      184
REMARK 921   NORMALIZED FREE ENERGY PREDICTED BY IDOCK:   -2.10 KCAL/MOL
REMARK 922        TOTAL FREE ENERGY PREDICTED BY IDOCK:   -2.94 KCAL/MOL
REMARK 923 INTER-LIGAND FREE ENERGY PREDICTED BY IDOCK:   -2.90 KCAL/MOL
REMARK 924 INTRA-LIGAND FREE ENERGY PREDICTED BY IDOCK:   -0.04 KCAL/MOL
REMARK 927      BINDING AFFINITY PREDICTED BY RF-SCORE:    0.00 PKD
ROOT
HETATM    1  C   UNL     1      -7.619   9.241  65.475  1.00  0.00    -0.091 C  
HETATM    2  N   UNL     1      -6.187   9.200  65.740  1.00  0.00    -0.056 NA 
HETATM    3  H   UNL     1      -5.684   9.827  65.112  1.00  0.00     0.000 HD 
ENDROOT
BRANCH   2   4
HETATM    4  C   UNL     1      -5.848   9.483  67.148  1.00  0.00    -0.052 C  
HETATM    5  C   UNL     1      -5.368  10.947  67.238  1.00  0.00    -0.043 C  
HETATM    6  C   UNL     1      -5.602  11.599  68.593  1.00  0.00    -0.045 C  
HETATM    7  C   UNL     1      -7.065  11.515  69.040  1.00  0.00    -0.115 C  
HETATM    8  C   UNL     1      -7.581  10.090  68.957  1.00  0.00    -0.090 A  
HETATM    9  C   UNL     1      -7.022   9.146  68.073  1.00  0.00    -0.077 A  
HETATM   10  C   UNL     1      -7.529   7.829  68.098  1.00  0.00    -0.108 A  
HETATM   11  C   UNL     1      -8.654   9.718  69.790  1.00  0.00    -0.215 A  
HETATM   12  C   UNL     1      -9.157   8.422  69.776  1.00  0.00    -0.153 A  
HETATM   13  C   UNL     1      -8.591   7.475  68.932  1.00  0.00    -0.129 A  
BRANCH   7  14
HETATM   14  C   UNL     1      -7.993  12.541  68.390  1.00  0.00    -0.139 A  
HETATM   15 CL   UNL     1     -10.921  12.366  65.660  1.00  0.00    -0.312 Cl 
HETATM   16  C   UNL     1      -9.595  14.381  66.967  1.00  0.00    -0.247 A  
HETATM   17  C   UNL     1      -8.650  14.834  67.889  1.00  0.00    -0.166 A  
HETATM   18 CL   UNL     1     -10.489  15.561  66.078  1.00  0.00    -0.315 Cl 
HETATM   19  C   UNL     1      -8.979  12.097  67.489  1.00  0.00    -0.177 A  
HETATM   20  C   UNL     1      -9.771  13.007  66.778  1.00  0.00    -0.248 A  
HETATM   21  C   UNL     1      -7.863  13.922  68.603  1.00  0.00    -0.120 A  
ENDBRANCH   7  14
ENDBRANCH   2   4
TORSDOF 2
ENDMDL
MODEL      185
REMARK 921   NORMALIZED FREE ENERGY PREDICTED BY IDOCK:   -1.99 KCAL/MOL
REMARK 922        TOTAL FREE ENERGY PREDICTED BY IDOCK:   -2.82 KCAL/MOL
REMARK 923 INTER-LIGAND FREE ENERGY PREDICTED BY IDOCK:   -2.35 KCAL/MOL
REMARK 924 INTRA-LIGAND FREE ENERGY PREDICTED BY IDOCK:   -0.47 KCAL/MOL
REMARK 927      BINDING AFFINITY PREDICTED BY RF-SCORE:    0.00 PKD
ROOT
HETATM    1  C   UNL     1      -8.924   5.161  63.318  1.00  0.00     0.094 C  
HETATM    2  N   UNL     1      -8.956   6.092  64.439  1.00  0.00    -0.131 NA 
HETATM    3  H   UNL     1      -9.456   5.688  65.231  1.00  0.00     0.000 HD 
ENDROOT
BRANCH   2   4
HETATM    4  C   UNL     1      -7.616   6.559  64.846  1.00  0.00    -0.097 C  
HETATM    5  C   UNL     1      -7.222   7.737  63.930  1.00  0.00    -0.085 C  
HETATM    6  C   UNL     1      -6.258   8.727  64.564  1.00  0.00    -0.066 C  
HETATM    7  C   UNL     1      -6.772   9.273  65.900  1.00  0.00    -0.080 C  
HETATM    8  C   UNL     1      -7.181   8.145  66.830  1.00  0.00    -0.083 A  
HETATM    9  C   UNL     1      -7.581   6.886  66.342  1.00  0.00    -0.089 A  
HETATM   10  C   UNL     1      -7.895   5.878  67.280  1.00  0.00    -0.102 A  
HETATM   11  C   UNL     1      -7.160   8.383  68.219  1.00  0.00    -0.085 A  
HETATM   12  C   UNL     1      -7.503   7.383  69.122  1.00  0.00    -0.099 A  
HETATM   13  C   UNL     1      -7.866   6.128  68.653  1.00  0.00    -0.101 A  
BRANCH   7  14
HETATM   14  C   UNL     1      -7.821  10.377  65.780  1.00  0.00    -0.150 A  
HETATM   15 CL   UNL     1      -8.364  13.956  67.500  1.00  0.00    -0.185 Cl 
HETATM   16  C   UNL     1      -9.822  12.371  65.800  1.00  0.00    -0.240 A  
HETATM   17  C   UNL     1      -9.985  11.216  65.033  1.00  0.00    -0.325 A  
HETATM   18 CL   UNL     1     -11.115  13.515  65.825  1.00  0.00    -0.292 Cl 
HETATM   19  C   UNL     1      -7.652  11.566  66.514  1.00  0.00    -0.036 A  
HETATM   20  C   UNL     1      -8.644  12.554  66.530  1.00  0.00     0.028 A  
HETATM   21  C   UNL     1      -8.989  10.232  65.014  1.00  0.00    -0.225 A  
ENDBRANCH   7  14
ENDBRANCH   2   4
TORSDOF 2
ENDMDL
MODEL      186
REMARK 921   NORMALIZED FREE ENERGY PREDICTED BY IDOCK:   -1.86 KCAL/MOL
REMARK 922        TOTAL FREE ENERGY PREDICTED BY IDOCK:   -2.67 KCAL/MOL
REMARK 923 INTER-LIGAND FREE ENERGY PREDICTED BY IDOCK:   -2.18 KCAL/MOL
REMARK 924 INTRA-LIGAND FREE ENERGY PREDICTED BY IDOCK:   -0.50 KCAL/MOL
REMARK 927      BINDING AFFINITY PREDICTED BY RF-SCORE:    0.00 PKD
ROOT
HETATM    1  C   UNL     1      -6.220  11.640  68.552  1.00  0.00    -0.051 C  
HETATM    2  N   UNL     1      -6.764  10.381  68.058  1.00  0.00    -0.065 NA 
HETATM    3  H   UNL     1      -6.094   9.623  68.182  1.00  0.00     0.000 HD 
ENDROOT
BRANCH   2   4
HETATM    4  C   UNL     1      -8.067  10.035  68.659  1.00  0.00    -0.102 C  
HETATM    5  C   UNL     1      -9.027   9.633  67.518  1.00  0.00    -0.136 C  
HETATM    6  C   UNL     1     -10.121   8.662  67.935  1.00  0.00    -0.254 C  
HETATM    7  C   UNL     1      -9.563   7.398  68.598  1.00  0.00    -0.146 C  
HETATM    8  C   UNL     1      -8.604   7.749  69.722  1.00  0.00    -0.134 A  
HETATM    9  C   UNL     1      -7.902   8.970  69.748  1.00  0.00    -0.086 A  
HETATM   10  C   UNL     1      -7.070   9.235  70.857  1.00  0.00    -0.110 A  
HETATM   11  C   UNL     1      -8.418   6.813  70.758  1.00  0.00    -0.133 A  
HETATM   12  C   UNL     1      -7.570   7.085  71.825  1.00  0.00    -0.088 A  
HETATM   13  C   UNL     1      -6.898   8.299  71.878  1.00  0.00    -0.084 A  
BRANCH   7  14
HETATM   14  C   UNL     1      -9.012   6.355  67.627  1.00  0.00    -0.113 A  
HETATM   15 CL   UNL     1      -5.389   5.532  66.126  1.00  0.00    -0.012 Cl 
HETATM   16  C   UNL     1      -7.937   4.620  65.674  1.00  0.00    -0.095 A  
HETATM   17  C   UNL     1      -9.306   4.613  65.948  1.00  0.00    -0.155 A  
HETATM   18 CL   UNL     1      -7.357   3.587  64.418  1.00  0.00    -0.065 Cl 
HETATM   19  C   UNL     1      -7.629   6.322  67.372  1.00  0.00    -0.093 A  
HETATM   20  C   UNL     1      -7.093   5.466  66.401  1.00  0.00    -0.069 A  
HETATM   21  C   UNL     1      -9.838   5.465  66.923  1.00  0.00    -0.186 A  
ENDBRANCH   7  14
ENDBRANCH   2   4
TORSDOF 2
ENDMDL
MODEL      187
REMARK 921   NORMALIZED FREE ENERGY PREDICTED BY IDOCK:   -1.72 KCAL/MOL
REMARK 922        TOTAL FREE ENERGY PREDICTED BY IDOCK:   -2.52 KCAL/MOL
REMARK 923 INTER-LIGAND FREE ENERGY PREDICTED BY IDOCK:   -3.32 KCAL/MOL
REMARK 924 INTRA-LIGAND FREE ENERGY PREDICTED BY IDOCK:    0.80 KCAL/MOL
REMARK 927      BINDING AFFINITY PREDICTED BY RF-SCORE:    0.00 PKD
ROOT
HETATM    1  C   UNL     1      -8.141   6.548  73.965  1.00  0.00    -0.114 C  
HETATM    2  N   UNL     1      -9.308   7.392  73.743  1.00  0.00    -0.248 NA 
HETATM    3  H   UNL     1      -9.057   8.223  73.207  1.00  0.00     0.000 HD 
ENDROOT
BRANCH   2   4
HETATM    4  C   UNL     1     -10.432   6.676  73.110  1.00  0.00    -0.253 C  
HETATM    5  C   UNL     1     -10.748   7.374  71.770  1.00  0.00    -0.242 C  
HETATM    6  C   UNL     1     -11.367   6.462  70.721  1.00  0.00    -0.411 C  
HETATM    7  C   UNL     1     -10.519   5.213  70.457  1.00  0.00    -0.278 C  
HETATM    8  C   UNL     1     -10.177   4.500  71.753  1.00  0.00    -0.226 A  
HETATM    9  C   UNL     1     -10.129   5.180  72.985  1.00  0.00    -0.198 A  
HETATM   10  C   UNL     1      -9.852   4.429  74.148  1.00  0.00    -0.172 A  
HETATM   11  C   UNL     1      -9.897   3.121  71.703  1.00  0.00    -0.216 A  
HETATM   12  C   UNL     1      -9.598   2.408  72.859  1.00  0.00    -0.143 A  
HETATM   13  C   UNL     1      -9.580   3.062  74.084  1.00  0.00    -0.121 A  
BRANCH   7  14
HETATM   14  C   UNL     1      -9.314   5.438  69.545  1.00  0.00    -0.166 A  
HETATM   15 CL   UNL     1      -6.519   3.066  67.925  1.00  0.00    -0.036 Cl 
HETATM   16  C   UNL     1      -6.938   5.775  68.054  1.00  0.00    -0.065 A  
HETATM   17  C   UNL     1      -7.690   6.884  68.444  1.00  0.00    -0.116 A  
HETATM   18 CL   UNL     1      -5.459   6.055  67.209  1.00  0.00    -0.005 Cl 
HETATM   19  C   UNL     1      -8.569   4.326  69.109  1.00  0.00    -0.109 A  
HETATM   20  C   UNL     1      -7.389   4.490  68.374  1.00  0.00    -0.065 A  
HETATM   21  C   UNL     1      -8.873   6.717  69.174  1.00  0.00    -0.134 A  
ENDBRANCH   7  14
ENDBRANCH   2   4
TORSDOF 2
ENDMDL
MODEL      188
REMARK 921   NORMALIZED FREE ENERGY PREDICTED BY IDOCK:   -1.64 KCAL/MOL
REMARK 922        TOTAL FREE ENERGY PREDICTED BY IDOCK:   -2.43 KCAL/MOL
REMARK 923 INTER-LIGAND FREE ENERGY PREDICTED BY IDOCK:   -2.19 KCAL/MOL
REMARK 924 INTRA-LIGAND FREE ENERGY PREDICTED BY IDOCK:   -0.24 KCAL/MOL
REMARK 927      BINDING AFFINITY PREDICTED BY RF-SCORE:    0.00 PKD
ROOT
HETATM    1  C   UNL     1     -11.936  12.480  64.703  1.00  0.00    -0.404 C  
HETATM    2  N   UNL     1     -11.081  11.304  64.803  1.00  0.00    -0.194 NA 
HETATM    3  H   UNL     1     -10.939  10.880  63.885  1.00  0.00     0.000 HD 
ENDROOT
BRANCH   2   4
HETATM    4  C   UNL     1      -9.789  11.578  65.460  1.00  0.00    -0.234 C  
HETATM    5  C   UNL     1      -9.962  11.332  66.974  1.00  0.00    -0.226 C  
HETATM    6  C   UNL     1      -8.684  10.926  67.692  1.00  0.00    -0.127 C  
HETATM    7  C   UNL     1      -8.016   9.704  67.053  1.00  0.00    -0.109 C  
HETATM    8  C   UNL     1      -7.835   9.900  65.558  1.00  0.00    -0.126 A  
HETATM    9  C   UNL     1      -8.662  10.764  64.815  1.00  0.00    -0.118 A  
HETATM   10  C   UNL     1      -8.391  10.925  63.440  1.00  0.00     0.081 A  
HETATM   11  C   UNL     1      -6.809   9.185  64.910  1.00  0.00    -0.081 A  
HETATM   12  C   UNL     1      -6.579   9.338  63.548  1.00  0.00    -0.092 A  
HETATM   13  C   UNL     1      -7.368  10.212  62.812  1.00  0.00    -0.141 A  
BRANCH   7  14
HETATM   14  C   UNL     1      -8.646   8.362  67.423  1.00  0.00    -0.124 A  
HETATM   15 CL   UNL     1      -7.354   4.570  67.529  1.00  0.00    -0.072 Cl 
HETATM   16  C   UNL     1      -9.778   5.812  67.862  1.00  0.00    -0.120 A  
HETATM   17  C   UNL     1     -10.574   6.957  67.925  1.00  0.00    -0.286 A  
HETATM   18 CL   UNL     1     -10.548   4.280  68.068  1.00  0.00     0.635 Cl 
HETATM   19  C   UNL     1      -7.848   7.203  67.405  1.00  0.00    -0.112 A  
HETATM   20  C   UNL     1      -8.407   5.937  67.618  1.00  0.00    -0.104 A  
HETATM   21  C   UNL     1     -10.011   8.223  67.717  1.00  0.00    -0.235 A  
ENDBRANCH   7  14
ENDBRANCH   2   4
TORSDOF 2
ENDMDL
MODEL      189
REMARK 921   NORMALIZED FREE ENERGY PREDICTED BY IDOCK:   -1.19 KCAL/MOL
REMARK 922        TOTAL FREE ENERGY PREDICTED BY IDOCK:   -1.93 KCAL/MOL
REMARK 923 INTER-LIGAND FREE ENERGY PREDICTED BY IDOCK:   -1.67 KCAL/MOL
REMARK 924 INTRA-LIGAND FREE ENERGY PREDICTED BY IDOCK:   -0.26 KCAL/MOL
REMARK 927      BINDING AFFINITY PREDICTED BY RF-SCORE:    0.00 PKD
ROOT
HETATM    1  C   UNL     1      -7.185   9.170  73.268  1.00  0.00     0.729 C  
HETATM    2  N   UNL     1      -7.762   9.157  71.930  1.00  0.00    -0.305 NA 
HETATM    3  H   UNL     1      -8.421   9.927  71.813  1.00  0.00     0.000 HD 
ENDROOT
BRANCH   2   4
HETATM    4  C   UNL     1      -6.748   9.164  70.858  1.00  0.00    -0.087 C  
HETATM    5  C   UNL     1      -7.354   8.463  69.623  1.00  0.00    -0.072 C  
HETATM    6  C   UNL     1      -6.777   8.929  68.295  1.00  0.00    -0.065 C  
HETATM    7  C   UNL     1      -6.871  10.447  68.114  1.00  0.00    -0.072 C  
HETATM    8  C   UNL     1      -6.294  11.177  69.314  1.00  0.00    -0.076 A  
HETATM    9  C   UNL     1      -6.243  10.585  70.591  1.00  0.00    -0.065 A  
HETATM   10  C   UNL     1      -5.643  11.316  71.640  1.00  0.00     0.383 A  
HETATM   11  C   UNL     1      -5.805  12.485  69.129  1.00  0.00    -0.080 A  
HETATM   12  C   UNL     1      -5.245  13.197  70.184  1.00  0.00    -0.098 A  
HETATM   13  C   UNL     1      -5.159  12.610  71.440  1.00  0.00    -0.146 A  
BRANCH   7  14
HETATM   14  C   UNL     1      -8.247  10.958  67.692  1.00  0.00    -0.116 A  
HETATM   15 CL   UNL     1      -9.807  12.380  64.284  1.00  0.00    -0.184 Cl 
HETATM   16  C   UNL     1     -10.684  12.131  66.873  1.00  0.00    -0.236 A  
HETATM   17  C   UNL     1     -10.504  11.728  68.197  1.00  0.00    -0.221 A  
HETATM   18 CL   UNL     1     -12.169  12.906  66.456  1.00  0.00    -0.362 Cl 
HETATM   19  C   UNL     1      -8.458  11.329  66.351  1.00  0.00    -0.169 A  
HETATM   20  C   UNL     1      -9.662  11.915  65.942  1.00  0.00    -0.238 A  
HETATM   21  C   UNL     1      -9.301  11.137  68.601  1.00  0.00    -0.186 A  
ENDBRANCH   7  14
ENDBRANCH   2   4
TORSDOF 2
ENDMDL
MODEL      190
REMARK 921   NORMALIZED FREE ENERGY PREDICTED BY IDOCK:   -0.43 KCAL/MOL
REMARK 922        TOTAL FREE ENERGY PREDICTED BY IDOCK:   -1.08 KCAL/MOL
REMARK 923 INTER-LIGAND FREE ENERGY PREDICTED BY IDOCK:   -0.50 KCAL/MOL
REMARK 924 INTRA-LIGAND FREE ENERGY PREDICTED BY IDOCK:   -0.57 KCAL/MOL
REMARK 927      BINDING AFFINITY PREDICTED BY RF-SCORE:    0.00 PKD
ROOT
HETATM    1  C   UNL     1      -9.267  19.922  70.704  1.00  0.00     1.644 C  
HETATM    2  N   UNL     1      -9.903  19.180  69.623  1.00  0.00    -0.133 NA 
HETATM    3  H   UNL     1     -10.640  19.734  69.187  1.00  0.00     0.000 HD 
ENDROOT
BRANCH   2   4
HETATM    4  C   UNL     1      -8.947  18.690  68.611  1.00  0.00    -0.306 C  
HETATM    5  C   UNL     1      -8.172  17.502  69.222  1.00  0.00     0.209 C  
HETATM    6  C   UNL     1      -7.663  16.497  68.201  1.00  0.00    -0.167 C  
HETATM    7  C   UNL     1      -8.779  15.963  67.296  1.00  0.00    -0.206 C  
HETATM    8  C   UNL     1      -9.574  17.101  66.681  1.00  0.00    -0.279 A  
HETATM    9  C   UNL     1      -9.660  18.366  67.294  1.00  0.00    -0.292 A  
HETATM   10  C   UNL     1     -10.378  19.382  66.627  1.00  0.00    -0.555 A  
HETATM   11  C   UNL     1     -10.245  16.867  65.464  1.00  0.00    -0.149 A  
HETATM   12  C   UNL     1     -10.971  17.875  64.841  1.00  0.00     1.197 A  
HETATM   13  C   UNL     1     -11.034  19.135  65.420  1.00  0.00     0.231 A  
BRANCH   7  14
HETATM   14  C   UNL     1      -9.651  14.878  67.926  1.00  0.00    -0.205 A  
HETATM   15 CL   UNL     1      -9.034  11.105  69.126  1.00  0.00    -0.022 Cl 
HETATM   16  C   UNL     1     -11.227  12.735  68.877  1.00  0.00    -0.283 A  
HETATM   17  C   UNL     1     -11.817  13.960  68.563  1.00  0.00    -0.401 A  
HETATM   18 CL   UNL     1     -12.257  11.446  69.383  1.00  0.00    -0.330 Cl 
HETATM   19  C   UNL     1      -9.063  13.652  68.287  1.00  0.00    -0.193 A  
HETATM   20  C   UNL     1      -9.841  12.586  68.754  1.00  0.00     0.021 A  
HETATM   21  C   UNL     1     -11.035  15.026  68.101  1.00  0.00    -0.281 A  
ENDBRANCH   7  14
ENDBRANCH   2   4
TORSDOF 2
ENDMDL
MODEL      191
REMARK 921   NORMALIZED FREE ENERGY PREDICTED BY IDOCK:   -0.34 KCAL/MOL
REMARK 922        TOTAL FREE ENERGY PREDICTED BY IDOCK:   -0.98 KCAL/MOL
REMARK 923 INTER-LIGAND FREE ENERGY PREDICTED BY IDOCK:   -0.65 KCAL/MOL
REMARK 924 INTRA-LIGAND FREE ENERGY PREDICTED BY IDOCK:   -0.33 KCAL/MOL
REMARK 927      BINDING AFFINITY PREDICTED BY RF-SCORE:    0.00 PKD
ROOT
HETATM    1  C   UNL     1      -6.269   8.904  74.282  1.00  0.00    -0.061 C  
HETATM    2  N   UNL     1      -6.680   8.699  72.899  1.00  0.00    -0.271 NA 
HETATM    3  H   UNL     1      -7.463   9.308  72.659  1.00  0.00     0.000 HD 
ENDROOT
BRANCH   2   4
HETATM    4  C   UNL     1      -5.575   8.858  71.933  1.00  0.00    -0.059 C  
HETATM    5  C   UNL     1      -5.777   7.827  70.802  1.00  0.00    -0.030 C  
HETATM    6  C   UNL     1      -5.184   8.243  69.465  1.00  0.00    -0.030 C  
HETATM    7  C   UNL     1      -5.690   9.612  68.999  1.00  0.00    -0.035 C  
HETATM    8  C   UNL     1      -5.519  10.657  70.088  1.00  0.00    -0.060 A  
HETATM    9  C   UNL     1      -5.473  10.309  71.452  1.00  0.00    -0.025 A  
HETATM   10  C   UNL     1      -5.261  11.339  72.394  1.00  0.00     0.428 A  
HETATM   11  C   UNL     1      -5.411  12.009  69.706  1.00  0.00    -0.081 A  
HETATM   12  C   UNL     1      -5.231  13.009  70.655  1.00  0.00    -0.135 A  
HETATM   13  C   UNL     1      -5.151  12.673  72.000  1.00  0.00     0.016 A  
BRANCH   7  14
HETATM   14  C   UNL     1      -7.084   9.602  68.375  1.00  0.00    -0.070 A  
HETATM   15 CL   UNL     1     -10.821   9.793  69.810  1.00  0.00    -0.263 Cl 
HETATM   16  C   UNL     1      -9.703   9.361  67.342  1.00  0.00    -0.159 A  
HETATM   17  C   UNL     1      -8.597   9.248  66.497  1.00  0.00    -0.139 A  
HETATM   18 CL   UNL     1     -11.271   9.131  66.658  1.00  0.00     0.692 Cl 
HETATM   19  C   UNL     1      -8.208   9.757  69.207  1.00  0.00    -0.132 A  
HETATM   20  C   UNL     1      -9.507   9.634  68.700  1.00  0.00    -0.146 A  
HETATM   21  C   UNL     1      -7.300   9.377  67.006  1.00  0.00    -0.087 A  
ENDBRANCH   7  14
ENDBRANCH   2   4
TORSDOF 2
ENDMDL
MODEL      192
REMARK 921   NORMALIZED FREE ENERGY PREDICTED BY IDOCK:   -0.13 KCAL/MOL
REMARK 922        TOTAL FREE ENERGY PREDICTED BY IDOCK:   -0.75 KCAL/MOL
REMARK 923 INTER-LIGAND FREE ENERGY PREDICTED BY IDOCK:   -0.48 KCAL/MOL
REMARK 924 INTRA-LIGAND FREE ENERGY PREDICTED BY IDOCK:   -0.26 KCAL/MOL
REMARK 927      BINDING AFFINITY PREDICTED BY RF-SCORE:    0.00 PKD
ROOT
HETATM    1  C   UNL     1      -8.521  20.291  64.430  1.00  0.00     3.075 C  
HETATM    2  N   UNL     1      -7.630  20.984  65.352  1.00  0.00     0.048 NA 
HETATM    3  H   UNL     1      -7.302  21.861  64.948  1.00  0.00     0.000 HD 
ENDROOT
BRANCH   2   4
HETATM    4  C   UNL     1      -8.230  21.211  66.681  1.00  0.00     0.704 C  
HETATM    5  C   UNL     1      -9.638  20.576  66.684  1.00  0.00    -0.396 C  
HETATM    6  C   UNL     1     -10.120  20.131  68.056  1.00  0.00    -0.519 C  
HETATM    7  C   UNL     1      -9.134  19.182  68.745  1.00  0.00    -0.397 C  
HETATM    8  C   UNL     1      -7.732  19.764  68.755  1.00  0.00    -0.273 A  
HETATM    9  C   UNL     1      -7.308  20.701  67.793  1.00  0.00    -0.276 A  
HETATM   10  C   UNL     1      -6.004  21.229  67.908  1.00  0.00    -0.391 A  
HETATM   11  C   UNL     1      -6.839  19.341  69.760  1.00  0.00    -0.125 A  
HETATM   12  C   UNL     1      -5.550  19.854  69.835  1.00  0.00    -0.289 A  
HETATM   13  C   UNL     1      -5.132  20.803  68.911  1.00  0.00    -0.324 A  
BRANCH   7  14
HETATM   14  C   UNL     1      -9.191  17.735  68.259  1.00  0.00    -0.280 A  
HETATM   15 CL   UNL     1     -11.956  15.477  66.437  1.00  0.00     0.442 Cl 
HETATM   16  C   UNL     1      -9.482  15.020  67.532  1.00  0.00    -0.203 A  
HETATM   17  C   UNL     1      -8.319  15.460  68.166  1.00  0.00    -0.145 A  
HETATM   18 CL   UNL     1      -9.625  13.336  67.182  1.00  0.00    -0.232 Cl 
HETATM   19  C   UNL     1     -10.340  17.286  67.581  1.00  0.00    -0.350 A  
HETATM   20  C   UNL     1     -10.489  15.940  67.224  1.00  0.00    -0.310 A  
HETATM   21  C   UNL     1      -8.170  16.808  68.517  1.00  0.00    -0.242 A  
ENDBRANCH   7  14
ENDBRANCH   2   4
TORSDOF 2
ENDMDL
MODEL      193
REMARK 921   NORMALIZED FREE ENERGY PREDICTED BY IDOCK:    0.53 KCAL/MOL
REMARK 922        TOTAL FREE ENERGY PREDICTED BY IDOCK:   -0.00 KCAL/MOL
REMARK 923 INTER-LIGAND FREE ENERGY PREDICTED BY IDOCK:   -0.02 KCAL/MOL
REMARK 924 INTRA-LIGAND FREE ENERGY PREDICTED BY IDOCK:    0.02 KCAL/MOL
REMARK 927      BINDING AFFINITY PREDICTED BY RF-SCORE:    0.00 PKD
ROOT
HETATM    1  C   UNL     1     -10.060   4.654  65.138  1.00  0.00    -0.054 C  
HETATM    2  N   UNL     1      -9.901   6.099  65.246  1.00  0.00     0.245 NA 
HETATM    3  H   UNL     1      -9.846   6.385  66.223  1.00  0.00     0.000 HD 
ENDROOT
BRANCH   2   4
HETATM    4  C   UNL     1      -8.751   6.617  64.480  1.00  0.00     0.432 C  
HETATM    5  C   UNL     1      -9.152   7.982  63.881  1.00  0.00     1.238 C  
HETATM    6  C   UNL     1      -7.985   8.928  63.647  1.00  0.00    -0.154 C  
HETATM    7  C   UNL     1      -7.149   9.154  64.912  1.00  0.00    -0.096 C  
HETATM    8  C   UNL     1      -6.742   7.834  65.540  1.00  0.00    -0.045 A  
HETATM    9  C   UNL     1      -7.489   6.655  65.347  1.00  0.00    -0.080 A  
HETATM   10  C   UNL     1      -7.009   5.461  65.926  1.00  0.00    -0.066 A  
HETATM   11  C   UNL     1      -5.583   7.804  66.341  1.00  0.00    -0.028 A  
HETATM   12  C   UNL     1      -5.146   6.621  66.925  1.00  0.00    -0.009 A  
HETATM   13  C   UNL     1      -5.857   5.447  66.714  1.00  0.00    -0.018 A  
BRANCH   7  14
HETATM   14  C   UNL     1      -7.749  10.146  65.907  1.00  0.00    -0.127 A  
HETATM   15 CL   UNL     1     -11.474  11.218  66.926  1.00  0.00    -0.230 Cl 
HETATM   16  C   UNL     1      -8.953  12.106  67.547  1.00  0.00    -0.177 A  
HETATM   17  C   UNL     1      -7.563  12.023  67.450  1.00  0.00    -0.151 A  
HETATM   18 CL   UNL     1      -9.624  13.373  68.509  1.00  0.00    -0.186 Cl 
HETATM   19  C   UNL     1      -9.148  10.213  66.048  1.00  0.00    -0.185 A  
HETATM   20  C   UNL     1      -9.748  11.186  66.856  1.00  0.00    -0.191 A  
HETATM   21  C   UNL     1      -6.966  11.046  66.646  1.00  0.00    -0.140 A  
ENDBRANCH   7  14
ENDBRANCH   2   4
TORSDOF 2
ENDMDL
MODEL      194
REMARK 921   NORMALIZED FREE ENERGY PREDICTED BY IDOCK:    2.88 KCAL/MOL
REMARK 922        TOTAL FREE ENERGY PREDICTED BY IDOCK:    2.62 KCAL/MOL
REMARK 923 INTER-LIGAND FREE ENERGY PREDICTED BY IDOCK:    2.14 KCAL/MOL
REMARK 924 INTRA-LIGAND FREE ENERGY PREDICTED BY IDOCK:    0.48 KCAL/MOL
REMARK 927      BINDING AFFINITY PREDICTED BY RF-SCORE:    0.00 PKD
ROOT
HETATM    1  C   UNL     1     -10.918  18.183  69.290  1.00  0.00     1.211 C  
HETATM    2  N   UNL     1      -9.591  17.682  69.622  1.00  0.00     0.408 NA 
HETATM    3  H   UNL     1      -9.625  17.082  70.446  1.00  0.00     0.000 HD 
ENDROOT
BRANCH   2   4
HETATM    4  C   UNL     1      -8.931  16.993  68.496  1.00  0.00    -0.263 C  
HETATM    5  C   UNL     1      -8.421  15.627  69.006  1.00  0.00    -0.231 C  
HETATM    6  C   UNL     1      -8.325  14.556  67.931  1.00  0.00    -0.159 C  
HETATM    7  C   UNL     1      -9.646  14.357  67.180  1.00  0.00    -0.251 C  
HETATM    8  C   UNL     1     -10.189  15.680  66.670  1.00  0.00    -0.283 A  
HETATM    9  C   UNL     1      -9.863  16.905  67.285  1.00  0.00    -0.265 A  
HETATM   10  C   UNL     1     -10.371  18.092  66.713  1.00  0.00    -0.373 A  
HETATM   11  C   UNL     1     -11.045  15.665  65.551  1.00  0.00    -0.229 A  
HETATM   12  C   UNL     1     -11.557  16.845  65.024  1.00  0.00     0.834 A  
HETATM   13  C   UNL     1     -11.216  18.061  65.602  1.00  0.00     0.835 A  
BRANCH   7  14
HETATM   14  C   UNL     1     -10.684  13.516  67.922  1.00  0.00    -0.258 A  
HETATM   15 CL   UNL     1     -13.855  14.337  70.232  1.00  0.00     0.869 Cl 
HETATM   16  C   UNL     1     -12.509  12.057  69.510  1.00  0.00     0.170 A  
HETATM   17  C   UNL     1     -11.502  11.396  68.804  1.00  0.00    -0.354 A  
HETATM   18 CL   UNL     1     -13.544  11.113  70.519  1.00  0.00     0.800 Cl 
HETATM   19  C   UNL     1     -11.730  14.165  68.603  1.00  0.00    -0.385 A  
HETATM   20  C   UNL     1     -12.633  13.445  69.395  1.00  0.00     0.298 A  
HETATM   21  C   UNL     1     -10.603  12.118  68.009  1.00  0.00    -0.232 A  
ENDBRANCH   7  14
ENDBRANCH   2   4
TORSDOF 2
ENDMDL
MODEL      195
REMARK 921   NORMALIZED FREE ENERGY PREDICTED BY IDOCK:    4.10 KCAL/MOL
REMARK 922        TOTAL FREE ENERGY PREDICTED BY IDOCK:    3.99 KCAL/MOL
REMARK 923 INTER-LIGAND FREE ENERGY PREDICTED BY IDOCK:    4.33 KCAL/MOL
REMARK 924 INTRA-LIGAND FREE ENERGY PREDICTED BY IDOCK:   -0.34 KCAL/MOL
REMARK 927      BINDING AFFINITY PREDICTED BY RF-SCORE:    0.00 PKD
ROOT
HETATM    1  C   UNL     1      -9.602  20.180  71.124  1.00  0.00     2.064 C  
HETATM    2  N   UNL     1     -10.170  19.716  69.865  1.00  0.00    -0.357 NA 
HETATM    3  H   UNL     1     -11.060  20.179  69.677  1.00  0.00     0.000 HD 
ENDROOT
BRANCH   2   4
HETATM    4  C   UNL     1      -9.249  19.864  68.722  1.00  0.00    -0.103 C  
HETATM    5  C   UNL     1      -8.084  18.870  68.917  1.00  0.00    -0.287 C  
HETATM    6  C   UNL     1      -7.432  18.409  67.622  1.00  0.00    -0.228 C  
HETATM    7  C   UNL     1      -8.444  17.817  66.635  1.00  0.00    -0.283 C  
HETATM    8  C   UNL     1      -9.615  18.760  66.422  1.00  0.00    -0.354 A  
HETATM    9  C   UNL     1      -9.995  19.706  67.393  1.00  0.00    -0.510 A  
HETATM   10  C   UNL     1     -11.063  20.578  67.090  1.00  0.00     1.141 A  
HETATM   11  C   UNL     1     -10.335  18.669  65.214  1.00  0.00     0.729 A  
HETATM   12  C   UNL     1     -11.402  19.519  64.950  1.00  0.00     1.861 A  
HETATM   13  C   UNL     1     -11.765  20.478  65.888  1.00  0.00     2.607 A  
BRANCH   7  14
HETATM   14  C   UNL     1      -8.864  16.378  66.933  1.00  0.00    -0.232 A  
HETATM   15 CL   UNL     1     -12.347  14.396  66.927  1.00  0.00    -0.309 Cl 
HETATM   16  C   UNL     1      -9.774  13.811  67.681  1.00  0.00    -0.227 A  
HETATM   17  C   UNL     1      -8.427  14.150  67.819  1.00  0.00    -0.178 A  
HETATM   18 CL   UNL     1     -10.276  12.251  68.226  1.00  0.00    -0.216 Cl 
HETATM   19  C   UNL     1     -10.211  16.009  66.760  1.00  0.00    -0.275 A  
HETATM   20  C   UNL     1     -10.666  14.739  67.134  1.00  0.00    -0.299 A  
HETATM   21  C   UNL     1      -7.973  15.419  67.438  1.00  0.00    -0.213 A  
ENDBRANCH   7  14
ENDBRANCH   2   4
TORSDOF 2
ENDMDL
MODEL      196
REMARK 921   NORMALIZED FREE ENERGY PREDICTED BY IDOCK:    5.37 KCAL/MOL
REMARK 922        TOTAL FREE ENERGY PREDICTED BY IDOCK:    5.40 KCAL/MOL
REMARK 923 INTER-LIGAND FREE ENERGY PREDICTED BY IDOCK:    5.91 KCAL/MOL
REMARK 924 INTRA-LIGAND FREE ENERGY PREDICTED BY IDOCK:   -0.52 KCAL/MOL
REMARK 927      BINDING AFFINITY PREDICTED BY RF-SCORE:    0.00 PKD
ROOT
HETATM    1  C   UNL     1      -6.735  11.854  69.372  1.00  0.00    -0.081 C  
HETATM    2  N   UNL     1      -7.641  10.770  69.016  1.00  0.00    -0.116 NA 
HETATM    3  H   UNL     1      -7.196   9.864  69.159  1.00  0.00     0.000 HD 
ENDROOT
BRANCH   2   4
HETATM    4  C   UNL     1      -8.935  10.838  69.722  1.00  0.00     0.461 C  
HETATM    5  C   UNL     1     -10.059  10.701  68.672  1.00  0.00    -0.194 C  
HETATM    6  C   UNL     1     -11.350  10.106  69.213  1.00  0.00    -0.211 C  
HETATM    7  C   UNL     1     -11.130   8.754  69.901  1.00  0.00    -0.129 C  
HETATM    8  C   UNL     1     -10.023   8.841  70.936  1.00  0.00    -0.279 A  
HETATM    9  C   UNL     1      -8.998   9.804  70.850  1.00  0.00     0.367 A  
HETATM   10  C   UNL     1      -8.038   9.846  71.884  1.00  0.00     2.584 A  
HETATM   11  C   UNL     1     -10.032   7.922  72.004  1.00  0.00    -0.251 A  
HETATM   12  C   UNL     1      -9.058   7.965  72.995  1.00  0.00    -0.300 A  
HETATM   13  C   UNL     1      -8.062   8.931  72.938  1.00  0.00     0.418 A  
BRANCH   7  14
HETATM   14  C   UNL     1     -10.985   7.567  68.949  1.00  0.00     0.029 A  
HETATM   15 CL   UNL     1      -7.890   5.687  67.232  1.00  0.00    -0.101 Cl 
HETATM   16  C   UNL     1     -10.621   5.537  67.018  1.00  0.00    -0.260 A  
HETATM   17  C   UNL     1     -11.906   5.934  67.391  1.00  0.00     2.284 A  
HETATM   18 CL   UNL     1     -10.470   4.344  65.780  1.00  0.00    -0.257 Cl 
HETATM   19  C   UNL     1      -9.696   7.128  68.595  1.00  0.00    -0.141 A  
HETATM   20  C   UNL     1      -9.512   6.125  67.635  1.00  0.00    -0.111 A  
HETATM   21  C   UNL     1     -12.087   6.933  68.356  1.00  0.00     2.203 A  
ENDBRANCH   7  14
ENDBRANCH   2   4
TORSDOF 2
ENDMDL
MODEL      197
REMARK 921   NORMALIZED FREE ENERGY PREDICTED BY IDOCK:    5.78 KCAL/MOL
REMARK 922        TOTAL FREE ENERGY PREDICTED BY IDOCK:    5.86 KCAL/MOL
REMARK 923 INTER-LIGAND FREE ENERGY PREDICTED BY IDOCK:    6.16 KCAL/MOL
REMARK 924 INTRA-LIGAND FREE ENERGY PREDICTED BY IDOCK:   -0.30 KCAL/MOL
REMARK 927      BINDING AFFINITY PREDICTED BY RF-SCORE:    0.00 PKD
ROOT
HETATM    1  C   UNL     1      -5.987  17.454  70.247  1.00  0.00    -0.013 C  
HETATM    2  N   UNL     1      -5.291  16.174  70.215  1.00  0.00    -0.159 NA 
HETATM    3  H   UNL     1      -4.479  16.188  70.832  1.00  0.00     0.000 HD 
ENDROOT
BRANCH   2   4
HETATM    4  C   UNL     1      -6.167  15.028  70.524  1.00  0.00    -0.049 C  
HETATM    5  C   UNL     1      -7.412  15.564  71.263  1.00  0.00     2.950 C  
HETATM    6  C   UNL     1      -8.660  14.714  71.083  1.00  0.00     3.628 C  
HETATM    7  C   UNL     1      -9.006  14.485  69.608  1.00  0.00     0.456 C  
HETATM    8  C   UNL     1      -7.803  13.966  68.839  1.00  0.00    -0.022 A  
HETATM    9  C   UNL     1      -6.484  14.223  69.259  1.00  0.00    -0.115 A  
HETATM   10  C   UNL     1      -5.427  13.659  68.514  1.00  0.00    -0.092 A  
HETATM   11  C   UNL     1      -8.031  13.211  67.672  1.00  0.00    -0.174 A  
HETATM   12  C   UNL     1      -6.973  12.690  66.937  1.00  0.00     0.260 A  
HETATM   13  C   UNL     1      -5.668  12.910  67.361  1.00  0.00    -0.045 A  
BRANCH   7  14
HETATM   14  C   UNL     1      -9.708  15.657  68.925  1.00  0.00    -0.220 A  
HETATM   15 CL   UNL     1      -9.938  17.003  65.157  1.00  0.00     0.461 Cl 
HETATM   16  C   UNL     1     -10.776  17.916  67.605  1.00  0.00    -0.331 A  
HETATM   17  C   UNL     1     -10.910  17.777  68.987  1.00  0.00     0.352 A  
HETATM   18 CL   UNL     1     -11.386  19.355  66.873  1.00  0.00    -0.025 Cl 
HETATM   19  C   UNL     1      -9.618  15.789  67.527  1.00  0.00    -0.224 A  
HETATM   20  C   UNL     1     -10.141  16.909  66.870  1.00  0.00    -0.289 A  
HETATM   21  C   UNL     1     -10.390  16.653  69.641  1.00  0.00    -0.193 A  
ENDBRANCH   7  14
ENDBRANCH   2   4
TORSDOF 2
ENDMDL
MODEL      198
REMARK 921   NORMALIZED FREE ENERGY PREDICTED BY IDOCK:    8.99 KCAL/MOL
REMARK 922        TOTAL FREE ENERGY PREDICTED BY IDOCK:    9.45 KCAL/MOL
REMARK 923 INTER-LIGAND FREE ENERGY PREDICTED BY IDOCK:    9.78 KCAL/MOL
REMARK 924 INTRA-LIGAND FREE ENERGY PREDICTED BY IDOCK:   -0.33 KCAL/MOL
REMARK 927      BINDING AFFINITY PREDICTED BY RF-SCORE:    0.00 PKD
ROOT
HETATM    1  C   UNL     1     -12.405  12.415  64.171  1.00  0.00    -0.467 C  
HETATM    2  N   UNL     1     -12.052  11.453  63.135  1.00  0.00    -0.857 NA 
HETATM    3  H   UNL     1     -12.237  11.836  62.207  1.00  0.00     0.000 HD 
ENDROOT
BRANCH   2   4
HETATM    4  C   UNL     1     -10.661  10.972  63.237  1.00  0.00    -0.103 C  
HETATM    5  C   UNL     1      -9.722  12.176  63.010  1.00  0.00     0.296 C  
HETATM    6  C   UNL     1      -8.369  12.050  63.693  1.00  0.00     1.980 C  
HETATM    7  C   UNL     1      -8.494  11.780  65.197  1.00  0.00     0.776 C  
HETATM    8  C   UNL     1      -9.419  10.608  65.466  1.00  0.00    -0.261 A  
HETATM    9  C   UNL     1     -10.432  10.235  64.560  1.00  0.00     0.210 A  
HETATM   10  C   UNL     1     -11.213   9.100  64.866  1.00  0.00     6.681 A  
HETATM   11  C   UNL     1      -9.251   9.885  66.663  1.00  0.00    -0.185 A  
HETATM   12  C   UNL     1     -10.053   8.788  66.957  1.00  0.00    -0.335 A  
HETATM   13  C   UNL     1     -11.033   8.392  66.055  1.00  0.00     2.421 A  
BRANCH   7  14
HETATM   14  C   UNL     1      -8.805  13.013  66.045  1.00  0.00     0.437 A  
HETATM   15 CL   UNL     1      -7.890  14.181  69.768  1.00  0.00     0.447 Cl 
HETATM   16  C   UNL     1      -9.510  15.136  67.770  1.00  0.00    -0.194 A  
HETATM   17  C   UNL     1     -10.041  15.067  66.481  1.00  0.00    -0.286 A  
HETATM   18 CL   UNL     1     -10.040  16.419  68.797  1.00  0.00    -0.234 Cl 
HETATM   19  C   UNL     1      -8.244  13.117  67.331  1.00  0.00    -0.187 A  
HETATM   20  C   UNL     1      -8.595  14.165  68.191  1.00  0.00    -0.175 A  
HETATM   21  C   UNL     1      -9.684  14.021  65.622  1.00  0.00    -0.181 A  
ENDBRANCH   7  14
ENDBRANCH   2   4
TORSDOF 2
ENDMDL
MODEL      199
REMARK 921   NORMALIZED FREE ENERGY PREDICTED BY IDOCK:   14.70 KCAL/MOL
REMARK 922        TOTAL FREE ENERGY PREDICTED BY IDOCK:   15.82 KCAL/MOL
REMARK 923 INTER-LIGAND FREE ENERGY PREDICTED BY IDOCK:   15.96 KCAL/MOL
REMARK 924 INTRA-LIGAND FREE ENERGY PREDICTED BY IDOCK:   -0.14 KCAL/MOL
REMARK 927      BINDING AFFINITY PREDICTED BY RF-SCORE:    0.00 PKD
ROOT
HETATM    1  C   UNL     1     -12.156  19.848  70.377  1.00  0.00    10.979 C  
HETATM    2  N   UNL     1     -11.066  19.277  69.596  1.00  0.00     1.621 NA 
HETATM    3  H   UNL     1     -11.403  18.944  68.693  1.00  0.00     0.000 HD 
ENDROOT
BRANCH   2   4
HETATM    4  C   UNL     1      -9.927  20.199  69.425  1.00  0.00     0.054 C  
HETATM    5  C   UNL     1      -8.907  19.911  70.547  1.00  0.00     1.629 C  
HETATM    6  C   UNL     1      -7.468  20.249  70.186  1.00  0.00     0.720 C  
HETATM    7  C   UNL     1      -7.010  19.562  68.895  1.00  0.00    -0.386 C  
HETATM    8  C   UNL     1      -7.994  19.812  67.765  1.00  0.00    -0.334 A  
HETATM    9  C   UNL     1      -9.350  20.101  68.009  1.00  0.00    -0.353 A  
HETATM   10  C   UNL     1     -10.183  20.370  66.902  1.00  0.00    -0.417 A  
HETATM   11  C   UNL     1      -7.520  19.745  66.440  1.00  0.00    -0.297 A  
HETATM   12  C   UNL     1      -8.366  19.986  65.364  1.00  0.00     0.516 A  
HETATM   13  C   UNL     1      -9.698  20.303  65.594  1.00  0.00    -0.054 A  
BRANCH   7  14
HETATM   14  C   UNL     1      -6.622  18.093  69.053  1.00  0.00    -0.253 A  
HETATM   15 CL   UNL     1      -5.133  15.287  66.610  1.00  0.00     1.532 Cl 
HETATM   16  C   UNL     1      -6.090  15.322  69.181  1.00  0.00    -0.102 A  
HETATM   17  C   UNL     1      -6.617  15.991  70.287  1.00  0.00     0.290 A  
HETATM   18 CL   UNL     1      -5.857  13.615  69.302  1.00  0.00    -0.080 Cl 
HETATM   19  C   UNL     1      -6.051  17.415  67.961  1.00  0.00    -0.152 A  
HETATM   20  C   UNL     1      -5.791  16.040  68.019  1.00  0.00    -0.124 A  
HETATM   21  C   UNL     1      -6.871  17.367  70.228  1.00  0.00     1.171 A  
ENDBRANCH   7  14
ENDBRANCH   2   4
TORSDOF 2
ENDMDL
MODEL      200
REMARK 921   NORMALIZED FREE ENERGY PREDICTED BY IDOCK:   72.04 KCAL/MOL
REMARK 922        TOTAL FREE ENERGY PREDICTED BY IDOCK:   79.86 KCAL/MOL
REMARK 923 INTER-LIGAND FREE ENERGY PREDICTED BY IDOCK:   79.50 KCAL/MOL
REMARK 924 INTRA-LIGAND FREE ENERGY PREDICTED BY IDOCK:    0.36 KCAL/MOL
REMARK 927      BINDING AFFINITY PREDICTED BY RF-SCORE:    0.00 PKD
ROOT
HETATM    1  C   UNL     1     -12.038  18.815  68.671  1.00  0.00     5.156 C  
HETATM    2  N   UNL     1     -10.743  19.483  68.657  1.00  0.00    -0.332 NA 
HETATM    3  H   UNL     1      -9.989  18.815  68.821  1.00  0.00     0.000 HD 
ENDROOT
BRANCH   2   4
HETATM    4  C   UNL     1     -10.500  20.257  67.424  1.00  0.00    -0.184 C  
HETATM    5  C   UNL     1      -9.350  19.576  66.652  1.00  0.00    -0.430 C  
HETATM    6  C   UNL     1      -9.394  19.792  65.147  1.00  0.00     1.418 C  
HETATM    7  C   UNL     1     -10.735  19.375  64.533  1.00  0.00     3.421 C  
HETATM    8  C   UNL     1     -11.896  20.016  65.271  1.00  0.00     2.645 A  
HETATM    9  C   UNL     1     -11.792  20.419  66.617  1.00  0.00     2.811 A  
HETATM   10  C   UNL     1     -12.905  21.053  67.209  1.00  0.00     7.481 A  
HETATM   11  C   UNL     1     -13.109  20.201  64.578  1.00  0.00    14.038 A  
HETATM   12  C   UNL     1     -14.201  20.802  65.192  1.00  0.00    15.359 A  
HETATM   13  C   UNL     1     -14.098  21.233  66.508  1.00  0.00     7.433 A  
BRANCH   7  14
HETATM   14  C   UNL     1     -10.901  17.872  64.319  1.00  0.00     3.913 A  
HETATM   15 CL   UNL     1     -10.546  14.632  66.651  1.00  0.00    -0.284 Cl 
HETATM   16  C   UNL     1     -10.959  15.068  63.973  1.00  0.00     0.779 A  
HETATM   17  C   UNL     1     -11.146  15.918  62.882  1.00  0.00     6.473 A  
HETATM   18 CL   UNL     1     -10.934  13.367  63.680  1.00  0.00     0.005 Cl 
HETATM   19  C   UNL     1     -10.757  17.004  65.417  1.00  0.00    -0.126 A  
HETATM   20  C   UNL     1     -10.780  15.614  65.249  1.00  0.00    -0.425 A  
HETATM   21  C   UNL     1     -11.128  17.307  63.054  1.00  0.00    10.353 A  
ENDBRANCH   7  14
ENDBRANCH   2   4
TORSDOF 2
ENDMDL
