MODEL        1
REMARK 921   NORMALIZED FREE ENERGY PREDICTED BY IDOCK:   -4.07 KCAL/MOL
REMARK 922        TOTAL FREE ENERGY PREDICTED BY IDOCK:   -4.34 KCAL/MOL
REMARK 923 INTER-LIGAND FREE ENERGY PREDICTED BY IDOCK:   -4.31 KCAL/MOL
REMARK 924 INTRA-LIGAND FREE ENERGY PREDICTED BY IDOCK:   -0.03 KCAL/MOL
REMARK 927      BINDING AFFINITY PREDICTED BY RF-SCORE:    0.00 PKD
ROOT
HETATM    1  N   UNL     1     -11.482  16.396  63.943  1.00  0.00    -1.618 NA 
HETATM    2  H1  UNL     1     -12.213  17.103  63.853  1.00  0.00     0.000 HD 
HETATM    3 CL   UNL     2     -10.324  16.302  67.430  1.00  0.00    -0.280 Cl 
HETATM    4  C   UNL     1     -12.056  15.120  64.338  1.00  0.00    -0.300 C  
HETATM    5  H2  UNL     1     -10.925  16.315  63.093  1.00  0.00     0.000 HD 
HETATM    6  O   UNL     2     -12.539  15.100  70.313  1.00  0.00    -0.350 OA 
HETATM    7  C   UNL     2     -11.698  15.333  68.016  1.00  0.00    -0.251 C  
HETATM    8  C   UNL     2     -11.433  14.920  69.417  1.00  0.00    -0.299 C  
HETATM    9  C   UNL     2     -11.386  15.924  70.538  1.00  0.00    -0.390 C  
ENDROOT
BRANCH   4  10
HETATM   10  C   UNL     1     -10.986  14.086  64.471  1.00  0.00    -0.361 C  
HETATM   11  C   UNL     1     -11.084  12.825  64.029  1.00  0.00    -0.458 C  
ENDBRANCH   4  10
TORSDOF 1
ENDMDL
MODEL        2
REMARK 921   NORMALIZED FREE ENERGY PREDICTED BY IDOCK:   -3.96 KCAL/MOL
REMARK 922        TOTAL FREE ENERGY PREDICTED BY IDOCK:   -4.22 KCAL/MOL
REMARK 923 INTER-LIGAND FREE ENERGY PREDICTED BY IDOCK:   -4.12 KCAL/MOL
REMARK 924 INTRA-LIGAND FREE ENERGY PREDICTED BY IDOCK:   -0.10 KCAL/MOL
REMARK 927      BINDING AFFINITY PREDICTED BY RF-SCORE:    0.00 PKD
ROOT
HETATM    1  N   UNL     1     -12.513  13.905  63.438  1.00  0.00    -1.110 NA 
HETATM    2  H1  UNL     1     -13.517  14.087  63.441  1.00  0.00     0.000 HD 
HETATM    3 CL   UNL     2     -11.315  13.712  66.907  1.00  0.00    -0.330 Cl 
HETATM    4  C   UNL     1     -12.257  12.475  63.510  1.00  0.00    -0.558 C  
HETATM    5  H2  UNL     1     -12.051  14.333  62.636  1.00  0.00     0.000 HD 
HETATM    6  O   UNL     2     -12.328  10.893  69.292  1.00  0.00    -0.395 OA 
HETATM    7  C   UNL     2     -11.883  12.045  67.168  1.00  0.00    -0.178 C  
HETATM    8  C   UNL     2     -11.359  11.556  68.467  1.00  0.00    -0.277 C  
HETATM    9  C   UNL     2     -11.820  12.145  69.774  1.00  0.00    -0.327 C  
ENDROOT
BRANCH   4  10
HETATM   10  C   UNL     1     -10.787  12.208  63.507  1.00  0.00    -0.518 C  
HETATM   11  C   UNL     1     -10.216  11.075  63.938  1.00  0.00    -0.425 C  
ENDBRANCH   4  10
TORSDOF 1
ENDMDL
MODEL        3
REMARK 921   NORMALIZED FREE ENERGY PREDICTED BY IDOCK:   -3.95 KCAL/MOL
REMARK 922        TOTAL FREE ENERGY PREDICTED BY IDOCK:   -4.21 KCAL/MOL
REMARK 923 INTER-LIGAND FREE ENERGY PREDICTED BY IDOCK:   -4.12 KCAL/MOL
REMARK 924 INTRA-LIGAND FREE ENERGY PREDICTED BY IDOCK:   -0.10 KCAL/MOL
REMARK 927      BINDING AFFINITY PREDICTED BY RF-SCORE:    0.00 PKD
ROOT
HETATM    1  N   UNL     1     -12.498  13.717  63.125  1.00  0.00    -1.074 NA 
HETATM    2  H1  UNL     1     -13.492  13.949  63.103  1.00  0.00     0.000 HD 
HETATM    3 CL   UNL     2     -11.124  14.621  66.412  1.00  0.00    -0.329 Cl 
HETATM    4  C   UNL     1     -12.300  12.381  63.663  1.00  0.00    -0.548 C  
HETATM    5  H2  UNL     1     -12.063  13.826  62.209  1.00  0.00     0.000 HD 
HETATM    6  O   UNL     2     -12.126  12.821  69.639  1.00  0.00    -0.289 OA 
HETATM    7  C   UNL     2     -11.748  13.172  67.237  1.00  0.00    -0.374 C  
HETATM    8  C   UNL     2     -11.176  13.113  68.605  1.00  0.00    -0.276 C  
HETATM    9  C   UNL     2     -11.540  14.130  69.655  1.00  0.00    -0.292 C  
ENDROOT
BRANCH   4  10
HETATM   10  C   UNL     1     -10.846  12.042  63.696  1.00  0.00    -0.510 C  
HETATM   11  C   UNL     1     -10.309  11.049  64.418  1.00  0.00    -0.424 C  
ENDBRANCH   4  10
TORSDOF 1
ENDMDL
MODEL        4
REMARK 921   NORMALIZED FREE ENERGY PREDICTED BY IDOCK:   -3.94 KCAL/MOL
REMARK 922        TOTAL FREE ENERGY PREDICTED BY IDOCK:   -4.20 KCAL/MOL
REMARK 923 INTER-LIGAND FREE ENERGY PREDICTED BY IDOCK:   -4.16 KCAL/MOL
REMARK 924 INTRA-LIGAND FREE ENERGY PREDICTED BY IDOCK:   -0.04 KCAL/MOL
REMARK 927      BINDING AFFINITY PREDICTED BY RF-SCORE:    0.00 PKD
ROOT
HETATM    1  N   UNL     1      -8.487  17.991  65.984  1.00  0.00    -0.515 NA 
HETATM    2  H1  UNL     1      -7.595  17.502  65.902  1.00  0.00     0.000 HD 
HETATM    3 CL   UNL     2     -11.154  15.860  64.622  1.00  0.00    -0.451 Cl 
HETATM    4  C   UNL     1      -9.150  17.633  67.228  1.00  0.00    -0.237 C  
HETATM    5  H2  UNL     1      -8.378  19.000  65.889  1.00  0.00     0.000 HD 
HETATM    6  O   UNL     2     -12.229  12.579  66.276  1.00  0.00    -0.600 OA 
HETATM    7  C   UNL     2     -11.283  14.837  66.073  1.00  0.00    -0.341 C  
HETATM    8  C   UNL     2     -12.465  13.952  65.934  1.00  0.00    -0.481 C  
HETATM    9  C   UNL     2     -12.515  12.860  64.898  1.00  0.00    -0.478 C  
ENDROOT
BRANCH   4  10
HETATM   10  C   UNL     1     -10.456  18.348  67.348  1.00  0.00    -0.443 C  
HETATM   11  C   UNL     1     -10.623  19.665  67.177  1.00  0.00    -0.611 C  
ENDBRANCH   4  10
TORSDOF 1
ENDMDL
MODEL        5
REMARK 921   NORMALIZED FREE ENERGY PREDICTED BY IDOCK:   -3.83 KCAL/MOL
REMARK 922        TOTAL FREE ENERGY PREDICTED BY IDOCK:   -4.09 KCAL/MOL
REMARK 923 INTER-LIGAND FREE ENERGY PREDICTED BY IDOCK:   -4.02 KCAL/MOL
REMARK 924 INTRA-LIGAND FREE ENERGY PREDICTED BY IDOCK:   -0.07 KCAL/MOL
REMARK 927      BINDING AFFINITY PREDICTED BY RF-SCORE:    0.00 PKD
ROOT
HETATM    1  N   UNL     1     -12.402  13.363  62.837  1.00  0.00    -0.882 NA 
HETATM    2  H1  UNL     1     -13.313  13.783  62.653  1.00  0.00     0.000 HD 
HETATM    3 CL   UNL     2     -10.679  15.315  65.431  1.00  0.00    -0.375 Cl 
HETATM    4  C   UNL     1     -12.493  12.413  63.935  1.00  0.00    -0.476 C  
HETATM    5  H2  UNL     1     -12.003  12.938  62.000  1.00  0.00     0.000 HD 
HETATM    6  O   UNL     2     -11.899  15.470  69.057  1.00  0.00    -0.361 OA 
HETATM    7  C   UNL     2     -11.579  14.590  66.785  1.00  0.00    -0.376 C  
HETATM    8  C   UNL     2     -10.964  15.030  68.062  1.00  0.00    -0.284 C  
HETATM    9  C   UNL     2     -11.022  16.466  68.511  1.00  0.00    -0.350 C  
ENDROOT
BRANCH   4  10
HETATM   10  C   UNL     1     -11.159  11.798  64.205  1.00  0.00    -0.442 C  
HETATM   11  C   UNL     1     -10.130  11.799  63.347  1.00  0.00    -0.470 C  
ENDBRANCH   4  10
TORSDOF 1
ENDMDL
MODEL        6
REMARK 921   NORMALIZED FREE ENERGY PREDICTED BY IDOCK:   -3.83 KCAL/MOL
REMARK 922        TOTAL FREE ENERGY PREDICTED BY IDOCK:   -4.08 KCAL/MOL
REMARK 923 INTER-LIGAND FREE ENERGY PREDICTED BY IDOCK:   -4.05 KCAL/MOL
REMARK 924 INTRA-LIGAND FREE ENERGY PREDICTED BY IDOCK:   -0.03 KCAL/MOL
REMARK 927      BINDING AFFINITY PREDICTED BY RF-SCORE:    0.00 PKD
ROOT
HETATM    1  N   UNL     1     -14.250  13.637  72.570  1.00  0.00    -0.726 NA 
HETATM    2  H1  UNL     1     -15.160  13.367  72.198  1.00  0.00     0.000 HD 
HETATM    3 CL   UNL     2     -11.674  13.012  70.024  1.00  0.00    -0.332 Cl 
HETATM    4  C   UNL     1     -13.943  15.013  72.215  1.00  0.00    -0.509 C  
HETATM    5  H2  UNL     1     -14.190  13.483  73.576  1.00  0.00     0.000 HD 
HETATM    6  O   UNL     2     -11.479  14.988  66.750  1.00  0.00    -0.330 OA 
HETATM    7  C   UNL     2     -12.024  14.489  69.094  1.00  0.00    -0.309 C  
HETATM    8  C   UNL     2     -10.979  14.662  68.054  1.00  0.00    -0.267 C  
HETATM    9  C   UNL     2     -10.852  13.706  66.898  1.00  0.00    -0.283 C  
ENDROOT
BRANCH   4  10
HETATM   10  C   UNL     1     -12.610  15.409  72.760  1.00  0.00    -0.500 C  
HETATM   11  C   UNL     1     -12.338  15.584  74.060  1.00  0.00    -0.791 C  
ENDBRANCH   4  10
TORSDOF 1
ENDMDL
MODEL        7
REMARK 921   NORMALIZED FREE ENERGY PREDICTED BY IDOCK:   -3.75 KCAL/MOL
REMARK 922        TOTAL FREE ENERGY PREDICTED BY IDOCK:   -4.00 KCAL/MOL
REMARK 923 INTER-LIGAND FREE ENERGY PREDICTED BY IDOCK:   -3.97 KCAL/MOL
REMARK 924 INTRA-LIGAND FREE ENERGY PREDICTED BY IDOCK:   -0.03 KCAL/MOL
REMARK 927      BINDING AFFINITY PREDICTED BY RF-SCORE:    0.00 PKD
ROOT
HETATM    1  N   UNL     1     -12.333  14.725  69.693  1.00  0.00    -0.517 NA 
HETATM    2  H1  UNL     1     -13.329  14.910  69.819  1.00  0.00     0.000 HD 
HETATM    3 CL   UNL     2     -11.880  12.501  66.802  1.00  0.00    -0.453 Cl 
HETATM    4  C   UNL     1     -11.752  15.679  68.762  1.00  0.00    -0.370 C  
HETATM    5  H2  UNL     1     -11.834  14.711  70.582  1.00  0.00     0.000 HD 
HETATM    6  O   UNL     2     -12.641  13.593  63.212  1.00  0.00    -0.816 OA 
HETATM    7  C   UNL     2     -12.060  13.793  65.592  1.00  0.00    -0.418 C  
HETATM    8  C   UNL     2     -11.716  13.250  64.254  1.00  0.00    -0.407 C  
HETATM    9  C   UNL     2     -12.571  12.208  63.583  1.00  0.00    -0.504 C  
ENDROOT
BRANCH   4  10
HETATM   10  C   UNL     1     -10.295  15.407  68.577  1.00  0.00    -0.226 C  
HETATM   11  C   UNL     1      -9.343  15.713  69.468  1.00  0.00    -0.263 C  
ENDBRANCH   4  10
TORSDOF 1
ENDMDL
MODEL        8
REMARK 921   NORMALIZED FREE ENERGY PREDICTED BY IDOCK:   -3.75 KCAL/MOL
REMARK 922        TOTAL FREE ENERGY PREDICTED BY IDOCK:   -4.00 KCAL/MOL
REMARK 923 INTER-LIGAND FREE ENERGY PREDICTED BY IDOCK:   -3.93 KCAL/MOL
REMARK 924 INTRA-LIGAND FREE ENERGY PREDICTED BY IDOCK:   -0.07 KCAL/MOL
REMARK 927      BINDING AFFINITY PREDICTED BY RF-SCORE:    0.00 PKD
ROOT
HETATM    1  N   UNL     1     -14.109  15.560  70.857  1.00  0.00    -0.845 NA 
HETATM    2  H1  UNL     1     -14.767  15.499  70.080  1.00  0.00     0.000 HD 
HETATM    3 CL   UNL     2     -13.457  12.182  72.150  1.00  0.00    -0.531 Cl 
HETATM    4  C   UNL     1     -12.745  15.394  70.381  1.00  0.00    -0.362 C  
HETATM    5  H2  UNL     1     -14.224  16.425  71.385  1.00  0.00     0.000 HD 
HETATM    6  O   UNL     2     -11.597   9.516  70.129  1.00  0.00    -0.215 OA 
HETATM    7  C   UNL     2     -12.305  11.751  70.864  1.00  0.00    -0.320 C  
HETATM    8  C   UNL     2     -11.662  10.458  71.208  1.00  0.00    -0.231 C  
HETATM    9  C   UNL     2     -12.444   9.172  71.234  1.00  0.00    -0.300 C  
ENDROOT
BRANCH   4  10
HETATM   10  C   UNL     1     -11.781  15.483  71.518  1.00  0.00    -0.479 C  
HETATM   11  C   UNL     1     -12.035  16.083  72.689  1.00  0.00    -0.646 C  
ENDBRANCH   4  10
TORSDOF 1
ENDMDL
MODEL        9
REMARK 921   NORMALIZED FREE ENERGY PREDICTED BY IDOCK:   -3.72 KCAL/MOL
REMARK 922        TOTAL FREE ENERGY PREDICTED BY IDOCK:   -3.97 KCAL/MOL
REMARK 923 INTER-LIGAND FREE ENERGY PREDICTED BY IDOCK:   -3.94 KCAL/MOL
REMARK 924 INTRA-LIGAND FREE ENERGY PREDICTED BY IDOCK:   -0.03 KCAL/MOL
REMARK 927      BINDING AFFINITY PREDICTED BY RF-SCORE:    0.00 PKD
ROOT
HETATM    1  N   UNL     1     -10.524  11.119  69.764  1.00  0.00    -0.437 NA 
HETATM    2  H1  UNL     1     -10.441  10.108  69.646  1.00  0.00     0.000 HD 
HETATM    3 CL   UNL     2     -10.309  12.734  66.470  1.00  0.00    -0.256 Cl 
HETATM    4  C   UNL     1     -11.910  11.535  69.624  1.00  0.00    -0.354 C  
HETATM    5  H2  UNL     1     -10.120  11.432  70.646  1.00  0.00     0.000 HD 
HETATM    6  O   UNL     2     -13.007  12.323  63.784  1.00  0.00    -0.766 OA 
HETATM    7  C   UNL     2     -11.997  12.385  66.023  1.00  0.00    -0.350 C  
HETATM    8  C   UNL     2     -12.322  13.109  64.769  1.00  0.00    -0.423 C  
HETATM    9  C   UNL     2     -11.675  12.746  63.459  1.00  0.00    -0.530 C  
ENDROOT
BRANCH   4  10
HETATM   10  C   UNL     1     -12.031  13.013  69.796  1.00  0.00    -0.377 C  
HETATM   11  C   UNL     1     -12.361  13.625  70.941  1.00  0.00    -0.450 C  
ENDBRANCH   4  10
TORSDOF 1
ENDMDL
MODEL       10
REMARK 921   NORMALIZED FREE ENERGY PREDICTED BY IDOCK:   -3.72 KCAL/MOL
REMARK 922        TOTAL FREE ENERGY PREDICTED BY IDOCK:   -3.97 KCAL/MOL
REMARK 923 INTER-LIGAND FREE ENERGY PREDICTED BY IDOCK:   -3.93 KCAL/MOL
REMARK 924 INTRA-LIGAND FREE ENERGY PREDICTED BY IDOCK:   -0.03 KCAL/MOL
REMARK 927      BINDING AFFINITY PREDICTED BY RF-SCORE:    0.00 PKD
ROOT
HETATM    1  N   UNL     1     -14.125   8.861  73.221  1.00  0.00    -1.248 NA 
HETATM    2  H1  UNL     1     -14.939   8.248  73.285  1.00  0.00     0.000 HD 
HETATM    3 CL   UNL     2     -11.118   6.818  72.682  1.00  0.00    -0.288 Cl 
HETATM    4  C   UNL     1     -13.859   9.210  71.835  1.00  0.00    -0.395 C  
HETATM    5  H2  UNL     1     -14.227   9.689  73.808  1.00  0.00     0.000 HD 
HETATM    6  O   UNL     2     -10.507   4.846  69.459  1.00  0.00    -0.188 OA 
HETATM    7  C   UNL     2     -11.407   6.586  70.941  1.00  0.00    -0.337 C  
HETATM    8  C   UNL     2     -10.214   5.940  70.338  1.00  0.00    -0.213 C  
HETATM    9  C   UNL     2      -9.827   4.526  70.681  1.00  0.00    -0.222 C  
ENDROOT
BRANCH   4  10
HETATM   10  C   UNL     1     -12.669  10.107  71.742  1.00  0.00    -0.534 C  
HETATM   11  C   UNL     1     -12.517  11.084  70.838  1.00  0.00    -0.509 C  
ENDBRANCH   4  10
TORSDOF 1
ENDMDL
MODEL       11
REMARK 921   NORMALIZED FREE ENERGY PREDICTED BY IDOCK:   -3.72 KCAL/MOL
REMARK 922        TOTAL FREE ENERGY PREDICTED BY IDOCK:   -3.96 KCAL/MOL
REMARK 923 INTER-LIGAND FREE ENERGY PREDICTED BY IDOCK:   -3.94 KCAL/MOL
REMARK 924 INTRA-LIGAND FREE ENERGY PREDICTED BY IDOCK:   -0.03 KCAL/MOL
REMARK 927      BINDING AFFINITY PREDICTED BY RF-SCORE:    0.00 PKD
ROOT
HETATM    1  N   UNL     1      -9.827  10.796  69.599  1.00  0.00    -0.438 NA 
HETATM    2  H1  UNL     1      -9.179  10.193  69.091  1.00  0.00     0.000 HD 
HETATM    3 CL   UNL     2     -10.710  13.668  67.482  1.00  0.00    -0.261 Cl 
HETATM    4  C   UNL     1     -11.202  10.437  69.291  1.00  0.00    -0.248 C  
HETATM    5  H2  UNL     1      -9.647  10.786  70.603  1.00  0.00     0.000 HD 
HETATM    6  O   UNL     2     -12.769  13.317  64.273  1.00  0.00    -0.642 OA 
HETATM    7  C   UNL     2     -11.899  12.772  66.506  1.00  0.00    -0.405 C  
HETATM    8  C   UNL     2     -12.630  13.730  65.640  1.00  0.00    -0.509 C  
HETATM    9  C   UNL     2     -11.942  14.463  64.519  1.00  0.00    -0.472 C  
ENDROOT
BRANCH   4  10
HETATM   10  C   UNL     1     -12.151  11.319  70.035  1.00  0.00    -0.425 C  
HETATM   11  C   UNL     1     -12.661  11.045  71.242  1.00  0.00    -0.537 C  
ENDBRANCH   4  10
TORSDOF 1
ENDMDL
MODEL       12
REMARK 921   NORMALIZED FREE ENERGY PREDICTED BY IDOCK:   -3.71 KCAL/MOL
REMARK 922        TOTAL FREE ENERGY PREDICTED BY IDOCK:   -3.95 KCAL/MOL
REMARK 923 INTER-LIGAND FREE ENERGY PREDICTED BY IDOCK:   -3.87 KCAL/MOL
REMARK 924 INTRA-LIGAND FREE ENERGY PREDICTED BY IDOCK:   -0.08 KCAL/MOL
REMARK 927      BINDING AFFINITY PREDICTED BY RF-SCORE:    0.00 PKD
ROOT
HETATM    1  N   UNL     1     -12.398  14.647  63.828  1.00  0.00    -1.092 NA 
HETATM    2  H1  UNL     1     -13.070  15.364  63.554  1.00  0.00     0.000 HD 
HETATM    3 CL   UNL     2      -9.676  16.215  65.736  1.00  0.00    -0.358 Cl 
HETATM    4  C   UNL     1     -12.718  14.128  65.148  1.00  0.00    -0.364 C  
HETATM    5  H2  UNL     1     -12.332  13.903  63.133  1.00  0.00     0.000 HD 
HETATM    6  O   UNL     2     -10.200  17.756  69.201  1.00  0.00    -0.346 OA 
HETATM    7  C   UNL     2     -10.595  16.306  67.258  1.00  0.00    -0.298 C  
HETATM    8  C   UNL     2      -9.680  16.727  68.348  1.00  0.00    -0.247 C  
HETATM    9  C   UNL     2      -9.076  18.106  68.381  1.00  0.00    -0.307 C  
ENDROOT
BRANCH   4  10
HETATM   10  C   UNL     1     -11.734  13.079  65.549  1.00  0.00    -0.408 C  
HETATM   11  C   UNL     1     -11.704  12.477  66.746  1.00  0.00    -0.453 C  
ENDBRANCH   4  10
TORSDOF 1
ENDMDL
MODEL       13
REMARK 921   NORMALIZED FREE ENERGY PREDICTED BY IDOCK:   -3.67 KCAL/MOL
REMARK 922        TOTAL FREE ENERGY PREDICTED BY IDOCK:   -3.91 KCAL/MOL
REMARK 923 INTER-LIGAND FREE ENERGY PREDICTED BY IDOCK:   -3.81 KCAL/MOL
REMARK 924 INTRA-LIGAND FREE ENERGY PREDICTED BY IDOCK:   -0.10 KCAL/MOL
REMARK 927      BINDING AFFINITY PREDICTED BY RF-SCORE:    0.00 PKD
ROOT
HETATM    1  N   UNL     1      -9.087  15.025  69.551  1.00  0.00    -0.438 NA 
HETATM    2  H1  UNL     1      -8.784  14.114  69.895  1.00  0.00     0.000 HD 
HETATM    3 CL   UNL     2     -10.015  14.723  66.007  1.00  0.00    -0.315 Cl 
HETATM    4  C   UNL     1     -10.529  15.163  69.681  1.00  0.00    -0.250 C  
HETATM    5  H2  UNL     1      -8.590  15.789  70.008  1.00  0.00     0.000 HD 
HETATM    6  O   UNL     2     -13.049  12.708  64.828  1.00  0.00    -0.852 OA 
HETATM    7  C   UNL     2     -11.617  14.020  66.333  1.00  0.00    -0.369 C  
HETATM    8  C   UNL     2     -12.382  13.956  65.063  1.00  0.00    -0.430 C  
HETATM    9  C   UNL     2     -11.971  13.039  63.941  1.00  0.00    -0.485 C  
ENDROOT
BRANCH   4  10
HETATM   10  C   UNL     1     -10.973  16.497  69.176  1.00  0.00    -0.303 C  
HETATM   11  C   UNL     1     -10.186  17.372  68.536  1.00  0.00    -0.369 C  
ENDBRANCH   4  10
TORSDOF 1
ENDMDL
MODEL       14
REMARK 921   NORMALIZED FREE ENERGY PREDICTED BY IDOCK:   -3.64 KCAL/MOL
REMARK 922        TOTAL FREE ENERGY PREDICTED BY IDOCK:   -3.89 KCAL/MOL
REMARK 923 INTER-LIGAND FREE ENERGY PREDICTED BY IDOCK:   -3.80 KCAL/MOL
REMARK 924 INTRA-LIGAND FREE ENERGY PREDICTED BY IDOCK:   -0.08 KCAL/MOL
REMARK 927      BINDING AFFINITY PREDICTED BY RF-SCORE:    0.00 PKD
ROOT
HETATM    1  N   UNL     1     -10.138  13.377  64.134  1.00  0.00    -0.779 NA 
HETATM    2  H1  UNL     1      -9.370  14.002  64.381  1.00  0.00     0.000 HD 
HETATM    3 CL   UNL     2     -10.572  10.888  66.803  1.00  0.00    -0.305 Cl 
HETATM    4  C   UNL     1     -11.388  13.863  64.696  1.00  0.00    -0.375 C  
HETATM    5  H2  UNL     1     -10.205  13.237  63.126  1.00  0.00     0.000 HD 
HETATM    6  O   UNL     2     -11.790  11.811  70.314  1.00  0.00    -0.329 OA 
HETATM    7  C   UNL     2     -11.465  11.985  67.885  1.00  0.00    -0.330 C  
HETATM    8  C   UNL     2     -11.995  11.205  69.030  1.00  0.00    -0.320 C  
HETATM    9  C   UNL     2     -11.080  10.591  70.056  1.00  0.00    -0.308 C  
ENDROOT
BRANCH   4  10
HETATM   10  C   UNL     1     -12.513  12.949  64.335  1.00  0.00    -0.447 C  
HETATM   11  C   UNL     1     -12.425  11.939  63.459  1.00  0.00    -0.609 C  
ENDBRANCH   4  10
TORSDOF 1
ENDMDL
MODEL       15
REMARK 921   NORMALIZED FREE ENERGY PREDICTED BY IDOCK:   -3.63 KCAL/MOL
REMARK 922        TOTAL FREE ENERGY PREDICTED BY IDOCK:   -3.87 KCAL/MOL
REMARK 923 INTER-LIGAND FREE ENERGY PREDICTED BY IDOCK:   -3.83 KCAL/MOL
REMARK 924 INTRA-LIGAND FREE ENERGY PREDICTED BY IDOCK:   -0.05 KCAL/MOL
REMARK 927      BINDING AFFINITY PREDICTED BY RF-SCORE:    0.00 PKD
ROOT
HETATM    1  N   UNL     1     -10.328  13.586  64.088  1.00  0.00    -0.708 NA 
HETATM    2  H1  UNL     1     -10.078  13.766  63.115  1.00  0.00     0.000 HD 
HETATM    3 CL   UNL     2      -9.131  16.366  66.173  1.00  0.00    -0.357 Cl 
HETATM    4  C   UNL     1     -11.608  14.198  64.406  1.00  0.00    -0.362 C  
HETATM    5  H2  UNL     1     -10.320  12.589  64.303  1.00  0.00     0.000 HD 
HETATM    6  O   UNL     2     -10.578  19.902  65.936  1.00  0.00    -0.496 OA 
HETATM    7  C   UNL     2     -10.476  17.454  65.756  1.00  0.00    -0.215 C  
HETATM    8  C   UNL     2     -10.410  18.655  66.624  1.00  0.00    -0.415 C  
HETATM    9  C   UNL     2      -9.287  19.651  66.508  1.00  0.00    -0.384 C  
ENDROOT
BRANCH   4  10
HETATM   10  C   UNL     1     -11.973  13.934  65.830  1.00  0.00    -0.419 C  
HETATM   11  C   UNL     1     -11.790  12.767  66.461  1.00  0.00    -0.471 C  
ENDBRANCH   4  10
TORSDOF 1
ENDMDL
MODEL       16
REMARK 921   NORMALIZED FREE ENERGY PREDICTED BY IDOCK:   -3.60 KCAL/MOL
REMARK 922        TOTAL FREE ENERGY PREDICTED BY IDOCK:   -3.84 KCAL/MOL
REMARK 923 INTER-LIGAND FREE ENERGY PREDICTED BY IDOCK:   -3.76 KCAL/MOL
REMARK 924 INTRA-LIGAND FREE ENERGY PREDICTED BY IDOCK:   -0.08 KCAL/MOL
REMARK 927      BINDING AFFINITY PREDICTED BY RF-SCORE:    0.00 PKD
ROOT
HETATM    1  N   UNL     1     -13.036  12.671  64.740  1.00  0.00    -0.867 NA 
HETATM    2  H1  UNL     1     -13.890  12.807  65.282  1.00  0.00     0.000 HD 
HETATM    3 CL   UNL     2     -11.223  15.861  64.531  1.00  0.00    -0.418 Cl 
HETATM    4  C   UNL     1     -11.921  12.357  65.620  1.00  0.00    -0.386 C  
HETATM    5  H2  UNL     1     -13.156  11.967  64.013  1.00  0.00     0.000 HD 
HETATM    6  O   UNL     2      -9.618  17.533  67.580  1.00  0.00    -0.258 OA 
HETATM    7  C   UNL     2     -10.520  15.739  66.162  1.00  0.00    -0.317 C  
HETATM    8  C   UNL     2      -9.520  16.822  66.338  1.00  0.00    -0.282 C  
HETATM    9  C   UNL     2      -9.928  18.270  66.389  1.00  0.00    -0.380 C  
ENDROOT
BRANCH   4  10
HETATM   10  C   UNL     1     -10.671  12.158  64.827  1.00  0.00    -0.342 C  
HETATM   11  C   UNL     1     -10.623  12.039  63.494  1.00  0.00    -0.514 C  
ENDBRANCH   4  10
TORSDOF 1
ENDMDL
MODEL       17
REMARK 921   NORMALIZED FREE ENERGY PREDICTED BY IDOCK:   -3.55 KCAL/MOL
REMARK 922        TOTAL FREE ENERGY PREDICTED BY IDOCK:   -3.79 KCAL/MOL
REMARK 923 INTER-LIGAND FREE ENERGY PREDICTED BY IDOCK:   -3.69 KCAL/MOL
REMARK 924 INTRA-LIGAND FREE ENERGY PREDICTED BY IDOCK:   -0.10 KCAL/MOL
REMARK 927      BINDING AFFINITY PREDICTED BY RF-SCORE:    0.00 PKD
ROOT
HETATM    1  N   UNL     1     -10.569  13.946  69.382  1.00  0.00    -0.444 NA 
HETATM    2  H1  UNL     1     -10.290  13.345  68.605  1.00  0.00     0.000 HD 
HETATM    3 CL   UNL     2      -9.347  17.357  68.764  1.00  0.00    -0.270 Cl 
HETATM    4  C   UNL     1     -11.839  14.593  69.093  1.00  0.00    -0.312 C  
HETATM    5  H2  UNL     1     -10.595  13.437  70.265  1.00  0.00     0.000 HD 
HETATM    6  O   UNL     2     -10.687  19.553  65.930  1.00  0.00    -0.483 OA 
HETATM    7  C   UNL     2     -10.650  17.777  67.628  1.00  0.00    -0.379 C  
HETATM    8  C   UNL     2     -10.572  19.228  67.322  1.00  0.00    -0.484 C  
HETATM    9  C   UNL     2      -9.418  19.808  66.548  1.00  0.00    -0.403 C  
ENDROOT
BRANCH   4  10
HETATM   10  C   UNL     1     -12.247  15.472  70.229  1.00  0.00    -0.432 C  
HETATM   11  C   UNL     1     -11.477  15.759  71.287  1.00  0.00    -0.481 C  
ENDBRANCH   4  10
TORSDOF 1
ENDMDL
MODEL       18
REMARK 921   NORMALIZED FREE ENERGY PREDICTED BY IDOCK:   -3.55 KCAL/MOL
REMARK 922        TOTAL FREE ENERGY PREDICTED BY IDOCK:   -3.78 KCAL/MOL
REMARK 923 INTER-LIGAND FREE ENERGY PREDICTED BY IDOCK:   -3.76 KCAL/MOL
REMARK 924 INTRA-LIGAND FREE ENERGY PREDICTED BY IDOCK:   -0.03 KCAL/MOL
REMARK 927      BINDING AFFINITY PREDICTED BY RF-SCORE:    0.00 PKD
ROOT
HETATM    1  N   UNL     1      -8.633  19.266  68.716  1.00  0.00    -0.360 NA 
HETATM    2  H1  UNL     1      -8.734  18.833  69.634  1.00  0.00     0.000 HD 
HETATM    3 CL   UNL     2      -8.601  16.640  66.145  1.00  0.00    -0.354 Cl 
HETATM    4  C   UNL     1      -9.939  19.512  68.125  1.00  0.00    -0.418 C  
HETATM    5  H2  UNL     1      -8.069  20.115  68.756  1.00  0.00     0.000 HD 
HETATM    6  O   UNL     2     -11.666  14.488  65.348  1.00  0.00    -0.350 OA 
HETATM    7  C   UNL     2     -10.368  16.419  66.137  1.00  0.00    -0.344 C  
HETATM    8  C   UNL     2     -10.736  15.526  65.010  1.00  0.00    -0.441 C  
HETATM    9  C   UNL     2     -10.339  14.074  64.993  1.00  0.00    -0.409 C  
ENDROOT
BRANCH   4  10
HETATM   10  C   UNL     1      -9.792  20.145  66.780  1.00  0.00    -0.591 C  
HETATM   11  C   UNL     1     -10.561  19.871  65.718  1.00  0.00    -0.490 C  
ENDBRANCH   4  10
TORSDOF 1
ENDMDL
MODEL       19
REMARK 921   NORMALIZED FREE ENERGY PREDICTED BY IDOCK:   -3.53 KCAL/MOL
REMARK 922        TOTAL FREE ENERGY PREDICTED BY IDOCK:   -3.77 KCAL/MOL
REMARK 923 INTER-LIGAND FREE ENERGY PREDICTED BY IDOCK:   -3.67 KCAL/MOL
REMARK 924 INTRA-LIGAND FREE ENERGY PREDICTED BY IDOCK:   -0.10 KCAL/MOL
REMARK 927      BINDING AFFINITY PREDICTED BY RF-SCORE:    0.00 PKD
ROOT
HETATM    1  N   UNL     1     -11.485  16.637  70.734  1.00  0.00    -0.464 NA 
HETATM    2  H1  UNL     1     -10.486  16.789  70.872  1.00  0.00     0.000 HD 
HETATM    3 CL   UNL     2     -11.969  13.752  68.510  1.00  0.00    -0.405 Cl 
HETATM    4  C   UNL     1     -11.994  15.684  71.707  1.00  0.00    -0.440 C  
HETATM    5  H2  UNL     1     -12.008  17.513  70.752  1.00  0.00     0.000 HD 
HETATM    6  O   UNL     2     -11.062  10.176  69.533  1.00  0.00    -0.230 OA 
HETATM    7  C   UNL     2     -11.695  12.537  69.782  1.00  0.00    -0.285 C  
HETATM    8  C   UNL     2     -12.029  11.195  69.245  1.00  0.00    -0.351 C  
HETATM    9  C   UNL     2     -11.208  10.554  68.157  1.00  0.00    -0.293 C  
ENDROOT
BRANCH   4  10
HETATM   10  C   UNL     1     -13.457  15.462  71.504  1.00  0.00    -0.601 C  
HETATM   11  C   UNL     1     -14.135  14.393  71.941  1.00  0.00    -0.596 C  
ENDBRANCH   4  10
TORSDOF 1
ENDMDL
MODEL       20
REMARK 921   NORMALIZED FREE ENERGY PREDICTED BY IDOCK:   -3.48 KCAL/MOL
REMARK 922        TOTAL FREE ENERGY PREDICTED BY IDOCK:   -3.71 KCAL/MOL
REMARK 923 INTER-LIGAND FREE ENERGY PREDICTED BY IDOCK:   -3.62 KCAL/MOL
REMARK 924 INTRA-LIGAND FREE ENERGY PREDICTED BY IDOCK:   -0.09 KCAL/MOL
REMARK 927      BINDING AFFINITY PREDICTED BY RF-SCORE:    0.00 PKD
ROOT
HETATM    1  N   UNL     1      -8.824  11.162  63.922  1.00  0.00    -0.389 NA 
HETATM    2  H1  UNL     1      -7.943  11.391  63.462  1.00  0.00     0.000 HD 
HETATM    3 CL   UNL     2      -9.659  13.818  66.320  1.00  0.00    -0.286 Cl 
HETATM    4  C   UNL     1      -9.940  11.766  63.211  1.00  0.00    -0.410 C  
HETATM    5  H2  UNL     1      -8.945  10.155  64.030  1.00  0.00     0.000 HD 
HETATM    6  O   UNL     2     -10.574  17.373  65.234  1.00  0.00    -0.667 OA 
HETATM    7  C   UNL     2     -10.290  14.937  65.088  1.00  0.00    -0.401 C  
HETATM    8  C   UNL     2     -10.930  16.091  65.768  1.00  0.00    -0.140 C  
HETATM    9  C   UNL     2     -10.123  17.082  66.564  1.00  0.00    -0.314 C  
ENDROOT
BRANCH   4  10
HETATM   10  C   UNL     1     -11.231  11.431  63.884  1.00  0.00    -0.364 C  
HETATM   11  C   UNL     1     -12.401  12.030  63.631  1.00  0.00    -0.648 C  
ENDBRANCH   4  10
TORSDOF 1
ENDMDL
MODEL       21
REMARK 921   NORMALIZED FREE ENERGY PREDICTED BY IDOCK:   -3.48 KCAL/MOL
REMARK 922        TOTAL FREE ENERGY PREDICTED BY IDOCK:   -3.71 KCAL/MOL
REMARK 923 INTER-LIGAND FREE ENERGY PREDICTED BY IDOCK:   -3.61 KCAL/MOL
REMARK 924 INTRA-LIGAND FREE ENERGY PREDICTED BY IDOCK:   -0.10 KCAL/MOL
REMARK 927      BINDING AFFINITY PREDICTED BY RF-SCORE:    0.00 PKD
ROOT
HETATM    1  N   UNL     1     -10.374  11.442  68.927  1.00  0.00    -0.275 NA 
HETATM    2  H1  UNL     1      -9.507  11.249  69.430  1.00  0.00     0.000 HD 
HETATM    3 CL   UNL     2     -12.763  13.043  71.215  1.00  0.00    -0.436 Cl 
HETATM    4  C   UNL     1     -10.351  12.787  68.374  1.00  0.00    -0.243 C  
HETATM    5  H2  UNL     1     -10.561  10.741  68.211  1.00  0.00     0.000 HD 
HETATM    6  O   UNL     2     -12.224  16.554  72.645  1.00  0.00    -0.450 OA 
HETATM    7  C   UNL     2     -12.025  14.658  71.094  1.00  0.00    -0.346 C  
HETATM    8  C   UNL     2     -12.905  15.642  71.772  1.00  0.00    -0.458 C  
HETATM    9  C   UNL     2     -13.115  15.615  73.263  1.00  0.00    -0.564 C  
ENDROOT
BRANCH   4  10
HETATM   10  C   UNL     1     -11.619  13.070  67.638  1.00  0.00    -0.403 C  
HETATM   11  C   UNL     1     -12.027  14.289  67.261  1.00  0.00    -0.439 C  
ENDBRANCH   4  10
TORSDOF 1
ENDMDL
MODEL       22
REMARK 921   NORMALIZED FREE ENERGY PREDICTED BY IDOCK:   -3.45 KCAL/MOL
REMARK 922        TOTAL FREE ENERGY PREDICTED BY IDOCK:   -3.69 KCAL/MOL
REMARK 923 INTER-LIGAND FREE ENERGY PREDICTED BY IDOCK:   -3.66 KCAL/MOL
REMARK 924 INTRA-LIGAND FREE ENERGY PREDICTED BY IDOCK:   -0.03 KCAL/MOL
REMARK 927      BINDING AFFINITY PREDICTED BY RF-SCORE:    0.00 PKD
ROOT
HETATM    1  N   UNL     1     -11.921  13.478  70.708  1.00  0.00    -0.516 NA 
HETATM    2  H1  UNL     1     -12.430  12.992  69.970  1.00  0.00     0.000 HD 
HETATM    3 CL   UNL     2      -9.506  15.791  69.182  1.00  0.00    -0.238 Cl 
HETATM    4  C   UNL     1     -12.575  14.736  71.033  1.00  0.00    -0.333 C  
HETATM    5  H2  UNL     1     -11.796  12.891  71.533  1.00  0.00     0.000 HD 
HETATM    6  O   UNL     2     -10.576  18.884  67.195  1.00  0.00    -0.422 OA 
HETATM    7  C   UNL     2     -10.713  17.050  68.825  1.00  0.00    -0.313 C  
HETATM    8  C   UNL     2     -10.010  18.273  68.363  1.00  0.00    -0.382 C  
HETATM    9  C   UNL     2      -9.270  18.308  67.052  1.00  0.00    -0.274 C  
ENDROOT
BRANCH   4  10
HETATM   10  C   UNL     1     -11.829  15.448  72.114  1.00  0.00    -0.536 C  
HETATM   11  C   UNL     1     -12.401  16.134  73.112  1.00  0.00    -0.641 C  
ENDBRANCH   4  10
TORSDOF 1
ENDMDL
MODEL       23
REMARK 921   NORMALIZED FREE ENERGY PREDICTED BY IDOCK:   -3.45 KCAL/MOL
REMARK 922        TOTAL FREE ENERGY PREDICTED BY IDOCK:   -3.68 KCAL/MOL
REMARK 923 INTER-LIGAND FREE ENERGY PREDICTED BY IDOCK:   -3.65 KCAL/MOL
REMARK 924 INTRA-LIGAND FREE ENERGY PREDICTED BY IDOCK:   -0.03 KCAL/MOL
REMARK 927      BINDING AFFINITY PREDICTED BY RF-SCORE:    0.00 PKD
ROOT
HETATM    1  N   UNL     1     -12.049  12.902  71.013  1.00  0.00    -0.396 NA 
HETATM    2  H1  UNL     1     -12.658  12.083  71.013  1.00  0.00     0.000 HD 
HETATM    3 CL   UNL     2     -10.591  13.316  67.664  1.00  0.00    -0.237 Cl 
HETATM    4  C   UNL     1     -12.785  14.082  70.589  1.00  0.00    -0.303 C  
HETATM    5  H2  UNL     1     -11.598  13.041  71.917  1.00  0.00     0.000 HD 
HETATM    6  O   UNL     2     -12.684  14.250  64.598  1.00  0.00    -0.655 OA 
HETATM    7  C   UNL     2     -12.043  14.070  66.963  1.00  0.00    -0.420 C  
HETATM    8  C   UNL     2     -11.716  14.573  65.605  1.00  0.00    -0.335 C  
HETATM    9  C   UNL     2     -11.395  13.634  64.474  1.00  0.00    -0.375 C  
ENDROOT
BRANCH   4  10
HETATM   10  C   UNL     1     -11.894  15.281  70.588  1.00  0.00    -0.376 C  
HETATM   11  C   UNL     1     -11.768  16.139  71.609  1.00  0.00    -0.558 C  
ENDBRANCH   4  10
TORSDOF 1
ENDMDL
MODEL       24
REMARK 921   NORMALIZED FREE ENERGY PREDICTED BY IDOCK:   -3.44 KCAL/MOL
REMARK 922        TOTAL FREE ENERGY PREDICTED BY IDOCK:   -3.67 KCAL/MOL
REMARK 923 INTER-LIGAND FREE ENERGY PREDICTED BY IDOCK:   -3.59 KCAL/MOL
REMARK 924 INTRA-LIGAND FREE ENERGY PREDICTED BY IDOCK:   -0.08 KCAL/MOL
REMARK 927      BINDING AFFINITY PREDICTED BY RF-SCORE:    0.00 PKD
ROOT
HETATM    1  N   UNL     1     -14.241  15.364  70.780  1.00  0.00    -0.811 NA 
HETATM    2  H1  UNL     1     -14.837  16.192  70.787  1.00  0.00     0.000 HD 
HETATM    3 CL   UNL     2     -11.642  15.773  68.214  1.00  0.00    -0.343 Cl 
HETATM    4  C   UNL     1     -13.092  15.557  71.650  1.00  0.00    -0.481 C  
HETATM    5  H2  UNL     1     -14.761  14.520  71.020  1.00  0.00     0.000 HD 
HETATM    6  O   UNL     2      -8.858  18.387  68.488  1.00  0.00    -0.313 OA 
HETATM    7  C   UNL     2     -10.612  16.827  69.213  1.00  0.00    -0.336 C  
HETATM    8  C   UNL     2      -9.315  17.028  68.521  1.00  0.00    -0.265 C  
HETATM    9  C   UNL     2      -9.221  17.798  67.231  1.00  0.00    -0.253 C  
ENDROOT
BRANCH   4  10
HETATM   10  C   UNL     1     -12.219  14.345  71.639  1.00  0.00    -0.385 C  
HETATM   11  C   UNL     1     -12.550  13.172  71.084  1.00  0.00    -0.403 C  
ENDBRANCH   4  10
TORSDOF 1
ENDMDL
MODEL       25
REMARK 921   NORMALIZED FREE ENERGY PREDICTED BY IDOCK:   -3.43 KCAL/MOL
REMARK 922        TOTAL FREE ENERGY PREDICTED BY IDOCK:   -3.66 KCAL/MOL
REMARK 923 INTER-LIGAND FREE ENERGY PREDICTED BY IDOCK:   -3.62 KCAL/MOL
REMARK 924 INTRA-LIGAND FREE ENERGY PREDICTED BY IDOCK:   -0.04 KCAL/MOL
REMARK 927      BINDING AFFINITY PREDICTED BY RF-SCORE:    0.00 PKD
ROOT
HETATM    1  N   UNL     1     -10.015  13.300  66.841  1.00  0.00    -0.245 NA 
HETATM    2  H1  UNL     1      -9.079  13.627  67.085  1.00  0.00     0.000 HD 
HETATM    3 CL   UNL     2     -11.987  12.894  69.916  1.00  0.00    -0.401 Cl 
HETATM    4  C   UNL     1     -10.920  14.427  66.681  1.00  0.00    -0.318 C  
HETATM    5  H2  UNL     1     -10.004  12.701  66.016  1.00  0.00     0.000 HD 
HETATM    6  O   UNL     2     -13.046  15.854  72.101  1.00  0.00    -0.452 OA 
HETATM    7  C   UNL     2     -12.352  14.628  70.088  1.00  0.00    -0.336 C  
HETATM    8  C   UNL     2     -13.350  14.804  71.172  1.00  0.00    -0.400 C  
HETATM    9  C   UNL     2     -13.010  14.513  72.610  1.00  0.00    -0.449 C  
ENDROOT
BRANCH   4  10
HETATM   10  C   UNL     1     -12.289  13.949  66.324  1.00  0.00    -0.489 C  
HETATM   11  C   UNL     1     -12.572  13.142  65.293  1.00  0.00    -0.531 C  
ENDBRANCH   4  10
TORSDOF 1
ENDMDL
MODEL       26
REMARK 921   NORMALIZED FREE ENERGY PREDICTED BY IDOCK:   -3.41 KCAL/MOL
REMARK 922        TOTAL FREE ENERGY PREDICTED BY IDOCK:   -3.64 KCAL/MOL
REMARK 923 INTER-LIGAND FREE ENERGY PREDICTED BY IDOCK:   -3.54 KCAL/MOL
REMARK 924 INTRA-LIGAND FREE ENERGY PREDICTED BY IDOCK:   -0.10 KCAL/MOL
REMARK 927      BINDING AFFINITY PREDICTED BY RF-SCORE:    0.00 PKD
ROOT
HETATM    1  N   UNL     1      -8.392  19.041  67.795  1.00  0.00    -0.283 NA 
HETATM    2  H1  UNL     1      -7.693  18.732  68.472  1.00  0.00     0.000 HD 
HETATM    3 CL   UNL     2      -9.616  16.130  65.916  1.00  0.00    -0.370 Cl 
HETATM    4  C   UNL     1      -9.727  18.948  68.365  1.00  0.00    -0.379 C  
HETATM    5  H2  UNL     1      -8.193  19.978  67.446  1.00  0.00     0.000 HD 
HETATM    6  O   UNL     2     -11.686  13.344  67.533  1.00  0.00    -0.325 OA 
HETATM    7  C   UNL     2     -10.720  15.579  67.199  1.00  0.00    -0.315 C  
HETATM    8  C   UNL     2     -11.566  14.481  66.667  1.00  0.00    -0.375 C  
HETATM    9  C   UNL     2     -10.981  13.143  66.300  1.00  0.00    -0.280 C  
ENDROOT
BRANCH   4  10
HETATM   10  C   UNL     1     -10.749  19.400  67.374  1.00  0.00    -0.594 C  
HETATM   11  C   UNL     1     -10.508  19.622  66.076  1.00  0.00    -0.622 C  
ENDBRANCH   4  10
TORSDOF 1
ENDMDL
MODEL       27
REMARK 921   NORMALIZED FREE ENERGY PREDICTED BY IDOCK:   -3.41 KCAL/MOL
REMARK 922        TOTAL FREE ENERGY PREDICTED BY IDOCK:   -3.63 KCAL/MOL
REMARK 923 INTER-LIGAND FREE ENERGY PREDICTED BY IDOCK:   -3.60 KCAL/MOL
REMARK 924 INTRA-LIGAND FREE ENERGY PREDICTED BY IDOCK:   -0.03 KCAL/MOL
REMARK 927      BINDING AFFINITY PREDICTED BY RF-SCORE:    0.00 PKD
ROOT
HETATM    1  N   UNL     1     -12.143  10.723  68.520  1.00  0.00    -0.826 NA 
HETATM    2  H1  UNL     1     -12.406  11.226  69.368  1.00  0.00     0.000 HD 
HETATM    3 CL   UNL     2     -12.461  12.977  65.635  1.00  0.00    -0.508 Cl 
HETATM    4  C   UNL     1     -10.732  10.920  68.230  1.00  0.00    -0.204 C  
HETATM    5  H2  UNL     1     -12.384   9.733  68.576  1.00  0.00     0.000 HD 
HETATM    6  O   UNL     2     -10.197  16.023  65.129  1.00  0.00    -0.511 OA 
HETATM    7  C   UNL     2     -10.918  13.815  65.931  1.00  0.00    -0.283 C  
HETATM    8  C   UNL     2     -10.622  14.699  64.776  1.00  0.00    -0.353 C  
HETATM    9  C   UNL     2     -11.467  15.908  64.473  1.00  0.00    -0.283 C  
ENDROOT
BRANCH   4  10
HETATM   10  C   UNL     1     -10.346  10.184  66.989  1.00  0.00    -0.303 C  
HETATM   11  C   UNL     1     -10.326   8.850  66.868  1.00  0.00    -0.332 C  
ENDBRANCH   4  10
TORSDOF 1
ENDMDL
MODEL       28
REMARK 921   NORMALIZED FREE ENERGY PREDICTED BY IDOCK:   -3.40 KCAL/MOL
REMARK 922        TOTAL FREE ENERGY PREDICTED BY IDOCK:   -3.63 KCAL/MOL
REMARK 923 INTER-LIGAND FREE ENERGY PREDICTED BY IDOCK:   -3.60 KCAL/MOL
REMARK 924 INTRA-LIGAND FREE ENERGY PREDICTED BY IDOCK:   -0.03 KCAL/MOL
REMARK 927      BINDING AFFINITY PREDICTED BY RF-SCORE:    0.00 PKD
ROOT
HETATM    1  N   UNL     1     -10.763  18.292  67.644  1.00  0.00    -0.403 NA 
HETATM    2  H1  UNL     1     -11.674  18.751  67.657  1.00  0.00     0.000 HD 
HETATM    3 CL   UNL     2     -11.220  14.728  66.872  1.00  0.00    -0.340 Cl 
HETATM    4  C   UNL     1     -10.219  18.281  66.296  1.00  0.00    -0.401 C  
HETATM    5  H2  UNL     1     -10.117  18.714  68.311  1.00  0.00     0.000 HD 
HETATM    6  O   UNL     2     -12.447  13.491  63.463  1.00  0.00    -0.745 OA 
HETATM    7  C   UNL     2     -11.410  14.980  65.120  1.00  0.00    -0.372 C  
HETATM    8  C   UNL     2     -11.412  13.659  64.442  1.00  0.00    -0.386 C  
HETATM    9  C   UNL     2     -12.534  12.675  64.639  1.00  0.00    -0.466 C  
ENDROOT
BRANCH   4  10
HETATM   10  C   UNL     1      -8.885  17.609  66.277  1.00  0.00    -0.209 C  
HETATM   11  C   UNL     1      -7.708  18.249  66.303  1.00  0.00    -0.283 C  
ENDBRANCH   4  10
TORSDOF 1
ENDMDL
MODEL       29
REMARK 921   NORMALIZED FREE ENERGY PREDICTED BY IDOCK:   -3.39 KCAL/MOL
REMARK 922        TOTAL FREE ENERGY PREDICTED BY IDOCK:   -3.61 KCAL/MOL
REMARK 923 INTER-LIGAND FREE ENERGY PREDICTED BY IDOCK:   -3.52 KCAL/MOL
REMARK 924 INTRA-LIGAND FREE ENERGY PREDICTED BY IDOCK:   -0.10 KCAL/MOL
REMARK 927      BINDING AFFINITY PREDICTED BY RF-SCORE:    0.00 PKD
ROOT
HETATM    1  N   UNL     1     -12.917   7.588  70.598  1.00  0.00    -0.434 NA 
HETATM    2  H1  UNL     1     -13.826   7.412  70.169  1.00  0.00     0.000 HD 
HETATM    3 CL   UNL     2     -12.221  11.196  70.508  1.00  0.00    -0.446 Cl 
HETATM    4  C   UNL     1     -13.072   7.884  72.014  1.00  0.00    -0.231 C  
HETATM    5  H2  UNL     1     -12.267   6.817  70.441  1.00  0.00     0.000 HD 
HETATM    6  O   UNL     2     -14.231  13.742  72.540  1.00  0.00    -0.706 OA 
HETATM    7  C   UNL     2     -13.249  11.580  71.909  1.00  0.00    -0.374 C  
HETATM    8  C   UNL     2     -13.031  12.997  72.291  1.00  0.00    -0.224 C  
HETATM    9  C   UNL     2     -13.458  14.130  71.396  1.00  0.00    -0.317 C  
ENDROOT
BRANCH   4  10
HETATM   10  C   UNL     1     -11.741   8.142  72.641  1.00  0.00    -0.419 C  
HETATM   11  C   UNL     1     -10.593   8.285  71.966  1.00  0.00    -0.365 C  
ENDBRANCH   4  10
TORSDOF 1
ENDMDL
MODEL       30
REMARK 921   NORMALIZED FREE ENERGY PREDICTED BY IDOCK:   -3.34 KCAL/MOL
REMARK 922        TOTAL FREE ENERGY PREDICTED BY IDOCK:   -3.57 KCAL/MOL
REMARK 923 INTER-LIGAND FREE ENERGY PREDICTED BY IDOCK:   -3.49 KCAL/MOL
REMARK 924 INTRA-LIGAND FREE ENERGY PREDICTED BY IDOCK:   -0.08 KCAL/MOL
REMARK 927      BINDING AFFINITY PREDICTED BY RF-SCORE:    0.00 PKD
ROOT
HETATM    1  N   UNL     1      -9.945  10.412  64.553  1.00  0.00    -0.343 NA 
HETATM    2  H1  UNL     1      -8.960  10.298  64.795  1.00  0.00     0.000 HD 
HETATM    3 CL   UNL     2     -11.658  12.179  67.282  1.00  0.00    -0.409 Cl 
HETATM    4  C   UNL     1     -10.161  11.690  63.895  1.00  0.00    -0.365 C  
HETATM    5  H2  UNL     1     -10.290   9.633  63.993  1.00  0.00     0.000 HD 
HETATM    6  O   UNL     2     -10.934  15.836  68.155  1.00  0.00    -0.303 OA 
HETATM    7  C   UNL     2     -11.082  13.792  66.799  1.00  0.00    -0.308 C  
HETATM    8  C   UNL     2     -11.784  14.817  67.611  1.00  0.00    -0.341 C  
HETATM    9  C   UNL     2     -11.552  14.943  69.093  1.00  0.00    -0.307 C  
ENDROOT
BRANCH   4  10
HETATM   10  C   UNL     1     -11.603  11.857  63.541  1.00  0.00    -0.537 C  
HETATM   11  C   UNL     1     -12.241  13.033  63.476  1.00  0.00    -0.580 C  
ENDBRANCH   4  10
TORSDOF 1
ENDMDL
MODEL       31
REMARK 921   NORMALIZED FREE ENERGY PREDICTED BY IDOCK:   -3.34 KCAL/MOL
REMARK 922        TOTAL FREE ENERGY PREDICTED BY IDOCK:   -3.56 KCAL/MOL
REMARK 923 INTER-LIGAND FREE ENERGY PREDICTED BY IDOCK:   -3.46 KCAL/MOL
REMARK 924 INTRA-LIGAND FREE ENERGY PREDICTED BY IDOCK:   -0.10 KCAL/MOL
REMARK 927      BINDING AFFINITY PREDICTED BY RF-SCORE:    0.00 PKD
ROOT
HETATM    1  N   UNL     1     -11.605   7.816  73.229  1.00  0.00    -0.606 NA 
HETATM    2  H1  UNL     1     -10.721   8.005  73.703  1.00  0.00     0.000 HD 
HETATM    3 CL   UNL     2     -12.741  10.876  71.539  1.00  0.00    -0.532 Cl 
HETATM    4  C   UNL     1     -11.367   7.416  71.851  1.00  0.00    -0.260 C  
HETATM    5  H2  UNL     1     -12.166   7.129  73.732  1.00  0.00     0.000 HD 
HETATM    6  O   UNL     2     -10.890  12.400  68.555  1.00  0.00    -0.225 OA 
HETATM    7  C   UNL     2     -11.651  10.688  70.145  1.00  0.00    -0.330 C  
HETATM    8  C   UNL     2     -12.008  11.697  69.117  1.00  0.00    -0.313 C  
HETATM    9  C   UNL     2     -11.800  13.170  69.353  1.00  0.00    -0.326 C  
ENDROOT
BRANCH   4  10
HETATM   10  C   UNL     1     -12.660   7.140  71.157  1.00  0.00    -0.384 C  
HETATM   11  C   UNL     1     -13.871   7.393  71.671  1.00  0.00    -0.490 C  
ENDBRANCH   4  10
TORSDOF 1
ENDMDL
MODEL       32
REMARK 921   NORMALIZED FREE ENERGY PREDICTED BY IDOCK:   -3.33 KCAL/MOL
REMARK 922        TOTAL FREE ENERGY PREDICTED BY IDOCK:   -3.55 KCAL/MOL
REMARK 923 INTER-LIGAND FREE ENERGY PREDICTED BY IDOCK:   -3.51 KCAL/MOL
REMARK 924 INTRA-LIGAND FREE ENERGY PREDICTED BY IDOCK:   -0.04 KCAL/MOL
REMARK 927      BINDING AFFINITY PREDICTED BY RF-SCORE:    0.00 PKD
ROOT
HETATM    1  N   UNL     1     -14.400  14.541  71.709  1.00  0.00    -0.505 NA 
HETATM    2  H1  UNL     1     -15.219  14.599  71.104  1.00  0.00     0.000 HD 
HETATM    3 CL   UNL     2     -11.876  12.397  70.115  1.00  0.00    -0.381 Cl 
HETATM    4  C   UNL     1     -13.429  15.563  71.348  1.00  0.00    -0.499 C  
HETATM    5  H2  UNL     1     -14.652  14.589  72.696  1.00  0.00     0.000 HD 
HETATM    6  O   UNL     2     -10.052  13.390  66.898  1.00  0.00    -0.247 OA 
HETATM    7  C   UNL     2     -11.292  13.659  69.003  1.00  0.00    -0.287 C  
HETATM    8  C   UNL     2     -10.072  13.166  68.314  1.00  0.00    -0.247 C  
HETATM    9  C   UNL     2     -10.128  12.025  67.333  1.00  0.00    -0.194 C  
ENDROOT
BRANCH   4  10
HETATM   10  C   UNL     1     -12.229  15.478  72.234  1.00  0.00    -0.504 C  
HETATM   11  C   UNL     1     -12.272  15.363  73.568  1.00  0.00    -0.646 C  
ENDBRANCH   4  10
TORSDOF 1
ENDMDL
MODEL       33
REMARK 921   NORMALIZED FREE ENERGY PREDICTED BY IDOCK:   -3.29 KCAL/MOL
REMARK 922        TOTAL FREE ENERGY PREDICTED BY IDOCK:   -3.51 KCAL/MOL
REMARK 923 INTER-LIGAND FREE ENERGY PREDICTED BY IDOCK:   -3.45 KCAL/MOL
REMARK 924 INTRA-LIGAND FREE ENERGY PREDICTED BY IDOCK:   -0.06 KCAL/MOL
REMARK 927      BINDING AFFINITY PREDICTED BY RF-SCORE:    0.00 PKD
ROOT
HETATM    1  N   UNL     1     -13.670   8.854  73.203  1.00  0.00    -1.100 NA 
HETATM    2  H1  UNL     1     -14.120   7.950  73.353  1.00  0.00     0.000 HD 
HETATM    3 CL   UNL     2     -10.136   8.313  72.352  1.00  0.00    -0.360 Cl 
HETATM    4  C   UNL     1     -13.718   9.218  71.796  1.00  0.00    -0.377 C  
HETATM    5  H2  UNL     1     -14.071   9.580  73.797  1.00  0.00     0.000 HD 
HETATM    6  O   UNL     2      -9.025   6.658  69.084  1.00  0.00    -0.132 OA 
HETATM    7  C   UNL     2     -10.455   7.896  70.651  1.00  0.00    -0.213 C  
HETATM    8  C   UNL     2      -9.163   7.810  69.926  1.00  0.00    -0.146 C  
HETATM    9  C   UNL     2      -8.162   6.727  70.228  1.00  0.00    -0.125 C  
ENDROOT
BRANCH   4  10
HETATM   10  C   UNL     1     -13.059  10.540  71.577  1.00  0.00    -0.532 C  
HETATM   11  C   UNL     1     -12.378  10.881  70.475  1.00  0.00    -0.463 C  
ENDBRANCH   4  10
TORSDOF 1
ENDMDL
MODEL       34
REMARK 921   NORMALIZED FREE ENERGY PREDICTED BY IDOCK:   -3.28 KCAL/MOL
REMARK 922        TOTAL FREE ENERGY PREDICTED BY IDOCK:   -3.50 KCAL/MOL
REMARK 923 INTER-LIGAND FREE ENERGY PREDICTED BY IDOCK:   -3.40 KCAL/MOL
REMARK 924 INTRA-LIGAND FREE ENERGY PREDICTED BY IDOCK:   -0.10 KCAL/MOL
REMARK 927      BINDING AFFINITY PREDICTED BY RF-SCORE:    0.00 PKD
ROOT
HETATM    1  N   UNL     1      -8.071  18.399  67.185  1.00  0.00    -0.235 NA 
HETATM    2  H1  UNL     1      -7.197  17.935  67.437  1.00  0.00     0.000 HD 
HETATM    3 CL   UNL     2     -10.863  16.064  67.692  1.00  0.00    -0.323 Cl 
HETATM    4  C   UNL     1      -8.673  19.017  68.355  1.00  0.00    -0.346 C  
HETATM    5  H2  UNL     1      -7.940  19.069  66.427  1.00  0.00     0.000 HD 
HETATM    6  O   UNL     2     -11.932  14.838  71.158  1.00  0.00    -0.304 OA 
HETATM    7  C   UNL     2     -10.939  16.304  69.454  1.00  0.00    -0.337 C  
HETATM    8  C   UNL     2     -12.150  15.627  69.981  1.00  0.00    -0.359 C  
HETATM    9  C   UNL     2     -12.285  14.128  69.963  1.00  0.00    -0.357 C  
ENDROOT
BRANCH   4  10
HETATM   10  C   UNL     1      -9.952  19.696  67.987  1.00  0.00    -0.541 C  
HETATM   11  C   UNL     1     -10.543  19.612  66.788  1.00  0.00    -0.602 C  
ENDBRANCH   4  10
TORSDOF 1
ENDMDL
MODEL       35
REMARK 921   NORMALIZED FREE ENERGY PREDICTED BY IDOCK:   -3.28 KCAL/MOL
REMARK 922        TOTAL FREE ENERGY PREDICTED BY IDOCK:   -3.50 KCAL/MOL
REMARK 923 INTER-LIGAND FREE ENERGY PREDICTED BY IDOCK:   -3.40 KCAL/MOL
REMARK 924 INTRA-LIGAND FREE ENERGY PREDICTED BY IDOCK:   -0.10 KCAL/MOL
REMARK 927      BINDING AFFINITY PREDICTED BY RF-SCORE:    0.00 PKD
ROOT
HETATM    1  N   UNL     1     -12.925  12.767  64.201  1.00  0.00    -0.676 NA 
HETATM    2  H1  UNL     1     -13.757  12.195  64.054  1.00  0.00     0.000 HD 
HETATM    3 CL   UNL     2     -11.896  12.513  67.720  1.00  0.00    -0.408 Cl 
HETATM    4  C   UNL     1     -11.722  11.969  64.028  1.00  0.00    -0.410 C  
HETATM    5  H2  UNL     1     -12.921  13.593  63.602  1.00  0.00     0.000 HD 
HETATM    6  O   UNL     2     -10.548   9.274  69.253  1.00  0.00    -0.221 OA 
HETATM    7  C   UNL     2     -11.096  10.935  67.527  1.00  0.00    -0.310 C  
HETATM    8  C   UNL     2     -10.359  10.613  68.774  1.00  0.00    -0.193 C  
HETATM    9  C   UNL     2     -11.082  10.330  70.064  1.00  0.00    -0.311 C  
ENDROOT
BRANCH   4  10
HETATM   10  C   UNL     1     -10.504  12.807  64.244  1.00  0.00    -0.423 C  
HETATM   11  C   UNL     1     -10.514  14.062  64.712  1.00  0.00    -0.445 C  
ENDBRANCH   4  10
TORSDOF 1
ENDMDL
MODEL       36
REMARK 921   NORMALIZED FREE ENERGY PREDICTED BY IDOCK:   -3.26 KCAL/MOL
REMARK 922        TOTAL FREE ENERGY PREDICTED BY IDOCK:   -3.48 KCAL/MOL
REMARK 923 INTER-LIGAND FREE ENERGY PREDICTED BY IDOCK:   -3.39 KCAL/MOL
REMARK 924 INTRA-LIGAND FREE ENERGY PREDICTED BY IDOCK:   -0.10 KCAL/MOL
REMARK 927      BINDING AFFINITY PREDICTED BY RF-SCORE:    0.00 PKD
ROOT
HETATM    1  N   UNL     1     -10.194  19.251  68.557  1.00  0.00    -0.442 NA 
HETATM    2  H1  UNL     1     -10.896  19.046  69.269  1.00  0.00     0.000 HD 
HETATM    3 CL   UNL     2      -9.098  16.103  67.008  1.00  0.00    -0.217 Cl 
HETATM    4  C   UNL     1     -10.821  19.409  67.255  1.00  0.00    -0.448 C  
HETATM    5  H2  UNL     1      -9.626  20.061  68.806  1.00  0.00     0.000 HD 
HETATM    6  O   UNL     2     -11.403  13.958  64.830  1.00  0.00    -0.322 OA 
HETATM    7  C   UNL     2     -10.517  15.962  65.942  1.00  0.00    -0.359 C  
HETATM    8  C   UNL     2     -10.291  14.849  64.986  1.00  0.00    -0.370 C  
HETATM    9  C   UNL     2     -10.225  13.417  65.445  1.00  0.00    -0.298 C  
ENDROOT
BRANCH   4  10
HETATM   10  C   UNL     1      -9.793  19.708  66.213  1.00  0.00    -0.540 C  
HETATM   11  C   UNL     1      -8.475  19.783  66.441  1.00  0.00    -0.391 C  
ENDBRANCH   4  10
TORSDOF 1
ENDMDL
MODEL       37
REMARK 921   NORMALIZED FREE ENERGY PREDICTED BY IDOCK:   -3.26 KCAL/MOL
REMARK 922        TOTAL FREE ENERGY PREDICTED BY IDOCK:   -3.47 KCAL/MOL
REMARK 923 INTER-LIGAND FREE ENERGY PREDICTED BY IDOCK:   -3.38 KCAL/MOL
REMARK 924 INTRA-LIGAND FREE ENERGY PREDICTED BY IDOCK:   -0.10 KCAL/MOL
REMARK 927      BINDING AFFINITY PREDICTED BY RF-SCORE:    0.00 PKD
ROOT
HETATM    1  N   UNL     1     -11.576  11.252  67.137  1.00  0.00    -0.513 NA 
HETATM    2  H1  UNL     1     -10.770  10.802  67.573  1.00  0.00     0.000 HD 
HETATM    3 CL   UNL     2     -11.888  14.678  68.428  1.00  0.00    -0.345 Cl 
HETATM    4  C   UNL     1     -11.168  11.981  65.946  1.00  0.00    -0.337 C  
HETATM    5  H2  UNL     1     -12.320  10.584  66.936  1.00  0.00     0.000 HD 
HETATM    6  O   UNL     2      -9.321  17.416  67.672  1.00  0.00    -0.241 OA 
HETATM    7  C   UNL     2     -10.616  15.348  67.379  1.00  0.00    -0.289 C  
HETATM    8  C   UNL     2     -10.618  16.827  67.505  1.00  0.00    -0.309 C  
HETATM    9  C   UNL     2     -10.220  17.509  68.787  1.00  0.00    -0.373 C  
ENDROOT
BRANCH   4  10
HETATM   10  C   UNL     1     -12.347  12.639  65.308  1.00  0.00    -0.528 C  
HETATM   11  C   UNL     1     -12.283  13.713  64.511  1.00  0.00    -0.444 C  
ENDBRANCH   4  10
TORSDOF 1
ENDMDL
MODEL       38
REMARK 921   NORMALIZED FREE ENERGY PREDICTED BY IDOCK:   -3.25 KCAL/MOL
REMARK 922        TOTAL FREE ENERGY PREDICTED BY IDOCK:   -3.47 KCAL/MOL
REMARK 923 INTER-LIGAND FREE ENERGY PREDICTED BY IDOCK:   -3.37 KCAL/MOL
REMARK 924 INTRA-LIGAND FREE ENERGY PREDICTED BY IDOCK:   -0.09 KCAL/MOL
REMARK 927      BINDING AFFINITY PREDICTED BY RF-SCORE:    0.00 PKD
ROOT
HETATM    1  N   UNL     1     -11.040  14.743  66.298  1.00  0.00    -0.338 NA 
HETATM    2  H1  UNL     1     -11.351  15.629  65.899  1.00  0.00     0.000 HD 
HETATM    3 CL   UNL     2     -10.565  15.157  69.919  1.00  0.00    -0.268 Cl 
HETATM    4  C   UNL     1     -12.179  13.969  66.766  1.00  0.00    -0.404 C  
HETATM    5  H2  UNL     1     -10.464  14.214  65.644  1.00  0.00     0.000 HD 
HETATM    6  O   UNL     2     -13.471  15.795  72.328  1.00  0.00    -0.467 OA 
HETATM    7  C   UNL     2     -12.296  15.026  70.311  1.00  0.00    -0.342 C  
HETATM    8  C   UNL     2     -12.450  14.946  71.785  1.00  0.00    -0.339 C  
HETATM    9  C   UNL     2     -12.116  16.113  72.677  1.00  0.00    -0.554 C  
ENDROOT
BRANCH   4  10
HETATM   10  C   UNL     1     -11.723  12.673  67.351  1.00  0.00    -0.432 C  
HETATM   11  C   UNL     1     -10.452  12.375  67.651  1.00  0.00    -0.229 C  
ENDBRANCH   4  10
TORSDOF 1
ENDMDL
MODEL       39
REMARK 921   NORMALIZED FREE ENERGY PREDICTED BY IDOCK:   -3.24 KCAL/MOL
REMARK 922        TOTAL FREE ENERGY PREDICTED BY IDOCK:   -3.46 KCAL/MOL
REMARK 923 INTER-LIGAND FREE ENERGY PREDICTED BY IDOCK:   -3.41 KCAL/MOL
REMARK 924 INTRA-LIGAND FREE ENERGY PREDICTED BY IDOCK:   -0.05 KCAL/MOL
REMARK 927      BINDING AFFINITY PREDICTED BY RF-SCORE:    0.00 PKD
ROOT
HETATM    1  N   UNL     1      -9.787  13.869  68.818  1.00  0.00    -0.379 NA 
HETATM    2  H1  UNL     1      -8.775  13.736  68.847  1.00  0.00     0.000 HD 
HETATM    3 CL   UNL     2     -10.528  17.468  68.879  1.00  0.00    -0.333 Cl 
HETATM    4  C   UNL     1     -10.238  14.031  67.445  1.00  0.00    -0.248 C  
HETATM    5  H2  UNL     1     -10.282  13.116  69.294  1.00  0.00     0.000 HD 
HETATM    6  O   UNL     2      -9.634  19.814  65.989  1.00  0.00    -0.392 OA 
HETATM    7  C   UNL     2     -10.182  17.720  67.151  1.00  0.00    -0.353 C  
HETATM    8  C   UNL     2     -10.595  19.095  66.773  1.00  0.00    -0.439 C  
HETATM    9  C   UNL     2      -9.883  20.307  67.313  1.00  0.00    -0.452 C  
ENDROOT
BRANCH   4  10
HETATM   10  C   UNL     1     -11.719  14.227  67.403  1.00  0.00    -0.422 C  
HETATM   11  C   UNL     1     -12.464  14.172  66.291  1.00  0.00    -0.395 C  
ENDBRANCH   4  10
TORSDOF 1
ENDMDL
MODEL       40
REMARK 921   NORMALIZED FREE ENERGY PREDICTED BY IDOCK:   -3.24 KCAL/MOL
REMARK 922        TOTAL FREE ENERGY PREDICTED BY IDOCK:   -3.46 KCAL/MOL
REMARK 923 INTER-LIGAND FREE ENERGY PREDICTED BY IDOCK:   -3.38 KCAL/MOL
REMARK 924 INTRA-LIGAND FREE ENERGY PREDICTED BY IDOCK:   -0.08 KCAL/MOL
REMARK 927      BINDING AFFINITY PREDICTED BY RF-SCORE:    0.00 PKD
ROOT
HETATM    1  N   UNL     1     -10.317  17.725  65.622  1.00  0.00    -0.635 NA 
HETATM    2  H1  UNL     1      -9.981  18.119  64.743  1.00  0.00     0.000 HD 
HETATM    3 CL   UNL     2     -12.438  14.811  64.904  1.00  0.00    -0.278 Cl 
HETATM    4  C   UNL     1      -9.423  16.675  66.083  1.00  0.00    -0.287 C  
HETATM    5  H2  UNL     1     -10.455  18.444  66.332  1.00  0.00     0.000 HD 
HETATM    6  O   UNL     2     -11.061  11.570  63.402  1.00  0.00    -0.391 OA 
HETATM    7  C   UNL     2     -11.075  13.701  64.625  1.00  0.00    -0.381 C  
HETATM    8  C   UNL     2     -11.598  12.318  64.502  1.00  0.00    -0.353 C  
HETATM    9  C   UNL     2     -12.455  11.901  63.336  1.00  0.00    -0.463 C  
ENDROOT
BRANCH   4  10
HETATM   10  C   UNL     1      -9.915  16.099  67.370  1.00  0.00    -0.247 C  
HETATM   11  C   UNL     1     -10.860  16.651  68.142  1.00  0.00    -0.348 C  
ENDBRANCH   4  10
TORSDOF 1
ENDMDL
MODEL       41
REMARK 921   NORMALIZED FREE ENERGY PREDICTED BY IDOCK:   -3.24 KCAL/MOL
REMARK 922        TOTAL FREE ENERGY PREDICTED BY IDOCK:   -3.46 KCAL/MOL
REMARK 923 INTER-LIGAND FREE ENERGY PREDICTED BY IDOCK:   -3.43 KCAL/MOL
REMARK 924 INTRA-LIGAND FREE ENERGY PREDICTED BY IDOCK:   -0.03 KCAL/MOL
REMARK 927      BINDING AFFINITY PREDICTED BY RF-SCORE:    0.00 PKD
ROOT
HETATM    1  N   UNL     1     -12.201  10.372  69.000  1.00  0.00    -0.704 NA 
HETATM    2  H1  UNL     1     -11.446  10.293  68.317  1.00  0.00     0.000 HD 
HETATM    3 CL   UNL     2     -12.136   7.440  71.214  1.00  0.00    -0.343 Cl 
HETATM    4  C   UNL     1     -11.722  11.015  70.213  1.00  0.00    -0.355 C  
HETATM    5  H2  UNL     1     -13.014  10.851  68.612  1.00  0.00     0.000 HD 
HETATM    6  O   UNL     2      -9.293   6.781  73.692  1.00  0.00    -0.144 OA 
HETATM    7  C   UNL     2     -10.804   8.048  72.226  1.00  0.00    -0.305 C  
HETATM    8  C   UNL     2     -10.647   7.156  73.401  1.00  0.00    -0.382 C  
HETATM    9  C   UNL     2     -10.171   5.735  73.253  1.00  0.00    -0.200 C  
ENDROOT
BRANCH   4  10
HETATM   10  C   UNL     1     -12.827  11.132  71.212  1.00  0.00    -0.515 C  
HETATM   11  C   UNL     1     -13.171  12.263  71.841  1.00  0.00    -0.481 C  
ENDBRANCH   4  10
TORSDOF 1
ENDMDL
MODEL       42
REMARK 921   NORMALIZED FREE ENERGY PREDICTED BY IDOCK:   -3.23 KCAL/MOL
REMARK 922        TOTAL FREE ENERGY PREDICTED BY IDOCK:   -3.45 KCAL/MOL
REMARK 923 INTER-LIGAND FREE ENERGY PREDICTED BY IDOCK:   -3.35 KCAL/MOL
REMARK 924 INTRA-LIGAND FREE ENERGY PREDICTED BY IDOCK:   -0.10 KCAL/MOL
REMARK 927      BINDING AFFINITY PREDICTED BY RF-SCORE:    0.00 PKD
ROOT
HETATM    1  N   UNL     1      -9.654   8.524  65.847  1.00  0.00    -0.445 NA 
HETATM    2  H1  UNL     1     -10.216   7.962  65.207  1.00  0.00     0.000 HD 
HETATM    3 CL   UNL     2      -9.983  12.070  64.939  1.00  0.00    -0.273 Cl 
HETATM    4  C   UNL     1     -10.461   8.972  66.971  1.00  0.00    -0.246 C  
HETATM    5  H2  UNL     1      -8.818   8.028  66.154  1.00  0.00     0.000 HD 
HETATM    6  O   UNL     2     -13.263  14.008  65.320  1.00  0.00    -0.782 OA 
HETATM    7  C   UNL     2     -11.565  12.279  65.727  1.00  0.00    -0.388 C  
HETATM    8  C   UNL     2     -11.917  13.721  65.725  1.00  0.00    -0.399 C  
HETATM    9  C   UNL     2     -12.217  14.456  64.446  1.00  0.00    -0.458 C  
ENDROOT
BRANCH   4  10
HETATM   10  C   UNL     1      -9.639   9.796  67.908  1.00  0.00    -0.158 C  
HETATM   11  C   UNL     1     -10.137  10.659  68.802  1.00  0.00    -0.203 C  
ENDBRANCH   4  10
TORSDOF 1
ENDMDL
MODEL       43
REMARK 921   NORMALIZED FREE ENERGY PREDICTED BY IDOCK:   -3.23 KCAL/MOL
REMARK 922        TOTAL FREE ENERGY PREDICTED BY IDOCK:   -3.45 KCAL/MOL
REMARK 923 INTER-LIGAND FREE ENERGY PREDICTED BY IDOCK:   -3.36 KCAL/MOL
REMARK 924 INTRA-LIGAND FREE ENERGY PREDICTED BY IDOCK:   -0.09 KCAL/MOL
REMARK 927      BINDING AFFINITY PREDICTED BY RF-SCORE:    0.00 PKD
ROOT
HETATM    1  N   UNL     1     -13.852  15.881  72.972  1.00  0.00    -0.659 NA 
HETATM    2  H1  UNL     1     -13.400  16.620  73.511  1.00  0.00     0.000 HD 
HETATM    3 CL   UNL     2     -12.386  15.780  69.603  1.00  0.00    -0.230 Cl 
HETATM    4  C   UNL     1     -13.105  14.638  73.087  1.00  0.00    -0.474 C  
HETATM    5  H2  UNL     1     -14.830  15.761  73.237  1.00  0.00     0.000 HD 
HETATM    6  O   UNL     2      -8.764  14.725  68.954  1.00  0.00    -0.175 OA 
HETATM    7  C   UNL     2     -10.930  14.886  70.102  1.00  0.00    -0.180 C  
HETATM    8  C   UNL     2     -10.176  14.481  68.890  1.00  0.00    -0.229 C  
HETATM    9  C   UNL     2      -9.509  15.497  68.002  1.00  0.00    -0.194 C  
ENDROOT
BRANCH   4  10
HETATM   10  C   UNL     1     -13.767  13.557  72.297  1.00  0.00    -0.700 C  
HETATM   11  C   UNL     1     -13.203  12.381  71.991  1.00  0.00    -0.514 C  
ENDBRANCH   4  10
TORSDOF 1
ENDMDL
MODEL       44
REMARK 921   NORMALIZED FREE ENERGY PREDICTED BY IDOCK:   -3.22 KCAL/MOL
REMARK 922        TOTAL FREE ENERGY PREDICTED BY IDOCK:   -3.43 KCAL/MOL
REMARK 923 INTER-LIGAND FREE ENERGY PREDICTED BY IDOCK:   -3.34 KCAL/MOL
REMARK 924 INTRA-LIGAND FREE ENERGY PREDICTED BY IDOCK:   -0.10 KCAL/MOL
REMARK 927      BINDING AFFINITY PREDICTED BY RF-SCORE:    0.00 PKD
ROOT
HETATM    1  N   UNL     1     -10.463  14.301  69.474  1.00  0.00    -0.440 NA 
HETATM    2  H1  UNL     1     -11.363  14.594  69.856  1.00  0.00     0.000 HD 
HETATM    3 CL   UNL     2     -11.035  12.270  66.466  1.00  0.00    -0.303 Cl 
HETATM    4  C   UNL     1     -10.003  15.248  68.471  1.00  0.00    -0.222 C  
HETATM    5  H2  UNL     1      -9.769  14.158  70.208  1.00  0.00     0.000 HD 
HETATM    6  O   UNL     2     -12.494  13.720  63.237  1.00  0.00    -0.819 OA 
HETATM    7  C   UNL     2     -11.328  13.664  65.399  1.00  0.00    -0.301 C  
HETATM    8  C   UNL     2     -11.398  13.190  63.995  1.00  0.00    -0.394 C  
HETATM    9  C   UNL     2     -12.525  12.313  63.515  1.00  0.00    -0.534 C  
ENDROOT
BRANCH   4  10
HETATM   10  C   UNL     1      -8.686  14.818  67.913  1.00  0.00    -0.167 C  
HETATM   11  C   UNL     1      -8.111  13.630  68.142  1.00  0.00    -0.156 C  
ENDBRANCH   4  10
TORSDOF 1
ENDMDL
MODEL       45
REMARK 921   NORMALIZED FREE ENERGY PREDICTED BY IDOCK:   -3.21 KCAL/MOL
REMARK 922        TOTAL FREE ENERGY PREDICTED BY IDOCK:   -3.43 KCAL/MOL
REMARK 923 INTER-LIGAND FREE ENERGY PREDICTED BY IDOCK:   -3.40 KCAL/MOL
REMARK 924 INTRA-LIGAND FREE ENERGY PREDICTED BY IDOCK:   -0.03 KCAL/MOL
REMARK 927      BINDING AFFINITY PREDICTED BY RF-SCORE:    0.00 PKD
ROOT
HETATM    1  N   UNL     1     -11.941  15.798  68.974  1.00  0.00    -0.532 NA 
HETATM    2  H1  UNL     1     -11.423  16.627  68.682  1.00  0.00     0.000 HD 
HETATM    3 CL   UNL     2     -12.672  13.736  66.021  1.00  0.00    -0.459 Cl 
HETATM    4  C   UNL     1     -11.030  14.696  69.236  1.00  0.00    -0.260 C  
HETATM    5  H2  UNL     1     -12.545  15.990  69.773  1.00  0.00     0.000 HD 
HETATM    6  O   UNL     2      -9.943  11.939  64.025  1.00  0.00    -0.295 OA 
HETATM    7  C   UNL     2     -11.048  13.012  65.940  1.00  0.00    -0.280 C  
HETATM    8  C   UNL     2     -11.056  11.924  64.930  1.00  0.00    -0.307 C  
HETATM    9  C   UNL     2     -11.235  12.212  63.464  1.00  0.00    -0.458 C  
ENDROOT
BRANCH   4  10
HETATM   10  C   UNL     1     -11.790  13.482  69.663  1.00  0.00    -0.398 C  
HETATM   11  C   UNL     1     -12.330  13.307  70.876  1.00  0.00    -0.413 C  
ENDBRANCH   4  10
TORSDOF 1
ENDMDL
MODEL       46
REMARK 921   NORMALIZED FREE ENERGY PREDICTED BY IDOCK:   -3.20 KCAL/MOL
REMARK 922        TOTAL FREE ENERGY PREDICTED BY IDOCK:   -3.41 KCAL/MOL
REMARK 923 INTER-LIGAND FREE ENERGY PREDICTED BY IDOCK:   -3.31 KCAL/MOL
REMARK 924 INTRA-LIGAND FREE ENERGY PREDICTED BY IDOCK:   -0.10 KCAL/MOL
REMARK 927      BINDING AFFINITY PREDICTED BY RF-SCORE:    0.00 PKD
ROOT
HETATM    1  N   UNL     1     -10.385  18.742  65.738  1.00  0.00    -0.582 NA 
HETATM    2  H1  UNL     1     -10.884  19.629  65.673  1.00  0.00     0.000 HD 
HETATM    3 CL   UNL     2      -6.983  19.361  66.982  1.00  0.00    -0.209 Cl 
HETATM    4  C   UNL     1     -10.525  18.176  67.070  1.00  0.00    -0.370 C  
HETATM    5  H2  UNL     1     -10.682  18.086  65.015  1.00  0.00     0.000 HD 
HETATM    6  O   UNL     2      -6.272  20.590  70.537  1.00  0.00    -0.506 OA 
HETATM    7  C   UNL     2      -7.473  19.509  68.687  1.00  0.00    -0.345 C  
HETATM    8  C   UNL     2      -6.256  19.565  69.534  1.00  0.00    -0.300 C  
HETATM    9  C   UNL     2      -5.313  20.737  69.481  1.00  0.00    -0.371 C  
ENDROOT
BRANCH   4  10
HETATM   10  C   UNL     1      -9.794  16.877  67.165  1.00  0.00    -0.270 C  
HETATM   11  C   UNL     1      -9.049  16.347  66.186  1.00  0.00    -0.362 C  
ENDBRANCH   4  10
TORSDOF 1
ENDMDL
MODEL       47
REMARK 921   NORMALIZED FREE ENERGY PREDICTED BY IDOCK:   -3.16 KCAL/MOL
REMARK 922        TOTAL FREE ENERGY PREDICTED BY IDOCK:   -3.38 KCAL/MOL
REMARK 923 INTER-LIGAND FREE ENERGY PREDICTED BY IDOCK:   -3.29 KCAL/MOL
REMARK 924 INTRA-LIGAND FREE ENERGY PREDICTED BY IDOCK:   -0.09 KCAL/MOL
REMARK 927      BINDING AFFINITY PREDICTED BY RF-SCORE:    0.00 PKD
ROOT
HETATM    1  N   UNL     1     -10.468  11.170  66.373  1.00  0.00    -0.252 NA 
HETATM    2  H1  UNL     1      -9.476  11.012  66.550  1.00  0.00     0.000 HD 
HETATM    3 CL   UNL     2     -11.948  12.886  69.266  1.00  0.00    -0.337 Cl 
HETATM    4  C   UNL     1     -10.676  12.480  65.778  1.00  0.00    -0.269 C  
HETATM    5  H2  UNL     1     -10.876  10.427  65.806  1.00  0.00     0.000 HD 
HETATM    6  O   UNL     2     -11.037  16.477  70.231  1.00  0.00    -0.348 OA 
HETATM    7  C   UNL     2     -11.342  14.496  68.810  1.00  0.00    -0.274 C  
HETATM    8  C   UNL     2     -11.956  15.512  69.701  1.00  0.00    -0.359 C  
HETATM    9  C   UNL     2     -11.631  15.570  71.170  1.00  0.00    -0.397 C  
ENDROOT
BRANCH   4  10
HETATM   10  C   UNL     1     -12.129  12.712  65.519  1.00  0.00    -0.515 C  
HETATM   11  C   UNL     1     -12.712  13.916  65.464  1.00  0.00    -0.536 C  
ENDBRANCH   4  10
TORSDOF 1
ENDMDL
MODEL       48
REMARK 921   NORMALIZED FREE ENERGY PREDICTED BY IDOCK:   -3.15 KCAL/MOL
REMARK 922        TOTAL FREE ENERGY PREDICTED BY IDOCK:   -3.37 KCAL/MOL
REMARK 923 INTER-LIGAND FREE ENERGY PREDICTED BY IDOCK:   -3.27 KCAL/MOL
REMARK 924 INTRA-LIGAND FREE ENERGY PREDICTED BY IDOCK:   -0.10 KCAL/MOL
REMARK 927      BINDING AFFINITY PREDICTED BY RF-SCORE:    0.00 PKD
ROOT
HETATM    1  N   UNL     1      -9.644  13.456  66.164  1.00  0.00    -0.425 NA 
HETATM    2  H1  UNL     1      -8.725  13.662  66.558  1.00  0.00     0.000 HD 
HETATM    3 CL   UNL     2     -11.114  10.610  67.966  1.00  0.00    -0.334 Cl 
HETATM    4  C   UNL     1     -10.681  14.163  66.897  1.00  0.00    -0.286 C  
HETATM    5  H2  UNL     1      -9.681  13.656  65.165  1.00  0.00     0.000 HD 
HETATM    6  O   UNL     2     -12.182  10.813  71.637  1.00  0.00    -0.268 OA 
HETATM    7  C   UNL     2     -11.642  11.576  69.364  1.00  0.00    -0.321 C  
HETATM    8  C   UNL     2     -12.493  10.732  70.239  1.00  0.00    -0.317 C  
HETATM    9  C   UNL     2     -11.928   9.557  70.992  1.00  0.00    -0.328 C  
ENDROOT
BRANCH   4  10
HETATM   10  C   UNL     1     -12.026  13.861  66.321  1.00  0.00    -0.462 C  
HETATM   11  C   UNL     1     -12.270  12.905  65.414  1.00  0.00    -0.528 C  
ENDBRANCH   4  10
TORSDOF 1
ENDMDL
MODEL       49
REMARK 921   NORMALIZED FREE ENERGY PREDICTED BY IDOCK:   -3.14 KCAL/MOL
REMARK 922        TOTAL FREE ENERGY PREDICTED BY IDOCK:   -3.35 KCAL/MOL
REMARK 923 INTER-LIGAND FREE ENERGY PREDICTED BY IDOCK:   -3.32 KCAL/MOL
REMARK 924 INTRA-LIGAND FREE ENERGY PREDICTED BY IDOCK:   -0.03 KCAL/MOL
REMARK 927      BINDING AFFINITY PREDICTED BY RF-SCORE:    0.00 PKD
ROOT
HETATM    1  N   UNL     1     -13.613   9.447  70.719  1.00  0.00    -0.564 NA 
HETATM    2  H1  UNL     1     -14.579   9.741  70.862  1.00  0.00     0.000 HD 
HETATM    3 CL   UNL     2     -12.036  11.655  68.240  1.00  0.00    -0.324 Cl 
HETATM    4  C   UNL     1     -12.722  10.181  71.603  1.00  0.00    -0.447 C  
HETATM    5  H2  UNL     1     -13.504   8.438  70.823  1.00  0.00     0.000 HD 
HETATM    6  O   UNL     2     -11.333  15.357  68.918  1.00  0.00    -0.274 OA 
HETATM    7  C   UNL     2     -11.738  12.980  69.391  1.00  0.00    -0.326 C  
HETATM    8  C   UNL     2     -10.889  14.006  68.735  1.00  0.00    -0.263 C  
HETATM    9  C   UNL     2     -11.401  14.833  67.585  1.00  0.00    -0.339 C  
ENDROOT
BRANCH   4  10
HETATM   10  C   UNL     1     -11.307   9.750  71.394  1.00  0.00    -0.407 C  
HETATM   11  C   UNL     1     -10.803   8.572  71.782  1.00  0.00    -0.374 C  
ENDBRANCH   4  10
TORSDOF 1
ENDMDL
MODEL       50
REMARK 921   NORMALIZED FREE ENERGY PREDICTED BY IDOCK:   -3.12 KCAL/MOL
REMARK 922        TOTAL FREE ENERGY PREDICTED BY IDOCK:   -3.33 KCAL/MOL
REMARK 923 INTER-LIGAND FREE ENERGY PREDICTED BY IDOCK:   -3.23 KCAL/MOL
REMARK 924 INTRA-LIGAND FREE ENERGY PREDICTED BY IDOCK:   -0.10 KCAL/MOL
REMARK 927      BINDING AFFINITY PREDICTED BY RF-SCORE:    0.00 PKD
ROOT
HETATM    1  N   UNL     1     -12.552  14.142  66.265  1.00  0.00    -0.501 NA 
HETATM    2  H1  UNL     1     -13.534  14.408  66.348  1.00  0.00     0.000 HD 
HETATM    3 CL   UNL     2     -10.527  17.163  65.738  1.00  0.00    -0.310 Cl 
HETATM    4  C   UNL     1     -11.897  14.205  67.562  1.00  0.00    -0.401 C  
HETATM    5  H2  UNL     1     -12.442  13.227  65.829  1.00  0.00     0.000 HD 
HETATM    6  O   UNL     2     -10.087  19.854  68.425  1.00  0.00    -0.428 OA 
HETATM    7  C   UNL     2     -10.523  17.640  67.453  1.00  0.00    -0.356 C  
HETATM    8  C   UNL     2      -9.578  18.770  67.636  1.00  0.00    -0.307 C  
HETATM    9  C   UNL     2      -9.846  20.126  67.037  1.00  0.00    -0.455 C  
ENDROOT
BRANCH   4  10
HETATM   10  C   UNL     1     -10.460  13.816  67.440  1.00  0.00    -0.256 C  
HETATM   11  C   UNL     1      -9.508  14.120  68.332  1.00  0.00    -0.214 C  
ENDBRANCH   4  10
TORSDOF 1
ENDMDL
MODEL       51
REMARK 921   NORMALIZED FREE ENERGY PREDICTED BY IDOCK:   -3.11 KCAL/MOL
REMARK 922        TOTAL FREE ENERGY PREDICTED BY IDOCK:   -3.32 KCAL/MOL
REMARK 923 INTER-LIGAND FREE ENERGY PREDICTED BY IDOCK:   -3.29 KCAL/MOL
REMARK 924 INTRA-LIGAND FREE ENERGY PREDICTED BY IDOCK:   -0.03 KCAL/MOL
REMARK 927      BINDING AFFINITY PREDICTED BY RF-SCORE:    0.00 PKD
ROOT
HETATM    1  N   UNL     1     -12.606   7.764  70.727  1.00  0.00    -0.522 NA 
HETATM    2  H1  UNL     1     -13.611   7.683  70.574  1.00  0.00     0.000 HD 
HETATM    3 CL   UNL     2     -11.234  10.261  68.405  1.00  0.00    -0.307 Cl 
HETATM    4  C   UNL     1     -12.321   8.826  71.679  1.00  0.00    -0.337 C  
HETATM    5  H2  UNL     1     -12.192   6.877  71.014  1.00  0.00     0.000 HD 
HETATM    6  O   UNL     2     -12.076  13.988  68.642  1.00  0.00    -0.351 OA 
HETATM    7  C   UNL     2     -11.758  11.663  69.369  1.00  0.00    -0.340 C  
HETATM    8  C   UNL     2     -11.162  12.893  68.792  1.00  0.00    -0.279 C  
HETATM    9  C   UNL     2     -11.568  13.403  67.434  1.00  0.00    -0.354 C  
ENDROOT
BRANCH   4  10
HETATM   10  C   UNL     1     -10.848   8.945  71.902  1.00  0.00    -0.433 C  
HETATM   11  C   UNL     1     -10.135   8.162  72.721  1.00  0.00    -0.367 C  
ENDBRANCH   4  10
TORSDOF 1
ENDMDL
MODEL       52
REMARK 921   NORMALIZED FREE ENERGY PREDICTED BY IDOCK:   -3.09 KCAL/MOL
REMARK 922        TOTAL FREE ENERGY PREDICTED BY IDOCK:   -3.30 KCAL/MOL
REMARK 923 INTER-LIGAND FREE ENERGY PREDICTED BY IDOCK:   -3.23 KCAL/MOL
REMARK 924 INTRA-LIGAND FREE ENERGY PREDICTED BY IDOCK:   -0.06 KCAL/MOL
REMARK 927      BINDING AFFINITY PREDICTED BY RF-SCORE:    0.00 PKD
ROOT
HETATM    1  N   UNL     1      -9.166  10.442  69.534  1.00  0.00    -0.373 NA 
HETATM    2  H1  UNL     1      -8.363  11.062  69.643  1.00  0.00     0.000 HD 
HETATM    3 CL   UNL     2     -11.900  12.282  67.908  1.00  0.00    -0.403 Cl 
HETATM    4  C   UNL     1      -9.134   9.792  68.234  1.00  0.00    -0.122 C  
HETATM    5  H2  UNL     1      -9.228   9.765  70.295  1.00  0.00     0.000 HD 
HETATM    6  O   UNL     2     -11.709  13.488  64.279  1.00  0.00    -0.386 OA 
HETATM    7  C   UNL     2     -11.226  12.127  66.267  1.00  0.00    -0.334 C  
HETATM    8  C   UNL     2     -12.231  12.612  65.287  1.00  0.00    -0.475 C  
HETATM    9  C   UNL     2     -12.629  14.062  65.219  1.00  0.00    -0.470 C  
ENDROOT
BRANCH   4  10
HETATM   10  C   UNL     1     -10.309   8.884  68.075  1.00  0.00    -0.271 C  
HETATM   11  C   UNL     1     -10.533   8.105  67.008  1.00  0.00    -0.396 C  
ENDBRANCH   4  10
TORSDOF 1
ENDMDL
MODEL       53
REMARK 921   NORMALIZED FREE ENERGY PREDICTED BY IDOCK:   -3.08 KCAL/MOL
REMARK 922        TOTAL FREE ENERGY PREDICTED BY IDOCK:   -3.29 KCAL/MOL
REMARK 923 INTER-LIGAND FREE ENERGY PREDICTED BY IDOCK:   -3.27 KCAL/MOL
REMARK 924 INTRA-LIGAND FREE ENERGY PREDICTED BY IDOCK:   -0.03 KCAL/MOL
REMARK 927      BINDING AFFINITY PREDICTED BY RF-SCORE:    0.00 PKD
ROOT
HETATM    1  N   UNL     1     -11.516  16.361  64.076  1.00  0.00    -1.573 NA 
HETATM    2  H1  UNL     1     -11.300  15.966  63.160  1.00  0.00     0.000 HD 
HETATM    3 CL   UNL     2     -12.383  13.639  66.388  1.00  0.00    -0.461 Cl 
HETATM    4  C   UNL     1     -10.327  16.387  64.913  1.00  0.00     0.249 C  
HETATM    5  H2  UNL     1     -11.946  17.283  63.999  1.00  0.00     0.000 HD 
HETATM    6  O   UNL     2      -9.837  11.032  67.561  1.00  0.00    -0.167 OA 
HETATM    7  C   UNL     2     -10.696  13.167  66.700  1.00  0.00    -0.279 C  
HETATM    8  C   UNL     2     -10.670  12.174  67.803  1.00  0.00    -0.209 C  
HETATM    9  C   UNL     2     -11.250  10.795  67.635  1.00  0.00    -0.299 C  
ENDROOT
BRANCH   4  10
HETATM   10  C   UNL     1     -10.645  16.965  66.253  1.00  0.00    -0.191 C  
HETATM   11  C   UNL     1      -9.924  17.913  66.865  1.00  0.00    -0.335 C  
ENDBRANCH   4  10
TORSDOF 1
ENDMDL
MODEL       54
REMARK 921   NORMALIZED FREE ENERGY PREDICTED BY IDOCK:   -3.08 KCAL/MOL
REMARK 922        TOTAL FREE ENERGY PREDICTED BY IDOCK:   -3.29 KCAL/MOL
REMARK 923 INTER-LIGAND FREE ENERGY PREDICTED BY IDOCK:   -3.19 KCAL/MOL
REMARK 924 INTRA-LIGAND FREE ENERGY PREDICTED BY IDOCK:   -0.10 KCAL/MOL
REMARK 927      BINDING AFFINITY PREDICTED BY RF-SCORE:    0.00 PKD
ROOT
HETATM    1  N   UNL     1     -10.149   7.783  70.680  1.00  0.00    -0.191 NA 
HETATM    2  H1  UNL     1     -10.013   7.004  70.035  1.00  0.00     0.000 HD 
HETATM    3 CL   UNL     2      -9.689  10.944  68.862  1.00  0.00    -0.204 Cl 
HETATM    4  C   UNL     1     -11.532   8.232  70.651  1.00  0.00    -0.225 C  
HETATM    5  H2  UNL     1      -9.845   7.551  71.625  1.00  0.00     0.000 HD 
HETATM    6  O   UNL     2     -12.099  12.131  66.134  1.00  0.00    -0.621 OA 
HETATM    7  C   UNL     2     -11.310  10.929  68.126  1.00  0.00    -0.315 C  
HETATM    8  C   UNL     2     -11.545  12.231  67.453  1.00  0.00    -0.355 C  
HETATM    9  C   UNL     2     -10.761  12.640  66.234  1.00  0.00    -0.256 C  
ENDROOT
BRANCH   4  10
HETATM   10  C   UNL     1     -11.731   9.372  71.595  1.00  0.00    -0.468 C  
HETATM   11  C   UNL     1     -12.720  10.271  71.508  1.00  0.00    -0.557 C  
ENDBRANCH   4  10
TORSDOF 1
ENDMDL
MODEL       55
REMARK 921   NORMALIZED FREE ENERGY PREDICTED BY IDOCK:   -3.05 KCAL/MOL
REMARK 922        TOTAL FREE ENERGY PREDICTED BY IDOCK:   -3.26 KCAL/MOL
REMARK 923 INTER-LIGAND FREE ENERGY PREDICTED BY IDOCK:   -3.16 KCAL/MOL
REMARK 924 INTRA-LIGAND FREE ENERGY PREDICTED BY IDOCK:   -0.09 KCAL/MOL
REMARK 927      BINDING AFFINITY PREDICTED BY RF-SCORE:    0.00 PKD
ROOT
HETATM    1  N   UNL     1     -11.882  10.810  67.835  1.00  0.00    -0.742 NA 
HETATM    2  H1  UNL     1     -12.778  10.334  67.727  1.00  0.00     0.000 HD 
HETATM    3 CL   UNL     2     -12.426  14.029  69.522  1.00  0.00    -0.265 Cl 
HETATM    4  C   UNL     1     -11.291  10.492  69.126  1.00  0.00    -0.257 C  
HETATM    5  H2  UNL     1     -11.247  10.602  67.065  1.00  0.00     0.000 HD 
HETATM    6  O   UNL     2     -13.572  14.288  73.166  1.00  0.00    -0.594 OA 
HETATM    7  C   UNL     2     -12.546  13.324  71.152  1.00  0.00    -0.325 C  
HETATM    8  C   UNL     2     -12.567  14.422  72.151  1.00  0.00    -0.296 C  
HETATM    9  C   UNL     2     -13.727  15.377  72.246  1.00  0.00    -0.526 C  
ENDROOT
BRANCH   4  10
HETATM   10  C   UNL     1      -9.980  11.189  69.284  1.00  0.00    -0.034 C  
HETATM   11  C   UNL     1      -9.530  12.162  68.480  1.00  0.00    -0.125 C  
ENDBRANCH   4  10
TORSDOF 1
ENDMDL
MODEL       56
REMARK 921   NORMALIZED FREE ENERGY PREDICTED BY IDOCK:   -3.04 KCAL/MOL
REMARK 922        TOTAL FREE ENERGY PREDICTED BY IDOCK:   -3.25 KCAL/MOL
REMARK 923 INTER-LIGAND FREE ENERGY PREDICTED BY IDOCK:   -3.18 KCAL/MOL
REMARK 924 INTRA-LIGAND FREE ENERGY PREDICTED BY IDOCK:   -0.07 KCAL/MOL
REMARK 927      BINDING AFFINITY PREDICTED BY RF-SCORE:    0.00 PKD
ROOT
HETATM    1  N   UNL     1     -10.921   6.872  71.304  1.00  0.00    -0.238 NA 
HETATM    2  H1  UNL     1     -10.747   6.159  70.595  1.00  0.00     0.000 HD 
HETATM    3 CL   UNL     2     -10.008  10.165  69.951  1.00  0.00    -0.273 Cl 
HETATM    4  C   UNL     1     -12.255   7.430  71.146  1.00  0.00    -0.324 C  
HETATM    5  H2  UNL     1     -10.769   6.515  72.247  1.00  0.00     0.000 HD 
HETATM    6  O   UNL     2     -11.928  11.830  67.088  1.00  0.00    -0.617 OA 
HETATM    7  C   UNL     2     -11.507  10.360  69.011  1.00  0.00    -0.193 C  
HETATM    8  C   UNL     2     -11.560  11.741  68.471  1.00  0.00    -0.321 C  
HETATM    9  C   UNL     2     -10.588  12.216  67.424  1.00  0.00    -0.226 C  
ENDROOT
BRANCH   4  10
HETATM   10  C   UNL     1     -12.510   8.474  72.183  1.00  0.00    -0.437 C  
HETATM   11  C   UNL     1     -13.653   9.160  72.311  1.00  0.00    -0.548 C  
ENDBRANCH   4  10
TORSDOF 1
ENDMDL
MODEL       57
REMARK 921   NORMALIZED FREE ENERGY PREDICTED BY IDOCK:   -3.04 KCAL/MOL
REMARK 922        TOTAL FREE ENERGY PREDICTED BY IDOCK:   -3.24 KCAL/MOL
REMARK 923 INTER-LIGAND FREE ENERGY PREDICTED BY IDOCK:   -3.17 KCAL/MOL
REMARK 924 INTRA-LIGAND FREE ENERGY PREDICTED BY IDOCK:   -0.07 KCAL/MOL
REMARK 927      BINDING AFFINITY PREDICTED BY RF-SCORE:    0.00 PKD
ROOT
HETATM    1  N   UNL     1      -9.375  13.621  66.118  1.00  0.00    -0.484 NA 
HETATM    2  H1  UNL     1      -9.157  12.653  66.359  1.00  0.00     0.000 HD 
HETATM    3 CL   UNL     2     -11.986  14.866  68.384  1.00  0.00    -0.299 Cl 
HETATM    4  C   UNL     1      -8.569  14.535  66.911  1.00  0.00    -0.179 C  
HETATM    5  H2  UNL     1      -9.273  13.795  65.118  1.00  0.00     0.000 HD 
HETATM    6  O   UNL     2     -11.391  15.408  72.127  1.00  0.00    -0.434 OA 
HETATM    7  C   UNL     2     -10.871  15.179  69.737  1.00  0.00    -0.284 C  
HETATM    8  C   UNL     2     -11.601  15.912  70.801  1.00  0.00    -0.410 C  
HETATM    9  C   UNL     2     -12.711  15.264  71.585  1.00  0.00    -0.384 C  
ENDROOT
BRANCH   4  10
HETATM   10  C   UNL     1      -8.888  15.951  66.558  1.00  0.00    -0.340 C  
HETATM   11  C   UNL     1      -9.993  16.347  65.913  1.00  0.00    -0.358 C  
ENDBRANCH   4  10
TORSDOF 1
ENDMDL
MODEL       58
REMARK 921   NORMALIZED FREE ENERGY PREDICTED BY IDOCK:   -3.03 KCAL/MOL
REMARK 922        TOTAL FREE ENERGY PREDICTED BY IDOCK:   -3.24 KCAL/MOL
REMARK 923 INTER-LIGAND FREE ENERGY PREDICTED BY IDOCK:   -3.18 KCAL/MOL
REMARK 924 INTRA-LIGAND FREE ENERGY PREDICTED BY IDOCK:   -0.06 KCAL/MOL
REMARK 927      BINDING AFFINITY PREDICTED BY RF-SCORE:    0.00 PKD
ROOT
HETATM    1  N   UNL     1     -12.870  16.039  70.169  1.00  0.00    -0.600 NA 
HETATM    2  H1  UNL     1     -13.184  16.668  70.909  1.00  0.00     0.000 HD 
HETATM    3 CL   UNL     2     -10.911  17.952  67.718  1.00  0.00    -0.328 Cl 
HETATM    4  C   UNL     1     -11.549  15.514  70.475  1.00  0.00    -0.346 C  
HETATM    5  H2  UNL     1     -13.543  15.294  69.993  1.00  0.00     0.000 HD 
HETATM    6  O   UNL     2      -7.504  19.493  68.541  1.00  0.00    -0.309 OA 
HETATM    7  C   UNL     2      -9.424  17.967  68.696  1.00  0.00    -0.309 C  
HETATM    8  C   UNL     2      -8.314  18.514  67.876  1.00  0.00    -0.265 C  
HETATM    9  C   UNL     2      -8.295  19.954  67.437  1.00  0.00    -0.322 C  
ENDROOT
BRANCH   4  10
HETATM   10  C   UNL     1     -11.089  14.595  69.391  1.00  0.00    -0.293 C  
HETATM   11  C   UNL     1     -11.901  13.902  68.582  1.00  0.00    -0.407 C  
ENDBRANCH   4  10
TORSDOF 1
ENDMDL
MODEL       59
REMARK 921   NORMALIZED FREE ENERGY PREDICTED BY IDOCK:   -3.03 KCAL/MOL
REMARK 922        TOTAL FREE ENERGY PREDICTED BY IDOCK:   -3.23 KCAL/MOL
REMARK 923 INTER-LIGAND FREE ENERGY PREDICTED BY IDOCK:   -3.20 KCAL/MOL
REMARK 924 INTRA-LIGAND FREE ENERGY PREDICTED BY IDOCK:   -0.03 KCAL/MOL
REMARK 927      BINDING AFFINITY PREDICTED BY RF-SCORE:    0.00 PKD
ROOT
HETATM    1  N   UNL     1     -12.498  14.178  67.036  1.00  0.00    -0.548 NA 
HETATM    2  H1  UNL     1     -13.449  14.055  66.688  1.00  0.00     0.000 HD 
HETATM    3 CL   UNL     2     -12.252  12.740  70.409  1.00  0.00    -0.413 Cl 
HETATM    4  C   UNL     1     -11.689  13.010  66.726  1.00  0.00    -0.382 C  
HETATM    5  H2  UNL     1     -12.074  15.037  66.685  1.00  0.00     0.000 HD 
HETATM    6  O   UNL     2     -12.544   8.982  71.082  1.00  0.00    -0.293 OA 
HETATM    7  C   UNL     2     -12.107  11.058  69.843  1.00  0.00    -0.361 C  
HETATM    8  C   UNL     2     -11.773  10.189  70.998  1.00  0.00    -0.382 C  
HETATM    9  C   UNL     2     -12.753   9.954  72.116  1.00  0.00    -0.300 C  
ENDROOT
BRANCH   4  10
HETATM   10  C   UNL     1     -10.296  13.191  67.234  1.00  0.00    -0.243 C  
HETATM   11  C   UNL     1      -9.325  13.847  66.585  1.00  0.00    -0.282 C  
ENDBRANCH   4  10
TORSDOF 1
ENDMDL
MODEL       60
REMARK 921   NORMALIZED FREE ENERGY PREDICTED BY IDOCK:   -3.03 KCAL/MOL
REMARK 922        TOTAL FREE ENERGY PREDICTED BY IDOCK:   -3.23 KCAL/MOL
REMARK 923 INTER-LIGAND FREE ENERGY PREDICTED BY IDOCK:   -3.16 KCAL/MOL
REMARK 924 INTRA-LIGAND FREE ENERGY PREDICTED BY IDOCK:   -0.07 KCAL/MOL
REMARK 927      BINDING AFFINITY PREDICTED BY RF-SCORE:    0.00 PKD
ROOT
HETATM    1  N   UNL     1     -10.237  14.435  64.546  1.00  0.00    -0.618 NA 
HETATM    2  H1  UNL     1     -10.130  15.133  65.283  1.00  0.00     0.000 HD 
HETATM    3 CL   UNL     2      -8.961  11.206  65.753  1.00  0.00    -0.209 Cl 
HETATM    4  C   UNL     1     -11.501  13.732  64.691  1.00  0.00    -0.371 C  
HETATM    5  H2  UNL     1     -10.135  14.845  63.618  1.00  0.00     0.000 HD 
HETATM    6  O   UNL     2     -10.658   9.230  68.559  1.00  0.00    -0.213 OA 
HETATM    7  C   UNL     2     -10.419  10.814  66.696  1.00  0.00    -0.246 C  
HETATM    8  C   UNL     2     -10.319   9.414  67.178  1.00  0.00    -0.258 C  
HETATM    9  C   UNL     2      -9.289   9.004  68.196  1.00  0.00    -0.142 C  
ENDROOT
BRANCH   4  10
HETATM   10  C   UNL     1     -11.657  12.710  63.613  1.00  0.00    -0.575 C  
HETATM   11  C   UNL     1     -12.715  11.900  63.475  1.00  0.00    -0.530 C  
ENDBRANCH   4  10
TORSDOF 1
ENDMDL
MODEL       61
REMARK 921   NORMALIZED FREE ENERGY PREDICTED BY IDOCK:   -3.02 KCAL/MOL
REMARK 922        TOTAL FREE ENERGY PREDICTED BY IDOCK:   -3.23 KCAL/MOL
REMARK 923 INTER-LIGAND FREE ENERGY PREDICTED BY IDOCK:   -3.13 KCAL/MOL
REMARK 924 INTRA-LIGAND FREE ENERGY PREDICTED BY IDOCK:   -0.10 KCAL/MOL
REMARK 927      BINDING AFFINITY PREDICTED BY RF-SCORE:    0.00 PKD
ROOT
HETATM    1  N   UNL     1     -11.932   9.440  70.495  1.00  0.00    -0.448 NA 
HETATM    2  H1  UNL     1     -12.197   8.702  69.842  1.00  0.00     0.000 HD 
HETATM    3 CL   UNL     2     -10.400  12.208  68.624  1.00  0.00    -0.227 Cl 
HETATM    4  C   UNL     1     -13.002  10.417  70.619  1.00  0.00    -0.283 C  
HETATM    5  H2  UNL     1     -11.655   9.064  71.401  1.00  0.00     0.000 HD 
HETATM    6  O   UNL     2     -12.373  14.392  66.176  1.00  0.00    -0.401 OA 
HETATM    7  C   UNL     2     -11.950  12.890  68.073  1.00  0.00    -0.275 C  
HETATM    8  C   UNL     2     -11.695  14.200  67.425  1.00  0.00    -0.391 C  
HETATM    9  C   UNL     2     -10.943  14.303  66.125  1.00  0.00    -0.313 C  
ENDROOT
BRANCH   4  10
HETATM   10  C   UNL     1     -12.614  11.498  71.574  1.00  0.00    -0.363 C  
HETATM   11  C   UNL     1     -13.137  12.731  71.585  1.00  0.00    -0.428 C  
ENDBRANCH   4  10
TORSDOF 1
ENDMDL
MODEL       62
REMARK 921   NORMALIZED FREE ENERGY PREDICTED BY IDOCK:   -3.02 KCAL/MOL
REMARK 922        TOTAL FREE ENERGY PREDICTED BY IDOCK:   -3.22 KCAL/MOL
REMARK 923 INTER-LIGAND FREE ENERGY PREDICTED BY IDOCK:   -3.13 KCAL/MOL
REMARK 924 INTRA-LIGAND FREE ENERGY PREDICTED BY IDOCK:   -0.09 KCAL/MOL
REMARK 927      BINDING AFFINITY PREDICTED BY RF-SCORE:    0.00 PKD
ROOT
HETATM    1  N   UNL     1     -12.233  14.392  67.364  1.00  0.00    -0.617 NA 
HETATM    2  H1  UNL     1     -12.554  14.209  68.315  1.00  0.00     0.000 HD 
HETATM    3 CL   UNL     2     -10.536  17.650  67.270  1.00  0.00    -0.351 Cl 
HETATM    4  C   UNL     1     -10.866  13.930  67.190  1.00  0.00    -0.284 C  
HETATM    5  H2  UNL     1     -12.861  13.989  66.668  1.00  0.00     0.000 HD 
HETATM    6  O   UNL     2      -7.208  18.300  69.048  1.00  0.00    -0.277 OA 
HETATM    7  C   UNL     2      -9.007  17.039  67.947  1.00  0.00    -0.228 C  
HETATM    8  C   UNL     2      -7.980  18.107  67.855  1.00  0.00    -0.246 C  
HETATM    9  C   UNL     2      -8.083  19.371  68.666  1.00  0.00    -0.366 C  
ENDROOT
BRANCH   4  10
HETATM   10  C   UNL     1     -10.397  14.197  65.798  1.00  0.00    -0.338 C  
HETATM   11  C   UNL     1     -11.012  15.010  64.928  1.00  0.00    -0.427 C  
ENDBRANCH   4  10
TORSDOF 1
ENDMDL
MODEL       63
REMARK 921   NORMALIZED FREE ENERGY PREDICTED BY IDOCK:   -3.01 KCAL/MOL
REMARK 922        TOTAL FREE ENERGY PREDICTED BY IDOCK:   -3.22 KCAL/MOL
REMARK 923 INTER-LIGAND FREE ENERGY PREDICTED BY IDOCK:   -3.13 KCAL/MOL
REMARK 924 INTRA-LIGAND FREE ENERGY PREDICTED BY IDOCK:   -0.09 KCAL/MOL
REMARK 927      BINDING AFFINITY PREDICTED BY RF-SCORE:    0.00 PKD
ROOT
HETATM    1  N   UNL     1     -10.290  10.646  66.776  1.00  0.00    -0.236 NA 
HETATM    2  H1  UNL     1      -9.620  10.536  67.538  1.00  0.00     0.000 HD 
HETATM    3 CL   UNL     2     -11.429  14.138  66.668  1.00  0.00    -0.359 Cl 
HETATM    4  C   UNL     1      -9.613  11.067  65.561  1.00  0.00    -0.222 C  
HETATM    5  H2  UNL     1     -10.840   9.799  66.631  1.00  0.00     0.000 HD 
HETATM    6  O   UNL     2      -9.119  17.039  65.717  1.00  0.00    -0.530 OA 
HETATM    7  C   UNL     2      -9.980  14.741  65.828  1.00  0.00    -0.347 C  
HETATM    8  C   UNL     2     -10.207  16.152  65.428  1.00  0.00    -0.264 C  
HETATM    9  C   UNL     2     -10.334  17.250  66.450  1.00  0.00    -0.316 C  
ENDROOT
BRANCH   4  10
HETATM   10  C   UNL     1     -10.595  11.228  64.446  1.00  0.00    -0.410 C  
HETATM   11  C   UNL     1     -10.318  11.783  63.259  1.00  0.00    -0.446 C  
ENDBRANCH   4  10
TORSDOF 1
ENDMDL
MODEL       64
REMARK 921   NORMALIZED FREE ENERGY PREDICTED BY IDOCK:   -3.00 KCAL/MOL
REMARK 922        TOTAL FREE ENERGY PREDICTED BY IDOCK:   -3.21 KCAL/MOL
REMARK 923 INTER-LIGAND FREE ENERGY PREDICTED BY IDOCK:   -3.14 KCAL/MOL
REMARK 924 INTRA-LIGAND FREE ENERGY PREDICTED BY IDOCK:   -0.07 KCAL/MOL
REMARK 927      BINDING AFFINITY PREDICTED BY RF-SCORE:    0.00 PKD
ROOT
HETATM    1  N   UNL     1     -11.695  14.815  72.692  1.00  0.00    -0.155 NA 
HETATM    2  H1  UNL     1     -10.803  14.405  72.970  1.00  0.00     0.000 HD 
HETATM    3 CL   UNL     2     -11.558  15.690  69.125  1.00  0.00    -0.367 Cl 
HETATM    4  C   UNL     1     -12.586  13.790  72.172  1.00  0.00    -0.110 C  
HETATM    5  H2  UNL     1     -12.124  15.341  73.453  1.00  0.00     0.000 HD 
HETATM    6  O   UNL     2     -11.338  13.056  66.355  1.00  0.00    -0.295 OA 
HETATM    7  C   UNL     2     -11.846  14.029  68.554  1.00  0.00    -0.364 C  
HETATM    8  C   UNL     2     -12.062  14.056  67.086  1.00  0.00    -0.401 C  
HETATM    9  C   UNL     2     -10.954  14.420  66.133  1.00  0.00    -0.320 C  
ENDROOT
BRANCH   4  10
HETATM   10  C   UNL     1     -13.892  14.391  71.765  1.00  0.00    -0.527 C  
HETATM   11  C   UNL     1     -14.356  15.572  72.196  1.00  0.00    -0.598 C  
ENDBRANCH   4  10
TORSDOF 1
ENDMDL
MODEL       65
REMARK 921   NORMALIZED FREE ENERGY PREDICTED BY IDOCK:   -2.99 KCAL/MOL
REMARK 922        TOTAL FREE ENERGY PREDICTED BY IDOCK:   -3.19 KCAL/MOL
REMARK 923 INTER-LIGAND FREE ENERGY PREDICTED BY IDOCK:   -3.09 KCAL/MOL
REMARK 924 INTRA-LIGAND FREE ENERGY PREDICTED BY IDOCK:   -0.10 KCAL/MOL
REMARK 927      BINDING AFFINITY PREDICTED BY RF-SCORE:    0.00 PKD
ROOT
HETATM    1  N   UNL     1     -12.311  10.638  68.980  1.00  0.00    -0.779 NA 
HETATM    2  H1  UNL     1     -11.707  11.340  68.552  1.00  0.00     0.000 HD 
HETATM    3 CL   UNL     2     -10.225   8.007  70.475  1.00  0.00    -0.197 Cl 
HETATM    4  C   UNL     1     -12.531  10.945  70.384  1.00  0.00    -0.327 C  
HETATM    5  H2  UNL     1     -13.189  10.533  68.472  1.00  0.00     0.000 HD 
HETATM    6  O   UNL     2      -7.965   8.629  73.502  1.00  0.00    -0.410 OA 
HETATM    7  C   UNL     2      -9.835   8.941  71.939  1.00  0.00    -0.294 C  
HETATM    8  C   UNL     2      -9.135   8.056  72.902  1.00  0.00    -0.248 C  
HETATM    9  C   UNL     2      -7.758   7.516  72.620  1.00  0.00    -0.095 C  
ENDROOT
BRANCH   4  10
HETATM   10  C   UNL     1     -13.415   9.916  71.010  1.00  0.00    -0.257 C  
HETATM   11  C   UNL     1     -13.492   9.674  72.326  1.00  0.00    -0.488 C  
ENDBRANCH   4  10
TORSDOF 1
ENDMDL
MODEL       66
REMARK 921   NORMALIZED FREE ENERGY PREDICTED BY IDOCK:   -2.96 KCAL/MOL
REMARK 922        TOTAL FREE ENERGY PREDICTED BY IDOCK:   -3.17 KCAL/MOL
REMARK 923 INTER-LIGAND FREE ENERGY PREDICTED BY IDOCK:   -3.14 KCAL/MOL
REMARK 924 INTRA-LIGAND FREE ENERGY PREDICTED BY IDOCK:   -0.03 KCAL/MOL
REMARK 927      BINDING AFFINITY PREDICTED BY RF-SCORE:    0.00 PKD
ROOT
HETATM    1  N   UNL     1      -9.526  12.908  68.498  1.00  0.00    -0.384 NA 
HETATM    2  H1  UNL     1      -9.083  13.489  69.211  1.00  0.00     0.000 HD 
HETATM    3 CL   UNL     2     -10.063   9.536  69.857  1.00  0.00    -0.238 Cl 
HETATM    4  C   UNL     1     -10.973  12.948  68.638  1.00  0.00    -0.261 C  
HETATM    5  H2  UNL     1      -9.228  13.168  67.558  1.00  0.00     0.000 HD 
HETATM    6  O   UNL     2     -12.534   8.817  72.692  1.00  0.00    -0.361 OA 
HETATM    7  C   UNL     2     -11.521   9.978  70.778  1.00  0.00    -0.356 C  
HETATM    8  C   UNL     2     -12.145   8.742  71.314  1.00  0.00    -0.296 C  
HETATM    9  C   UNL     2     -11.467   7.914  72.373  1.00  0.00    -0.376 C  
ENDROOT
BRANCH   4  10
HETATM   10  C   UNL     1     -11.621  12.098  67.595  1.00  0.00    -0.413 C  
HETATM   11  C   UNL     1     -11.842  12.477  66.330  1.00  0.00    -0.453 C  
ENDBRANCH   4  10
TORSDOF 1
ENDMDL
MODEL       67
REMARK 921   NORMALIZED FREE ENERGY PREDICTED BY IDOCK:   -2.96 KCAL/MOL
REMARK 922        TOTAL FREE ENERGY PREDICTED BY IDOCK:   -3.16 KCAL/MOL
REMARK 923 INTER-LIGAND FREE ENERGY PREDICTED BY IDOCK:   -3.13 KCAL/MOL
REMARK 924 INTRA-LIGAND FREE ENERGY PREDICTED BY IDOCK:   -0.03 KCAL/MOL
REMARK 927      BINDING AFFINITY PREDICTED BY RF-SCORE:    0.00 PKD
ROOT
HETATM    1  N   UNL     1     -12.188  10.395  69.296  1.00  0.00    -0.653 NA 
HETATM    2  H1  UNL     1     -11.322  10.716  68.862  1.00  0.00     0.000 HD 
HETATM    3 CL   UNL     2     -11.883   6.819  70.090  1.00  0.00    -0.377 Cl 
HETATM    4  C   UNL     1     -12.096  10.491  70.745  1.00  0.00    -0.370 C  
HETATM    5  H2  UNL     1     -13.001  10.892  68.934  1.00  0.00     0.000 HD 
HETATM    6  O   UNL     2      -9.471   5.489  72.749  1.00  0.00    -0.148 OA 
HETATM    7  C   UNL     2     -10.929   7.077  71.571  1.00  0.00    -0.234 C  
HETATM    8  C   UNL     2     -10.797   5.785  72.289  1.00  0.00    -0.248 C  
HETATM    9  C   UNL     2      -9.998   4.644  71.717  1.00  0.00    -0.192 C  
ENDROOT
BRANCH   4  10
HETATM   10  C   UNL     1     -13.364  10.021  71.380  1.00  0.00    -0.432 C  
HETATM   11  C   UNL     1     -13.432   9.324  72.522  1.00  0.00    -0.471 C  
ENDBRANCH   4  10
TORSDOF 1
ENDMDL
MODEL       68
REMARK 921   NORMALIZED FREE ENERGY PREDICTED BY IDOCK:   -2.95 KCAL/MOL
REMARK 922        TOTAL FREE ENERGY PREDICTED BY IDOCK:   -3.15 KCAL/MOL
REMARK 923 INTER-LIGAND FREE ENERGY PREDICTED BY IDOCK:   -3.13 KCAL/MOL
REMARK 924 INTRA-LIGAND FREE ENERGY PREDICTED BY IDOCK:   -0.03 KCAL/MOL
REMARK 927      BINDING AFFINITY PREDICTED BY RF-SCORE:    0.00 PKD
ROOT
HETATM    1  N   UNL     1     -10.468  19.932  69.310  1.00  0.00    -0.544 NA 
HETATM    2  H1  UNL     1     -11.414  20.312  69.363  1.00  0.00     0.000 HD 
HETATM    3 CL   UNL     2     -10.577  16.326  70.011  1.00  0.00    -0.278 Cl 
HETATM    4  C   UNL     1     -10.195  19.433  67.972  1.00  0.00    -0.423 C  
HETATM    5  H2  UNL     1      -9.770  20.611  69.612  1.00  0.00     0.000 HD 
HETATM    6  O   UNL     2     -12.253  13.812  67.660  1.00  0.00    -0.337 OA 
HETATM    7  C   UNL     2     -11.130  15.875  68.380  1.00  0.00    -0.345 C  
HETATM    8  C   UNL     2     -11.083  14.398  68.247  1.00  0.00    -0.259 C  
HETATM    9  C   UNL     2     -12.003  13.507  69.039  1.00  0.00    -0.335 C  
ENDROOT
BRANCH   4  10
HETATM   10  C   UNL     1      -8.810  18.878  67.895  1.00  0.00    -0.326 C  
HETATM   11  C   UNL     1      -7.817  19.403  67.167  1.00  0.00    -0.279 C  
ENDBRANCH   4  10
TORSDOF 1
ENDMDL
MODEL       69
REMARK 921   NORMALIZED FREE ENERGY PREDICTED BY IDOCK:   -2.94 KCAL/MOL
REMARK 922        TOTAL FREE ENERGY PREDICTED BY IDOCK:   -3.14 KCAL/MOL
REMARK 923 INTER-LIGAND FREE ENERGY PREDICTED BY IDOCK:   -3.04 KCAL/MOL
REMARK 924 INTRA-LIGAND FREE ENERGY PREDICTED BY IDOCK:   -0.10 KCAL/MOL
REMARK 927      BINDING AFFINITY PREDICTED BY RF-SCORE:    0.00 PKD
ROOT
HETATM    1  N   UNL     1     -10.370   6.263  73.287  1.00  0.00    -0.215 NA 
HETATM    2  H1  UNL     1      -9.643   6.629  73.903  1.00  0.00     0.000 HD 
HETATM    3 CL   UNL     2     -12.849   8.900  72.648  1.00  0.00    -0.403 Cl 
HETATM    4  C   UNL     1     -10.047   6.546  71.897  1.00  0.00    -0.182 C  
HETATM    5  H2  UNL     1     -10.534   5.269  73.443  1.00  0.00     0.000 HD 
HETATM    6  O   UNL     2     -12.040  12.058  70.641  1.00  0.00    -0.373 OA 
HETATM    7  C   UNL     2     -11.864   9.735  71.423  1.00  0.00    -0.408 C  
HETATM    8  C   UNL     2     -12.690  10.787  70.778  1.00  0.00    -0.360 C  
HETATM    9  C   UNL     2     -13.157  11.999  71.539  1.00  0.00    -0.261 C  
ENDROOT
BRANCH   4  10
HETATM   10  C   UNL     1     -11.110   6.010  70.995  1.00  0.00    -0.348 C  
HETATM   11  C   UNL     1     -11.325   6.422  69.739  1.00  0.00    -0.494 C  
ENDBRANCH   4  10
TORSDOF 1
ENDMDL
MODEL       70
REMARK 921   NORMALIZED FREE ENERGY PREDICTED BY IDOCK:   -2.93 KCAL/MOL
REMARK 922        TOTAL FREE ENERGY PREDICTED BY IDOCK:   -3.13 KCAL/MOL
REMARK 923 INTER-LIGAND FREE ENERGY PREDICTED BY IDOCK:   -3.03 KCAL/MOL
REMARK 924 INTRA-LIGAND FREE ENERGY PREDICTED BY IDOCK:   -0.10 KCAL/MOL
REMARK 927      BINDING AFFINITY PREDICTED BY RF-SCORE:    0.00 PKD
ROOT
HETATM    1  N   UNL     1     -13.425   8.749  72.970  1.00  0.00    -0.938 NA 
HETATM    2  H1  UNL     1     -14.221   8.114  73.028  1.00  0.00     0.000 HD 
HETATM    3 CL   UNL     2     -10.363   6.930  73.878  1.00  0.00    -0.401 Cl 
HETATM    4  C   UNL     1     -12.808   8.672  71.655  1.00  0.00    -0.345 C  
HETATM    5  H2  UNL     1     -13.684   9.706  73.211  1.00  0.00     0.000 HD 
HETATM    6  O   UNL     2      -8.913   4.116  71.725  1.00  0.00    -0.113 OA 
HETATM    7  C   UNL     2     -10.184   6.141  72.292  1.00  0.00    -0.185 C  
HETATM    8  C   UNL     2      -8.870   5.452  72.243  1.00  0.00    -0.129 C  
HETATM    9  C   UNL     2      -8.573   4.258  73.111  1.00  0.00    -0.093 C  
ENDROOT
BRANCH   4  10
HETATM   10  C   UNL     1     -11.643   9.602  71.569  1.00  0.00    -0.451 C  
HETATM   11  C   UNL     1     -10.674   9.528  70.647  1.00  0.00    -0.375 C  
ENDBRANCH   4  10
TORSDOF 1
ENDMDL
MODEL       71
REMARK 921   NORMALIZED FREE ENERGY PREDICTED BY IDOCK:   -2.92 KCAL/MOL
REMARK 922        TOTAL FREE ENERGY PREDICTED BY IDOCK:   -3.12 KCAL/MOL
REMARK 923 INTER-LIGAND FREE ENERGY PREDICTED BY IDOCK:   -3.05 KCAL/MOL
REMARK 924 INTRA-LIGAND FREE ENERGY PREDICTED BY IDOCK:   -0.07 KCAL/MOL
REMARK 927      BINDING AFFINITY PREDICTED BY RF-SCORE:    0.00 PKD
ROOT
HETATM    1  N   UNL     1      -9.589  16.935  65.837  1.00  0.00    -0.512 NA 
HETATM    2  H1  UNL     1     -10.396  17.113  65.238  1.00  0.00     0.000 HD 
HETATM    3 CL   UNL     2     -10.659  17.003  69.352  1.00  0.00    -0.310 Cl 
HETATM    4  C   UNL     1      -9.480  15.516  66.135  1.00  0.00    -0.341 C  
HETATM    5  H2  UNL     1      -8.729  17.306  65.433  1.00  0.00     0.000 HD 
HETATM    6  O   UNL     2     -12.985  14.361  70.858  1.00  0.00    -0.342 OA 
HETATM    7  C   UNL     2     -11.336  15.357  69.332  1.00  0.00    -0.307 C  
HETATM    8  C   UNL     2     -11.692  14.967  70.719  1.00  0.00    -0.311 C  
HETATM    9  C   UNL     2     -12.808  15.647  71.467  1.00  0.00    -0.471 C  
ENDROOT
BRANCH   4  10
HETATM   10  C   UNL     1      -8.298  15.257  67.011  1.00  0.00    -0.267 C  
HETATM   11  C   UNL     1      -7.910  14.045  67.430  1.00  0.00    -0.188 C  
ENDBRANCH   4  10
TORSDOF 1
ENDMDL
MODEL       72
REMARK 921   NORMALIZED FREE ENERGY PREDICTED BY IDOCK:   -2.89 KCAL/MOL
REMARK 922        TOTAL FREE ENERGY PREDICTED BY IDOCK:   -3.09 KCAL/MOL
REMARK 923 INTER-LIGAND FREE ENERGY PREDICTED BY IDOCK:   -3.05 KCAL/MOL
REMARK 924 INTRA-LIGAND FREE ENERGY PREDICTED BY IDOCK:   -0.04 KCAL/MOL
REMARK 927      BINDING AFFINITY PREDICTED BY RF-SCORE:    0.00 PKD
ROOT
HETATM    1  N   UNL     1     -12.034  10.728  67.978  1.00  0.00    -0.773 NA 
HETATM    2  H1  UNL     1     -12.502  10.675  68.883  1.00  0.00     0.000 HD 
HETATM    3 CL   UNL     2     -11.835  14.245  66.930  1.00  0.00    -0.439 Cl 
HETATM    4  C   UNL     1     -10.606  10.936  68.154  1.00  0.00    -0.198 C  
HETATM    5  H2  UNL     1     -12.230   9.909  67.401  1.00  0.00     0.000 HD 
HETATM    6  O   UNL     2      -9.677  16.827  68.755  1.00  0.00    -0.243 OA 
HETATM    7  C   UNL     2     -10.439  14.629  67.967  1.00  0.00    -0.236 C  
HETATM    8  C   UNL     2      -9.946  15.986  67.625  1.00  0.00    -0.239 C  
HETATM    9  C   UNL     2     -10.766  17.217  67.907  1.00  0.00    -0.355 C  
ENDROOT
BRANCH   4  10
HETATM   10  C   UNL     1      -9.922  11.014  66.829  1.00  0.00    -0.240 C  
HETATM   11  C   UNL     1     -10.118  10.158  65.817  1.00  0.00    -0.324 C  
ENDBRANCH   4  10
TORSDOF 1
ENDMDL
MODEL       73
REMARK 921   NORMALIZED FREE ENERGY PREDICTED BY IDOCK:   -2.88 KCAL/MOL
REMARK 922        TOTAL FREE ENERGY PREDICTED BY IDOCK:   -3.07 KCAL/MOL
REMARK 923 INTER-LIGAND FREE ENERGY PREDICTED BY IDOCK:   -2.99 KCAL/MOL
REMARK 924 INTRA-LIGAND FREE ENERGY PREDICTED BY IDOCK:   -0.09 KCAL/MOL
REMARK 927      BINDING AFFINITY PREDICTED BY RF-SCORE:    0.00 PKD
ROOT
HETATM    1  N   UNL     1     -10.499  17.631  67.119  1.00  0.00    -0.338 NA 
HETATM    2  H1  UNL     1     -11.456  17.973  67.029  1.00  0.00     0.000 HD 
HETATM    3 CL   UNL     2     -10.505  14.543  69.112  1.00  0.00    -0.243 Cl 
HETATM    4  C   UNL     1     -10.199  16.679  66.062  1.00  0.00    -0.351 C  
HETATM    5  H2  UNL     1      -9.824  18.396  67.144  1.00  0.00     0.000 HD 
HETATM    6  O   UNL     2     -12.082  11.283  67.871  1.00  0.00    -0.634 OA 
HETATM    7  C   UNL     2     -11.029  13.501  67.768  1.00  0.00    -0.266 C  
HETATM    8  C   UNL     2     -10.936  12.082  68.194  1.00  0.00    -0.230 C  
HETATM    9  C   UNL     2     -11.835  11.521  69.264  1.00  0.00    -0.348 C  
ENDROOT
BRANCH   4  10
HETATM   10  C   UNL     1      -8.797  16.179  66.193  1.00  0.00    -0.367 C  
HETATM   11  C   UNL     1      -7.904  16.634  67.082  1.00  0.00    -0.211 C  
ENDBRANCH   4  10
TORSDOF 1
ENDMDL
MODEL       74
REMARK 921   NORMALIZED FREE ENERGY PREDICTED BY IDOCK:   -2.86 KCAL/MOL
REMARK 922        TOTAL FREE ENERGY PREDICTED BY IDOCK:   -3.06 KCAL/MOL
REMARK 923 INTER-LIGAND FREE ENERGY PREDICTED BY IDOCK:   -3.01 KCAL/MOL
REMARK 924 INTRA-LIGAND FREE ENERGY PREDICTED BY IDOCK:   -0.05 KCAL/MOL
REMARK 927      BINDING AFFINITY PREDICTED BY RF-SCORE:    0.00 PKD
ROOT
HETATM    1  N   UNL     1     -10.133   7.919  66.271  1.00  0.00    -0.478 NA 
HETATM    2  H1  UNL     1     -11.003   7.393  66.184  1.00  0.00     0.000 HD 
HETATM    3 CL   UNL     2     -10.327  10.921  64.159  1.00  0.00    -0.431 Cl 
HETATM    4  C   UNL     1     -10.250   8.925  67.315  1.00  0.00    -0.258 C  
HETATM    5  H2  UNL     1      -9.332   7.307  66.422  1.00  0.00     0.000 HD 
HETATM    6  O   UNL     2     -12.733  13.810  64.885  1.00  0.00    -0.637 OA 
HETATM    7  C   UNL     2     -11.312  11.851  65.313  1.00  0.00    -0.275 C  
HETATM    8  C   UNL     2     -11.411  13.254  64.840  1.00  0.00    -0.318 C  
HETATM    9  C   UNL     2     -12.161  13.611  63.584  1.00  0.00    -0.342 C  
ENDROOT
BRANCH   4  10
HETATM   10  C   UNL     1      -8.977   9.695  67.442  1.00  0.00    -0.141 C  
HETATM   11  C   UNL     1      -8.649  10.458  68.493  1.00  0.00    -0.134 C  
ENDBRANCH   4  10
TORSDOF 1
ENDMDL
MODEL       75
REMARK 921   NORMALIZED FREE ENERGY PREDICTED BY IDOCK:   -2.82 KCAL/MOL
REMARK 922        TOTAL FREE ENERGY PREDICTED BY IDOCK:   -3.01 KCAL/MOL
REMARK 923 INTER-LIGAND FREE ENERGY PREDICTED BY IDOCK:   -2.91 KCAL/MOL
REMARK 924 INTRA-LIGAND FREE ENERGY PREDICTED BY IDOCK:   -0.10 KCAL/MOL
REMARK 927      BINDING AFFINITY PREDICTED BY RF-SCORE:    0.00 PKD
ROOT
HETATM    1  N   UNL     1     -12.305  14.333  66.855  1.00  0.00    -0.571 NA 
HETATM    2  H1  UNL     1     -13.032  14.278  67.570  1.00  0.00     0.000 HD 
HETATM    3 CL   UNL     2      -9.837  11.673  67.440  1.00  0.00    -0.193 Cl 
HETATM    4  C   UNL     1     -12.632  13.470  65.732  1.00  0.00    -0.434 C  
HETATM    5  H2  UNL     1     -12.137  15.294  66.559  1.00  0.00     0.000 HD 
HETATM    6  O   UNL     2     -10.662   7.958  67.025  1.00  0.00    -0.339 OA 
HETATM    7  C   UNL     2     -10.827  10.389  66.707  1.00  0.00    -0.116 C  
HETATM    8  C   UNL     2     -10.007   9.157  66.589  1.00  0.00    -0.273 C  
HETATM    9  C   UNL     2      -9.543   8.401  67.806  1.00  0.00    -0.156 C  
ENDROOT
BRANCH   4  10
HETATM   10  C   UNL     1     -11.568  13.550  64.686  1.00  0.00    -0.395 C  
HETATM   11  C   UNL     1     -10.385  14.158  64.846  1.00  0.00    -0.435 C  
ENDBRANCH   4  10
TORSDOF 1
ENDMDL
MODEL       76
REMARK 921   NORMALIZED FREE ENERGY PREDICTED BY IDOCK:   -2.80 KCAL/MOL
REMARK 922        TOTAL FREE ENERGY PREDICTED BY IDOCK:   -3.00 KCAL/MOL
REMARK 923 INTER-LIGAND FREE ENERGY PREDICTED BY IDOCK:   -2.90 KCAL/MOL
REMARK 924 INTRA-LIGAND FREE ENERGY PREDICTED BY IDOCK:   -0.09 KCAL/MOL
REMARK 927      BINDING AFFINITY PREDICTED BY RF-SCORE:    0.00 PKD
ROOT
HETATM    1  N   UNL     1     -10.132  14.139  64.953  1.00  0.00    -0.575 NA 
HETATM    2  H1  UNL     1     -10.193  14.524  64.010  1.00  0.00     0.000 HD 
HETATM    3 CL   UNL     2      -7.859  16.217  66.959  1.00  0.00    -0.228 Cl 
HETATM    4  C   UNL     1     -11.111  14.770  65.824  1.00  0.00    -0.338 C  
HETATM    5  H2  UNL     1     -10.222  13.123  64.954  1.00  0.00     0.000 HD 
HETATM    6  O   UNL     2      -8.683  19.823  67.947  1.00  0.00    -0.313 OA 
HETATM    7  C   UNL     2      -9.063  17.490  67.274  1.00  0.00    -0.239 C  
HETATM    8  C   UNL     2      -8.510  18.437  68.274  1.00  0.00    -0.303 C  
HETATM    9  C   UNL     2      -7.338  19.326  67.954  1.00  0.00    -0.256 C  
ENDROOT
BRANCH   4  10
HETATM   10  C   UNL     1     -11.022  14.206  67.204  1.00  0.00    -0.304 C  
HETATM   11  C   UNL     1     -11.603  14.741  68.286  1.00  0.00    -0.348 C  
ENDBRANCH   4  10
TORSDOF 1
ENDMDL
MODEL       77
REMARK 921   NORMALIZED FREE ENERGY PREDICTED BY IDOCK:   -2.80 KCAL/MOL
REMARK 922        TOTAL FREE ENERGY PREDICTED BY IDOCK:   -3.00 KCAL/MOL
REMARK 923 INTER-LIGAND FREE ENERGY PREDICTED BY IDOCK:   -2.90 KCAL/MOL
REMARK 924 INTRA-LIGAND FREE ENERGY PREDICTED BY IDOCK:   -0.10 KCAL/MOL
REMARK 927      BINDING AFFINITY PREDICTED BY RF-SCORE:    0.00 PKD
ROOT
HETATM    1  N   UNL     1      -9.014  12.180  68.689  1.00  0.00    -0.378 NA 
HETATM    2  H1  UNL     1      -8.052  12.127  68.352  1.00  0.00     0.000 HD 
HETATM    3 CL   UNL     2      -9.767  15.647  69.645  1.00  0.00    -0.284 Cl 
HETATM    4  C   UNL     1      -9.915  12.524  67.601  1.00  0.00    -0.201 C  
HETATM    5  H2  UNL     1      -9.298  11.321  69.160  1.00  0.00     0.000 HD 
HETATM    6  O   UNL     2      -9.977  18.497  67.097  1.00  0.00    -0.309 OA 
HETATM    7  C   UNL     2     -10.044  16.204  67.978  1.00  0.00    -0.242 C  
HETATM    8  C   UNL     2     -10.592  17.583  68.015  1.00  0.00    -0.384 C  
HETATM    9  C   UNL     2      -9.764  18.746  68.494  1.00  0.00    -0.380 C  
ENDROOT
BRANCH   4  10
HETATM   10  C   UNL     1     -11.323  12.601  68.095  1.00  0.00    -0.334 C  
HETATM   11  C   UNL     1     -11.687  12.515  69.381  1.00  0.00    -0.383 C  
ENDBRANCH   4  10
TORSDOF 1
ENDMDL
MODEL       78
REMARK 921   NORMALIZED FREE ENERGY PREDICTED BY IDOCK:   -2.78 KCAL/MOL
REMARK 922        TOTAL FREE ENERGY PREDICTED BY IDOCK:   -2.97 KCAL/MOL
REMARK 923 INTER-LIGAND FREE ENERGY PREDICTED BY IDOCK:   -2.94 KCAL/MOL
REMARK 924 INTRA-LIGAND FREE ENERGY PREDICTED BY IDOCK:   -0.03 KCAL/MOL
REMARK 927      BINDING AFFINITY PREDICTED BY RF-SCORE:    0.00 PKD
ROOT
HETATM    1  N   UNL     1     -12.011   7.946  72.990  1.00  0.00    -0.646 NA 
HETATM    2  H1  UNL     1     -12.324   7.044  73.352  1.00  0.00     0.000 HD 
HETATM    3 CL   UNL     2      -9.757   7.384  70.142  1.00  0.00    -0.175 Cl 
HETATM    4  C   UNL     1     -12.884   8.394  71.918  1.00  0.00    -0.353 C  
HETATM    5  H2  UNL     1     -11.929   8.644  73.729  1.00  0.00     0.000 HD 
HETATM    6  O   UNL     2     -10.951   5.903  66.820  1.00  0.00    -0.299 OA 
HETATM    7  C   UNL     2     -11.066   7.075  68.976  1.00  0.00    -0.074 C  
HETATM    8  C   UNL     2     -10.488   7.005  67.611  1.00  0.00    -0.237 C  
HETATM    9  C   UNL     2      -9.569   5.886  67.201  1.00  0.00    -0.127 C  
ENDROOT
BRANCH   4  10
HETATM   10  C   UNL     1     -12.426   9.713  71.388  1.00  0.00    -0.465 C  
HETATM   11  C   UNL     1     -12.975  10.894  71.702  1.00  0.00    -0.569 C  
ENDBRANCH   4  10
TORSDOF 1
ENDMDL
MODEL       79
REMARK 921   NORMALIZED FREE ENERGY PREDICTED BY IDOCK:   -2.77 KCAL/MOL
REMARK 922        TOTAL FREE ENERGY PREDICTED BY IDOCK:   -2.96 KCAL/MOL
REMARK 923 INTER-LIGAND FREE ENERGY PREDICTED BY IDOCK:   -2.86 KCAL/MOL
REMARK 924 INTRA-LIGAND FREE ENERGY PREDICTED BY IDOCK:   -0.10 KCAL/MOL
REMARK 927      BINDING AFFINITY PREDICTED BY RF-SCORE:    0.00 PKD
ROOT
HETATM    1  N   UNL     1      -9.637   5.936  70.973  1.00  0.00    -0.165 NA 
HETATM    2  H1  UNL     1      -9.337   5.505  70.098  1.00  0.00     0.000 HD 
HETATM    3 CL   UNL     2      -9.676   9.588  70.566  1.00  0.00    -0.324 Cl 
HETATM    4  C   UNL     1     -11.076   6.148  70.968  1.00  0.00    -0.297 C  
HETATM    5  H2  UNL     1      -9.336   5.396  71.785  1.00  0.00     0.000 HD 
HETATM    6  O   UNL     2     -12.143  11.386  68.256  1.00  0.00    -0.606 OA 
HETATM    7  C   UNL     2     -11.236   9.625  69.709  1.00  0.00    -0.174 C  
HETATM    8  C   UNL     2     -11.672  11.036  69.565  1.00  0.00    -0.329 C  
HETATM    9  C   UNL     2     -10.924  12.006  68.689  1.00  0.00    -0.240 C  
ENDROOT
BRANCH   4  10
HETATM   10  C   UNL     1     -11.515   6.779  72.249  1.00  0.00    -0.314 C  
HETATM   11  C   UNL     1     -10.687   7.233  73.199  1.00  0.00    -0.411 C  
ENDBRANCH   4  10
TORSDOF 1
ENDMDL
MODEL       80
REMARK 921   NORMALIZED FREE ENERGY PREDICTED BY IDOCK:   -2.74 KCAL/MOL
REMARK 922        TOTAL FREE ENERGY PREDICTED BY IDOCK:   -2.93 KCAL/MOL
REMARK 923 INTER-LIGAND FREE ENERGY PREDICTED BY IDOCK:   -2.84 KCAL/MOL
REMARK 924 INTRA-LIGAND FREE ENERGY PREDICTED BY IDOCK:   -0.09 KCAL/MOL
REMARK 927      BINDING AFFINITY PREDICTED BY RF-SCORE:    0.00 PKD
ROOT
HETATM    1  N   UNL     1     -13.027   8.990  70.990  1.00  0.00    -0.524 NA 
HETATM    2  H1  UNL     1     -13.741   9.365  70.364  1.00  0.00     0.000 HD 
HETATM    3 CL   UNL     2     -11.377   6.138  69.363  1.00  0.00    -0.482 Cl 
HETATM    4  C   UNL     1     -11.737   9.602  70.714  1.00  0.00    -0.314 C  
HETATM    5  H2  UNL     1     -13.292   9.089  71.969  1.00  0.00     0.000 HD 
HETATM    6  O   UNL     2      -9.165   6.520  66.261  1.00  0.00    -0.159 OA 
HETATM    7  C   UNL     2     -10.323   7.141  68.338  1.00  0.00    -0.194 C  
HETATM    8  C   UNL     2      -9.333   6.265  67.663  1.00  0.00    -0.116 C  
HETATM    9  C   UNL     2      -9.751   5.261  66.622  1.00  0.00    -0.164 C  
ENDROOT
BRANCH   4  10
HETATM   10  C   UNL     1     -10.693   9.053  71.630  1.00  0.00    -0.441 C  
HETATM   11  C   UNL     1     -10.919   8.142  72.586  1.00  0.00    -0.440 C  
ENDBRANCH   4  10
TORSDOF 1
ENDMDL
MODEL       81
REMARK 921   NORMALIZED FREE ENERGY PREDICTED BY IDOCK:   -2.73 KCAL/MOL
REMARK 922        TOTAL FREE ENERGY PREDICTED BY IDOCK:   -2.92 KCAL/MOL
REMARK 923 INTER-LIGAND FREE ENERGY PREDICTED BY IDOCK:   -2.82 KCAL/MOL
REMARK 924 INTRA-LIGAND FREE ENERGY PREDICTED BY IDOCK:   -0.10 KCAL/MOL
REMARK 927      BINDING AFFINITY PREDICTED BY RF-SCORE:    0.00 PKD
ROOT
HETATM    1  N   UNL     1      -8.389  11.920  66.433  1.00  0.00    -0.376 NA 
HETATM    2  H1  UNL     1      -7.729  12.503  66.948  1.00  0.00     0.000 HD 
HETATM    3 CL   UNL     2     -10.225   9.795  68.804  1.00  0.00    -0.199 Cl 
HETATM    4  C   UNL     1      -9.689  12.568  66.359  1.00  0.00    -0.249 C  
HETATM    5  H2  UNL     1      -8.036  11.672  65.509  1.00  0.00     0.000 HD 
HETATM    6  O   UNL     2     -12.700  11.207  71.361  1.00  0.00    -0.405 OA 
HETATM    7  C   UNL     2     -11.350  11.077  69.311  1.00  0.00    -0.282 C  
HETATM    8  C   UNL     2     -12.411  10.478  70.160  1.00  0.00    -0.265 C  
HETATM    9  C   UNL     2     -12.105   9.912  71.521  1.00  0.00    -0.410 C  
ENDROOT
BRANCH   4  10
HETATM   10  C   UNL     1     -10.655  11.715  65.605  1.00  0.00    -0.324 C  
HETATM   11  C   UNL     1     -10.403  10.471  65.176  1.00  0.00    -0.310 C  
ENDBRANCH   4  10
TORSDOF 1
ENDMDL
MODEL       82
REMARK 921   NORMALIZED FREE ENERGY PREDICTED BY IDOCK:   -2.72 KCAL/MOL
REMARK 922        TOTAL FREE ENERGY PREDICTED BY IDOCK:   -2.91 KCAL/MOL
REMARK 923 INTER-LIGAND FREE ENERGY PREDICTED BY IDOCK:   -2.81 KCAL/MOL
REMARK 924 INTRA-LIGAND FREE ENERGY PREDICTED BY IDOCK:   -0.10 KCAL/MOL
REMARK 927      BINDING AFFINITY PREDICTED BY RF-SCORE:    0.00 PKD
ROOT
HETATM    1  N   UNL     1      -8.869   5.447  70.518  1.00  0.00    -0.132 NA 
HETATM    2  H1  UNL     1      -8.847   5.491  69.498  1.00  0.00     0.000 HD 
HETATM    3 CL   UNL     2     -10.251   8.589  71.830  1.00  0.00    -0.340 Cl 
HETATM    4  C   UNL     1     -10.158   4.953  70.977  1.00  0.00    -0.218 C  
HETATM    5  H2  UNL     1      -8.097   4.895  70.890  1.00  0.00     0.000 HD 
HETATM    6  O   UNL     2     -13.898   9.627  71.299  1.00  0.00    -0.276 OA 
HETATM    7  C   UNL     2     -11.947   8.149  71.513  1.00  0.00    -0.298 C  
HETATM    8  C   UNL     2     -12.832   9.163  72.139  1.00  0.00    -0.412 C  
HETATM    9  C   UNL     2     -12.882  10.581  71.637  1.00  0.00    -0.475 C  
ENDROOT
BRANCH   4  10
HETATM   10  C   UNL     1     -10.190   4.889  72.469  1.00  0.00    -0.248 C  
HETATM   11  C   UNL     1     -11.306   4.881  73.209  1.00  0.00    -0.408 C  
ENDBRANCH   4  10
TORSDOF 1
ENDMDL
MODEL       83
REMARK 921   NORMALIZED FREE ENERGY PREDICTED BY IDOCK:   -2.72 KCAL/MOL
REMARK 922        TOTAL FREE ENERGY PREDICTED BY IDOCK:   -2.91 KCAL/MOL
REMARK 923 INTER-LIGAND FREE ENERGY PREDICTED BY IDOCK:   -2.86 KCAL/MOL
REMARK 924 INTRA-LIGAND FREE ENERGY PREDICTED BY IDOCK:   -0.05 KCAL/MOL
REMARK 927      BINDING AFFINITY PREDICTED BY RF-SCORE:    0.00 PKD
ROOT
HETATM    1  N   UNL     1      -9.366  11.728  62.903  1.00  0.00    -0.610 NA 
HETATM    2  H1  UNL     1     -10.189  12.073  62.408  1.00  0.00     0.000 HD 
HETATM    3 CL   UNL     2      -9.638  12.622  66.458  1.00  0.00    -0.245 Cl 
HETATM    4  C   UNL     1      -9.622  10.405  63.451  1.00  0.00    -0.312 C  
HETATM    5  H2  UNL     1      -8.535  11.740  62.313  1.00  0.00     0.000 HD 
HETATM    6  O   UNL     2     -12.286  11.112  68.774  1.00  0.00    -0.539 OA 
HETATM    7  C   UNL     2     -10.760  11.298  66.858  1.00  0.00    -0.273 C  
HETATM    8  C   UNL     2     -10.928  11.240  68.331  1.00  0.00    -0.219 C  
HETATM    9  C   UNL     2     -11.619  12.342  69.090  1.00  0.00    -0.318 C  
ENDROOT
BRANCH   4  10
HETATM   10  C   UNL     1      -8.418   9.899  64.176  1.00  0.00    -0.179 C  
HETATM   11  C   UNL     1      -8.214   8.620  64.517  1.00  0.00    -0.166 C  
ENDBRANCH   4  10
TORSDOF 1
ENDMDL
MODEL       84
REMARK 921   NORMALIZED FREE ENERGY PREDICTED BY IDOCK:   -2.69 KCAL/MOL
REMARK 922        TOTAL FREE ENERGY PREDICTED BY IDOCK:   -2.88 KCAL/MOL
REMARK 923 INTER-LIGAND FREE ENERGY PREDICTED BY IDOCK:   -2.81 KCAL/MOL
REMARK 924 INTRA-LIGAND FREE ENERGY PREDICTED BY IDOCK:   -0.07 KCAL/MOL
REMARK 927      BINDING AFFINITY PREDICTED BY RF-SCORE:    0.00 PKD
ROOT
HETATM    1  N   UNL     1     -12.054  11.675  68.026  1.00  0.00    -0.572 NA 
HETATM    2  H1  UNL     1     -12.940  11.760  68.525  1.00  0.00     0.000 HD 
HETATM    3 CL   UNL     2     -11.143  14.948  66.625  1.00  0.00    -0.327 Cl 
HETATM    4  C   UNL     1     -10.942  11.996  68.906  1.00  0.00    -0.232 C  
HETATM    5  H2  UNL     1     -11.946  10.755  67.598  1.00  0.00     0.000 HD 
HETATM    6  O   UNL     2     -10.194  17.943  68.813  1.00  0.00    -0.367 OA 
HETATM    7  C   UNL     2     -10.515  15.596  68.160  1.00  0.00    -0.259 C  
HETATM    8  C   UNL     2      -9.848  16.896  67.896  1.00  0.00    -0.263 C  
HETATM    9  C   UNL     2     -10.628  18.106  67.456  1.00  0.00    -0.401 C  
ENDROOT
BRANCH   4  10
HETATM   10  C   UNL     1      -9.645  11.872  68.174  1.00  0.00    -0.195 C  
HETATM   11  C   UNL     1      -9.470  11.174  67.044  1.00  0.00    -0.193 C  
ENDBRANCH   4  10
TORSDOF 1
ENDMDL
MODEL       85
REMARK 921   NORMALIZED FREE ENERGY PREDICTED BY IDOCK:   -2.67 KCAL/MOL
REMARK 922        TOTAL FREE ENERGY PREDICTED BY IDOCK:   -2.86 KCAL/MOL
REMARK 923 INTER-LIGAND FREE ENERGY PREDICTED BY IDOCK:   -2.76 KCAL/MOL
REMARK 924 INTRA-LIGAND FREE ENERGY PREDICTED BY IDOCK:   -0.10 KCAL/MOL
REMARK 927      BINDING AFFINITY PREDICTED BY RF-SCORE:    0.00 PKD
ROOT
HETATM    1  N   UNL     1     -11.495   6.507  66.754  1.00  0.00    -0.760 NA 
HETATM    2  H1  UNL     1     -11.882   5.625  66.418  1.00  0.00     0.000 HD 
HETATM    3 CL   UNL     2     -11.929   6.701  70.398  1.00  0.00    -0.421 Cl 
HETATM    4  C   UNL     1     -10.108   6.333  67.157  1.00  0.00    -0.168 C  
HETATM    5  H2  UNL     1     -11.599   7.254  66.067  1.00  0.00     0.000 HD 
HETATM    6  O   UNL     2     -10.082   4.388  72.827  1.00  0.00    -0.154 OA 
HETATM    7  C   UNL     2     -10.542   5.649  70.769  1.00  0.00    -0.265 C  
HETATM    8  C   UNL     2     -10.294   5.676  72.232  1.00  0.00    -0.206 C  
HETATM    9  C   UNL     2     -11.277   5.085  73.208  1.00  0.00    -0.338 C  
ENDROOT
BRANCH   4  10
HETATM   10  C   UNL     1      -9.542   7.624  67.650  1.00  0.00    -0.175 C  
HETATM   11  C   UNL     1     -10.256   8.734  67.876  1.00  0.00    -0.272 C  
ENDBRANCH   4  10
TORSDOF 1
ENDMDL
MODEL       86
REMARK 921   NORMALIZED FREE ENERGY PREDICTED BY IDOCK:   -2.67 KCAL/MOL
REMARK 922        TOTAL FREE ENERGY PREDICTED BY IDOCK:   -2.85 KCAL/MOL
REMARK 923 INTER-LIGAND FREE ENERGY PREDICTED BY IDOCK:   -2.83 KCAL/MOL
REMARK 924 INTRA-LIGAND FREE ENERGY PREDICTED BY IDOCK:   -0.03 KCAL/MOL
REMARK 927      BINDING AFFINITY PREDICTED BY RF-SCORE:    0.00 PKD
ROOT
HETATM    1  N   UNL     1      -9.110  12.857  66.084  1.00  0.00    -0.449 NA 
HETATM    2  H1  UNL     1      -8.471  13.501  66.550  1.00  0.00     0.000 HD 
HETATM    3 CL   UNL     2      -9.425   9.801  68.100  1.00  0.00    -0.143 Cl 
HETATM    4  C   UNL     1     -10.467  13.046  66.571  1.00  0.00    -0.277 C  
HETATM    5  H2  UNL     1      -9.057  12.939  65.068  1.00  0.00     0.000 HD 
HETATM    6  O   UNL     2     -11.099   9.757  71.543  1.00  0.00    -0.343 OA 
HETATM    7  C   UNL     2     -10.571  10.509  69.264  1.00  0.00    -0.236 C  
HETATM    8  C   UNL     2     -11.087   9.432  70.146  1.00  0.00    -0.242 C  
HETATM    9  C   UNL     2     -10.194   8.724  71.130  1.00  0.00    -0.246 C  
ENDROOT
BRANCH   4  10
HETATM   10  C   UNL     1     -11.403  12.103  65.889  1.00  0.00    -0.407 C  
HETATM   11  C   UNL     1     -12.127  12.400  64.801  1.00  0.00    -0.483 C  
ENDBRANCH   4  10
TORSDOF 1
ENDMDL
MODEL       87
REMARK 921   NORMALIZED FREE ENERGY PREDICTED BY IDOCK:   -2.64 KCAL/MOL
REMARK 922        TOTAL FREE ENERGY PREDICTED BY IDOCK:   -2.83 KCAL/MOL
REMARK 923 INTER-LIGAND FREE ENERGY PREDICTED BY IDOCK:   -2.76 KCAL/MOL
REMARK 924 INTRA-LIGAND FREE ENERGY PREDICTED BY IDOCK:   -0.07 KCAL/MOL
REMARK 927      BINDING AFFINITY PREDICTED BY RF-SCORE:    0.00 PKD
ROOT
HETATM    1  N   UNL     1     -12.146  10.668  68.321  1.00  0.00    -0.789 NA 
HETATM    2  H1  UNL     1     -12.902  10.267  67.764  1.00  0.00     0.000 HD 
HETATM    3 CL   UNL     2     -11.816   8.769  71.450  1.00  0.00    -0.346 Cl 
HETATM    4  C   UNL     1     -10.893   9.987  68.041  1.00  0.00    -0.260 C  
HETATM    5  H2  UNL     1     -12.069  11.676  68.185  1.00  0.00     0.000 HD 
HETATM    6  O   UNL     2     -10.627   5.131  71.547  1.00  0.00    -0.211 OA 
HETATM    7  C   UNL     2     -10.912   7.425  70.713  1.00  0.00    -0.255 C  
HETATM    8  C   UNL     2     -10.419   6.530  71.789  1.00  0.00    -0.211 C  
HETATM    9  C   UNL     2     -11.365   5.715  72.630  1.00  0.00    -0.305 C  
ENDROOT
BRANCH   4  10
HETATM   10  C   UNL     1      -9.787  10.574  68.856  1.00  0.00    -0.209 C  
HETATM   11  C   UNL     1      -8.724   9.893  69.304  1.00  0.00    -0.172 C  
ENDBRANCH   4  10
TORSDOF 1
ENDMDL
MODEL       88
REMARK 921   NORMALIZED FREE ENERGY PREDICTED BY IDOCK:   -2.64 KCAL/MOL
REMARK 922        TOTAL FREE ENERGY PREDICTED BY IDOCK:   -2.83 KCAL/MOL
REMARK 923 INTER-LIGAND FREE ENERGY PREDICTED BY IDOCK:   -2.76 KCAL/MOL
REMARK 924 INTRA-LIGAND FREE ENERGY PREDICTED BY IDOCK:   -0.07 KCAL/MOL
REMARK 927      BINDING AFFINITY PREDICTED BY RF-SCORE:    0.00 PKD
ROOT
HETATM    1  N   UNL     1      -9.426   9.094  68.674  1.00  0.00    -0.143 NA 
HETATM    2  H1  UNL     1     -10.255   8.631  69.049  1.00  0.00     0.000 HD 
HETATM    3 CL   UNL     2     -10.235  10.528  65.388  1.00  0.00    -0.354 Cl 
HETATM    4  C   UNL     1      -9.424  10.503  69.034  1.00  0.00    -0.201 C  
HETATM    5  H2  UNL     1      -8.567   8.627  68.962  1.00  0.00     0.000 HD 
HETATM    6  O   UNL     2     -12.677  13.444  64.947  1.00  0.00    -0.633 OA 
HETATM    7  C   UNL     2     -11.057  11.961  66.050  1.00  0.00    -0.322 C  
HETATM    8  C   UNL     2     -11.348  12.904  64.941  1.00  0.00    -0.307 C  
HETATM    9  C   UNL     2     -12.342  12.568  63.862  1.00  0.00    -0.485 C  
ENDROOT
BRANCH   4  10
HETATM   10  C   UNL     1      -8.212  11.180  68.484  1.00  0.00    -0.149 C  
HETATM   11  C   UNL     1      -8.160  12.464  68.106  1.00  0.00    -0.163 C  
ENDBRANCH   4  10
TORSDOF 1
ENDMDL
MODEL       89
REMARK 921   NORMALIZED FREE ENERGY PREDICTED BY IDOCK:   -2.62 KCAL/MOL
REMARK 922        TOTAL FREE ENERGY PREDICTED BY IDOCK:   -2.80 KCAL/MOL
REMARK 923 INTER-LIGAND FREE ENERGY PREDICTED BY IDOCK:   -2.70 KCAL/MOL
REMARK 924 INTRA-LIGAND FREE ENERGY PREDICTED BY IDOCK:   -0.10 KCAL/MOL
REMARK 927      BINDING AFFINITY PREDICTED BY RF-SCORE:    0.00 PKD
ROOT
HETATM    1  N   UNL     1      -7.242  19.837  69.419  1.00  0.00    -0.296 NA 
HETATM    2  H1  UNL     1      -7.952  20.559  69.549  1.00  0.00     0.000 HD 
HETATM    3 CL   UNL     2      -8.873  16.725  68.343  1.00  0.00    -0.228 Cl 
HETATM    4  C   UNL     1      -6.792  19.812  68.036  1.00  0.00    -0.262 C  
HETATM    5  H2  UNL     1      -6.465  19.948  70.069  1.00  0.00     0.000 HD 
HETATM    6  O   UNL     2     -10.587  16.357  64.939  1.00  0.00    -0.677 OA 
HETATM    7  C   UNL     2      -9.048  17.229  66.644  1.00  0.00    -0.265 C  
HETATM    8  C   UNL     2      -9.512  16.069  65.844  1.00  0.00    -0.316 C  
HETATM    9  C   UNL     2     -10.885  15.479  66.034  1.00  0.00    -0.300 C  
ENDROOT
BRANCH   4  10
HETATM   10  C   UNL     1      -5.753  18.756  67.845  1.00  0.00    -0.190 C  
HETATM   11  C   UNL     1      -5.433  17.827  68.756  1.00  0.00    -0.168 C  
ENDBRANCH   4  10
TORSDOF 1
ENDMDL
MODEL       90
REMARK 921   NORMALIZED FREE ENERGY PREDICTED BY IDOCK:   -2.62 KCAL/MOL
REMARK 922        TOTAL FREE ENERGY PREDICTED BY IDOCK:   -2.80 KCAL/MOL
REMARK 923 INTER-LIGAND FREE ENERGY PREDICTED BY IDOCK:   -2.76 KCAL/MOL
REMARK 924 INTRA-LIGAND FREE ENERGY PREDICTED BY IDOCK:   -0.03 KCAL/MOL
REMARK 927      BINDING AFFINITY PREDICTED BY RF-SCORE:    0.00 PKD
ROOT
HETATM    1  N   UNL     1     -12.223  14.462  67.634  1.00  0.00    -0.623 NA 
HETATM    2  H1  UNL     1     -11.642  14.666  66.820  1.00  0.00     0.000 HD 
HETATM    3 CL   UNL     2     -11.909  10.898  68.474  1.00  0.00    -0.317 Cl 
HETATM    4  C   UNL     1     -11.445  14.585  68.857  1.00  0.00    -0.300 C  
HETATM    5  H2  UNL     1     -13.061  15.043  67.658  1.00  0.00     0.000 HD 
HETATM    6  O   UNL     2      -8.657   9.361  69.786  1.00  0.00    -0.143 OA 
HETATM    7  C   UNL     2     -10.347  11.080  69.308  1.00  0.00    -0.154 C  
HETATM    8  C   UNL     2     -10.009   9.800  69.980  1.00  0.00    -0.254 C  
HETATM    9  C   UNL     2      -9.688   8.558  69.193  1.00  0.00    -0.170 C  
ENDROOT
BRANCH   4  10
HETATM   10  C   UNL     1     -12.296  14.286  70.048  1.00  0.00    -0.403 C  
HETATM   11  C   UNL     1     -12.111  14.808  71.268  1.00  0.00    -0.399 C  
ENDBRANCH   4  10
TORSDOF 1
ENDMDL
MODEL       91
REMARK 921   NORMALIZED FREE ENERGY PREDICTED BY IDOCK:   -2.61 KCAL/MOL
REMARK 922        TOTAL FREE ENERGY PREDICTED BY IDOCK:   -2.80 KCAL/MOL
REMARK 923 INTER-LIGAND FREE ENERGY PREDICTED BY IDOCK:   -2.77 KCAL/MOL
REMARK 924 INTRA-LIGAND FREE ENERGY PREDICTED BY IDOCK:   -0.03 KCAL/MOL
REMARK 927      BINDING AFFINITY PREDICTED BY RF-SCORE:    0.00 PKD
ROOT
HETATM    1  N   UNL     1     -10.793  15.225  67.552  1.00  0.00    -0.297 NA 
HETATM    2  H1  UNL     1     -11.023  15.387  66.571  1.00  0.00     0.000 HD 
HETATM    3 CL   UNL     2      -7.547  16.777  68.301  1.00  0.00    -0.181 Cl 
HETATM    4  C   UNL     1     -11.255  16.333  68.372  1.00  0.00    -0.349 C  
HETATM    5  H2  UNL     1     -11.155  14.331  67.884  1.00  0.00     0.000 HD 
HETATM    6  O   UNL     2      -7.013  20.568  68.286  1.00  0.00    -0.265 OA 
HETATM    7  C   UNL     2      -8.202  18.424  68.456  1.00  0.00    -0.318 C  
HETATM    8  C   UNL     2      -7.139  19.318  68.978  1.00  0.00    -0.356 C  
HETATM    9  C   UNL     2      -5.917  19.650  68.162  1.00  0.00    -0.219 C  
ENDROOT
BRANCH   4  10
HETATM   10  C   UNL     1     -10.919  16.096  69.808  1.00  0.00    -0.349 C  
HETATM   11  C   UNL     1     -11.808  15.776  70.758  1.00  0.00    -0.438 C  
ENDBRANCH   4  10
TORSDOF 1
ENDMDL
MODEL       92
REMARK 921   NORMALIZED FREE ENERGY PREDICTED BY IDOCK:   -2.60 KCAL/MOL
REMARK 922        TOTAL FREE ENERGY PREDICTED BY IDOCK:   -2.79 KCAL/MOL
REMARK 923 INTER-LIGAND FREE ENERGY PREDICTED BY IDOCK:   -2.69 KCAL/MOL
REMARK 924 INTRA-LIGAND FREE ENERGY PREDICTED BY IDOCK:   -0.10 KCAL/MOL
REMARK 927      BINDING AFFINITY PREDICTED BY RF-SCORE:    0.00 PKD
ROOT
HETATM    1  N   UNL     1      -8.390  11.507  65.776  1.00  0.00    -0.376 NA 
HETATM    2  H1  UNL     1      -8.071  11.957  66.635  1.00  0.00     0.000 HD 
HETATM    3 CL   UNL     2      -8.722   7.894  66.360  1.00  0.00    -0.155 Cl 
HETATM    4  C   UNL     1      -9.841  11.408  65.763  1.00  0.00    -0.232 C  
HETATM    5  H2  UNL     1      -8.035  11.980  64.945  1.00  0.00     0.000 HD 
HETATM    6  O   UNL     2     -11.360   6.411  68.707  1.00  0.00    -0.327 OA 
HETATM    7  C   UNL     2     -10.294   8.021  67.187  1.00  0.00    -0.325 C  
HETATM    8  C   UNL     2     -10.841   6.657  67.392  1.00  0.00    -0.363 C  
HETATM    9  C   UNL     2     -10.186   5.678  68.329  1.00  0.00    -0.186 C  
ENDROOT
BRANCH   4  10
HETATM   10  C   UNL     1     -10.308  10.750  64.506  1.00  0.00    -0.401 C  
HETATM   11  C   UNL     1      -9.503  10.185  63.596  1.00  0.00    -0.320 C  
ENDBRANCH   4  10
TORSDOF 1
ENDMDL
MODEL       93
REMARK 921   NORMALIZED FREE ENERGY PREDICTED BY IDOCK:   -2.60 KCAL/MOL
REMARK 922        TOTAL FREE ENERGY PREDICTED BY IDOCK:   -2.78 KCAL/MOL
REMARK 923 INTER-LIGAND FREE ENERGY PREDICTED BY IDOCK:   -2.78 KCAL/MOL
REMARK 924 INTRA-LIGAND FREE ENERGY PREDICTED BY IDOCK:    0.01 KCAL/MOL
REMARK 927      BINDING AFFINITY PREDICTED BY RF-SCORE:    0.00 PKD
ROOT
HETATM    1  N   UNL     1     -13.250  13.656  65.021  1.00  0.00    -0.593 NA 
HETATM    2  H1  UNL     1     -13.954  13.221  64.424  1.00  0.00     0.000 HD 
HETATM    3 CL   UNL     2     -10.784  11.120  66.018  1.00  0.00    -0.300 Cl 
HETATM    4  C   UNL     1     -12.121  14.112  64.225  1.00  0.00    -0.444 C  
HETATM    5  H2  UNL     1     -13.643  14.408  65.586  1.00  0.00     0.000 HD 
HETATM    6  O   UNL     2      -8.382   9.478  63.530  1.00  0.00    -0.151 OA 
HETATM    7  C   UNL     2      -9.890  11.170  64.480  1.00  0.00    -0.280 C  
HETATM    8  C   UNL     2      -8.647  10.371  64.621  1.00  0.00    -0.185 C  
HETATM    9  C   UNL     2      -8.686   8.876  64.796  1.00  0.00    -0.127 C  
ENDROOT
BRANCH   4  10
HETATM   10  C   UNL     1     -11.090  14.748  65.099  1.00  0.00    -0.389 C  
HETATM   11  C   UNL     1     -10.883  14.438  66.386  1.00  0.00    -0.314 C  
ENDBRANCH   4  10
TORSDOF 1
ENDMDL
MODEL       94
REMARK 921   NORMALIZED FREE ENERGY PREDICTED BY IDOCK:   -2.58 KCAL/MOL
REMARK 922        TOTAL FREE ENERGY PREDICTED BY IDOCK:   -2.76 KCAL/MOL
REMARK 923 INTER-LIGAND FREE ENERGY PREDICTED BY IDOCK:   -2.66 KCAL/MOL
REMARK 924 INTRA-LIGAND FREE ENERGY PREDICTED BY IDOCK:   -0.10 KCAL/MOL
REMARK 927      BINDING AFFINITY PREDICTED BY RF-SCORE:    0.00 PKD
ROOT
HETATM    1  N   UNL     1     -11.348   6.526  66.837  1.00  0.00    -0.817 NA 
HETATM    2  H1  UNL     1     -12.348   6.347  66.740  1.00  0.00     0.000 HD 
HETATM    3 CL   UNL     2     -10.791  10.149  67.095  1.00  0.00    -0.293 Cl 
HETATM    4  C   UNL     1     -10.979   6.599  68.241  1.00  0.00    -0.244 C  
HETATM    5  H2  UNL     1     -10.789   5.837  66.333  1.00  0.00     0.000 HD 
HETATM    6  O   UNL     2     -11.958  12.212  70.102  1.00  0.00    -0.339 OA 
HETATM    7  C   UNL     2     -11.241  10.246  68.815  1.00  0.00    -0.206 C  
HETATM    8  C   UNL     2     -10.921  11.604  69.321  1.00  0.00    -0.192 C  
HETATM    9  C   UNL     2     -11.664  12.820  68.837  1.00  0.00    -0.326 C  
ENDROOT
BRANCH   4  10
HETATM   10  C   UNL     1      -9.515   6.860  68.383  1.00  0.00    -0.128 C  
HETATM   11  C   UNL     1      -8.701   7.205  67.378  1.00  0.00    -0.120 C  
ENDBRANCH   4  10
TORSDOF 1
ENDMDL
MODEL       95
REMARK 921   NORMALIZED FREE ENERGY PREDICTED BY IDOCK:   -2.56 KCAL/MOL
REMARK 922        TOTAL FREE ENERGY PREDICTED BY IDOCK:   -2.73 KCAL/MOL
REMARK 923 INTER-LIGAND FREE ENERGY PREDICTED BY IDOCK:   -2.70 KCAL/MOL
REMARK 924 INTRA-LIGAND FREE ENERGY PREDICTED BY IDOCK:   -0.03 KCAL/MOL
REMARK 927      BINDING AFFINITY PREDICTED BY RF-SCORE:    0.00 PKD
ROOT
HETATM    1  N   UNL     1     -11.246   6.071  66.999  1.00  0.00    -0.553 NA 
HETATM    2  H1  UNL     1     -10.953   5.093  66.991  1.00  0.00     0.000 HD 
HETATM    3 CL   UNL     2     -11.863   7.114  70.469  1.00  0.00    -0.317 Cl 
HETATM    4  C   UNL     1     -10.097   6.944  67.181  1.00  0.00    -0.209 C  
HETATM    5  H2  UNL     1     -11.779   6.314  66.165  1.00  0.00     0.000 HD 
HETATM    6  O   UNL     2      -9.067   7.410  73.068  1.00  0.00    -0.135 OA 
HETATM    7  C   UNL     2     -10.143   7.354  70.860  1.00  0.00    -0.188 C  
HETATM    8  C   UNL     2     -10.037   8.000  72.191  1.00  0.00    -0.234 C  
HETATM    9  C   UNL     2     -10.444   7.281  73.450  1.00  0.00    -0.377 C  
ENDROOT
BRANCH   4  10
HETATM   10  C   UNL     1     -10.526   8.374  67.193  1.00  0.00    -0.380 C  
HETATM   11  C   UNL     1      -9.865   9.374  66.595  1.00  0.00    -0.309 C  
ENDBRANCH   4  10
TORSDOF 1
ENDMDL
MODEL       96
REMARK 921   NORMALIZED FREE ENERGY PREDICTED BY IDOCK:   -2.53 KCAL/MOL
REMARK 922        TOTAL FREE ENERGY PREDICTED BY IDOCK:   -2.70 KCAL/MOL
REMARK 923 INTER-LIGAND FREE ENERGY PREDICTED BY IDOCK:   -2.61 KCAL/MOL
REMARK 924 INTRA-LIGAND FREE ENERGY PREDICTED BY IDOCK:   -0.09 KCAL/MOL
REMARK 927      BINDING AFFINITY PREDICTED BY RF-SCORE:    0.00 PKD
ROOT
HETATM    1  N   UNL     1      -9.380  14.447  65.997  1.00  0.00    -0.514 NA 
HETATM    2  H1  UNL     1      -8.387  14.682  66.007  1.00  0.00     0.000 HD 
HETATM    3 CL   UNL     2      -9.794  10.916  66.927  1.00  0.00    -0.214 Cl 
HETATM    4  C   UNL     1      -9.958  14.627  67.319  1.00  0.00    -0.235 C  
HETATM    5  H2  UNL     1      -9.886  14.975  65.286  1.00  0.00     0.000 HD 
HETATM    6  O   UNL     2      -9.008   9.594  70.433  1.00  0.00    -0.244 OA 
HETATM    7  C   UNL     2      -9.611  11.201  68.674  1.00  0.00    -0.196 C  
HETATM    8  C   UNL     2      -9.940   9.950  69.403  1.00  0.00    -0.212 C  
HETATM    9  C   UNL     2      -9.072   8.724  69.294  1.00  0.00    -0.145 C  
ENDROOT
BRANCH   4  10
HETATM   10  C   UNL     1     -11.412  14.284  67.304  1.00  0.00    -0.371 C  
HETATM   11  C   UNL     1     -12.100  13.927  66.211  1.00  0.00    -0.484 C  
ENDBRANCH   4  10
TORSDOF 1
ENDMDL
MODEL       97
REMARK 921   NORMALIZED FREE ENERGY PREDICTED BY IDOCK:   -2.52 KCAL/MOL
REMARK 922        TOTAL FREE ENERGY PREDICTED BY IDOCK:   -2.69 KCAL/MOL
REMARK 923 INTER-LIGAND FREE ENERGY PREDICTED BY IDOCK:   -2.60 KCAL/MOL
REMARK 924 INTRA-LIGAND FREE ENERGY PREDICTED BY IDOCK:   -0.10 KCAL/MOL
REMARK 927      BINDING AFFINITY PREDICTED BY RF-SCORE:    0.00 PKD
ROOT
HETATM    1  N   UNL     1     -10.140   4.977  73.608  1.00  0.00    -0.165 NA 
HETATM    2  H1  UNL     1     -10.967   4.523  73.997  1.00  0.00     0.000 HD 
HETATM    3 CL   UNL     2     -11.192   7.465  71.117  1.00  0.00    -0.270 Cl 
HETATM    4  C   UNL     1      -9.829   6.187  74.351  1.00  0.00    -0.284 C  
HETATM    5  H2  UNL     1      -9.343   4.342  73.566  1.00  0.00     0.000 HD 
HETATM    6  O   UNL     2     -13.112  10.644  72.050  1.00  0.00    -0.481 OA 
HETATM    7  C   UNL     2     -11.628   8.703  72.319  1.00  0.00    -0.354 C  
HETATM    8  C   UNL     2     -11.919   9.977  71.615  1.00  0.00    -0.286 C  
HETATM    9  C   UNL     2     -13.116  10.123  70.714  1.00  0.00    -0.280 C  
ENDROOT
BRANCH   4  10
HETATM   10  C   UNL     1      -8.618   6.852  73.782  1.00  0.00    -0.165 C  
HETATM   11  C   UNL     1      -8.329   8.153  73.914  1.00  0.00    -0.311 C  
ENDBRANCH   4  10
TORSDOF 1
ENDMDL
MODEL       98
REMARK 921   NORMALIZED FREE ENERGY PREDICTED BY IDOCK:   -2.51 KCAL/MOL
REMARK 922        TOTAL FREE ENERGY PREDICTED BY IDOCK:   -2.68 KCAL/MOL
REMARK 923 INTER-LIGAND FREE ENERGY PREDICTED BY IDOCK:   -2.58 KCAL/MOL
REMARK 924 INTRA-LIGAND FREE ENERGY PREDICTED BY IDOCK:   -0.10 KCAL/MOL
REMARK 927      BINDING AFFINITY PREDICTED BY RF-SCORE:    0.00 PKD
ROOT
HETATM    1  N   UNL     1     -11.301   4.814  65.385  1.00  0.00    -1.000 NA 
HETATM    2  H1  UNL     1     -12.145   4.411  65.794  1.00  0.00     0.000 HD 
HETATM    3 CL   UNL     2     -10.618   8.053  66.983  1.00  0.00    -0.405 Cl 
HETATM    4  C   UNL     1     -10.131   4.441  66.164  1.00  0.00    -0.234 C  
HETATM    5  H2  UNL     1     -11.198   4.563  64.402  1.00  0.00     0.000 HD 
HETATM    6  O   UNL     2      -9.592   8.371  70.658  1.00  0.00    -0.164 OA 
HETATM    7  C   UNL     2      -9.888   7.346  68.444  1.00  0.00    -0.158 C  
HETATM    8  C   UNL     2      -9.289   8.434  69.257  1.00  0.00    -0.154 C  
HETATM    9  C   UNL     2     -10.142   9.477  69.928  1.00  0.00    -0.232 C  
ENDROOT
BRANCH   4  10
HETATM   10  C   UNL     1      -8.896   5.031  65.566  1.00  0.00    -0.146 C  
HETATM   11  C   UNL     1      -7.743   5.215  66.223  1.00  0.00    -0.088 C  
ENDBRANCH   4  10
TORSDOF 1
ENDMDL
MODEL       99
REMARK 921   NORMALIZED FREE ENERGY PREDICTED BY IDOCK:   -2.50 KCAL/MOL
REMARK 922        TOTAL FREE ENERGY PREDICTED BY IDOCK:   -2.68 KCAL/MOL
REMARK 923 INTER-LIGAND FREE ENERGY PREDICTED BY IDOCK:   -2.59 KCAL/MOL
REMARK 924 INTRA-LIGAND FREE ENERGY PREDICTED BY IDOCK:   -0.09 KCAL/MOL
REMARK 927      BINDING AFFINITY PREDICTED BY RF-SCORE:    0.00 PKD
ROOT
HETATM    1  N   UNL     1      -9.712   6.294  65.841  1.00  0.00    -0.382 NA 
HETATM    2  H1  UNL     1     -10.290   6.958  65.326  1.00  0.00     0.000 HD 
HETATM    3 CL   UNL     2      -9.761   7.172  69.410  1.00  0.00    -0.160 Cl 
HETATM    4  C   UNL     1     -10.522   5.192  66.335  1.00  0.00    -0.303 C  
HETATM    5  H2  UNL     1      -8.923   5.965  65.285  1.00  0.00     0.000 HD 
HETATM    6  O   UNL     2     -12.908   6.876  71.570  1.00  0.00    -0.374 OA 
HETATM    7  C   UNL     2     -11.350   6.433  69.722  1.00  0.00    -0.427 C  
HETATM    8  C   UNL     2     -11.600   6.430  71.185  1.00  0.00    -0.318 C  
HETATM    9  C   UNL     2     -11.805   7.710  71.952  1.00  0.00    -0.294 C  
ENDROOT
BRANCH   4  10
HETATM   10  C   UNL     1      -9.677   4.220  67.090  1.00  0.00    -0.232 C  
HETATM   11  C   UNL     1      -8.348   4.311  67.228  1.00  0.00    -0.100 C  
ENDBRANCH   4  10
TORSDOF 1
ENDMDL
MODEL      100
REMARK 921   NORMALIZED FREE ENERGY PREDICTED BY IDOCK:   -2.50 KCAL/MOL
REMARK 922        TOTAL FREE ENERGY PREDICTED BY IDOCK:   -2.68 KCAL/MOL
REMARK 923 INTER-LIGAND FREE ENERGY PREDICTED BY IDOCK:   -2.65 KCAL/MOL
REMARK 924 INTRA-LIGAND FREE ENERGY PREDICTED BY IDOCK:   -0.03 KCAL/MOL
REMARK 927      BINDING AFFINITY PREDICTED BY RF-SCORE:    0.00 PKD
ROOT
HETATM    1  N   UNL     1      -9.074  16.665  69.057  1.00  0.00    -0.243 NA 
HETATM    2  H1  UNL     1      -9.221  16.795  70.058  1.00  0.00     0.000 HD 
HETATM    3 CL   UNL     2      -9.197  13.076  68.278  1.00  0.00    -0.208 Cl 
HETATM    4  C   UNL     1     -10.348  16.628  68.357  1.00  0.00    -0.299 C  
HETATM    5  H2  UNL     1      -8.449  17.372  68.670  1.00  0.00     0.000 HD 
HETATM    6  O   UNL     2     -12.400  11.001  68.584  1.00  0.00    -0.539 OA 
HETATM    7  C   UNL     2     -10.974  12.981  68.295  1.00  0.00    -0.260 C  
HETATM    8  C   UNL     2     -11.390  11.646  67.796  1.00  0.00    -0.288 C  
HETATM    9  C   UNL     2     -11.102  10.390  68.575  1.00  0.00    -0.266 C  
ENDROOT
BRANCH   4  10
HETATM   10  C   UNL     1     -10.133  16.438  66.891  1.00  0.00    -0.281 C  
HETATM   11  C   UNL     1     -10.523  17.301  65.944  1.00  0.00    -0.267 C  
ENDBRANCH   4  10
TORSDOF 1
ENDMDL
MODEL      101
REMARK 921   NORMALIZED FREE ENERGY PREDICTED BY IDOCK:   -2.50 KCAL/MOL
REMARK 922        TOTAL FREE ENERGY PREDICTED BY IDOCK:   -2.67 KCAL/MOL
REMARK 923 INTER-LIGAND FREE ENERGY PREDICTED BY IDOCK:   -2.57 KCAL/MOL
REMARK 924 INTRA-LIGAND FREE ENERGY PREDICTED BY IDOCK:   -0.10 KCAL/MOL
REMARK 927      BINDING AFFINITY PREDICTED BY RF-SCORE:    0.00 PKD
ROOT
HETATM    1  N   UNL     1     -11.211   4.249  65.032  1.00  0.00    -1.020 NA 
HETATM    2  H1  UNL     1     -11.821   3.448  65.202  1.00  0.00     0.000 HD 
HETATM    3 CL   UNL     2     -11.281   6.459  67.968  1.00  0.00    -0.355 Cl 
HETATM    4  C   UNL     1      -9.875   3.988  65.543  1.00  0.00    -0.186 C  
HETATM    5  H2  UNL     1     -11.196   4.512  64.046  1.00  0.00     0.000 HD 
HETATM    6  O   UNL     2      -9.828   5.438  71.360  1.00  0.00    -0.156 OA 
HETATM    7  C   UNL     2     -10.151   5.470  68.924  1.00  0.00    -0.198 C  
HETATM    8  C   UNL     2      -9.783   6.214  70.154  1.00  0.00    -0.163 C  
HETATM    9  C   UNL     2     -10.791   6.495  71.237  1.00  0.00    -0.249 C  
ENDROOT
BRANCH   4  10
HETATM   10  C   UNL     1      -8.983   5.161  65.295  1.00  0.00    -0.144 C  
HETATM   11  C   UNL     1      -7.818   5.379  65.918  1.00  0.00    -0.103 C  
ENDBRANCH   4  10
TORSDOF 1
ENDMDL
MODEL      102
REMARK 921   NORMALIZED FREE ENERGY PREDICTED BY IDOCK:   -2.49 KCAL/MOL
REMARK 922        TOTAL FREE ENERGY PREDICTED BY IDOCK:   -2.67 KCAL/MOL
REMARK 923 INTER-LIGAND FREE ENERGY PREDICTED BY IDOCK:   -2.60 KCAL/MOL
REMARK 924 INTRA-LIGAND FREE ENERGY PREDICTED BY IDOCK:   -0.07 KCAL/MOL
REMARK 927      BINDING AFFINITY PREDICTED BY RF-SCORE:    0.00 PKD
ROOT
HETATM    1  N   UNL     1      -7.544  14.781  69.878  1.00  0.00    -0.396 NA 
HETATM    2  H1  UNL     1      -7.093  15.324  70.614  1.00  0.00     0.000 HD 
HETATM    3 CL   UNL     2     -10.199  16.807  68.343  1.00  0.00    -0.278 Cl 
HETATM    4  C   UNL     1      -6.915  15.045  68.594  1.00  0.00    -0.110 C  
HETATM    5  H2  UNL     1      -7.559  13.785  70.096  1.00  0.00     0.000 HD 
HETATM    6  O   UNL     2      -9.472  19.945  66.273  1.00  0.00    -0.386 OA 
HETATM    7  C   UNL     2      -9.090  17.757  67.325  1.00  0.00    -0.246 C  
HETATM    8  C   UNL     2      -9.888  18.577  66.379  1.00  0.00    -0.361 C  
HETATM    9  C   UNL     2     -10.760  19.707  66.858  1.00  0.00    -0.453 C  
ENDROOT
BRANCH   4  10
HETATM   10  C   UNL     1      -7.576  14.250  67.516  1.00  0.00    -0.202 C  
HETATM   11  C   UNL     1      -8.293  13.138  67.718  1.00  0.00    -0.171 C  
ENDBRANCH   4  10
TORSDOF 1
ENDMDL
MODEL      103
REMARK 921   NORMALIZED FREE ENERGY PREDICTED BY IDOCK:   -2.48 KCAL/MOL
REMARK 922        TOTAL FREE ENERGY PREDICTED BY IDOCK:   -2.66 KCAL/MOL
REMARK 923 INTER-LIGAND FREE ENERGY PREDICTED BY IDOCK:   -2.56 KCAL/MOL
REMARK 924 INTRA-LIGAND FREE ENERGY PREDICTED BY IDOCK:   -0.10 KCAL/MOL
REMARK 927      BINDING AFFINITY PREDICTED BY RF-SCORE:    0.00 PKD
ROOT
HETATM    1  N   UNL     1      -8.088   6.094  71.330  1.00  0.00    -0.116 NA 
HETATM    2  H1  UNL     1      -8.014   5.585  72.210  1.00  0.00     0.000 HD 
HETATM    3 CL   UNL     2     -11.637   6.676  70.571  1.00  0.00    -0.424 Cl 
HETATM    4  C   UNL     1      -8.141   7.527  71.574  1.00  0.00    -0.099 C  
HETATM    5  H2  UNL     1      -7.339   5.847  70.684  1.00  0.00     0.000 HD 
HETATM    6  O   UNL     2     -13.850   8.988  72.672  1.00  0.00    -0.467 OA 
HETATM    7  C   UNL     2     -11.802   8.054  71.685  1.00  0.00    -0.289 C  
HETATM    8  C   UNL     2     -13.126   8.690  71.470  1.00  0.00    -0.305 C  
HETATM    9  C   UNL     2     -14.407   7.979  71.818  1.00  0.00    -0.478 C  
ENDROOT
BRANCH   4  10
HETATM   10  C   UNL     1      -8.250   8.273  70.285  1.00  0.00    -0.121 C  
HETATM   11  C   UNL     1      -8.683   9.535  70.168  1.00  0.00    -0.258 C  
ENDBRANCH   4  10
TORSDOF 1
ENDMDL
MODEL      104
REMARK 921   NORMALIZED FREE ENERGY PREDICTED BY IDOCK:   -2.48 KCAL/MOL
REMARK 922        TOTAL FREE ENERGY PREDICTED BY IDOCK:   -2.65 KCAL/MOL
REMARK 923 INTER-LIGAND FREE ENERGY PREDICTED BY IDOCK:   -2.56 KCAL/MOL
REMARK 924 INTRA-LIGAND FREE ENERGY PREDICTED BY IDOCK:   -0.10 KCAL/MOL
REMARK 927      BINDING AFFINITY PREDICTED BY RF-SCORE:    0.00 PKD
ROOT
HETATM    1  N   UNL     1      -8.666  14.340  68.508  1.00  0.00    -0.180 NA 
HETATM    2  H1  UNL     1      -7.713  14.073  68.759  1.00  0.00     0.000 HD 
HETATM    3 CL   UNL     2      -8.914  18.006  68.459  1.00  0.00    -0.299 Cl 
HETATM    4  C   UNL     1      -8.776  14.540  67.072  1.00  0.00    -0.234 C  
HETATM    5  H2  UNL     1      -9.351  13.667  68.851  1.00  0.00     0.000 HD 
HETATM    6  O   UNL     2      -7.095  20.168  65.875  1.00  0.00    -0.274 OA 
HETATM    7  C   UNL     2      -8.163  18.184  66.855  1.00  0.00    -0.243 C  
HETATM    8  C   UNL     2      -8.293  19.596  66.416  1.00  0.00    -0.353 C  
HETATM    9  C   UNL     2      -7.564  20.710  67.118  1.00  0.00    -0.314 C  
ENDROOT
BRANCH   4  10
HETATM   10  C   UNL     1     -10.170  14.932  66.705  1.00  0.00    -0.259 C  
HETATM   11  C   UNL     1     -10.507  15.611  65.601  1.00  0.00    -0.402 C  
ENDBRANCH   4  10
TORSDOF 1
ENDMDL
MODEL      105
REMARK 921   NORMALIZED FREE ENERGY PREDICTED BY IDOCK:   -2.44 KCAL/MOL
REMARK 922        TOTAL FREE ENERGY PREDICTED BY IDOCK:   -2.61 KCAL/MOL
REMARK 923 INTER-LIGAND FREE ENERGY PREDICTED BY IDOCK:   -2.53 KCAL/MOL
REMARK 924 INTRA-LIGAND FREE ENERGY PREDICTED BY IDOCK:   -0.09 KCAL/MOL
REMARK 927      BINDING AFFINITY PREDICTED BY RF-SCORE:    0.00 PKD
ROOT
HETATM    1  N   UNL     1      -9.629  11.699  64.676  1.00  0.00    -0.397 NA 
HETATM    2  H1  UNL     1      -9.202  12.085  63.833  1.00  0.00     0.000 HD 
HETATM    3 CL   UNL     2      -9.064  14.012  67.476  1.00  0.00    -0.187 Cl 
HETATM    4  C   UNL     1     -10.985  12.200  64.833  1.00  0.00    -0.309 C  
HETATM    5  H2  UNL     1      -9.597  10.680  64.685  1.00  0.00     0.000 HD 
HETATM    6  O   UNL     2     -10.669  17.483  67.648  1.00  0.00    -0.362 OA 
HETATM    7  C   UNL     2     -10.369  15.129  67.011  1.00  0.00    -0.271 C  
HETATM    8  C   UNL     2     -10.559  16.125  68.095  1.00  0.00    -0.290 C  
HETATM    9  C   UNL     2      -9.505  17.150  68.417  1.00  0.00    -0.276 C  
ENDROOT
BRANCH   4  10
HETATM   10  C   UNL     1     -11.609  11.636  66.068  1.00  0.00    -0.101 C  
HETATM   11  C   UNL     1     -10.938  11.025  67.052  1.00  0.00    -0.333 C  
ENDBRANCH   4  10
TORSDOF 1
ENDMDL
MODEL      106
REMARK 921   NORMALIZED FREE ENERGY PREDICTED BY IDOCK:   -2.44 KCAL/MOL
REMARK 922        TOTAL FREE ENERGY PREDICTED BY IDOCK:   -2.61 KCAL/MOL
REMARK 923 INTER-LIGAND FREE ENERGY PREDICTED BY IDOCK:   -2.52 KCAL/MOL
REMARK 924 INTRA-LIGAND FREE ENERGY PREDICTED BY IDOCK:   -0.09 KCAL/MOL
REMARK 927      BINDING AFFINITY PREDICTED BY RF-SCORE:    0.00 PKD
ROOT
HETATM    1  N   UNL     1     -10.032   8.463  66.175  1.00  0.00    -0.472 NA 
HETATM    2  H1  UNL     1     -10.807   7.942  65.765  1.00  0.00     0.000 HD 
HETATM    3 CL   UNL     2     -11.289  10.489  68.973  1.00  0.00    -0.311 Cl 
HETATM    4  C   UNL     1      -9.444   7.718  67.277  1.00  0.00    -0.148 C  
HETATM    5  H2  UNL     1      -9.335   8.719  65.476  1.00  0.00     0.000 HD 
HETATM    6  O   UNL     2     -12.615   8.942  72.214  1.00  0.00    -0.377 OA 
HETATM    7  C   UNL     2     -11.331   9.135  70.128  1.00  0.00    -0.142 C  
HETATM    8  C   UNL     2     -11.617   9.668  71.483  1.00  0.00    -0.381 C  
HETATM    9  C   UNL     2     -12.949  10.281  71.824  1.00  0.00    -0.469 C  
ENDROOT
BRANCH   4  10
HETATM   10  C   UNL     1      -8.309   8.482  67.876  1.00  0.00    -0.126 C  
HETATM   11  C   UNL     1      -7.833   9.640  67.401  1.00  0.00    -0.095 C  
ENDBRANCH   4  10
TORSDOF 1
ENDMDL
MODEL      107
REMARK 921   NORMALIZED FREE ENERGY PREDICTED BY IDOCK:   -2.42 KCAL/MOL
REMARK 922        TOTAL FREE ENERGY PREDICTED BY IDOCK:   -2.59 KCAL/MOL
REMARK 923 INTER-LIGAND FREE ENERGY PREDICTED BY IDOCK:   -2.51 KCAL/MOL
REMARK 924 INTRA-LIGAND FREE ENERGY PREDICTED BY IDOCK:   -0.08 KCAL/MOL
REMARK 927      BINDING AFFINITY PREDICTED BY RF-SCORE:    0.00 PKD
ROOT
HETATM    1  N   UNL     1      -8.155   8.832  68.410  1.00  0.00    -0.116 NA 
HETATM    2  H1  UNL     1      -7.313   9.381  68.587  1.00  0.00     0.000 HD 
HETATM    3 CL   UNL     2     -10.634  10.945  66.709  1.00  0.00    -0.305 Cl 
HETATM    4  C   UNL     1      -8.099   8.228  67.088  1.00  0.00    -0.108 C  
HETATM    5  H2  UNL     1      -8.315   8.136  69.138  1.00  0.00     0.000 HD 
HETATM    6  O   UNL     2     -10.138  12.259  63.147  1.00  0.00    -0.375 OA 
HETATM    7  C   UNL     2      -9.881  10.794  65.103  1.00  0.00    -0.277 C  
HETATM    8  C   UNL     2     -10.785  11.393  64.089  1.00  0.00    -0.371 C  
HETATM    9  C   UNL     2     -11.062  12.872  64.057  1.00  0.00    -0.414 C  
ENDROOT
BRANCH   4  10
HETATM   10  C   UNL     1      -9.331   7.425  66.828  1.00  0.00    -0.202 C  
HETATM   11  C   UNL     1     -10.465   7.517  67.535  1.00  0.00    -0.341 C  
ENDBRANCH   4  10
TORSDOF 1
ENDMDL
MODEL      108
REMARK 921   NORMALIZED FREE ENERGY PREDICTED BY IDOCK:   -2.40 KCAL/MOL
REMARK 922        TOTAL FREE ENERGY PREDICTED BY IDOCK:   -2.57 KCAL/MOL
REMARK 923 INTER-LIGAND FREE ENERGY PREDICTED BY IDOCK:   -2.74 KCAL/MOL
REMARK 924 INTRA-LIGAND FREE ENERGY PREDICTED BY IDOCK:    0.16 KCAL/MOL
REMARK 927      BINDING AFFINITY PREDICTED BY RF-SCORE:    0.00 PKD
ROOT
HETATM    1  N   UNL     1      -8.747  17.647  69.080  1.00  0.00    -0.092 NA 
HETATM    2  H1  UNL     1      -8.134  18.104  69.756  1.00  0.00     0.000 HD 
HETATM    3 CL   UNL     2     -10.760  15.101  70.805  1.00  0.00    -0.206 Cl 
HETATM    4  C   UNL     1     -10.039  18.311  69.035  1.00  0.00    -0.260 C  
HETATM    5  H2  UNL     1      -8.317  17.590  68.156  1.00  0.00     0.000 HD 
HETATM    6  O   UNL     2     -13.445  15.987  73.386  1.00  0.00    -0.581 OA 
HETATM    7  C   UNL     2     -11.930  16.265  71.471  1.00  0.00    -0.322 C  
HETATM    8  C   UNL     2     -13.054  15.517  72.089  1.00  0.00    -0.434 C  
HETATM    9  C   UNL     2     -12.858  14.680  73.324  1.00  0.00    -0.467 C  
ENDROOT
BRANCH   4  10
HETATM   10  C   UNL     1     -10.936  17.642  68.044  1.00  0.00    -0.107 C  
HETATM   11  C   UNL     1     -11.060  16.316  67.901  1.00  0.00    -0.270 C  
ENDBRANCH   4  10
TORSDOF 1
ENDMDL
MODEL      109
REMARK 921   NORMALIZED FREE ENERGY PREDICTED BY IDOCK:   -2.38 KCAL/MOL
REMARK 922        TOTAL FREE ENERGY PREDICTED BY IDOCK:   -2.55 KCAL/MOL
REMARK 923 INTER-LIGAND FREE ENERGY PREDICTED BY IDOCK:   -2.46 KCAL/MOL
REMARK 924 INTRA-LIGAND FREE ENERGY PREDICTED BY IDOCK:   -0.09 KCAL/MOL
REMARK 927      BINDING AFFINITY PREDICTED BY RF-SCORE:    0.00 PKD
ROOT
HETATM    1  N   UNL     1      -5.521  18.102  66.706  1.00  0.00    -0.137 NA 
HETATM    2  H1  UNL     1      -4.911  17.527  67.288  1.00  0.00     0.000 HD 
HETATM    3 CL   UNL     2      -8.603  16.236  65.978  1.00  0.00    -0.340 Cl 
HETATM    4  C   UNL     1      -6.446  18.860  67.533  1.00  0.00    -0.194 C  
HETATM    5  H2  UNL     1      -4.988  18.706  66.080  1.00  0.00     0.000 HD 
HETATM    6  O   UNL     2     -11.175  15.358  68.675  1.00  0.00    -0.272 OA 
HETATM    7  C   UNL     2      -9.355  16.573  67.556  1.00  0.00    -0.218 C  
HETATM    8  C   UNL     2     -10.765  16.111  67.524  1.00  0.00    -0.304 C  
HETATM    9  C   UNL     2     -11.113  14.649  67.429  1.00  0.00    -0.326 C  
ENDROOT
BRANCH   4  10
HETATM   10  C   UNL     1      -7.338  19.702  66.681  1.00  0.00    -0.258 C  
HETATM   11  C   UNL     1      -8.456  20.303  67.107  1.00  0.00    -0.407 C  
ENDBRANCH   4  10
TORSDOF 1
ENDMDL
MODEL      110
REMARK 921   NORMALIZED FREE ENERGY PREDICTED BY IDOCK:   -2.38 KCAL/MOL
REMARK 922        TOTAL FREE ENERGY PREDICTED BY IDOCK:   -2.55 KCAL/MOL
REMARK 923 INTER-LIGAND FREE ENERGY PREDICTED BY IDOCK:   -2.52 KCAL/MOL
REMARK 924 INTRA-LIGAND FREE ENERGY PREDICTED BY IDOCK:   -0.03 KCAL/MOL
REMARK 927      BINDING AFFINITY PREDICTED BY RF-SCORE:    0.00 PKD
ROOT
HETATM    1  N   UNL     1     -10.892  13.354  69.400  1.00  0.00    -0.449 NA 
HETATM    2  H1  UNL     1     -11.594  13.189  70.121  1.00  0.00     0.000 HD 
HETATM    3 CL   UNL     2      -9.214  10.182  68.605  1.00  0.00    -0.150 Cl 
HETATM    4  C   UNL     1     -11.455  13.124  68.079  1.00  0.00    -0.311 C  
HETATM    5  H2  UNL     1     -10.477  14.282  69.479  1.00  0.00     0.000 HD 
HETATM    6  O   UNL     2     -11.009   7.265  66.893  1.00  0.00    -0.343 OA 
HETATM    7  C   UNL     2     -10.524   9.579  67.561  1.00  0.00    -0.275 C  
HETATM    8  C   UNL     2     -10.065   8.344  66.877  1.00  0.00    -0.294 C  
HETATM    9  C   UNL     2      -9.799   7.074  67.640  1.00  0.00    -0.147 C  
ENDROOT
BRANCH   4  10
HETATM   10  C   UNL     1     -10.427  13.365  67.023  1.00  0.00    -0.257 C  
HETATM   11  C   UNL     1     -10.486  14.343  66.110  1.00  0.00    -0.295 C  
ENDBRANCH   4  10
TORSDOF 1
ENDMDL
MODEL      111
REMARK 921   NORMALIZED FREE ENERGY PREDICTED BY IDOCK:   -2.37 KCAL/MOL
REMARK 922        TOTAL FREE ENERGY PREDICTED BY IDOCK:   -2.54 KCAL/MOL
REMARK 923 INTER-LIGAND FREE ENERGY PREDICTED BY IDOCK:   -2.51 KCAL/MOL
REMARK 924 INTRA-LIGAND FREE ENERGY PREDICTED BY IDOCK:   -0.03 KCAL/MOL
REMARK 927      BINDING AFFINITY PREDICTED BY RF-SCORE:    0.00 PKD
ROOT
HETATM    1  N   UNL     1      -7.362  13.719  67.028  1.00  0.00    -0.335 NA 
HETATM    2  H1  UNL     1      -6.646  13.673  67.754  1.00  0.00     0.000 HD 
HETATM    3 CL   UNL     2     -10.092  11.411  67.879  1.00  0.00    -0.191 Cl 
HETATM    4  C   UNL     1      -8.381  14.694  67.381  1.00  0.00    -0.206 C  
HETATM    5  H2  UNL     1      -6.959  13.907  66.110  1.00  0.00     0.000 HD 
HETATM    6  O   UNL     2     -12.399  11.954  70.886  1.00  0.00    -0.373 OA 
HETATM    7  C   UNL     2     -10.849  12.506  69.061  1.00  0.00    -0.137 C  
HETATM    8  C   UNL     2     -12.158  11.940  69.472  1.00  0.00    -0.226 C  
HETATM    9  C   UNL     2     -12.250  10.667  70.270  1.00  0.00    -0.334 C  
ENDROOT
BRANCH   4  10
HETATM   10  C   UNL     1      -9.428  14.763  66.319  1.00  0.00    -0.332 C  
HETATM   11  C   UNL     1     -10.005  15.892  65.886  1.00  0.00    -0.377 C  
ENDBRANCH   4  10
TORSDOF 1
ENDMDL
MODEL      112
REMARK 921   NORMALIZED FREE ENERGY PREDICTED BY IDOCK:   -2.37 KCAL/MOL
REMARK 922        TOTAL FREE ENERGY PREDICTED BY IDOCK:   -2.53 KCAL/MOL
REMARK 923 INTER-LIGAND FREE ENERGY PREDICTED BY IDOCK:   -2.44 KCAL/MOL
REMARK 924 INTRA-LIGAND FREE ENERGY PREDICTED BY IDOCK:   -0.09 KCAL/MOL
REMARK 927      BINDING AFFINITY PREDICTED BY RF-SCORE:    0.00 PKD
ROOT
HETATM    1  N   UNL     1      -8.230   9.161  68.218  1.00  0.00    -0.115 NA 
HETATM    2  H1  UNL     1      -7.408   9.608  68.627  1.00  0.00     0.000 HD 
HETATM    3 CL   UNL     2     -11.033  11.537  68.251  1.00  0.00    -0.249 Cl 
HETATM    4  C   UNL     1      -8.305   9.443  66.793  1.00  0.00    -0.123 C  
HETATM    5  H2  UNL     1      -8.251   8.159  68.408  1.00  0.00     0.000 HD 
HETATM    6  O   UNL     2     -11.079  14.713  66.114  1.00  0.00    -0.323 OA 
HETATM    7  C   UNL     2     -10.483  12.435  66.816  1.00  0.00    -0.221 C  
HETATM    8  C   UNL     2     -11.545  13.390  66.410  1.00  0.00    -0.346 C  
HETATM    9  C   UNL     2     -11.916  14.568  67.270  1.00  0.00    -0.344 C  
ENDROOT
BRANCH   4  10
HETATM   10  C   UNL     1      -9.507   8.789  66.195  1.00  0.00    -0.315 C  
HETATM   11  C   UNL     1     -10.355   7.994  66.861  1.00  0.00    -0.408 C  
ENDBRANCH   4  10
TORSDOF 1
ENDMDL
MODEL      113
REMARK 921   NORMALIZED FREE ENERGY PREDICTED BY IDOCK:   -2.37 KCAL/MOL
REMARK 922        TOTAL FREE ENERGY PREDICTED BY IDOCK:   -2.53 KCAL/MOL
REMARK 923 INTER-LIGAND FREE ENERGY PREDICTED BY IDOCK:   -2.44 KCAL/MOL
REMARK 924 INTRA-LIGAND FREE ENERGY PREDICTED BY IDOCK:   -0.09 KCAL/MOL
REMARK 927      BINDING AFFINITY PREDICTED BY RF-SCORE:    0.00 PKD
ROOT
HETATM    1  N   UNL     1      -7.783   7.398  71.639  1.00  0.00    -0.085 NA 
HETATM    2  H1  UNL     1      -7.100   8.021  72.072  1.00  0.00     0.000 HD 
HETATM    3 CL   UNL     2     -11.165   8.678  72.292  1.00  0.00    -0.428 Cl 
HETATM    4  C   UNL     1      -8.113   7.858  70.300  1.00  0.00    -0.115 C  
HETATM    5  H2  UNL     1      -7.465   6.429  71.640  1.00  0.00     0.000 HD 
HETATM    6  O   UNL     2     -12.462  11.954  70.793  1.00  0.00    -0.349 OA 
HETATM    7  C   UNL     2     -11.102   9.920  71.018  1.00  0.00    -0.331 C  
HETATM    8  C   UNL     2     -12.450  10.521  70.865  1.00  0.00    -0.390 C  
HETATM    9  C   UNL     2     -13.066  11.361  71.952  1.00  0.00    -0.400 C  
ENDROOT
BRANCH   4  10
HETATM   10  C   UNL     1      -9.112   6.946  69.666  1.00  0.00    -0.143 C  
HETATM   11  C   UNL     1      -9.615   5.847  70.243  1.00  0.00    -0.199 C  
ENDBRANCH   4  10
TORSDOF 1
ENDMDL
MODEL      114
REMARK 921   NORMALIZED FREE ENERGY PREDICTED BY IDOCK:   -2.36 KCAL/MOL
REMARK 922        TOTAL FREE ENERGY PREDICTED BY IDOCK:   -2.53 KCAL/MOL
REMARK 923 INTER-LIGAND FREE ENERGY PREDICTED BY IDOCK:   -2.47 KCAL/MOL
REMARK 924 INTRA-LIGAND FREE ENERGY PREDICTED BY IDOCK:   -0.06 KCAL/MOL
REMARK 927      BINDING AFFINITY PREDICTED BY RF-SCORE:    0.00 PKD
ROOT
HETATM    1  N   UNL     1      -7.852   7.968  69.126  1.00  0.00    -0.106 NA 
HETATM    2  H1  UNL     1      -7.137   8.324  69.762  1.00  0.00     0.000 HD 
HETATM    3 CL   UNL     2     -11.168   8.528  70.608  1.00  0.00    -0.273 Cl 
HETATM    4  C   UNL     1      -8.318   9.026  68.244  1.00  0.00    -0.121 C  
HETATM    5  H2  UNL     1      -7.525   7.156  68.604  1.00  0.00     0.000 HD 
HETATM    6  O   UNL     2     -12.645  12.024  71.113  1.00  0.00    -0.367 OA 
HETATM    7  C   UNL     2     -11.245  10.247  70.153  1.00  0.00    -0.318 C  
HETATM    8  C   UNL     2     -12.609  10.759  70.437  1.00  0.00    -0.314 C  
HETATM    9  C   UNL     2     -13.124  10.888  71.846  1.00  0.00    -0.432 C  
ENDROOT
BRANCH   4  10
HETATM   10  C   UNL     1      -9.364   8.506  67.314  1.00  0.00    -0.184 C  
HETATM   11  C   UNL     1      -9.882   9.193  66.287  1.00  0.00    -0.359 C  
ENDBRANCH   4  10
TORSDOF 1
ENDMDL
MODEL      115
REMARK 921   NORMALIZED FREE ENERGY PREDICTED BY IDOCK:   -2.36 KCAL/MOL
REMARK 922        TOTAL FREE ENERGY PREDICTED BY IDOCK:   -2.52 KCAL/MOL
REMARK 923 INTER-LIGAND FREE ENERGY PREDICTED BY IDOCK:   -2.45 KCAL/MOL
REMARK 924 INTRA-LIGAND FREE ENERGY PREDICTED BY IDOCK:   -0.07 KCAL/MOL
REMARK 927      BINDING AFFINITY PREDICTED BY RF-SCORE:    0.00 PKD
ROOT
HETATM    1  N   UNL     1     -12.747   8.233  72.845  1.00  0.00    -0.664 NA 
HETATM    2  H1  UNL     1     -13.304   7.582  73.398  1.00  0.00     0.000 HD 
HETATM    3 CL   UNL     2      -9.215   7.922  73.812  1.00  0.00    -0.329 Cl 
HETATM    4  C   UNL     1     -12.241   7.580  71.648  1.00  0.00    -0.322 C  
HETATM    5  H2  UNL     1     -13.266   9.083  72.622  1.00  0.00     0.000 HD 
HETATM    6  O   UNL     2      -7.147   4.777  73.108  1.00  0.00    -0.074 OA 
HETATM    7  C   UNL     2      -8.928   6.451  72.851  1.00  0.00    -0.130 C  
HETATM    8  C   UNL     2      -7.474   6.150  72.855  1.00  0.00    -0.097 C  
HETATM    9  C   UNL     2      -6.760   5.727  74.111  1.00  0.00    -0.080 C  
ENDROOT
BRANCH   4  10
HETATM   10  C   UNL     1     -11.426   8.534  70.838  1.00  0.00    -0.302 C  
HETATM   11  C   UNL     1     -11.484   9.868  70.942  1.00  0.00    -0.456 C  
ENDBRANCH   4  10
TORSDOF 1
ENDMDL
MODEL      116
REMARK 921   NORMALIZED FREE ENERGY PREDICTED BY IDOCK:   -2.35 KCAL/MOL
REMARK 922        TOTAL FREE ENERGY PREDICTED BY IDOCK:   -2.52 KCAL/MOL
REMARK 923 INTER-LIGAND FREE ENERGY PREDICTED BY IDOCK:   -2.49 KCAL/MOL
REMARK 924 INTRA-LIGAND FREE ENERGY PREDICTED BY IDOCK:   -0.03 KCAL/MOL
REMARK 927      BINDING AFFINITY PREDICTED BY RF-SCORE:    0.00 PKD
ROOT
HETATM    1  N   UNL     1     -11.457   9.044  69.629  1.00  0.00    -0.422 NA 
HETATM    2  H1  UNL     1     -10.737   9.751  69.475  1.00  0.00     0.000 HD 
HETATM    3 CL   UNL     2     -11.154   6.437  67.056  1.00  0.00    -0.459 Cl 
HETATM    4  C   UNL     1     -10.942   7.966  70.458  1.00  0.00    -0.248 C  
HETATM    5  H2  UNL     1     -12.308   9.449  70.019  1.00  0.00     0.000 HD 
HETATM    6  O   UNL     2      -8.159   4.061  66.861  1.00  0.00    -0.096 OA 
HETATM    7  C   UNL     2      -9.796   5.604  67.850  1.00  0.00    -0.133 C  
HETATM    8  C   UNL     2      -9.540   4.323  67.144  1.00  0.00    -0.194 C  
HETATM    9  C   UNL     2      -9.015   4.292  65.733  1.00  0.00    -0.129 C  
ENDROOT
BRANCH   4  10
HETATM   10  C   UNL     1     -11.996   6.932  70.683  1.00  0.00    -0.400 C  
HETATM   11  C   UNL     1     -13.005   7.048  71.556  1.00  0.00    -0.411 C  
ENDBRANCH   4  10
TORSDOF 1
ENDMDL
MODEL      117
REMARK 921   NORMALIZED FREE ENERGY PREDICTED BY IDOCK:   -2.34 KCAL/MOL
REMARK 922        TOTAL FREE ENERGY PREDICTED BY IDOCK:   -2.51 KCAL/MOL
REMARK 923 INTER-LIGAND FREE ENERGY PREDICTED BY IDOCK:   -2.41 KCAL/MOL
REMARK 924 INTRA-LIGAND FREE ENERGY PREDICTED BY IDOCK:   -0.10 KCAL/MOL
REMARK 927      BINDING AFFINITY PREDICTED BY RF-SCORE:    0.00 PKD
ROOT
HETATM    1  N   UNL     1      -9.359   5.873  65.383  1.00  0.00    -0.359 NA 
HETATM    2  H1  UNL     1     -10.147   5.615  64.788  1.00  0.00     0.000 HD 
HETATM    3 CL   UNL     2      -9.231   9.533  65.693  1.00  0.00    -0.256 Cl 
HETATM    4  C   UNL     1      -9.786   5.998  66.767  1.00  0.00    -0.163 C  
HETATM    5  H2  UNL     1      -8.580   5.222  65.284  1.00  0.00     0.000 HD 
HETATM    6  O   UNL     2     -11.919  11.548  67.530  1.00  0.00    -0.629 OA 
HETATM    7  C   UNL     2     -10.521   9.623  66.917  1.00  0.00    -0.212 C  
HETATM    8  C   UNL     2     -10.592  11.010  67.439  1.00  0.00    -0.237 C  
HETATM    9  C   UNL     2     -11.041  12.156  66.572  1.00  0.00    -0.307 C  
ENDROOT
BRANCH   4  10
HETATM   10  C   UNL     1      -8.632   6.375  67.637  1.00  0.00    -0.115 C  
HETATM   11  C   UNL     1      -8.741   6.921  68.856  1.00  0.00    -0.130 C  
ENDBRANCH   4  10
TORSDOF 1
ENDMDL
MODEL      118
REMARK 921   NORMALIZED FREE ENERGY PREDICTED BY IDOCK:   -2.33 KCAL/MOL
REMARK 922        TOTAL FREE ENERGY PREDICTED BY IDOCK:   -2.50 KCAL/MOL
REMARK 923 INTER-LIGAND FREE ENERGY PREDICTED BY IDOCK:   -2.47 KCAL/MOL
REMARK 924 INTRA-LIGAND FREE ENERGY PREDICTED BY IDOCK:   -0.03 KCAL/MOL
REMARK 927      BINDING AFFINITY PREDICTED BY RF-SCORE:    0.00 PKD
ROOT
HETATM    1  N   UNL     1      -7.805  16.258  69.230  1.00  0.00    -0.225 NA 
HETATM    2  H1  UNL     1      -8.033  16.195  70.223  1.00  0.00     0.000 HD 
HETATM    3 CL   UNL     2      -8.522  13.032  67.623  1.00  0.00    -0.173 Cl 
HETATM    4  C   UNL     1      -8.979  16.643  68.463  1.00  0.00    -0.235 C  
HETATM    5  H2  UNL     1      -7.018  16.885  69.060  1.00  0.00     0.000 HD 
HETATM    6  O   UNL     2     -12.075  11.660  67.232  1.00  0.00    -0.595 OA 
HETATM    7  C   UNL     2     -10.276  13.311  67.506  1.00  0.00    -0.222 C  
HETATM    8  C   UNL     2     -10.882  12.235  66.683  1.00  0.00    -0.258 C  
HETATM    9  C   UNL     2     -10.924  10.808  67.160  1.00  0.00    -0.260 C  
ENDROOT
BRANCH   4  10
HETATM   10  C   UNL     1      -8.645  16.735  67.010  1.00  0.00    -0.233 C  
HETATM   11  C   UNL     1      -8.399  17.877  66.354  1.00  0.00    -0.273 C  
ENDBRANCH   4  10
TORSDOF 1
ENDMDL
MODEL      119
REMARK 921   NORMALIZED FREE ENERGY PREDICTED BY IDOCK:   -2.33 KCAL/MOL
REMARK 922        TOTAL FREE ENERGY PREDICTED BY IDOCK:   -2.50 KCAL/MOL
REMARK 923 INTER-LIGAND FREE ENERGY PREDICTED BY IDOCK:   -2.45 KCAL/MOL
REMARK 924 INTRA-LIGAND FREE ENERGY PREDICTED BY IDOCK:   -0.05 KCAL/MOL
REMARK 927      BINDING AFFINITY PREDICTED BY RF-SCORE:    0.00 PKD
ROOT
HETATM    1  N   UNL     1     -11.924  14.987  64.699  1.00  0.00    -0.406 NA 
HETATM    2  H1  UNL     1     -12.283  14.672  63.798  1.00  0.00     0.000 HD 
HETATM    3 CL   UNL     2     -11.424  12.071  66.880  1.00  0.00    -0.400 Cl 
HETATM    4  C   UNL     1     -10.470  14.955  64.706  1.00  0.00    -0.264 C  
HETATM    5  H2  UNL     1     -12.284  15.907  64.951  1.00  0.00     0.000 HD 
HETATM    6  O   UNL     2      -8.766   9.403  66.190  1.00  0.00    -0.138 OA 
HETATM    7  C   UNL     2      -9.879  11.593  66.136  1.00  0.00    -0.223 C  
HETATM    8  C   UNL     2      -9.268  10.512  66.949  1.00  0.00    -0.155 C  
HETATM    9  C   UNL     2      -9.893   9.145  67.039  1.00  0.00    -0.207 C  
ENDROOT
BRANCH   4  10
HETATM   10  C   UNL     1      -9.944  15.416  66.026  1.00  0.00    -0.350 C  
HETATM   11  C   UNL     1     -10.644  15.416  67.168  1.00  0.00    -0.305 C  
ENDBRANCH   4  10
TORSDOF 1
ENDMDL
MODEL      120
REMARK 921   NORMALIZED FREE ENERGY PREDICTED BY IDOCK:   -2.33 KCAL/MOL
REMARK 922        TOTAL FREE ENERGY PREDICTED BY IDOCK:   -2.49 KCAL/MOL
REMARK 923 INTER-LIGAND FREE ENERGY PREDICTED BY IDOCK:   -2.39 KCAL/MOL
REMARK 924 INTRA-LIGAND FREE ENERGY PREDICTED BY IDOCK:   -0.10 KCAL/MOL
REMARK 927      BINDING AFFINITY PREDICTED BY RF-SCORE:    0.00 PKD
ROOT
HETATM    1  N   UNL     1     -12.220  13.553  67.869  1.00  0.00    -0.313 NA 
HETATM    2  H1  UNL     1     -12.034  12.726  68.438  1.00  0.00     0.000 HD 
HETATM    3 CL   UNL     2      -9.554  16.021  68.423  1.00  0.00    -0.203 Cl 
HETATM    4  C   UNL     1     -11.545  13.449  66.586  1.00  0.00    -0.362 C  
HETATM    5  H2  UNL     1     -13.220  13.720  67.760  1.00  0.00     0.000 HD 
HETATM    6  O   UNL     2      -5.939  15.449  67.299  1.00  0.00    -0.330 OA 
HETATM    7  C   UNL     2      -8.386  15.221  67.345  1.00  0.00    -0.181 C  
HETATM    8  C   UNL     2      -7.208  16.107  67.170  1.00  0.00    -0.220 C  
HETATM    9  C   UNL     2      -6.273  16.409  68.311  1.00  0.00    -0.120 C  
ENDROOT
BRANCH   4  10
HETATM   10  C   UNL     1     -11.818  14.659  65.753  1.00  0.00    -0.274 C  
HETATM   11  C   UNL     1     -11.059  15.067  64.728  1.00  0.00    -0.388 C  
ENDBRANCH   4  10
TORSDOF 1
ENDMDL
MODEL      121
REMARK 921   NORMALIZED FREE ENERGY PREDICTED BY IDOCK:   -2.32 KCAL/MOL
REMARK 922        TOTAL FREE ENERGY PREDICTED BY IDOCK:   -2.48 KCAL/MOL
REMARK 923 INTER-LIGAND FREE ENERGY PREDICTED BY IDOCK:   -2.38 KCAL/MOL
REMARK 924 INTRA-LIGAND FREE ENERGY PREDICTED BY IDOCK:   -0.10 KCAL/MOL
REMARK 927      BINDING AFFINITY PREDICTED BY RF-SCORE:    0.00 PKD
ROOT
HETATM    1  N   UNL     1      -9.304   8.302  65.511  1.00  0.00    -0.420 NA 
HETATM    2  H1  UNL     1      -9.713   7.824  66.315  1.00  0.00     0.000 HD 
HETATM    3 CL   UNL     2     -11.064  11.485  64.982  1.00  0.00    -0.307 Cl 
HETATM    4  C   UNL     1      -8.257   9.214  65.941  1.00  0.00    -0.113 C  
HETATM    5  H2  UNL     1      -8.969   7.643  64.808  1.00  0.00     0.000 HD 
HETATM    6  O   UNL     2     -10.853  14.401  67.454  1.00  0.00    -0.282 OA 
HETATM    7  C   UNL     2     -10.193  12.351  66.271  1.00  0.00    -0.238 C  
HETATM    8  C   UNL     2     -10.533  13.794  66.195  1.00  0.00    -0.297 C  
HETATM    9  C   UNL     2     -11.920  14.294  66.501  1.00  0.00    -0.427 C  
ENDROOT
BRANCH   4  10
HETATM   10  C   UNL     1      -7.659   9.914  64.764  1.00  0.00    -0.139 C  
HETATM   11  C   UNL     1      -8.144   9.859  63.517  1.00  0.00    -0.158 C  
ENDBRANCH   4  10
TORSDOF 1
ENDMDL
MODEL      122
REMARK 921   NORMALIZED FREE ENERGY PREDICTED BY IDOCK:   -2.30 KCAL/MOL
REMARK 922        TOTAL FREE ENERGY PREDICTED BY IDOCK:   -2.46 KCAL/MOL
REMARK 923 INTER-LIGAND FREE ENERGY PREDICTED BY IDOCK:   -2.36 KCAL/MOL
REMARK 924 INTRA-LIGAND FREE ENERGY PREDICTED BY IDOCK:   -0.10 KCAL/MOL
REMARK 927      BINDING AFFINITY PREDICTED BY RF-SCORE:    0.00 PKD
ROOT
HETATM    1  N   UNL     1      -7.337   9.081  71.982  1.00  0.00    -0.337 NA 
HETATM    2  H1  UNL     1      -6.403   8.814  71.669  1.00  0.00     0.000 HD 
HETATM    3 CL   UNL     2      -9.704   8.662  69.202  1.00  0.00    -0.170 Cl 
HETATM    4  C   UNL     1      -8.060   7.919  72.473  1.00  0.00    -0.126 C  
HETATM    5  H2  UNL     1      -7.305   9.829  72.674  1.00  0.00     0.000 HD 
HETATM    6  O   UNL     2     -10.624   5.233  67.767  1.00  0.00    -0.143 OA 
HETATM    7  C   UNL     2      -9.857   6.899  69.402  1.00  0.00    -0.158 C  
HETATM    8  C   UNL     2     -10.947   6.408  68.523  1.00  0.00    -0.319 C  
HETATM    9  C   UNL     2     -10.826   6.443  67.023  1.00  0.00    -0.392 C  
ENDROOT
BRANCH   4  10
HETATM   10  C   UNL     1      -9.427   8.311  72.931  1.00  0.00    -0.321 C  
HETATM   11  C   UNL     1     -10.461   7.468  73.057  1.00  0.00    -0.396 C  
ENDBRANCH   4  10
TORSDOF 1
ENDMDL
MODEL      123
REMARK 921   NORMALIZED FREE ENERGY PREDICTED BY IDOCK:   -2.30 KCAL/MOL
REMARK 922        TOTAL FREE ENERGY PREDICTED BY IDOCK:   -2.46 KCAL/MOL
REMARK 923 INTER-LIGAND FREE ENERGY PREDICTED BY IDOCK:   -2.39 KCAL/MOL
REMARK 924 INTRA-LIGAND FREE ENERGY PREDICTED BY IDOCK:   -0.07 KCAL/MOL
REMARK 927      BINDING AFFINITY PREDICTED BY RF-SCORE:    0.00 PKD
ROOT
HETATM    1  N   UNL     1     -12.533  14.232  69.543  1.00  0.00    -0.518 NA 
HETATM    2  H1  UNL     1     -13.490  13.878  69.525  1.00  0.00     0.000 HD 
HETATM    3 CL   UNL     2     -10.225  11.498  68.702  1.00  0.00    -0.213 Cl 
HETATM    4  C   UNL     1     -12.130  14.675  68.218  1.00  0.00    -0.179 C  
HETATM    5  H2  UNL     1     -12.412  14.965  70.241  1.00  0.00     0.000 HD 
HETATM    6  O   UNL     2     -10.097   9.894  65.228  1.00  0.00    -0.313 OA 
HETATM    7  C   UNL     2     -10.507  11.600  66.947  1.00  0.00    -0.227 C  
HETATM    8  C   UNL     2      -9.532  10.725  66.251  1.00  0.00    -0.181 C  
HETATM    9  C   UNL     2      -9.580   9.226  66.388  1.00  0.00    -0.238 C  
ENDROOT
BRANCH   4  10
HETATM   10  C   UNL     1     -10.729  15.192  68.244  1.00  0.00    -0.251 C  
HETATM   11  C   UNL     1     -10.073  15.563  69.352  1.00  0.00    -0.266 C  
ENDBRANCH   4  10
TORSDOF 1
ENDMDL
MODEL      124
REMARK 921   NORMALIZED FREE ENERGY PREDICTED BY IDOCK:   -2.26 KCAL/MOL
REMARK 922        TOTAL FREE ENERGY PREDICTED BY IDOCK:   -2.43 KCAL/MOL
REMARK 923 INTER-LIGAND FREE ENERGY PREDICTED BY IDOCK:   -2.33 KCAL/MOL
REMARK 924 INTRA-LIGAND FREE ENERGY PREDICTED BY IDOCK:   -0.10 KCAL/MOL
REMARK 927      BINDING AFFINITY PREDICTED BY RF-SCORE:    0.00 PKD
ROOT
HETATM    1  N   UNL     1     -10.934  12.553  67.764  1.00  0.00    -0.225 NA 
HETATM    2  H1  UNL     1     -11.653  12.624  68.485  1.00  0.00     0.000 HD 
HETATM    3 CL   UNL     2      -9.263   9.292  68.046  1.00  0.00    -0.135 Cl 
HETATM    4  C   UNL     1     -11.472  11.919  66.571  1.00  0.00    -0.314 C  
HETATM    5  H2  UNL     1     -10.515  13.459  67.556  1.00  0.00     0.000 HD 
HETATM    6  O   UNL     2     -11.041   5.985  67.299  1.00  0.00    -0.303 OA 
HETATM    7  C   UNL     2     -10.555   8.392  67.215  1.00  0.00    -0.257 C  
HETATM    8  C   UNL     2     -10.090   7.004  66.965  1.00  0.00    -0.229 C  
HETATM    9  C   UNL     2      -9.849   6.039  68.095  1.00  0.00    -0.131 C  
ENDROOT
BRANCH   4  10
HETATM   10  C   UNL     1     -10.419  11.816  65.516  1.00  0.00    -0.311 C  
HETATM   11  C   UNL     1     -10.498  11.031  64.434  1.00  0.00    -0.422 C  
ENDBRANCH   4  10
TORSDOF 1
ENDMDL
MODEL      125
REMARK 921   NORMALIZED FREE ENERGY PREDICTED BY IDOCK:   -2.26 KCAL/MOL
REMARK 922        TOTAL FREE ENERGY PREDICTED BY IDOCK:   -2.42 KCAL/MOL
REMARK 923 INTER-LIGAND FREE ENERGY PREDICTED BY IDOCK:   -2.34 KCAL/MOL
REMARK 924 INTRA-LIGAND FREE ENERGY PREDICTED BY IDOCK:   -0.08 KCAL/MOL
REMARK 927      BINDING AFFINITY PREDICTED BY RF-SCORE:    0.00 PKD
ROOT
HETATM    1  N   UNL     1     -10.945  16.317  67.479  1.00  0.00    -0.260 NA 
HETATM    2  H1  UNL     1     -11.589  16.671  68.187  1.00  0.00     0.000 HD 
HETATM    3 CL   UNL     2      -8.593  18.983  66.550  1.00  0.00    -0.303 Cl 
HETATM    4  C   UNL     1      -9.744  15.788  68.105  1.00  0.00    -0.211 C  
HETATM    5  H2  UNL     1     -11.390  15.629  66.871  1.00  0.00     0.000 HD 
HETATM    6  O   UNL     2      -5.966  20.361  68.970  1.00  0.00    -0.300 OA 
HETATM    7  C   UNL     2      -7.554  18.769  67.979  1.00  0.00    -0.261 C  
HETATM    8  C   UNL     2      -6.332  19.595  67.814  1.00  0.00    -0.210 C  
HETATM    9  C   UNL     2      -6.392  21.100  67.816  1.00  0.00    -0.342 C  
ENDROOT
BRANCH   4  10
HETATM   10  C   UNL     1      -8.801  15.270  67.069  1.00  0.00    -0.261 C  
HETATM   11  C   UNL     1      -7.569  14.808  67.321  1.00  0.00    -0.195 C  
ENDBRANCH   4  10
TORSDOF 1
ENDMDL
MODEL      126
REMARK 921   NORMALIZED FREE ENERGY PREDICTED BY IDOCK:   -2.26 KCAL/MOL
REMARK 922        TOTAL FREE ENERGY PREDICTED BY IDOCK:   -2.42 KCAL/MOL
REMARK 923 INTER-LIGAND FREE ENERGY PREDICTED BY IDOCK:   -2.34 KCAL/MOL
REMARK 924 INTRA-LIGAND FREE ENERGY PREDICTED BY IDOCK:   -0.08 KCAL/MOL
REMARK 927      BINDING AFFINITY PREDICTED BY RF-SCORE:    0.00 PKD
ROOT
HETATM    1  N   UNL     1      -9.586   9.261  65.203  1.00  0.00    -0.458 NA 
HETATM    2  H1  UNL     1     -10.452   9.010  64.726  1.00  0.00     0.000 HD 
HETATM    3 CL   UNL     2      -9.815  12.743  66.359  1.00  0.00    -0.264 Cl 
HETATM    4  C   UNL     1      -9.704   9.019  66.632  1.00  0.00    -0.230 C  
HETATM    5  H2  UNL     1      -8.779   8.783  64.802  1.00  0.00     0.000 HD 
HETATM    6  O   UNL     2     -12.237  13.855  69.107  1.00  0.00    -0.356 OA 
HETATM    7  C   UNL     2     -10.799  12.359  67.791  1.00  0.00    -0.225 C  
HETATM    8  C   UNL     2     -10.912  13.573  68.637  1.00  0.00    -0.263 C  
HETATM    9  C   UNL     2     -11.671  14.788  68.175  1.00  0.00    -0.325 C  
ENDROOT
BRANCH   4  10
HETATM   10  C   UNL     1      -8.436   9.387  67.330  1.00  0.00    -0.125 C  
HETATM   11  C   UNL     1      -7.290   9.707  66.714  1.00  0.00    -0.091 C  
ENDBRANCH   4  10
TORSDOF 1
ENDMDL
MODEL      127
REMARK 921   NORMALIZED FREE ENERGY PREDICTED BY IDOCK:   -2.25 KCAL/MOL
REMARK 922        TOTAL FREE ENERGY PREDICTED BY IDOCK:   -2.41 KCAL/MOL
REMARK 923 INTER-LIGAND FREE ENERGY PREDICTED BY IDOCK:   -2.39 KCAL/MOL
REMARK 924 INTRA-LIGAND FREE ENERGY PREDICTED BY IDOCK:   -0.03 KCAL/MOL
REMARK 927      BINDING AFFINITY PREDICTED BY RF-SCORE:    0.00 PKD
ROOT
HETATM    1  N   UNL     1      -9.338   9.540  64.864  1.00  0.00    -0.380 NA 
HETATM    2  H1  UNL     1      -8.428   9.130  64.651  1.00  0.00     0.000 HD 
HETATM    3 CL   UNL     2     -10.465   8.335  68.148  1.00  0.00    -0.249 Cl 
HETATM    4  C   UNL     1      -9.177  10.769  65.624  1.00  0.00    -0.199 C  
HETATM    5  H2  UNL     1      -9.895   9.685  64.021  1.00  0.00     0.000 HD 
HETATM    6  O   UNL     2      -8.715   9.292  71.415  1.00  0.00    -0.317 OA 
HETATM    7  C   UNL     2      -9.448   9.463  69.076  1.00  0.00    -0.160 C  
HETATM    8  C   UNL     2      -9.823   9.380  70.510  1.00  0.00    -0.270 C  
HETATM    9  C   UNL     2      -9.563   8.139  71.322  1.00  0.00    -0.162 C  
ENDROOT
BRANCH   4  10
HETATM   10  C   UNL     1     -10.509  11.369  65.934  1.00  0.00    -0.309 C  
HETATM   11  C   UNL     1     -11.041  12.419  65.296  1.00  0.00    -0.342 C  
ENDBRANCH   4  10
TORSDOF 1
ENDMDL
MODEL      128
REMARK 921   NORMALIZED FREE ENERGY PREDICTED BY IDOCK:   -2.24 KCAL/MOL
REMARK 922        TOTAL FREE ENERGY PREDICTED BY IDOCK:   -2.40 KCAL/MOL
REMARK 923 INTER-LIGAND FREE ENERGY PREDICTED BY IDOCK:   -2.38 KCAL/MOL
REMARK 924 INTRA-LIGAND FREE ENERGY PREDICTED BY IDOCK:   -0.03 KCAL/MOL
REMARK 927      BINDING AFFINITY PREDICTED BY RF-SCORE:    0.00 PKD
ROOT
HETATM    1  N   UNL     1      -8.859   4.100  72.082  1.00  0.00    -0.106 NA 
HETATM    2  H1  UNL     1      -8.218   4.400  72.817  1.00  0.00     0.000 HD 
HETATM    3 CL   UNL     2     -11.965   6.050  72.327  1.00  0.00    -0.332 Cl 
HETATM    4  C   UNL     1      -8.699   4.931  70.899  1.00  0.00    -0.120 C  
HETATM    5  H2  UNL     1      -8.754   3.109  71.867  1.00  0.00     0.000 HD 
HETATM    6  O   UNL     2     -12.110   9.809  71.613  1.00  0.00    -0.378 OA 
HETATM    7  C   UNL     2     -11.299   7.491  71.521  1.00  0.00    -0.255 C  
HETATM    8  C   UNL     2     -12.402   8.449  71.261  1.00  0.00    -0.266 C  
HETATM    9  C   UNL     2     -13.121   9.147  72.385  1.00  0.00    -0.423 C  
ENDROOT
BRANCH   4  10
HETATM   10  C   UNL     1      -9.639   4.492  69.823  1.00  0.00    -0.270 C  
HETATM   11  C   UNL     1      -9.299   3.723  68.781  1.00  0.00    -0.230 C  
ENDBRANCH   4  10
TORSDOF 1
ENDMDL
MODEL      129
REMARK 921   NORMALIZED FREE ENERGY PREDICTED BY IDOCK:   -2.24 KCAL/MOL
REMARK 922        TOTAL FREE ENERGY PREDICTED BY IDOCK:   -2.40 KCAL/MOL
REMARK 923 INTER-LIGAND FREE ENERGY PREDICTED BY IDOCK:   -2.31 KCAL/MOL
REMARK 924 INTRA-LIGAND FREE ENERGY PREDICTED BY IDOCK:   -0.09 KCAL/MOL
REMARK 927      BINDING AFFINITY PREDICTED BY RF-SCORE:    0.00 PKD
ROOT
HETATM    1  N   UNL     1     -10.093  13.794  64.743  1.00  0.00    -0.619 NA 
HETATM    2  H1  UNL     1     -10.033  14.693  65.221  1.00  0.00     0.000 HD 
HETATM    3 CL   UNL     2      -7.795  11.419  66.351  1.00  0.00    -0.114 Cl 
HETATM    4  C   UNL     1     -11.072  12.937  65.393  1.00  0.00    -0.281 C  
HETATM    5  H2  UNL     1     -10.288  13.905  63.748  1.00  0.00     0.000 HD 
HETATM    6  O   UNL     2      -8.322  10.122  69.915  1.00  0.00    -0.172 OA 
HETATM    7  C   UNL     2      -8.883  11.062  67.715  1.00  0.00    -0.133 C  
HETATM    8  C   UNL     2      -8.321   9.930  68.494  1.00  0.00    -0.108 C  
HETATM    9  C   UNL     2      -7.040  10.068  69.273  1.00  0.00    -0.074 C  
ENDROOT
BRANCH   4  10
HETATM   10  C   UNL     1     -11.159  11.620  64.693  1.00  0.00    -0.342 C  
HETATM   11  C   UNL     1     -10.473  11.295  63.589  1.00  0.00    -0.464 C  
ENDBRANCH   4  10
TORSDOF 1
ENDMDL
MODEL      130
REMARK 921   NORMALIZED FREE ENERGY PREDICTED BY IDOCK:   -2.23 KCAL/MOL
REMARK 922        TOTAL FREE ENERGY PREDICTED BY IDOCK:   -2.39 KCAL/MOL
REMARK 923 INTER-LIGAND FREE ENERGY PREDICTED BY IDOCK:   -2.36 KCAL/MOL
REMARK 924 INTRA-LIGAND FREE ENERGY PREDICTED BY IDOCK:   -0.03 KCAL/MOL
REMARK 927      BINDING AFFINITY PREDICTED BY RF-SCORE:    0.00 PKD
ROOT
HETATM    1  N   UNL     1      -8.747   5.186  68.214  1.00  0.00    -0.102 NA 
HETATM    2  H1  UNL     1      -9.063   5.438  67.277  1.00  0.00     0.000 HD 
HETATM    3 CL   UNL     2     -10.303   7.450  70.656  1.00  0.00    -0.212 Cl 
HETATM    4  C   UNL     1      -9.676   4.252  68.830  1.00  0.00    -0.114 C  
HETATM    5  H2  UNL     1      -7.793   4.826  68.209  1.00  0.00     0.000 HD 
HETATM    6  O   UNL     2     -14.063   7.443  71.380  1.00  0.00    -0.427 OA 
HETATM    7  C   UNL     2     -11.867   6.599  70.671  1.00  0.00    -0.383 C  
HETATM    8  C   UNL     2     -12.709   7.158  71.757  1.00  0.00    -0.339 C  
HETATM    9  C   UNL     2     -13.234   8.569  71.700  1.00  0.00    -0.343 C  
ENDROOT
BRANCH   4  10
HETATM   10  C   UNL     1      -9.213   3.884  70.202  1.00  0.00    -0.217 C  
HETATM   11  C   UNL     1      -9.471   2.718  70.807  1.00  0.00    -0.219 C  
ENDBRANCH   4  10
TORSDOF 1
ENDMDL
MODEL      131
REMARK 921   NORMALIZED FREE ENERGY PREDICTED BY IDOCK:   -2.23 KCAL/MOL
REMARK 922        TOTAL FREE ENERGY PREDICTED BY IDOCK:   -2.39 KCAL/MOL
REMARK 923 INTER-LIGAND FREE ENERGY PREDICTED BY IDOCK:   -2.32 KCAL/MOL
REMARK 924 INTRA-LIGAND FREE ENERGY PREDICTED BY IDOCK:   -0.07 KCAL/MOL
REMARK 927      BINDING AFFINITY PREDICTED BY RF-SCORE:    0.00 PKD
ROOT
HETATM    1  N   UNL     1     -11.982  10.221  68.705  1.00  0.00    -0.659 NA 
HETATM    2  H1  UNL     1     -11.953  10.859  67.909  1.00  0.00     0.000 HD 
HETATM    3 CL   UNL     2     -11.200   6.820  67.554  1.00  0.00    -0.327 Cl 
HETATM    4  C   UNL     1     -10.659  10.081  69.293  1.00  0.00    -0.227 C  
HETATM    5  H2  UNL     1     -12.676  10.508  69.395  1.00  0.00     0.000 HD 
HETATM    6  O   UNL     2      -7.743   5.822  66.246  1.00  0.00    -0.096 OA 
HETATM    7  C   UNL     2      -9.441   7.084  67.496  1.00  0.00    -0.126 C  
HETATM    8  C   UNL     2      -8.767   5.785  67.249  1.00  0.00    -0.108 C  
HETATM    9  C   UNL     2      -8.916   5.056  65.940  1.00  0.00    -0.141 C  
ENDROOT
BRANCH   4  10
HETATM   10  C   UNL     1     -10.703   9.148  70.459  1.00  0.00    -0.289 C  
HETATM   11  C   UNL     1     -11.808   8.842  71.150  1.00  0.00    -0.345 C  
ENDBRANCH   4  10
TORSDOF 1
ENDMDL
MODEL      132
REMARK 921   NORMALIZED FREE ENERGY PREDICTED BY IDOCK:   -2.22 KCAL/MOL
REMARK 922        TOTAL FREE ENERGY PREDICTED BY IDOCK:   -2.38 KCAL/MOL
REMARK 923 INTER-LIGAND FREE ENERGY PREDICTED BY IDOCK:   -2.32 KCAL/MOL
REMARK 924 INTRA-LIGAND FREE ENERGY PREDICTED BY IDOCK:   -0.06 KCAL/MOL
REMARK 927      BINDING AFFINITY PREDICTED BY RF-SCORE:    0.00 PKD
ROOT
HETATM    1  N   UNL     1      -9.437  10.862  67.100  1.00  0.00    -0.160 NA 
HETATM    2  H1  UNL     1      -9.930  11.739  67.273  1.00  0.00     0.000 HD 
HETATM    3 CL   UNL     2      -9.300   8.923  70.220  1.00  0.00    -0.189 Cl 
HETATM    4  C   UNL     1     -10.379   9.809  66.755  1.00  0.00    -0.218 C  
HETATM    5  H2  UNL     1      -8.710  10.968  66.393  1.00  0.00     0.000 HD 
HETATM    6  O   UNL     2     -12.416   7.427  71.864  1.00  0.00    -0.309 OA 
HETATM    7  C   UNL     2     -10.968   8.315  70.090  1.00  0.00    -0.222 C  
HETATM    8  C   UNL     2     -11.188   7.287  71.137  1.00  0.00    -0.259 C  
HETATM    9  C   UNL     2     -11.204   7.644  72.600  1.00  0.00    -0.366 C  
ENDROOT
BRANCH   4  10
HETATM   10  C   UNL     1      -9.658   8.526  66.502  1.00  0.00    -0.303 C  
HETATM   11  C   UNL     1     -10.143   7.310  66.784  1.00  0.00    -0.291 C  
ENDBRANCH   4  10
TORSDOF 1
ENDMDL
MODEL      133
REMARK 921   NORMALIZED FREE ENERGY PREDICTED BY IDOCK:   -2.21 KCAL/MOL
REMARK 922        TOTAL FREE ENERGY PREDICTED BY IDOCK:   -2.37 KCAL/MOL
REMARK 923 INTER-LIGAND FREE ENERGY PREDICTED BY IDOCK:   -2.31 KCAL/MOL
REMARK 924 INTRA-LIGAND FREE ENERGY PREDICTED BY IDOCK:   -0.06 KCAL/MOL
REMARK 927      BINDING AFFINITY PREDICTED BY RF-SCORE:    0.00 PKD
ROOT
HETATM    1  N   UNL     1     -11.194  11.689  69.629  1.00  0.00    -0.437 NA 
HETATM    2  H1  UNL     1     -11.536  10.800  69.995  1.00  0.00     0.000 HD 
HETATM    3 CL   UNL     2      -8.485  11.043  67.232  1.00  0.00    -0.128 Cl 
HETATM    4  C   UNL     1     -11.891  12.034  68.401  1.00  0.00    -0.300 C  
HETATM    5  H2  UNL     1     -11.257  12.434  70.323  1.00  0.00     0.000 HD 
HETATM    6  O   UNL     2      -9.068   9.311  63.868  1.00  0.00    -0.146 OA 
HETATM    7  C   UNL     2      -9.573  10.609  65.892  1.00  0.00    -0.205 C  
HETATM    8  C   UNL     2      -8.775  10.479  64.647  1.00  0.00    -0.183 C  
HETATM    9  C   UNL     2      -7.767   9.374  64.470  1.00  0.00    -0.118 C  
ENDROOT
BRANCH   4  10
HETATM   10  C   UNL     1     -11.391  13.335  67.865  1.00  0.00    -0.317 C  
HETATM   11  C   UNL     1     -11.925  13.988  66.823  1.00  0.00    -0.473 C  
ENDBRANCH   4  10
TORSDOF 1
ENDMDL
MODEL      134
REMARK 921   NORMALIZED FREE ENERGY PREDICTED BY IDOCK:   -2.20 KCAL/MOL
REMARK 922        TOTAL FREE ENERGY PREDICTED BY IDOCK:   -2.36 KCAL/MOL
REMARK 923 INTER-LIGAND FREE ENERGY PREDICTED BY IDOCK:   -2.32 KCAL/MOL
REMARK 924 INTRA-LIGAND FREE ENERGY PREDICTED BY IDOCK:   -0.04 KCAL/MOL
REMARK 927      BINDING AFFINITY PREDICTED BY RF-SCORE:    0.00 PKD
ROOT
HETATM    1  N   UNL     1     -11.153   5.654  66.151  1.00  0.00    -0.756 NA 
HETATM    2  H1  UNL     1     -12.105   5.311  66.022  1.00  0.00     0.000 HD 
HETATM    3 CL   UNL     2     -10.834   7.082  69.522  1.00  0.00    -0.262 Cl 
HETATM    4  C   UNL     1     -10.319   4.627  66.754  1.00  0.00    -0.125 C  
HETATM    5  H2  UNL     1     -10.754   6.003  65.279  1.00  0.00     0.000 HD 
HETATM    6  O   UNL     2     -11.029   4.952  72.697  1.00  0.00    -0.223 OA 
HETATM    7  C   UNL     2     -10.655   5.508  70.333  1.00  0.00    -0.280 C  
HETATM    8  C   UNL     2     -10.288   5.737  71.753  1.00  0.00    -0.221 C  
HETATM    9  C   UNL     2     -11.250   6.369  72.723  1.00  0.00    -0.227 C  
ENDROOT
BRANCH   4  10
HETATM   10  C   UNL     1      -8.926   5.130  66.943  1.00  0.00    -0.109 C  
HETATM   11  C   UNL     1      -8.228   5.809  66.023  1.00  0.00    -0.114 C  
ENDBRANCH   4  10
TORSDOF 1
ENDMDL
MODEL      135
REMARK 921   NORMALIZED FREE ENERGY PREDICTED BY IDOCK:   -2.19 KCAL/MOL
REMARK 922        TOTAL FREE ENERGY PREDICTED BY IDOCK:   -2.35 KCAL/MOL
REMARK 923 INTER-LIGAND FREE ENERGY PREDICTED BY IDOCK:   -2.26 KCAL/MOL
REMARK 924 INTRA-LIGAND FREE ENERGY PREDICTED BY IDOCK:   -0.09 KCAL/MOL
REMARK 927      BINDING AFFINITY PREDICTED BY RF-SCORE:    0.00 PKD
ROOT
HETATM    1  N   UNL     1      -7.481  14.954  66.838  1.00  0.00    -0.300 NA 
HETATM    2  H1  UNL     1      -6.636  14.729  67.365  1.00  0.00     0.000 HD 
HETATM    3 CL   UNL     2      -9.311  11.851  66.114  1.00  0.00    -0.231 Cl 
HETATM    4  C   UNL     1      -8.606  15.139  67.740  1.00  0.00    -0.152 C  
HETATM    5  H2  UNL     1      -7.345  15.761  66.230  1.00  0.00     0.000 HD 
HETATM    6  O   UNL     2     -10.973   9.744  68.845  1.00  0.00    -0.212 OA 
HETATM    7  C   UNL     2     -10.038  11.726  67.734  1.00  0.00    -0.188 C  
HETATM    8  C   UNL     2     -11.048  10.638  67.726  1.00  0.00    -0.321 C  
HETATM    9  C   UNL     2     -10.650   9.196  67.559  1.00  0.00    -0.249 C  
ENDROOT
BRANCH   4  10
HETATM   10  C   UNL     1      -9.843  15.469  66.970  1.00  0.00    -0.236 C  
HETATM   11  C   UNL     1      -9.892  15.639  65.642  1.00  0.00    -0.369 C  
ENDBRANCH   4  10
TORSDOF 1
ENDMDL
MODEL      136
REMARK 921   NORMALIZED FREE ENERGY PREDICTED BY IDOCK:   -2.18 KCAL/MOL
REMARK 922        TOTAL FREE ENERGY PREDICTED BY IDOCK:   -2.33 KCAL/MOL
REMARK 923 INTER-LIGAND FREE ENERGY PREDICTED BY IDOCK:   -2.24 KCAL/MOL
REMARK 924 INTRA-LIGAND FREE ENERGY PREDICTED BY IDOCK:   -0.09 KCAL/MOL
REMARK 927      BINDING AFFINITY PREDICTED BY RF-SCORE:    0.00 PKD
ROOT
HETATM    1  N   UNL     1      -8.882   6.017  72.944  1.00  0.00    -0.124 NA 
HETATM    2  H1  UNL     1      -8.543   5.077  72.737  1.00  0.00     0.000 HD 
HETATM    3 CL   UNL     2      -8.595   8.090  69.923  1.00  0.00    -0.133 Cl 
HETATM    4  C   UNL     1     -10.293   6.132  72.613  1.00  0.00    -0.196 C  
HETATM    5  H2  UNL     1      -8.696   6.284  73.910  1.00  0.00     0.000 HD 
HETATM    6  O   UNL     2     -10.704   7.479  66.786  1.00  0.00    -0.319 OA 
HETATM    7  C   UNL     2     -10.067   7.444  69.159  1.00  0.00    -0.189 C  
HETATM    8  C   UNL     2     -10.376   8.249  67.951  1.00  0.00    -0.219 C  
HETATM    9  C   UNL     2      -9.481   8.227  66.741  1.00  0.00    -0.198 C  
ENDROOT
BRANCH   4  10
HETATM   10  C   UNL     1     -10.789   7.508  72.915  1.00  0.00    -0.425 C  
HETATM   11  C   UNL     1     -11.831   8.094  72.310  1.00  0.00    -0.441 C  
ENDBRANCH   4  10
TORSDOF 1
ENDMDL
MODEL      137
REMARK 921   NORMALIZED FREE ENERGY PREDICTED BY IDOCK:   -2.17 KCAL/MOL
REMARK 922        TOTAL FREE ENERGY PREDICTED BY IDOCK:   -2.33 KCAL/MOL
REMARK 923 INTER-LIGAND FREE ENERGY PREDICTED BY IDOCK:   -2.24 KCAL/MOL
REMARK 924 INTRA-LIGAND FREE ENERGY PREDICTED BY IDOCK:   -0.08 KCAL/MOL
REMARK 927      BINDING AFFINITY PREDICTED BY RF-SCORE:    0.00 PKD
ROOT
HETATM    1  N   UNL     1      -8.738  12.115  68.798  1.00  0.00    -0.372 NA 
HETATM    2  H1  UNL     1      -9.548  12.591  68.400  1.00  0.00     0.000 HD 
HETATM    3 CL   UNL     2      -9.892   9.350  70.927  1.00  0.00    -0.352 Cl 
HETATM    4  C   UNL     1      -8.339  10.998  67.956  1.00  0.00    -0.125 C  
HETATM    5  H2  UNL     1      -7.965  12.758  68.966  1.00  0.00     0.000 HD 
HETATM    6  O   UNL     2     -11.647   6.251  69.523  1.00  0.00    -0.423 OA 
HETATM    7  C   UNL     2     -10.206   8.240  69.572  1.00  0.00    -0.210 C  
HETATM    8  C   UNL     2     -10.508   6.892  70.114  1.00  0.00    -0.209 C  
HETATM    9  C   UNL     2     -11.762   6.625  70.904  1.00  0.00    -0.375 C  
ENDROOT
BRANCH   4  10
HETATM   10  C   UNL     1      -7.154  10.302  68.539  1.00  0.00    -0.074 C  
HETATM   11  C   UNL     1      -6.460  10.735  69.601  1.00  0.00    -0.103 C  
ENDBRANCH   4  10
TORSDOF 1
ENDMDL
MODEL      138
REMARK 921   NORMALIZED FREE ENERGY PREDICTED BY IDOCK:   -2.17 KCAL/MOL
REMARK 922        TOTAL FREE ENERGY PREDICTED BY IDOCK:   -2.32 KCAL/MOL
REMARK 923 INTER-LIGAND FREE ENERGY PREDICTED BY IDOCK:   -2.23 KCAL/MOL
REMARK 924 INTRA-LIGAND FREE ENERGY PREDICTED BY IDOCK:   -0.10 KCAL/MOL
REMARK 927      BINDING AFFINITY PREDICTED BY RF-SCORE:    0.00 PKD
ROOT
HETATM    1  N   UNL     1      -9.189  10.374  67.124  1.00  0.00    -0.142 NA 
HETATM    2  H1  UNL     1      -8.258  10.009  66.922  1.00  0.00     0.000 HD 
HETATM    3 CL   UNL     2     -10.756   8.301  69.723  1.00  0.00    -0.238 Cl 
HETATM    4  C   UNL     1      -9.137  11.318  68.229  1.00  0.00    -0.173 C  
HETATM    5  H2  UNL     1      -9.624  10.782  66.297  1.00  0.00     0.000 HD 
HETATM    6  O   UNL     2      -9.474   8.185  73.329  1.00  0.00    -0.270 OA 
HETATM    7  C   UNL     2      -9.879   9.065  71.070  1.00  0.00    -0.282 C  
HETATM    8  C   UNL     2     -10.448   8.579  72.352  1.00  0.00    -0.297 C  
HETATM    9  C   UNL     2     -10.299   7.145  72.786  1.00  0.00    -0.227 C  
ENDROOT
BRANCH   4  10
HETATM   10  C   UNL     1     -10.500  11.851  68.525  1.00  0.00    -0.240 C  
HETATM   11  C   UNL     1     -11.638  11.367  68.008  1.00  0.00    -0.357 C  
ENDBRANCH   4  10
TORSDOF 1
ENDMDL
MODEL      139
REMARK 921   NORMALIZED FREE ENERGY PREDICTED BY IDOCK:   -2.15 KCAL/MOL
REMARK 922        TOTAL FREE ENERGY PREDICTED BY IDOCK:   -2.31 KCAL/MOL
REMARK 923 INTER-LIGAND FREE ENERGY PREDICTED BY IDOCK:   -2.28 KCAL/MOL
REMARK 924 INTRA-LIGAND FREE ENERGY PREDICTED BY IDOCK:   -0.03 KCAL/MOL
REMARK 927      BINDING AFFINITY PREDICTED BY RF-SCORE:    0.00 PKD
ROOT
HETATM    1  N   UNL     1      -8.570   7.371  67.953  1.00  0.00    -0.125 NA 
HETATM    2  H1  UNL     1      -9.108   7.310  67.088  1.00  0.00     0.000 HD 
HETATM    3 CL   UNL     2     -10.132   9.850  70.171  1.00  0.00    -0.311 Cl 
HETATM    4  C   UNL     1      -9.114   6.468  68.954  1.00  0.00    -0.131 C  
HETATM    5  H2  UNL     1      -7.576   7.206  67.793  1.00  0.00     0.000 HD 
HETATM    6  O   UNL     2     -13.573   9.323  71.764  1.00  0.00    -0.376 OA 
HETATM    7  C   UNL     2     -11.414   8.753  70.739  1.00  0.00    -0.270 C  
HETATM    8  C   UNL     2     -12.144   9.404  71.855  1.00  0.00    -0.357 C  
HETATM    9  C   UNL     2     -12.992  10.629  71.634  1.00  0.00    -0.477 C  
ENDROOT
BRANCH   4  10
HETATM   10  C   UNL     1      -8.326   6.557  70.220  1.00  0.00    -0.127 C  
HETATM   11  C   UNL     1      -7.946   5.506  70.959  1.00  0.00    -0.106 C  
ENDBRANCH   4  10
TORSDOF 1
ENDMDL
MODEL      140
REMARK 921   NORMALIZED FREE ENERGY PREDICTED BY IDOCK:   -2.13 KCAL/MOL
REMARK 922        TOTAL FREE ENERGY PREDICTED BY IDOCK:   -2.29 KCAL/MOL
REMARK 923 INTER-LIGAND FREE ENERGY PREDICTED BY IDOCK:   -2.19 KCAL/MOL
REMARK 924 INTRA-LIGAND FREE ENERGY PREDICTED BY IDOCK:   -0.10 KCAL/MOL
REMARK 927      BINDING AFFINITY PREDICTED BY RF-SCORE:    0.00 PKD
ROOT
HETATM    1  N   UNL     1      -7.870  10.411  70.269  1.00  0.00    -0.420 NA 
HETATM    2  H1  UNL     1      -7.995  10.923  71.143  1.00  0.00     0.000 HD 
HETATM    3 CL   UNL     2     -10.597  11.282  67.964  1.00  0.00    -0.214 Cl 
HETATM    4  C   UNL     1      -7.115  11.210  69.317  1.00  0.00    -0.123 C  
HETATM    5  H2  UNL     1      -7.442   9.498  70.422  1.00  0.00     0.000 HD 
HETATM    6  O   UNL     2     -10.985  14.775  66.445  1.00  0.00    -0.320 OA 
HETATM    7  C   UNL     2      -9.879  12.832  67.464  1.00  0.00    -0.211 C  
HETATM    8  C   UNL     2     -10.663  13.382  66.331  1.00  0.00    -0.286 C  
HETATM    9  C   UNL     2     -12.082  13.852  66.509  1.00  0.00    -0.449 C  
ENDROOT
BRANCH   4  10
HETATM   10  C   UNL     1      -6.933  10.461  68.037  1.00  0.00    -0.078 C  
HETATM   11  C   UNL     1      -7.510   9.286  67.751  1.00  0.00    -0.088 C  
ENDBRANCH   4  10
TORSDOF 1
ENDMDL
MODEL      141
REMARK 921   NORMALIZED FREE ENERGY PREDICTED BY IDOCK:   -2.12 KCAL/MOL
REMARK 922        TOTAL FREE ENERGY PREDICTED BY IDOCK:   -2.27 KCAL/MOL
REMARK 923 INTER-LIGAND FREE ENERGY PREDICTED BY IDOCK:   -2.18 KCAL/MOL
REMARK 924 INTRA-LIGAND FREE ENERGY PREDICTED BY IDOCK:   -0.09 KCAL/MOL
REMARK 927      BINDING AFFINITY PREDICTED BY RF-SCORE:    0.00 PKD
ROOT
HETATM    1  N   UNL     1      -8.642   4.850  68.576  1.00  0.00    -0.093 NA 
HETATM    2  H1  UNL     1      -8.031   4.575  69.346  1.00  0.00     0.000 HD 
HETATM    3 CL   UNL     2     -11.654   6.450  69.946  1.00  0.00    -0.490 Cl 
HETATM    4  C   UNL     1      -8.371   6.222  68.179  1.00  0.00    -0.115 C  
HETATM    5  H2  UNL     1      -8.574   4.206  67.788  1.00  0.00     0.000 HD 
HETATM    6  O   UNL     2     -11.566   9.828  71.746  1.00  0.00    -0.349 OA 
HETATM    7  C   UNL     2     -10.870   8.022  70.232  1.00  0.00    -0.241 C  
HETATM    8  C   UNL     2     -11.906   9.014  70.615  1.00  0.00    -0.154 C  
HETATM    9  C   UNL     2     -12.654   8.908  71.917  1.00  0.00    -0.377 C  
ENDROOT
BRANCH   4  10
HETATM   10  C   UNL     1      -9.266   6.626  67.053  1.00  0.00    -0.147 C  
HETATM   11  C   UNL     1     -10.160   5.822  66.463  1.00  0.00    -0.216 C  
ENDBRANCH   4  10
TORSDOF 1
ENDMDL
MODEL      142
REMARK 921   NORMALIZED FREE ENERGY PREDICTED BY IDOCK:   -2.11 KCAL/MOL
REMARK 922        TOTAL FREE ENERGY PREDICTED BY IDOCK:   -2.27 KCAL/MOL
REMARK 923 INTER-LIGAND FREE ENERGY PREDICTED BY IDOCK:   -2.27 KCAL/MOL
REMARK 924 INTRA-LIGAND FREE ENERGY PREDICTED BY IDOCK:    0.01 KCAL/MOL
REMARK 927      BINDING AFFINITY PREDICTED BY RF-SCORE:    0.00 PKD
ROOT
HETATM    1  N   UNL     1      -8.020   9.380  67.109  1.00  0.00    -0.102 NA 
HETATM    2  H1  UNL     1      -7.105   9.294  67.552  1.00  0.00     0.000 HD 
HETATM    3 CL   UNL     2     -10.459   7.369  68.984  1.00  0.00    -0.214 Cl 
HETATM    4  C   UNL     1      -8.780  10.458  67.721  1.00  0.00    -0.122 C  
HETATM    5  H2  UNL     1      -7.943   9.496  66.099  1.00  0.00     0.000 HD 
HETATM    6  O   UNL     2     -11.549   8.235  72.550  1.00  0.00    -0.383 OA 
HETATM    7  C   UNL     2     -10.680   8.573  70.277  1.00  0.00    -0.230 C  
HETATM    8  C   UNL     2     -11.808   8.147  71.142  1.00  0.00    -0.279 C  
HETATM    9  C   UNL     2     -11.716   6.918  72.008  1.00  0.00    -0.300 C  
ENDROOT
BRANCH   4  10
HETATM   10  C   UNL     1     -10.120  10.585  67.072  1.00  0.00    -0.259 C  
HETATM   11  C   UNL     1     -11.270  10.785  67.729  1.00  0.00    -0.385 C  
ENDBRANCH   4  10
TORSDOF 1
ENDMDL
MODEL      143
REMARK 921   NORMALIZED FREE ENERGY PREDICTED BY IDOCK:   -2.11 KCAL/MOL
REMARK 922        TOTAL FREE ENERGY PREDICTED BY IDOCK:   -2.26 KCAL/MOL
REMARK 923 INTER-LIGAND FREE ENERGY PREDICTED BY IDOCK:   -2.23 KCAL/MOL
REMARK 924 INTRA-LIGAND FREE ENERGY PREDICTED BY IDOCK:   -0.03 KCAL/MOL
REMARK 927      BINDING AFFINITY PREDICTED BY RF-SCORE:    0.00 PKD
ROOT
HETATM    1  N   UNL     1     -12.392  13.906  68.874  1.00  0.00    -0.454 NA 
HETATM    2  H1  UNL     1     -12.070  14.867  68.755  1.00  0.00     0.000 HD 
HETATM    3 CL   UNL     2     -10.228  11.660  66.930  1.00  0.00    -0.237 Cl 
HETATM    4  C   UNL     1     -11.685  13.266  69.972  1.00  0.00    -0.225 C  
HETATM    5  H2  UNL     1     -13.404  13.857  68.994  1.00  0.00     0.000 HD 
HETATM    6  O   UNL     2      -6.548  11.064  67.805  1.00  0.00    -0.062 OA 
HETATM    7  C   UNL     2      -8.913  11.646  68.130  1.00  0.00    -0.182 C  
HETATM    8  C   UNL     2      -7.912  10.625  67.735  1.00  0.00    -0.110 C  
HETATM    9  C   UNL     2      -7.069  10.785  66.498  1.00  0.00    -0.138 C  
ENDROOT
BRANCH   4  10
HETATM   10  C   UNL     1     -12.157  11.859  70.147  1.00  0.00    -0.382 C  
HETATM   11  C   UNL     1     -12.518  11.315  71.316  1.00  0.00    -0.441 C  
ENDBRANCH   4  10
TORSDOF 1
ENDMDL
MODEL      144
REMARK 921   NORMALIZED FREE ENERGY PREDICTED BY IDOCK:   -2.10 KCAL/MOL
REMARK 922        TOTAL FREE ENERGY PREDICTED BY IDOCK:   -2.25 KCAL/MOL
REMARK 923 INTER-LIGAND FREE ENERGY PREDICTED BY IDOCK:   -2.21 KCAL/MOL
REMARK 924 INTRA-LIGAND FREE ENERGY PREDICTED BY IDOCK:   -0.04 KCAL/MOL
REMARK 927      BINDING AFFINITY PREDICTED BY RF-SCORE:    0.00 PKD
ROOT
HETATM    1  N   UNL     1     -12.457   7.287  70.417  1.00  0.00    -0.530 NA 
HETATM    2  H1  UNL     1     -13.386   7.604  70.136  1.00  0.00     0.000 HD 
HETATM    3 CL   UNL     2      -9.955   8.733  68.145  1.00  0.00    -0.192 Cl 
HETATM    4  C   UNL     1     -11.849   8.244  71.328  1.00  0.00    -0.288 C  
HETATM    5  H2  UNL     1     -12.480   6.348  70.812  1.00  0.00     0.000 HD 
HETATM    6  O   UNL     2      -9.190  12.482  68.026  1.00  0.00    -0.191 OA 
HETATM    7  C   UNL     2      -9.939  10.326  68.937  1.00  0.00    -0.201 C  
HETATM    8  C   UNL     2      -8.833  11.135  68.368  1.00  0.00    -0.157 C  
HETATM    9  C   UNL     2      -8.857  11.608  66.939  1.00  0.00    -0.190 C  
ENDROOT
BRANCH   4  10
HETATM   10  C   UNL     1     -10.490   7.781  71.739  1.00  0.00    -0.259 C  
HETATM   11  C   UNL     1     -10.216   6.572  72.246  1.00  0.00    -0.203 C  
ENDBRANCH   4  10
TORSDOF 1
ENDMDL
MODEL      145
REMARK 921   NORMALIZED FREE ENERGY PREDICTED BY IDOCK:   -2.08 KCAL/MOL
REMARK 922        TOTAL FREE ENERGY PREDICTED BY IDOCK:   -2.23 KCAL/MOL
REMARK 923 INTER-LIGAND FREE ENERGY PREDICTED BY IDOCK:   -2.13 KCAL/MOL
REMARK 924 INTRA-LIGAND FREE ENERGY PREDICTED BY IDOCK:   -0.10 KCAL/MOL
REMARK 927      BINDING AFFINITY PREDICTED BY RF-SCORE:    0.00 PKD
ROOT
HETATM    1  N   UNL     1     -11.988  10.367  68.125  1.00  0.00    -0.661 NA 
HETATM    2  H1  UNL     1     -12.485  10.713  68.946  1.00  0.00     0.000 HD 
HETATM    3 CL   UNL     2      -9.892  13.060  66.761  1.00  0.00    -0.237 Cl 
HETATM    4  C   UNL     1     -10.682   9.851  68.502  1.00  0.00    -0.226 C  
HETATM    5  H2  UNL     1     -12.536   9.675  67.614  1.00  0.00     0.000 HD 
HETATM    6  O   UNL     2      -6.857  14.465  68.624  1.00  0.00    -0.085 OA 
HETATM    7  C   UNL     2      -8.591  12.857  67.959  1.00  0.00    -0.186 C  
HETATM    8  C   UNL     2      -7.434  13.696  67.560  1.00  0.00    -0.170 C  
HETATM    9  C   UNL     2      -7.508  15.200  67.578  1.00  0.00    -0.198 C  
ENDROOT
BRANCH   4  10
HETATM   10  C   UNL     1      -9.954   9.344  67.300  1.00  0.00    -0.252 C  
HETATM   11  C   UNL     1      -8.626   9.185  67.223  1.00  0.00    -0.118 C  
ENDBRANCH   4  10
TORSDOF 1
ENDMDL
MODEL      146
REMARK 921   NORMALIZED FREE ENERGY PREDICTED BY IDOCK:   -2.08 KCAL/MOL
REMARK 922        TOTAL FREE ENERGY PREDICTED BY IDOCK:   -2.23 KCAL/MOL
REMARK 923 INTER-LIGAND FREE ENERGY PREDICTED BY IDOCK:   -2.16 KCAL/MOL
REMARK 924 INTRA-LIGAND FREE ENERGY PREDICTED BY IDOCK:   -0.07 KCAL/MOL
REMARK 927      BINDING AFFINITY PREDICTED BY RF-SCORE:    0.00 PKD
ROOT
HETATM    1  N   UNL     1     -11.985   6.125  72.700  1.00  0.00    -0.528 NA 
HETATM    2  H1  UNL     1     -12.341   5.944  73.640  1.00  0.00     0.000 HD 
HETATM    3 CL   UNL     2      -9.043   8.315  72.929  1.00  0.00    -0.334 Cl 
HETATM    4  C   UNL     1     -10.956   5.159  72.352  1.00  0.00    -0.180 C  
HETATM    5  H2  UNL     1     -12.735   6.148  72.009  1.00  0.00     0.000 HD 
HETATM    6  O   UNL     2      -5.740   7.186  74.501  1.00  0.00    -0.068 OA 
HETATM    7  C   UNL     2      -7.922   7.010  73.385  1.00  0.00    -0.096 C  
HETATM    8  C   UNL     2      -6.534   7.537  73.360  1.00  0.00    -0.066 C  
HETATM    9  C   UNL     2      -6.068   8.574  74.347  1.00  0.00    -0.127 C  
ENDROOT
BRANCH   4  10
HETATM   10  C   UNL     1     -10.436   5.424  70.977  1.00  0.00    -0.302 C  
HETATM   11  C   UNL     1     -11.066   6.158  70.050  1.00  0.00    -0.462 C  
ENDBRANCH   4  10
TORSDOF 1
ENDMDL
MODEL      147
REMARK 921   NORMALIZED FREE ENERGY PREDICTED BY IDOCK:   -2.07 KCAL/MOL
REMARK 922        TOTAL FREE ENERGY PREDICTED BY IDOCK:   -2.22 KCAL/MOL
REMARK 923 INTER-LIGAND FREE ENERGY PREDICTED BY IDOCK:   -2.18 KCAL/MOL
REMARK 924 INTRA-LIGAND FREE ENERGY PREDICTED BY IDOCK:   -0.04 KCAL/MOL
REMARK 927      BINDING AFFINITY PREDICTED BY RF-SCORE:    0.00 PKD
ROOT
HETATM    1  N   UNL     1      -7.576   7.593  67.570  1.00  0.00    -0.107 NA 
HETATM    2  H1  UNL     1      -6.751   7.835  67.020  1.00  0.00     0.000 HD 
HETATM    3 CL   UNL     2      -9.448  10.661  68.341  1.00  0.00    -0.159 Cl 
HETATM    4  C   UNL     1      -8.722   7.384  66.701  1.00  0.00    -0.135 C  
HETATM    5  H2  UNL     1      -7.406   6.790  68.176  1.00  0.00     0.000 HD 
HETATM    6  O   UNL     2     -11.228  12.728  65.654  1.00  0.00    -0.287 OA 
HETATM    7  C   UNL     2     -10.222  10.767  66.741  1.00  0.00    -0.230 C  
HETATM    8  C   UNL     2     -11.253  11.834  66.776  1.00  0.00    -0.328 C  
HETATM    9  C   UNL     2     -10.880  13.285  66.929  1.00  0.00    -0.276 C  
ENDROOT
BRANCH   4  10
HETATM   10  C   UNL     1      -9.930   7.031  67.506  1.00  0.00    -0.201 C  
HETATM   11  C   UNL     1     -10.992   6.363  67.037  1.00  0.00    -0.463 C  
ENDBRANCH   4  10
TORSDOF 1
ENDMDL
MODEL      148
REMARK 921   NORMALIZED FREE ENERGY PREDICTED BY IDOCK:   -2.07 KCAL/MOL
REMARK 922        TOTAL FREE ENERGY PREDICTED BY IDOCK:   -2.22 KCAL/MOL
REMARK 923 INTER-LIGAND FREE ENERGY PREDICTED BY IDOCK:   -2.16 KCAL/MOL
REMARK 924 INTRA-LIGAND FREE ENERGY PREDICTED BY IDOCK:   -0.06 KCAL/MOL
REMARK 927      BINDING AFFINITY PREDICTED BY RF-SCORE:    0.00 PKD
ROOT
HETATM    1  N   UNL     1      -8.113   7.564  69.385  1.00  0.00    -0.126 NA 
HETATM    2  H1  UNL     1      -8.236   7.036  68.520  1.00  0.00     0.000 HD 
HETATM    3 CL   UNL     2      -8.793  11.116  68.731  1.00  0.00    -0.153 Cl 
HETATM    4  C   UNL     1      -9.378   7.686  70.090  1.00  0.00    -0.157 C  
HETATM    5  H2  UNL     1      -7.386   7.160  69.976  1.00  0.00     0.000 HD 
HETATM    6  O   UNL     2     -12.278  12.425  67.841  1.00  0.00    -0.379 OA 
HETATM    7  C   UNL     2     -10.563  10.940  68.784  1.00  0.00    -0.201 C  
HETATM    8  C   UNL     2     -11.182  12.289  68.755  1.00  0.00    -0.265 C  
HETATM    9  C   UNL     2     -11.091  13.171  67.539  1.00  0.00    -0.271 C  
ENDROOT
BRANCH   4  10
HETATM   10  C   UNL     1      -9.198   8.460  71.355  1.00  0.00    -0.242 C  
HETATM   11  C   UNL     1     -10.155   8.662  72.270  1.00  0.00    -0.363 C  
ENDBRANCH   4  10
TORSDOF 1
ENDMDL
MODEL      149
REMARK 921   NORMALIZED FREE ENERGY PREDICTED BY IDOCK:   -2.06 KCAL/MOL
REMARK 922        TOTAL FREE ENERGY PREDICTED BY IDOCK:   -2.21 KCAL/MOL
REMARK 923 INTER-LIGAND FREE ENERGY PREDICTED BY IDOCK:   -2.15 KCAL/MOL
REMARK 924 INTRA-LIGAND FREE ENERGY PREDICTED BY IDOCK:   -0.06 KCAL/MOL
REMARK 927      BINDING AFFINITY PREDICTED BY RF-SCORE:    0.00 PKD
ROOT
HETATM    1  N   UNL     1      -8.881   7.804  68.735  1.00  0.00    -0.135 NA 
HETATM    2  H1  UNL     1      -8.117   7.887  69.406  1.00  0.00     0.000 HD 
HETATM    3 CL   UNL     2     -11.478  10.271  69.557  1.00  0.00    -0.285 Cl 
HETATM    4  C   UNL     1      -8.683   8.720  67.623  1.00  0.00    -0.135 C  
HETATM    5  H2  UNL     1      -9.004   6.843  68.417  1.00  0.00     0.000 HD 
HETATM    6  O   UNL     2     -10.927  14.045  69.219  1.00  0.00    -0.250 OA 
HETATM    7  C   UNL     2     -10.622  11.641  68.809  1.00  0.00    -0.212 C  
HETATM    8  C   UNL     2     -11.527  12.817  68.783  1.00  0.00    -0.304 C  
HETATM    9  C   UNL     2     -11.963  13.504  70.050  1.00  0.00    -0.340 C  
ENDROOT
BRANCH   4  10
HETATM   10  C   UNL     1      -9.802   8.599  66.641  1.00  0.00    -0.336 C  
HETATM   11  C   UNL     1      -9.858   9.238  65.465  1.00  0.00    -0.155 C  
ENDBRANCH   4  10
TORSDOF 1
ENDMDL
MODEL      150
REMARK 921   NORMALIZED FREE ENERGY PREDICTED BY IDOCK:   -2.06 KCAL/MOL
REMARK 922        TOTAL FREE ENERGY PREDICTED BY IDOCK:   -2.21 KCAL/MOL
REMARK 923 INTER-LIGAND FREE ENERGY PREDICTED BY IDOCK:   -2.16 KCAL/MOL
REMARK 924 INTRA-LIGAND FREE ENERGY PREDICTED BY IDOCK:   -0.04 KCAL/MOL
REMARK 927      BINDING AFFINITY PREDICTED BY RF-SCORE:    0.00 PKD
ROOT
HETATM    1  N   UNL     1     -11.353   9.843  71.146  1.00  0.00    -0.376 NA 
HETATM    2  H1  UNL     1     -11.083  10.750  71.527  1.00  0.00     0.000 HD 
HETATM    3 CL   UNL     2     -10.887   9.881  67.501  1.00  0.00    -0.338 Cl 
HETATM    4  C   UNL     1     -10.198   8.964  71.056  1.00  0.00    -0.254 C  
HETATM    5  H2  UNL     1     -12.112   9.418  71.679  1.00  0.00     0.000 HD 
HETATM    6  O   UNL     2      -7.435  10.101  65.860  1.00  0.00    -0.112 OA 
HETATM    7  C   UNL     2      -9.127   9.619  67.574  1.00  0.00    -0.130 C  
HETATM    8  C   UNL     2      -8.621   9.370  66.202  1.00  0.00    -0.136 C  
HETATM    9  C   UNL     2      -8.633  10.448  65.150  1.00  0.00    -0.180 C  
ENDROOT
BRANCH   4  10
HETATM   10  C   UNL     1     -10.594   7.637  70.498  1.00  0.00    -0.229 C  
HETATM   11  C   UNL     1     -11.674   6.941  70.877  1.00  0.00    -0.408 C  
ENDBRANCH   4  10
TORSDOF 1
ENDMDL
MODEL      151
REMARK 921   NORMALIZED FREE ENERGY PREDICTED BY IDOCK:   -2.05 KCAL/MOL
REMARK 922        TOTAL FREE ENERGY PREDICTED BY IDOCK:   -2.20 KCAL/MOL
REMARK 923 INTER-LIGAND FREE ENERGY PREDICTED BY IDOCK:   -2.10 KCAL/MOL
REMARK 924 INTRA-LIGAND FREE ENERGY PREDICTED BY IDOCK:   -0.09 KCAL/MOL
REMARK 927      BINDING AFFINITY PREDICTED BY RF-SCORE:    0.00 PKD
ROOT
HETATM    1  N   UNL     1     -11.608  10.532  67.581  1.00  0.00    -0.612 NA 
HETATM    2  H1  UNL     1     -12.209  10.624  68.401  1.00  0.00     0.000 HD 
HETATM    3 CL   UNL     2      -8.515  12.438  68.135  1.00  0.00    -0.174 Cl 
HETATM    4  C   UNL     1     -10.685   9.422  67.750  1.00  0.00    -0.229 C  
HETATM    5  H2  UNL     1     -12.150  10.448  66.721  1.00  0.00     0.000 HD 
HETATM    6  O   UNL     2      -5.918  11.447  70.768  1.00  0.00    -0.326 OA 
HETATM    7  C   UNL     2      -7.755  11.194  69.156  1.00  0.00    -0.076 C  
HETATM    8  C   UNL     2      -6.342  11.572  69.404  1.00  0.00    -0.103 C  
HETATM    9  C   UNL     2      -5.982  12.776  70.232  1.00  0.00    -0.127 C  
ENDROOT
BRANCH   4  10
HETATM   10  C   UNL     1      -9.805   9.287  66.550  1.00  0.00    -0.331 C  
HETATM   11  C   UNL     1      -8.588   8.729  66.554  1.00  0.00    -0.126 C  
ENDBRANCH   4  10
TORSDOF 1
ENDMDL
MODEL      152
REMARK 921   NORMALIZED FREE ENERGY PREDICTED BY IDOCK:   -2.03 KCAL/MOL
REMARK 922        TOTAL FREE ENERGY PREDICTED BY IDOCK:   -2.17 KCAL/MOL
REMARK 923 INTER-LIGAND FREE ENERGY PREDICTED BY IDOCK:   -2.08 KCAL/MOL
REMARK 924 INTRA-LIGAND FREE ENERGY PREDICTED BY IDOCK:   -0.09 KCAL/MOL
REMARK 927      BINDING AFFINITY PREDICTED BY RF-SCORE:    0.00 PKD
ROOT
HETATM    1  N   UNL     1     -11.937   6.383  72.480  1.00  0.00    -0.516 NA 
HETATM    2  H1  UNL     1     -11.684   5.896  73.340  1.00  0.00     0.000 HD 
HETATM    3 CL   UNL     2      -9.449   9.001  71.800  1.00  0.00    -0.320 Cl 
HETATM    4  C   UNL     1     -11.274   5.775  71.337  1.00  0.00    -0.164 C  
HETATM    5  H2  UNL     1     -12.948   6.427  72.353  1.00  0.00     0.000 HD 
HETATM    6  O   UNL     2      -5.819   8.215  70.874  1.00  0.00    -0.033 OA 
HETATM    7  C   UNL     2      -8.241   7.884  71.121  1.00  0.00    -0.107 C  
HETATM    8  C   UNL     2      -7.133   8.676  70.531  1.00  0.00    -0.044 C  
HETATM    9  C   UNL     2      -6.207   9.496  71.389  1.00  0.00    -0.007 C  
ENDROOT
BRANCH   4  10
HETATM   10  C   UNL     1     -11.646   6.488  70.078  1.00  0.00    -0.455 C  
HETATM   11  C   UNL     1     -11.018   6.340  68.904  1.00  0.00    -0.435 C  
ENDBRANCH   4  10
TORSDOF 1
ENDMDL
MODEL      153
REMARK 921   NORMALIZED FREE ENERGY PREDICTED BY IDOCK:   -2.01 KCAL/MOL
REMARK 922        TOTAL FREE ENERGY PREDICTED BY IDOCK:   -2.16 KCAL/MOL
REMARK 923 INTER-LIGAND FREE ENERGY PREDICTED BY IDOCK:   -2.13 KCAL/MOL
REMARK 924 INTRA-LIGAND FREE ENERGY PREDICTED BY IDOCK:   -0.03 KCAL/MOL
REMARK 927      BINDING AFFINITY PREDICTED BY RF-SCORE:    0.00 PKD
ROOT
HETATM    1  N   UNL     1     -11.456  13.746  68.565  1.00  0.00    -0.284 NA 
HETATM    2  H1  UNL     1     -11.640  13.261  69.444  1.00  0.00     0.000 HD 
HETATM    3 CL   UNL     2      -8.100  12.839  67.371  1.00  0.00    -0.178 Cl 
HETATM    4  C   UNL     1     -11.835  12.913  67.436  1.00  0.00    -0.360 C  
HETATM    5  H2  UNL     1     -11.910  14.659  68.533  1.00  0.00     0.000 HD 
HETATM    6  O   UNL     2      -7.211   9.308  66.187  1.00  0.00    -0.089 OA 
HETATM    7  C   UNL     2      -8.602  11.267  66.702  1.00  0.00    -0.167 C  
HETATM    8  C   UNL     2      -7.474  10.694  65.925  1.00  0.00    -0.131 C  
HETATM    9  C   UNL     2      -6.204  10.244  66.597  1.00  0.00    -0.069 C  
ENDROOT
BRANCH   4  10
HETATM   10  C   UNL     1     -11.565  13.622  66.150  1.00  0.00    -0.369 C  
HETATM   11  C   UNL     1     -12.509  14.106  65.332  1.00  0.00    -0.488 C  
ENDBRANCH   4  10
TORSDOF 1
ENDMDL
MODEL      154
REMARK 921   NORMALIZED FREE ENERGY PREDICTED BY IDOCK:   -2.00 KCAL/MOL
REMARK 922        TOTAL FREE ENERGY PREDICTED BY IDOCK:   -2.15 KCAL/MOL
REMARK 923 INTER-LIGAND FREE ENERGY PREDICTED BY IDOCK:   -2.07 KCAL/MOL
REMARK 924 INTRA-LIGAND FREE ENERGY PREDICTED BY IDOCK:   -0.08 KCAL/MOL
REMARK 927      BINDING AFFINITY PREDICTED BY RF-SCORE:    0.00 PKD
ROOT
HETATM    1  N   UNL     1      -5.403  14.534  67.453  1.00  0.00    -0.301 NA 
HETATM    2  H1  UNL     1      -5.471  13.520  67.543  1.00  0.00     0.000 HD 
HETATM    3 CL   UNL     2      -8.786  15.961  67.304  1.00  0.00    -0.203 Cl 
HETATM    4  C   UNL     1      -5.440  15.165  68.762  1.00  0.00    -0.091 C  
HETATM    5  H2  UNL     1      -4.578  14.813  66.921  1.00  0.00     0.000 HD 
HETATM    6  O   UNL     2     -11.194  15.890  70.280  1.00  0.00    -0.321 OA 
HETATM    7  C   UNL     2      -9.061  15.874  69.060  1.00  0.00    -0.240 C  
HETATM    8  C   UNL     2     -10.318  16.592  69.387  1.00  0.00    -0.294 C  
HETATM    9  C   UNL     2     -11.659  16.077  68.935  1.00  0.00    -0.354 C  
ENDROOT
BRANCH   4  10
HETATM   10  C   UNL     1      -5.340  16.650  68.629  1.00  0.00    -0.118 C  
HETATM   11  C   UNL     1      -5.541  17.329  67.493  1.00  0.00    -0.148 C  
ENDBRANCH   4  10
TORSDOF 1
ENDMDL
MODEL      155
REMARK 921   NORMALIZED FREE ENERGY PREDICTED BY IDOCK:   -1.99 KCAL/MOL
REMARK 922        TOTAL FREE ENERGY PREDICTED BY IDOCK:   -2.13 KCAL/MOL
REMARK 923 INTER-LIGAND FREE ENERGY PREDICTED BY IDOCK:   -2.04 KCAL/MOL
REMARK 924 INTRA-LIGAND FREE ENERGY PREDICTED BY IDOCK:   -0.09 KCAL/MOL
REMARK 927      BINDING AFFINITY PREDICTED BY RF-SCORE:    0.00 PKD
ROOT
HETATM    1  N   UNL     1      -7.348   8.831  65.957  1.00  0.00    -0.088 NA 
HETATM    2  H1  UNL     1      -7.225   8.997  66.956  1.00  0.00     0.000 HD 
HETATM    3 CL   UNL     2     -10.490  10.388  64.856  1.00  0.00    -0.245 Cl 
HETATM    4  C   UNL     1      -6.797   9.935  65.187  1.00  0.00    -0.124 C  
HETATM    5  H2  UNL     1      -6.955   7.935  65.670  1.00  0.00     0.000 HD 
HETATM    6  O   UNL     2     -11.011  14.180  64.799  1.00  0.00    -0.371 OA 
HETATM    7  C   UNL     2      -9.817  12.033  64.767  1.00  0.00    -0.163 C  
HETATM    8  C   UNL     2     -10.815  12.928  64.129  1.00  0.00    -0.416 C  
HETATM    9  C   UNL     2     -12.116  13.266  64.807  1.00  0.00    -0.409 C  
ENDROOT
BRANCH   4  10
HETATM   10  C   UNL     1      -6.977   9.692  63.725  1.00  0.00    -0.112 C  
HETATM   11  C   UNL     1      -7.567   8.611  63.197  1.00  0.00    -0.112 C  
ENDBRANCH   4  10
TORSDOF 1
ENDMDL
MODEL      156
REMARK 921   NORMALIZED FREE ENERGY PREDICTED BY IDOCK:   -1.99 KCAL/MOL
REMARK 922        TOTAL FREE ENERGY PREDICTED BY IDOCK:   -2.13 KCAL/MOL
REMARK 923 INTER-LIGAND FREE ENERGY PREDICTED BY IDOCK:   -2.10 KCAL/MOL
REMARK 924 INTRA-LIGAND FREE ENERGY PREDICTED BY IDOCK:   -0.03 KCAL/MOL
REMARK 927      BINDING AFFINITY PREDICTED BY RF-SCORE:    0.00 PKD
ROOT
HETATM    1  N   UNL     1      -8.961   9.026  64.493  1.00  0.00    -0.418 NA 
HETATM    2  H1  UNL     1      -9.556   8.236  64.241  1.00  0.00     0.000 HD 
HETATM    3 CL   UNL     2     -10.718  11.128  66.942  1.00  0.00    -0.307 Cl 
HETATM    4  C   UNL     1      -8.170   8.710  65.671  1.00  0.00    -0.123 C  
HETATM    5  H2  UNL     1      -8.376   9.323  63.712  1.00  0.00     0.000 HD 
HETATM    6  O   UNL     2     -11.504   9.945  70.497  1.00  0.00    -0.273 OA 
HETATM    7  C   UNL     2     -10.355  10.074  68.329  1.00  0.00    -0.193 C  
HETATM    8  C   UNL     2     -10.767  10.762  69.578  1.00  0.00    -0.226 C  
HETATM    9  C   UNL     2     -12.216  11.031  69.887  1.00  0.00    -0.336 C  
ENDROOT
BRANCH   4  10
HETATM   10  C   UNL     1      -7.298   9.865  66.039  1.00  0.00    -0.106 C  
HETATM   11  C   UNL     1      -6.308  10.349  65.277  1.00  0.00    -0.114 C  
ENDBRANCH   4  10
TORSDOF 1
ENDMDL
MODEL      157
REMARK 921   NORMALIZED FREE ENERGY PREDICTED BY IDOCK:   -1.97 KCAL/MOL
REMARK 922        TOTAL FREE ENERGY PREDICTED BY IDOCK:   -2.11 KCAL/MOL
REMARK 923 INTER-LIGAND FREE ENERGY PREDICTED BY IDOCK:   -2.02 KCAL/MOL
REMARK 924 INTRA-LIGAND FREE ENERGY PREDICTED BY IDOCK:   -0.09 KCAL/MOL
REMARK 927      BINDING AFFINITY PREDICTED BY RF-SCORE:    0.00 PKD
ROOT
HETATM    1  N   UNL     1      -5.656  14.138  67.483  1.00  0.00    -0.349 NA 
HETATM    2  H1  UNL     1      -5.134  13.298  67.732  1.00  0.00     0.000 HD 
HETATM    3 CL   UNL     2      -9.134  13.215  66.734  1.00  0.00    -0.232 Cl 
HETATM    4  C   UNL     1      -6.299  14.705  68.658  1.00  0.00    -0.082 C  
HETATM    5  H2  UNL     1      -5.070  14.822  67.005  1.00  0.00     0.000 HD 
HETATM    6  O   UNL     2     -11.546  11.903  69.402  1.00  0.00    -0.279 OA 
HETATM    7  C   UNL     2      -9.627  13.098  68.440  1.00  0.00    -0.186 C  
HETATM    8  C   UNL     2     -11.100  12.929  68.505  1.00  0.00    -0.267 C  
HETATM    9  C   UNL     2     -11.772  11.679  68.003  1.00  0.00    -0.281 C  
ENDROOT
BRANCH   4  10
HETATM   10  C   UNL     1      -7.065  15.934  68.292  1.00  0.00    -0.119 C  
HETATM   11  C   UNL     1      -8.112  16.413  68.976  1.00  0.00    -0.223 C  
ENDBRANCH   4  10
TORSDOF 1
ENDMDL
MODEL      158
REMARK 921   NORMALIZED FREE ENERGY PREDICTED BY IDOCK:   -1.95 KCAL/MOL
REMARK 922        TOTAL FREE ENERGY PREDICTED BY IDOCK:   -2.10 KCAL/MOL
REMARK 923 INTER-LIGAND FREE ENERGY PREDICTED BY IDOCK:   -2.01 KCAL/MOL
REMARK 924 INTRA-LIGAND FREE ENERGY PREDICTED BY IDOCK:   -0.09 KCAL/MOL
REMARK 927      BINDING AFFINITY PREDICTED BY RF-SCORE:    0.00 PKD
ROOT
HETATM    1  N   UNL     1     -10.707   9.285  69.815  1.00  0.00    -0.227 NA 
HETATM    2  H1  UNL     1      -9.893   9.625  69.302  1.00  0.00     0.000 HD 
HETATM    3 CL   UNL     2     -10.453   5.639  70.195  1.00  0.00    -0.341 Cl 
HETATM    4  C   UNL     1     -10.422   9.225  71.239  1.00  0.00    -0.338 C  
HETATM    5  H2  UNL     1     -11.540   9.841  69.618  1.00  0.00     0.000 HD 
HETATM    6  O   UNL     2      -7.770   3.966  72.355  1.00  0.00    -0.068 OA 
HETATM    7  C   UNL     2      -9.302   5.711  71.551  1.00  0.00    -0.146 C  
HETATM    8  C   UNL     2      -9.131   4.347  72.110  1.00  0.00    -0.121 C  
HETATM    9  C   UNL     2      -8.464   3.251  71.323  1.00  0.00    -0.067 C  
ENDROOT
BRANCH   4  10
HETATM   10  C   UNL     1     -11.613   8.727  71.990  1.00  0.00    -0.436 C  
HETATM   11  C   UNL     1     -12.798   8.438  71.436  1.00  0.00    -0.262 C  
ENDBRANCH   4  10
TORSDOF 1
ENDMDL
MODEL      159
REMARK 921   NORMALIZED FREE ENERGY PREDICTED BY IDOCK:   -1.95 KCAL/MOL
REMARK 922        TOTAL FREE ENERGY PREDICTED BY IDOCK:   -2.10 KCAL/MOL
REMARK 923 INTER-LIGAND FREE ENERGY PREDICTED BY IDOCK:   -2.38 KCAL/MOL
REMARK 924 INTRA-LIGAND FREE ENERGY PREDICTED BY IDOCK:    0.29 KCAL/MOL
REMARK 927      BINDING AFFINITY PREDICTED BY RF-SCORE:    0.00 PKD
ROOT
HETATM    1  N   UNL     1     -11.282   5.968  73.247  1.00  0.00    -0.465 NA 
HETATM    2  H1  UNL     1     -12.232   6.063  73.607  1.00  0.00     0.000 HD 
HETATM    3 CL   UNL     2     -10.992   7.841  70.099  1.00  0.00    -0.257 Cl 
HETATM    4  C   UNL     1     -10.451   7.067  73.713  1.00  0.00    -0.354 C  
HETATM    5  H2  UNL     1     -10.877   5.061  73.480  1.00  0.00     0.000 HD 
HETATM    6  O   UNL     2     -11.206  11.661  69.937  1.00  0.00    -0.193 OA 
HETATM    7  C   UNL     2     -10.816   9.428  70.887  1.00  0.00    -0.322 C  
HETATM    8  C   UNL     2     -10.460  10.438  69.859  1.00  0.00    -0.218 C  
HETATM    9  C   UNL     2     -11.431  10.841  68.781  1.00  0.00    -0.295 C  
ENDROOT
BRANCH   4  10
HETATM   10  C   UNL     1      -9.060   6.928  73.187  1.00  0.00    -0.154 C  
HETATM   11  C   UNL     1      -8.747   6.729  71.900  1.00  0.00    -0.123 C  
ENDBRANCH   4  10
TORSDOF 1
ENDMDL
MODEL      160
REMARK 921   NORMALIZED FREE ENERGY PREDICTED BY IDOCK:   -1.93 KCAL/MOL
REMARK 922        TOTAL FREE ENERGY PREDICTED BY IDOCK:   -2.07 KCAL/MOL
REMARK 923 INTER-LIGAND FREE ENERGY PREDICTED BY IDOCK:   -2.01 KCAL/MOL
REMARK 924 INTRA-LIGAND FREE ENERGY PREDICTED BY IDOCK:   -0.07 KCAL/MOL
REMARK 927      BINDING AFFINITY PREDICTED BY RF-SCORE:    0.00 PKD
ROOT
HETATM    1  N   UNL     1     -10.648  10.926  68.722  1.00  0.00    -0.189 NA 
HETATM    2  H1  UNL     1     -11.592  11.292  68.592  1.00  0.00     0.000 HD 
HETATM    3 CL   UNL     2      -9.559   9.274  65.625  1.00  0.00    -0.340 Cl 
HETATM    4  C   UNL     1      -9.662  11.899  68.281  1.00  0.00    -0.200 C  
HETATM    5  H2  UNL     1     -10.485  10.630  69.685  1.00  0.00     0.000 HD 
HETATM    6  O   UNL     2      -8.907  11.193  62.377  1.00  0.00    -0.311 OA 
HETATM    7  C   UNL     2      -9.140  10.789  64.789  1.00  0.00    -0.200 C  
HETATM    8  C   UNL     2      -8.444  10.461  63.520  1.00  0.00    -0.171 C  
HETATM    9  C   UNL     2      -9.158   9.780  62.383  1.00  0.00    -0.282 C  
ENDROOT
BRANCH   4  10
HETATM   10  C   UNL     1      -8.280  11.364  68.472  1.00  0.00    -0.153 C  
HETATM   11  C   UNL     1      -7.948  10.401  69.341  1.00  0.00    -0.161 C  
ENDBRANCH   4  10
TORSDOF 1
ENDMDL
MODEL      161
REMARK 921   NORMALIZED FREE ENERGY PREDICTED BY IDOCK:   -1.86 KCAL/MOL
REMARK 922        TOTAL FREE ENERGY PREDICTED BY IDOCK:   -2.00 KCAL/MOL
REMARK 923 INTER-LIGAND FREE ENERGY PREDICTED BY IDOCK:   -1.93 KCAL/MOL
REMARK 924 INTRA-LIGAND FREE ENERGY PREDICTED BY IDOCK:   -0.07 KCAL/MOL
REMARK 927      BINDING AFFINITY PREDICTED BY RF-SCORE:    0.00 PKD
ROOT
HETATM    1  N   UNL     1     -11.652   5.939  72.960  1.00  0.00    -0.509 NA 
HETATM    2  H1  UNL     1     -12.097   6.574  73.622  1.00  0.00     0.000 HD 
HETATM    3 CL   UNL     2     -10.782   7.796  69.910  1.00  0.00    -0.246 Cl 
HETATM    4  C   UNL     1     -10.206   5.970  73.118  1.00  0.00    -0.197 C  
HETATM    5  H2  UNL     1     -12.021   4.991  73.036  1.00  0.00     0.000 HD 
HETATM    6  O   UNL     2      -8.107  10.534  69.847  1.00  0.00    -0.069 OA 
HETATM    7  C   UNL     2      -9.312   8.528  70.597  1.00  0.00    -0.174 C  
HETATM    8  C   UNL     2      -8.567   9.217  69.514  1.00  0.00    -0.147 C  
HETATM    9  C   UNL     2      -9.119  10.442  68.834  1.00  0.00    -0.173 C  
ENDROOT
BRANCH   4  10
HETATM   10  C   UNL     1      -9.555   5.040  72.147  1.00  0.00    -0.191 C  
HETATM   11  C   UNL     1     -10.144   4.547  71.050  1.00  0.00    -0.222 C  
ENDBRANCH   4  10
TORSDOF 1
ENDMDL
MODEL      162
REMARK 921   NORMALIZED FREE ENERGY PREDICTED BY IDOCK:   -1.83 KCAL/MOL
REMARK 922        TOTAL FREE ENERGY PREDICTED BY IDOCK:   -1.97 KCAL/MOL
REMARK 923 INTER-LIGAND FREE ENERGY PREDICTED BY IDOCK:   -1.94 KCAL/MOL
REMARK 924 INTRA-LIGAND FREE ENERGY PREDICTED BY IDOCK:   -0.03 KCAL/MOL
REMARK 927      BINDING AFFINITY PREDICTED BY RF-SCORE:    0.00 PKD
ROOT
HETATM    1  N   UNL     1      -7.691  12.649  66.866  1.00  0.00    -0.390 NA 
HETATM    2  H1  UNL     1      -6.677  12.758  66.906  1.00  0.00     0.000 HD 
HETATM    3 CL   UNL     2      -8.618   9.439  68.395  1.00  0.00    -0.123 Cl 
HETATM    4  C   UNL     1      -8.304  13.148  68.086  1.00  0.00    -0.161 C  
HETATM    5  H2  UNL     1      -8.087  13.088  66.035  1.00  0.00     0.000 HD 
HETATM    6  O   UNL     2      -8.190   8.727  72.133  1.00  0.00    -0.340 OA 
HETATM    7  C   UNL     2      -8.486  10.028  70.070  1.00  0.00    -0.097 C  
HETATM    8  C   UNL     2      -9.014   8.990  70.989  1.00  0.00    -0.241 C  
HETATM    9  C   UNL     2      -8.314   7.670  71.172  1.00  0.00    -0.111 C  
ENDROOT
BRANCH   4  10
HETATM   10  C   UNL     1      -9.788  12.988  68.027  1.00  0.00    -0.224 C  
HETATM   11  C   UNL     1     -10.667  13.998  68.077  1.00  0.00    -0.253 C  
ENDBRANCH   4  10
TORSDOF 1
ENDMDL
MODEL      163
REMARK 921   NORMALIZED FREE ENERGY PREDICTED BY IDOCK:   -1.82 KCAL/MOL
REMARK 922        TOTAL FREE ENERGY PREDICTED BY IDOCK:   -1.96 KCAL/MOL
REMARK 923 INTER-LIGAND FREE ENERGY PREDICTED BY IDOCK:   -1.88 KCAL/MOL
REMARK 924 INTRA-LIGAND FREE ENERGY PREDICTED BY IDOCK:   -0.07 KCAL/MOL
REMARK 927      BINDING AFFINITY PREDICTED BY RF-SCORE:    0.00 PKD
ROOT
HETATM    1  N   UNL     1     -10.911   8.932  72.041  1.00  0.00    -0.358 NA 
HETATM    2  H1  UNL     1     -10.200   9.553  72.429  1.00  0.00     0.000 HD 
HETATM    3 CL   UNL     2      -9.448   7.004  69.275  1.00  0.00    -0.148 Cl 
HETATM    4  C   UNL     1     -10.850   7.628  72.681  1.00  0.00    -0.340 C  
HETATM    5  H2  UNL     1     -11.843   9.340  72.100  1.00  0.00     0.000 HD 
HETATM    6  O   UNL     2      -6.722   4.368  69.804  1.00  0.00    -0.032 OA 
HETATM    7  C   UNL     2      -8.625   5.831  70.331  1.00  0.00    -0.133 C  
HETATM    8  C   UNL     2      -8.074   4.736  69.495  1.00  0.00    -0.069 C  
HETATM    9  C   UNL     2      -6.948   4.976  68.524  1.00  0.00    -0.057 C  
ENDROOT
BRANCH   4  10
HETATM   10  C   UNL     1     -11.891   6.719  72.114  1.00  0.00    -0.326 C  
HETATM   11  C   UNL     1     -12.946   7.122  71.395  1.00  0.00    -0.419 C  
ENDBRANCH   4  10
TORSDOF 1
ENDMDL
MODEL      164
REMARK 921   NORMALIZED FREE ENERGY PREDICTED BY IDOCK:   -1.79 KCAL/MOL
REMARK 922        TOTAL FREE ENERGY PREDICTED BY IDOCK:   -1.93 KCAL/MOL
REMARK 923 INTER-LIGAND FREE ENERGY PREDICTED BY IDOCK:   -1.83 KCAL/MOL
REMARK 924 INTRA-LIGAND FREE ENERGY PREDICTED BY IDOCK:   -0.10 KCAL/MOL
REMARK 927      BINDING AFFINITY PREDICTED BY RF-SCORE:    0.00 PKD
ROOT
HETATM    1  N   UNL     1      -6.616   6.082  73.559  1.00  0.00    -0.073 NA 
HETATM    2  H1  UNL     1      -6.007   5.396  73.113  1.00  0.00     0.000 HD 
HETATM    3 CL   UNL     2      -8.543   7.844  70.972  1.00  0.00    -0.129 Cl 
HETATM    4  C   UNL     1      -7.926   5.506  73.820  1.00  0.00    -0.108 C  
HETATM    5  H2  UNL     1      -6.197   6.469  74.404  1.00  0.00     0.000 HD 
HETATM    6  O   UNL     2     -11.217   6.114  68.847  1.00  0.00    -0.372 OA 
HETATM    7  C   UNL     2      -9.734   6.538  70.759  1.00  0.00    -0.179 C  
HETATM    8  C   UNL     2     -10.830   7.024  69.885  1.00  0.00    -0.251 C  
HETATM    9  C   UNL     2     -10.598   7.340  68.432  1.00  0.00    -0.170 C  
ENDROOT
BRANCH   4  10
HETATM   10  C   UNL     1      -8.817   6.511  74.473  1.00  0.00    -0.187 C  
HETATM   11  C   UNL     1     -10.156   6.466  74.460  1.00  0.00    -0.358 C  
ENDBRANCH   4  10
TORSDOF 1
ENDMDL
MODEL      165
REMARK 921   NORMALIZED FREE ENERGY PREDICTED BY IDOCK:   -1.77 KCAL/MOL
REMARK 922        TOTAL FREE ENERGY PREDICTED BY IDOCK:   -1.91 KCAL/MOL
REMARK 923 INTER-LIGAND FREE ENERGY PREDICTED BY IDOCK:   -1.96 KCAL/MOL
REMARK 924 INTRA-LIGAND FREE ENERGY PREDICTED BY IDOCK:    0.06 KCAL/MOL
REMARK 927      BINDING AFFINITY PREDICTED BY RF-SCORE:    0.00 PKD
ROOT
HETATM    1  N   UNL     1      -6.912   9.745  70.082  1.00  0.00    -0.101 NA 
HETATM    2  H1  UNL     1      -6.129   9.523  69.467  1.00  0.00     0.000 HD 
HETATM    3 CL   UNL     2      -9.109  12.169  68.408  1.00  0.00    -0.180 Cl 
HETATM    4  C   UNL     1      -8.041   8.872  69.803  1.00  0.00    -0.109 C  
HETATM    5  H2  UNL     1      -6.642   9.714  71.066  1.00  0.00     0.000 HD 
HETATM    6  O   UNL     2     -11.157  11.298  65.293  1.00  0.00    -0.196 OA 
HETATM    7  C   UNL     2      -9.916  10.956  67.386  1.00  0.00    -0.186 C  
HETATM    8  C   UNL     2     -11.061  11.596  66.692  1.00  0.00    -0.307 C  
HETATM    9  C   UNL     2     -10.853  12.655  65.642  1.00  0.00    -0.274 C  
ENDROOT
BRANCH   4  10
HETATM   10  C   UNL     1      -9.187   9.198  70.704  1.00  0.00    -0.310 C  
HETATM   11  C   UNL     1     -10.452   9.369  70.298  1.00  0.00    -0.298 C  
ENDBRANCH   4  10
TORSDOF 1
ENDMDL
MODEL      166
REMARK 921   NORMALIZED FREE ENERGY PREDICTED BY IDOCK:   -1.77 KCAL/MOL
REMARK 922        TOTAL FREE ENERGY PREDICTED BY IDOCK:   -1.90 KCAL/MOL
REMARK 923 INTER-LIGAND FREE ENERGY PREDICTED BY IDOCK:   -1.93 KCAL/MOL
REMARK 924 INTRA-LIGAND FREE ENERGY PREDICTED BY IDOCK:    0.02 KCAL/MOL
REMARK 927      BINDING AFFINITY PREDICTED BY RF-SCORE:    0.00 PKD
ROOT
HETATM    1  N   UNL     1      -9.696   6.365  73.981  1.00  0.00    -0.203 NA 
HETATM    2  H1  UNL     1      -9.469   5.453  74.377  1.00  0.00     0.000 HD 
HETATM    3 CL   UNL     2      -8.426   6.533  70.537  1.00  0.00    -0.136 Cl 
HETATM    4  C   UNL     1     -10.963   6.308  73.269  1.00  0.00    -0.194 C  
HETATM    5  H2  UNL     1      -9.693   7.098  74.690  1.00  0.00     0.000 HD 
HETATM    6  O   UNL     2      -9.847   4.390  67.700  1.00  0.00    -0.169 OA 
HETATM    7  C   UNL     2      -9.771   5.601  69.837  1.00  0.00    -0.168 C  
HETATM    8  C   UNL     2      -9.674   5.654  68.357  1.00  0.00    -0.128 C  
HETATM    9  C   UNL     2      -8.545   4.986  67.617  1.00  0.00    -0.104 C  
ENDROOT
BRANCH   4  10
HETATM   10  C   UNL     1     -11.296   7.643  72.689  1.00  0.00    -0.423 C  
HETATM   11  C   UNL     1     -10.394   8.545  72.281  1.00  0.00    -0.402 C  
ENDBRANCH   4  10
TORSDOF 1
ENDMDL
MODEL      167
REMARK 921   NORMALIZED FREE ENERGY PREDICTED BY IDOCK:   -1.73 KCAL/MOL
REMARK 922        TOTAL FREE ENERGY PREDICTED BY IDOCK:   -1.86 KCAL/MOL
REMARK 923 INTER-LIGAND FREE ENERGY PREDICTED BY IDOCK:   -1.77 KCAL/MOL
REMARK 924 INTRA-LIGAND FREE ENERGY PREDICTED BY IDOCK:   -0.10 KCAL/MOL
REMARK 927      BINDING AFFINITY PREDICTED BY RF-SCORE:    0.00 PKD
ROOT
HETATM    1  N   UNL     1      -6.491   7.470  71.984  1.00  0.00    -0.042 NA 
HETATM    2  H1  UNL     1      -5.933   6.870  71.376  1.00  0.00     0.000 HD 
HETATM    3 CL   UNL     2      -8.150  10.041  69.950  1.00  0.00    -0.190 Cl 
HETATM    4  C   UNL     1      -7.857   6.978  72.068  1.00  0.00    -0.093 C  
HETATM    5  H2  UNL     1      -6.067   7.573  72.907  1.00  0.00     0.000 HD 
HETATM    6  O   UNL     2     -10.896   9.218  67.412  1.00  0.00    -0.255 OA 
HETATM    7  C   UNL     2      -9.449   8.965  69.382  1.00  0.00    -0.161 C  
HETATM    8  C   UNL     2     -10.463   9.775  68.661  1.00  0.00    -0.208 C  
HETATM    9  C   UNL     2     -10.150  10.443  67.349  1.00  0.00    -0.196 C  
ENDROOT
BRANCH   4  10
HETATM   10  C   UNL     1      -8.673   7.856  72.959  1.00  0.00    -0.260 C  
HETATM   11  C   UNL     1     -10.011   7.842  73.027  1.00  0.00    -0.362 C  
ENDBRANCH   4  10
TORSDOF 1
ENDMDL
MODEL      168
REMARK 921   NORMALIZED FREE ENERGY PREDICTED BY IDOCK:   -1.70 KCAL/MOL
REMARK 922        TOTAL FREE ENERGY PREDICTED BY IDOCK:   -1.83 KCAL/MOL
REMARK 923 INTER-LIGAND FREE ENERGY PREDICTED BY IDOCK:   -1.81 KCAL/MOL
REMARK 924 INTRA-LIGAND FREE ENERGY PREDICTED BY IDOCK:   -0.03 KCAL/MOL
REMARK 927      BINDING AFFINITY PREDICTED BY RF-SCORE:    0.00 PKD
ROOT
HETATM    1  N   UNL     1      -7.779   4.680  69.265  1.00  0.00    -0.062 NA 
HETATM    2  H1  UNL     1      -7.155   4.357  68.525  1.00  0.00     0.000 HD 
HETATM    3 CL   UNL     2      -8.169   8.325  69.005  1.00  0.00    -0.118 Cl 
HETATM    4  C   UNL     1      -9.151   4.727  68.787  1.00  0.00    -0.112 C  
HETATM    5  H2  UNL     1      -7.691   4.115  70.109  1.00  0.00     0.000 HD 
HETATM    6  O   UNL     2      -9.962  10.009  66.071  1.00  0.00    -0.241 OA 
HETATM    7  C   UNL     2      -9.353   8.253  67.678  1.00  0.00    -0.137 C  
HETATM    8  C   UNL     2      -9.902   9.612  67.448  1.00  0.00    -0.171 C  
HETATM    9  C   UNL     2      -9.045  10.727  66.909  1.00  0.00    -0.149 C  
ENDROOT
BRANCH   4  10
HETATM   10  C   UNL     1     -10.065   5.200  69.870  1.00  0.00    -0.342 C  
HETATM   11  C   UNL     1     -11.110   6.017  69.684  1.00  0.00    -0.474 C  
ENDBRANCH   4  10
TORSDOF 1
ENDMDL
MODEL      169
REMARK 921   NORMALIZED FREE ENERGY PREDICTED BY IDOCK:   -1.66 KCAL/MOL
REMARK 922        TOTAL FREE ENERGY PREDICTED BY IDOCK:   -1.79 KCAL/MOL
REMARK 923 INTER-LIGAND FREE ENERGY PREDICTED BY IDOCK:   -1.70 KCAL/MOL
REMARK 924 INTRA-LIGAND FREE ENERGY PREDICTED BY IDOCK:   -0.09 KCAL/MOL
REMARK 927      BINDING AFFINITY PREDICTED BY RF-SCORE:    0.00 PKD
ROOT
HETATM    1  N   UNL     1      -8.973   6.745  69.951  1.00  0.00    -0.144 NA 
HETATM    2  H1  UNL     1      -9.410   6.796  70.871  1.00  0.00     0.000 HD 
HETATM    3 CL   UNL     2     -10.658   9.098  67.686  1.00  0.00    -0.322 Cl 
HETATM    4  C   UNL     1      -7.919   7.741  69.833  1.00  0.00    -0.110 C  
HETATM    5  H2  UNL     1      -8.632   5.806  69.744  1.00  0.00     0.000 HD 
HETATM    6  O   UNL     2     -10.455  12.896  68.123  1.00  0.00    -0.223 OA 
HETATM    7  C   UNL     2      -9.804  10.534  68.301  1.00  0.00    -0.149 C  
HETATM    8  C   UNL     2     -10.115  11.691  67.425  1.00  0.00    -0.198 C  
HETATM    9  C   UNL     2     -11.499  12.278  67.358  1.00  0.00    -0.352 C  
ENDROOT
BRANCH   4  10
HETATM   10  C   UNL     1      -7.279   7.666  68.485  1.00  0.00    -0.086 C  
HETATM   11  C   UNL     1      -7.770   6.981  67.444  1.00  0.00    -0.110 C  
ENDBRANCH   4  10
TORSDOF 1
ENDMDL
MODEL      170
REMARK 921   NORMALIZED FREE ENERGY PREDICTED BY IDOCK:   -1.66 KCAL/MOL
REMARK 922        TOTAL FREE ENERGY PREDICTED BY IDOCK:   -1.79 KCAL/MOL
REMARK 923 INTER-LIGAND FREE ENERGY PREDICTED BY IDOCK:   -1.69 KCAL/MOL
REMARK 924 INTRA-LIGAND FREE ENERGY PREDICTED BY IDOCK:   -0.10 KCAL/MOL
REMARK 927      BINDING AFFINITY PREDICTED BY RF-SCORE:    0.00 PKD
ROOT
HETATM    1  N   UNL     1     -10.856   7.827  68.239  1.00  0.00    -0.428 NA 
HETATM    2  H1  UNL     1     -11.601   8.132  67.612  1.00  0.00     0.000 HD 
HETATM    3 CL   UNL     2      -7.873   9.894  67.661  1.00  0.00    -0.098 Cl 
HETATM    4  C   UNL     1     -10.877   8.604  69.468  1.00  0.00    -0.129 C  
HETATM    5  H2  UNL     1     -10.901   6.825  68.423  1.00  0.00     0.000 HD 
HETATM    6  O   UNL     2      -7.744  13.625  68.514  1.00  0.00    -0.126 OA 
HETATM    7  C   UNL     2      -8.465  11.278  68.613  1.00  0.00    -0.143 C  
HETATM    8  C   UNL     2      -7.366  12.264  68.763  1.00  0.00    -0.083 C  
HETATM    9  C   UNL     2      -6.828  13.030  67.583  1.00  0.00    -0.154 C  
ENDROOT
BRANCH   4  10
HETATM   10  C   UNL     1      -9.786   8.157  70.386  1.00  0.00    -0.188 C  
HETATM   11  C   UNL     1      -9.328   8.864  71.428  1.00  0.00    -0.338 C  
ENDBRANCH   4  10
TORSDOF 1
ENDMDL
MODEL      171
REMARK 921   NORMALIZED FREE ENERGY PREDICTED BY IDOCK:   -1.63 KCAL/MOL
REMARK 922        TOTAL FREE ENERGY PREDICTED BY IDOCK:   -1.76 KCAL/MOL
REMARK 923 INTER-LIGAND FREE ENERGY PREDICTED BY IDOCK:   -1.73 KCAL/MOL
REMARK 924 INTRA-LIGAND FREE ENERGY PREDICTED BY IDOCK:   -0.03 KCAL/MOL
REMARK 927      BINDING AFFINITY PREDICTED BY RF-SCORE:    0.00 PKD
ROOT
HETATM    1  N   UNL     1      -8.339   4.297  72.170  1.00  0.00    -0.101 NA 
HETATM    2  H1  UNL     1      -7.873   3.391  72.109  1.00  0.00     0.000 HD 
HETATM    3 CL   UNL     2      -8.374   5.858  68.842  1.00  0.00    -0.102 Cl 
HETATM    4  C   UNL     1      -9.755   4.160  71.870  1.00  0.00    -0.168 C  
HETATM    5  H2  UNL     1      -8.184   4.744  73.073  1.00  0.00     0.000 HD 
HETATM    6  O   UNL     2     -10.402   4.448  65.917  1.00  0.00    -0.256 OA 
HETATM    7  C   UNL     2      -9.747   4.897  68.242  1.00  0.00    -0.145 C  
HETATM    8  C   UNL     2     -10.176   5.439  66.929  1.00  0.00    -0.240 C  
HETATM    9  C   UNL     2      -9.297   5.340  65.711  1.00  0.00    -0.139 C  
ENDROOT
BRANCH   4  10
HETATM   10  C   UNL     1     -10.438   5.486  71.958  1.00  0.00    -0.277 C  
HETATM   11  C   UNL     1     -11.559   5.723  72.652  1.00  0.00    -0.304 C  
ENDBRANCH   4  10
TORSDOF 1
ENDMDL
MODEL      172
REMARK 921   NORMALIZED FREE ENERGY PREDICTED BY IDOCK:   -1.63 KCAL/MOL
REMARK 922        TOTAL FREE ENERGY PREDICTED BY IDOCK:   -1.76 KCAL/MOL
REMARK 923 INTER-LIGAND FREE ENERGY PREDICTED BY IDOCK:   -1.70 KCAL/MOL
REMARK 924 INTRA-LIGAND FREE ENERGY PREDICTED BY IDOCK:   -0.06 KCAL/MOL
REMARK 927      BINDING AFFINITY PREDICTED BY RF-SCORE:    0.00 PKD
ROOT
HETATM    1  N   UNL     1     -11.200   4.151  63.368  1.00  0.00    -0.262 NA 
HETATM    2  H1  UNL     1     -11.962   3.476  63.445  1.00  0.00     0.000 HD 
HETATM    3 CL   UNL     2     -10.969   6.067  66.496  1.00  0.00    -0.241 Cl 
HETATM    4  C   UNL     1      -9.966   3.586  63.890  1.00  0.00    -0.183 C  
HETATM    5  H2  UNL     1     -11.088   4.490  62.413  1.00  0.00     0.000 HD 
HETATM    6  O   UNL     2      -9.901   4.488  69.816  1.00  0.00    -0.204 OA 
HETATM    7  C   UNL     2     -10.100   4.794  67.386  1.00  0.00    -0.126 C  
HETATM    8  C   UNL     2      -9.650   5.340  68.690  1.00  0.00    -0.136 C  
HETATM    9  C   UNL     2     -10.631   5.721  69.766  1.00  0.00    -0.318 C  
ENDROOT
BRANCH   4  10
HETATM   10  C   UNL     1      -8.851   4.574  63.778  1.00  0.00    -0.140 C  
HETATM   11  C   UNL     1      -7.835   4.681  64.644  1.00  0.00    -0.087 C  
ENDBRANCH   4  10
TORSDOF 1
ENDMDL
MODEL      173
REMARK 921   NORMALIZED FREE ENERGY PREDICTED BY IDOCK:   -1.63 KCAL/MOL
REMARK 922        TOTAL FREE ENERGY PREDICTED BY IDOCK:   -1.75 KCAL/MOL
REMARK 923 INTER-LIGAND FREE ENERGY PREDICTED BY IDOCK:   -1.72 KCAL/MOL
REMARK 924 INTRA-LIGAND FREE ENERGY PREDICTED BY IDOCK:   -0.03 KCAL/MOL
REMARK 927      BINDING AFFINITY PREDICTED BY RF-SCORE:    0.00 PKD
ROOT
HETATM    1  N   UNL     1      -9.110   6.841  67.162  1.00  0.00    -0.123 NA 
HETATM    2  H1  UNL     1      -9.321   7.833  67.275  1.00  0.00     0.000 HD 
HETATM    3 CL   UNL     2      -8.534   5.348  70.470  1.00  0.00    -0.119 Cl 
HETATM    4  C   UNL     1     -10.325   6.048  67.267  1.00  0.00    -0.223 C  
HETATM    5  H2  UNL     1      -8.611   6.656  66.292  1.00  0.00     0.000 HD 
HETATM    6  O   UNL     2     -11.309   4.972  73.082  1.00  0.00    -0.314 OA 
HETATM    7  C   UNL     2     -10.263   5.204  70.870  1.00  0.00    -0.229 C  
HETATM    8  C   UNL     2     -10.403   4.414  72.120  1.00  0.00    -0.143 C  
HETATM    9  C   UNL     2      -9.921   4.944  73.444  1.00  0.00    -0.156 C  
ENDROOT
BRANCH   4  10
HETATM   10  C   UNL     1     -10.016   4.596  67.102  1.00  0.00    -0.215 C  
HETATM   11  C   UNL     1      -9.634   4.023  65.953  1.00  0.00    -0.195 C  
ENDBRANCH   4  10
TORSDOF 1
ENDMDL
MODEL      174
REMARK 921   NORMALIZED FREE ENERGY PREDICTED BY IDOCK:   -1.62 KCAL/MOL
REMARK 922        TOTAL FREE ENERGY PREDICTED BY IDOCK:   -1.75 KCAL/MOL
REMARK 923 INTER-LIGAND FREE ENERGY PREDICTED BY IDOCK:   -1.68 KCAL/MOL
REMARK 924 INTRA-LIGAND FREE ENERGY PREDICTED BY IDOCK:   -0.07 KCAL/MOL
REMARK 927      BINDING AFFINITY PREDICTED BY RF-SCORE:    0.00 PKD
ROOT
HETATM    1  N   UNL     1     -10.617  11.224  67.630  1.00  0.00    -0.202 NA 
HETATM    2  H1  UNL     1     -11.007  10.354  67.994  1.00  0.00     0.000 HD 
HETATM    3 CL   UNL     2      -7.572  10.469  65.715  1.00  0.00    -0.147 Cl 
HETATM    4  C   UNL     1     -11.121  11.485  66.291  1.00  0.00    -0.263 C  
HETATM    5  H2  UNL     1     -10.787  12.008  68.259  1.00  0.00     0.000 HD 
HETATM    6  O   UNL     2      -7.631   8.530  62.415  1.00  0.00    -0.103 OA 
HETATM    7  C   UNL     2      -8.443   9.942  64.255  1.00  0.00    -0.173 C  
HETATM    8  C   UNL     2      -7.464   9.746  63.156  1.00  0.00    -0.120 C  
HETATM    9  C   UNL     2      -6.437   8.646  63.202  1.00  0.00    -0.090 C  
ENDROOT
BRANCH   4  10
HETATM   10  C   UNL     1     -10.550  12.758  65.758  1.00  0.00    -0.295 C  
HETATM   11  C   UNL     1     -10.043  13.742  66.512  1.00  0.00    -0.286 C  
ENDBRANCH   4  10
TORSDOF 1
ENDMDL
MODEL      175
REMARK 921   NORMALIZED FREE ENERGY PREDICTED BY IDOCK:   -1.61 KCAL/MOL
REMARK 922        TOTAL FREE ENERGY PREDICTED BY IDOCK:   -1.74 KCAL/MOL
REMARK 923 INTER-LIGAND FREE ENERGY PREDICTED BY IDOCK:   -1.71 KCAL/MOL
REMARK 924 INTRA-LIGAND FREE ENERGY PREDICTED BY IDOCK:   -0.03 KCAL/MOL
REMARK 927      BINDING AFFINITY PREDICTED BY RF-SCORE:    0.00 PKD
ROOT
HETATM    1  N   UNL     1     -11.431  10.461  67.486  1.00  0.00    -0.538 NA 
HETATM    2  H1  UNL     1     -11.872   9.806  68.133  1.00  0.00     0.000 HD 
HETATM    3 CL   UNL     2      -8.089  11.329  68.744  1.00  0.00    -0.146 Cl 
HETATM    4  C   UNL     1     -10.628   9.746  66.508  1.00  0.00    -0.080 C  
HETATM    5  H2  UNL     1     -12.115  11.073  67.042  1.00  0.00     0.000 HD 
HETATM    6  O   UNL     2      -5.222   8.798  68.917  1.00  0.00    -0.032 OA 
HETATM    7  C   UNL     2      -7.319   9.833  68.163  1.00  0.00    -0.080 C  
HETATM    8  C   UNL     2      -5.849   9.949  68.336  1.00  0.00    -0.042 C  
HETATM    9  C   UNL     2      -5.219   9.998  69.703  1.00  0.00    -0.038 C  
ENDROOT
BRANCH   4  10
HETATM   10  C   UNL     1      -9.983  10.705  65.561  1.00  0.00    -0.333 C  
HETATM   11  C   UNL     1     -10.471  11.034  64.358  1.00  0.00    -0.422 C  
ENDBRANCH   4  10
TORSDOF 1
ENDMDL
MODEL      176
REMARK 921   NORMALIZED FREE ENERGY PREDICTED BY IDOCK:   -1.60 KCAL/MOL
REMARK 922        TOTAL FREE ENERGY PREDICTED BY IDOCK:   -1.72 KCAL/MOL
REMARK 923 INTER-LIGAND FREE ENERGY PREDICTED BY IDOCK:   -1.63 KCAL/MOL
REMARK 924 INTRA-LIGAND FREE ENERGY PREDICTED BY IDOCK:   -0.09 KCAL/MOL
REMARK 927      BINDING AFFINITY PREDICTED BY RF-SCORE:    0.00 PKD
ROOT
HETATM    1  N   UNL     1      -5.540  12.618  66.785  1.00  0.00    -0.403 NA 
HETATM    2  H1  UNL     1      -4.702  12.155  67.137  1.00  0.00     0.000 HD 
HETATM    3 CL   UNL     2      -7.961  10.069  65.712  1.00  0.00    -0.121 Cl 
HETATM    4  C   UNL     1      -6.519  12.773  67.848  1.00  0.00    -0.120 C  
HETATM    5  H2  UNL     1      -5.322  13.507  66.337  1.00  0.00     0.000 HD 
HETATM    6  O   UNL     2      -9.696   7.699  68.168  1.00  0.00    -0.147 OA 
HETATM    7  C   UNL     2      -8.535   9.708  67.357  1.00  0.00    -0.125 C  
HETATM    8  C   UNL     2      -9.719   8.817  67.269  1.00  0.00    -0.183 C  
HETATM    9  C   UNL     2      -9.605   7.402  66.767  1.00  0.00    -0.192 C  
ENDROOT
BRANCH   4  10
HETATM   10  C   UNL     1      -7.747  13.450  67.333  1.00  0.00    -0.146 C  
HETATM   11  C   UNL     1      -8.918  13.504  67.980  1.00  0.00    -0.189 C  
ENDBRANCH   4  10
TORSDOF 1
ENDMDL
MODEL      177
REMARK 921   NORMALIZED FREE ENERGY PREDICTED BY IDOCK:   -1.59 KCAL/MOL
REMARK 922        TOTAL FREE ENERGY PREDICTED BY IDOCK:   -1.71 KCAL/MOL
REMARK 923 INTER-LIGAND FREE ENERGY PREDICTED BY IDOCK:   -1.63 KCAL/MOL
REMARK 924 INTRA-LIGAND FREE ENERGY PREDICTED BY IDOCK:   -0.08 KCAL/MOL
REMARK 927      BINDING AFFINITY PREDICTED BY RF-SCORE:    0.00 PKD
ROOT
HETATM    1  N   UNL     1      -6.802   4.047  66.340  1.00  0.00    -0.056 NA 
HETATM    2  H1  UNL     1      -6.774   4.818  65.672  1.00  0.00     0.000 HD 
HETATM    3 CL   UNL     2      -8.138   5.275  69.536  1.00  0.00    -0.093 Cl 
HETATM    4  C   UNL     1      -8.101   3.395  66.309  1.00  0.00    -0.092 C  
HETATM    5  H2  UNL     1      -6.041   3.385  66.189  1.00  0.00     0.000 HD 
HETATM    6  O   UNL     2     -11.763   6.432  69.956  1.00  0.00    -0.429 OA 
HETATM    7  C   UNL     2      -9.839   5.230  69.013  1.00  0.00    -0.167 C  
HETATM    8  C   UNL     2     -10.710   5.486  70.187  1.00  0.00    -0.278 C  
HETATM    9  C   UNL     2     -10.733   6.826  70.873  1.00  0.00    -0.233 C  
ENDROOT
BRANCH   4  10
HETATM   10  C   UNL     1      -8.143   2.267  67.287  1.00  0.00    -0.071 C  
HETATM   11  C   UNL     1      -9.249   1.833  67.905  1.00  0.00    -0.212 C  
ENDBRANCH   4  10
TORSDOF 1
ENDMDL
MODEL      178
REMARK 921   NORMALIZED FREE ENERGY PREDICTED BY IDOCK:   -1.55 KCAL/MOL
REMARK 922        TOTAL FREE ENERGY PREDICTED BY IDOCK:   -1.67 KCAL/MOL
REMARK 923 INTER-LIGAND FREE ENERGY PREDICTED BY IDOCK:   -1.63 KCAL/MOL
REMARK 924 INTRA-LIGAND FREE ENERGY PREDICTED BY IDOCK:   -0.04 KCAL/MOL
REMARK 927      BINDING AFFINITY PREDICTED BY RF-SCORE:    0.00 PKD
ROOT
HETATM    1  N   UNL     1     -10.495   8.269  69.778  1.00  0.00    -0.218 NA 
HETATM    2  H1  UNL     1     -10.403   9.157  70.272  1.00  0.00     0.000 HD 
HETATM    3 CL   UNL     2     -10.133   8.854  66.168  1.00  0.00    -0.313 Cl 
HETATM    4  C   UNL     1      -9.189   7.661  69.580  1.00  0.00    -0.150 C  
HETATM    5  H2  UNL     1     -11.139   7.636  70.252  1.00  0.00     0.000 HD 
HETATM    6  O   UNL     2      -6.836   9.972  64.574  1.00  0.00    -0.121 OA 
HETATM    7  C   UNL     2      -8.356   8.947  66.211  1.00  0.00    -0.117 C  
HETATM    8  C   UNL     2      -7.842   8.979  64.819  1.00  0.00    -0.122 C  
HETATM    9  C   UNL     2      -8.096  10.154  63.912  1.00  0.00    -0.157 C  
ENDROOT
BRANCH   4  10
HETATM   10  C   UNL     1      -9.322   6.361  68.857  1.00  0.00    -0.130 C  
HETATM   11  C   UNL     1     -10.177   5.386  69.193  1.00  0.00    -0.302 C  
ENDBRANCH   4  10
TORSDOF 1
ENDMDL
MODEL      179
REMARK 921   NORMALIZED FREE ENERGY PREDICTED BY IDOCK:   -1.54 KCAL/MOL
REMARK 922        TOTAL FREE ENERGY PREDICTED BY IDOCK:   -1.66 KCAL/MOL
REMARK 923 INTER-LIGAND FREE ENERGY PREDICTED BY IDOCK:   -1.61 KCAL/MOL
REMARK 924 INTRA-LIGAND FREE ENERGY PREDICTED BY IDOCK:   -0.05 KCAL/MOL
REMARK 927      BINDING AFFINITY PREDICTED BY RF-SCORE:    0.00 PKD
ROOT
HETATM    1  N   UNL     1      -9.833   9.140  65.339  1.00  0.00    -0.424 NA 
HETATM    2  H1  UNL     1     -10.708   9.599  65.596  1.00  0.00     0.000 HD 
HETATM    3 CL   UNL     2      -7.031  10.906  66.931  1.00  0.00    -0.110 Cl 
HETATM    4  C   UNL     1      -9.471   8.142  66.332  1.00  0.00    -0.218 C  
HETATM    5  H2  UNL     1      -9.876   8.743  64.400  1.00  0.00     0.000 HD 
HETATM    6  O   UNL     2      -6.484  10.926  70.721  1.00  0.00    -0.339 OA 
HETATM    7  C   UNL     2      -7.264  10.147  68.524  1.00  0.00    -0.080 C  
HETATM    8  C   UNL     2      -6.120  10.503  69.399  1.00  0.00    -0.045 C  
HETATM    9  C   UNL     2      -5.896  11.917  69.867  1.00  0.00    -0.137 C  
ENDROOT
BRANCH   4  10
HETATM   10  C   UNL     1      -8.192   7.470  65.955  1.00  0.00    -0.134 C  
HETATM   11  C   UNL     1      -7.817   7.191  64.699  1.00  0.00    -0.123 C  
ENDBRANCH   4  10
TORSDOF 1
ENDMDL
MODEL      180
REMARK 921   NORMALIZED FREE ENERGY PREDICTED BY IDOCK:   -1.52 KCAL/MOL
REMARK 922        TOTAL FREE ENERGY PREDICTED BY IDOCK:   -1.64 KCAL/MOL
REMARK 923 INTER-LIGAND FREE ENERGY PREDICTED BY IDOCK:   -1.55 KCAL/MOL
REMARK 924 INTRA-LIGAND FREE ENERGY PREDICTED BY IDOCK:   -0.09 KCAL/MOL
REMARK 927      BINDING AFFINITY PREDICTED BY RF-SCORE:    0.00 PKD
ROOT
HETATM    1  N   UNL     1     -11.455   5.897  72.114  1.00  0.00    -0.293 NA 
HETATM    2  H1  UNL     1     -11.534   6.731  72.696  1.00  0.00     0.000 HD 
HETATM    3 CL   UNL     2     -10.733   6.906  68.654  1.00  0.00    -0.250 Cl 
HETATM    4  C   UNL     1     -10.071   5.461  72.035  1.00  0.00    -0.190 C  
HETATM    5  H2  UNL     1     -12.071   5.150  72.436  1.00  0.00     0.000 HD 
HETATM    6  O   UNL     2      -7.429   8.543  67.624  1.00  0.00    -0.091 OA 
HETATM    7  C   UNL     2      -8.999   7.188  68.942  1.00  0.00    -0.129 C  
HETATM    8  C   UNL     2      -8.328   7.426  67.639  1.00  0.00    -0.118 C  
HETATM    9  C   UNL     2      -8.612   8.657  66.821  1.00  0.00    -0.120 C  
ENDROOT
BRANCH   4  10
HETATM   10  C   UNL     1      -9.956   4.240  71.183  1.00  0.00    -0.226 C  
HETATM   11  C   UNL     1      -8.856   3.880  70.508  1.00  0.00    -0.136 C  
ENDBRANCH   4  10
TORSDOF 1
ENDMDL
MODEL      181
REMARK 921   NORMALIZED FREE ENERGY PREDICTED BY IDOCK:   -1.50 KCAL/MOL
REMARK 922        TOTAL FREE ENERGY PREDICTED BY IDOCK:   -1.62 KCAL/MOL
REMARK 923 INTER-LIGAND FREE ENERGY PREDICTED BY IDOCK:   -1.53 KCAL/MOL
REMARK 924 INTRA-LIGAND FREE ENERGY PREDICTED BY IDOCK:   -0.09 KCAL/MOL
REMARK 927      BINDING AFFINITY PREDICTED BY RF-SCORE:    0.00 PKD
ROOT
HETATM    1  N   UNL     1      -7.260   4.574  71.752  1.00  0.00    -0.058 NA 
HETATM    2  H1  UNL     1      -7.603   4.020  70.967  1.00  0.00     0.000 HD 
HETATM    3 CL   UNL     2      -8.579   7.994  71.483  1.00  0.00    -0.142 Cl 
HETATM    4  C   UNL     1      -8.209   4.538  72.853  1.00  0.00    -0.096 C  
HETATM    5  H2  UNL     1      -6.328   4.280  72.045  1.00  0.00     0.000 HD 
HETATM    6  O   UNL     2     -12.297   8.814  71.884  1.00  0.00    -0.316 OA 
HETATM    7  C   UNL     2     -10.184   7.585  72.134  1.00  0.00    -0.196 C  
HETATM    8  C   UNL     2     -10.945   8.839  72.362  1.00  0.00    -0.159 C  
HETATM    9  C   UNL     2     -11.394   9.707  71.216  1.00  0.00    -0.388 C  
ENDROOT
BRANCH   4  10
HETATM   10  C   UNL     1      -7.706   5.349  74.002  1.00  0.00    -0.097 C  
HETATM   11  C   UNL     1      -6.541   6.009  74.019  1.00  0.00    -0.075 C  
ENDBRANCH   4  10
TORSDOF 1
ENDMDL
MODEL      182
REMARK 921   NORMALIZED FREE ENERGY PREDICTED BY IDOCK:   -1.50 KCAL/MOL
REMARK 922        TOTAL FREE ENERGY PREDICTED BY IDOCK:   -1.61 KCAL/MOL
REMARK 923 INTER-LIGAND FREE ENERGY PREDICTED BY IDOCK:   -1.51 KCAL/MOL
REMARK 924 INTRA-LIGAND FREE ENERGY PREDICTED BY IDOCK:   -0.10 KCAL/MOL
REMARK 927      BINDING AFFINITY PREDICTED BY RF-SCORE:    0.00 PKD
ROOT
HETATM    1  N   UNL     1      -7.563   9.203  67.940  1.00  0.00    -0.085 NA 
HETATM    2  H1  UNL     1      -6.689   8.927  68.391  1.00  0.00     0.000 HD 
HETATM    3 CL   UNL     2      -8.455   6.695  65.406  1.00  0.00    -0.139 Cl 
HETATM    4  C   UNL     1      -8.697   8.592  68.615  1.00  0.00    -0.138 C  
HETATM    5  H2  UNL     1      -7.656  10.217  67.883  1.00  0.00     0.000 HD 
HETATM    6  O   UNL     2      -9.469   3.115  66.305  1.00  0.00    -0.137 OA 
HETATM    7  C   UNL     2      -9.121   5.532  66.577  1.00  0.00    -0.138 C  
HETATM    8  C   UNL     2      -9.788   4.432  65.836  1.00  0.00    -0.228 C  
HETATM    9  C   UNL     2      -9.003   3.462  64.993  1.00  0.00    -0.135 C  
ENDROOT
BRANCH   4  10
HETATM   10  C   UNL     1      -9.975   8.996  67.956  1.00  0.00    -0.213 C  
HETATM   11  C   UNL     1     -10.059   9.673  66.803  1.00  0.00    -0.301 C  
ENDBRANCH   4  10
TORSDOF 1
ENDMDL
MODEL      183
REMARK 921   NORMALIZED FREE ENERGY PREDICTED BY IDOCK:   -1.47 KCAL/MOL
REMARK 922        TOTAL FREE ENERGY PREDICTED BY IDOCK:   -1.58 KCAL/MOL
REMARK 923 INTER-LIGAND FREE ENERGY PREDICTED BY IDOCK:   -1.49 KCAL/MOL
REMARK 924 INTRA-LIGAND FREE ENERGY PREDICTED BY IDOCK:   -0.10 KCAL/MOL
REMARK 927      BINDING AFFINITY PREDICTED BY RF-SCORE:    0.00 PKD
ROOT
HETATM    1  N   UNL     1      -7.957   8.617  72.639  1.00  0.00    -0.381 NA 
HETATM    2  H1  UNL     1      -8.707   9.232  72.956  1.00  0.00     0.000 HD 
HETATM    3 CL   UNL     2      -9.300   6.257  70.163  1.00  0.00    -0.161 Cl 
HETATM    4  C   UNL     1      -7.327   9.159  71.445  1.00  0.00     0.019 C  
HETATM    5  H2  UNL     1      -7.277   8.436  73.377  1.00  0.00     0.000 HD 
HETATM    6  O   UNL     2     -10.533   7.360  66.710  1.00  0.00    -0.296 OA 
HETATM    7  C   UNL     2      -9.270   7.422  68.817  1.00  0.00    -0.144 C  
HETATM    8  C   UNL     2      -9.576   6.705  67.554  1.00  0.00    -0.126 C  
HETATM    9  C   UNL     2     -10.935   6.112  67.294  1.00  0.00    -0.326 C  
ENDROOT
BRANCH   4  10
HETATM   10  C   UNL     1      -6.229   8.259  70.980  1.00  0.00    -0.034 C  
HETATM   11  C   UNL     1      -6.006   7.023  71.446  1.00  0.00    -0.037 C  
ENDBRANCH   4  10
TORSDOF 1
ENDMDL
MODEL      184
REMARK 921   NORMALIZED FREE ENERGY PREDICTED BY IDOCK:   -1.44 KCAL/MOL
REMARK 922        TOTAL FREE ENERGY PREDICTED BY IDOCK:   -1.56 KCAL/MOL
REMARK 923 INTER-LIGAND FREE ENERGY PREDICTED BY IDOCK:   -1.49 KCAL/MOL
REMARK 924 INTRA-LIGAND FREE ENERGY PREDICTED BY IDOCK:   -0.06 KCAL/MOL
REMARK 927      BINDING AFFINITY PREDICTED BY RF-SCORE:    0.00 PKD
ROOT
HETATM    1  N   UNL     1      -9.951   7.794  67.210  1.00  0.00    -0.189 NA 
HETATM    2  H1  UNL     1      -9.565   8.425  66.507  1.00  0.00     0.000 HD 
HETATM    3 CL   UNL     2     -10.587   4.518  65.671  1.00  0.00    -0.292 Cl 
HETATM    4  C   UNL     1      -8.888   7.034  67.848  1.00  0.00    -0.124 C  
HETATM    5  H2  UNL     1     -10.523   8.292  67.892  1.00  0.00     0.000 HD 
HETATM    6  O   UNL     2      -7.775   2.230  64.440  1.00  0.00    -0.070 OA 
HETATM    7  C   UNL     2      -8.890   3.987  65.747  1.00  0.00    -0.123 C  
HETATM    8  C   UNL     2      -8.818   2.553  65.371  1.00  0.00    -0.126 C  
HETATM    9  C   UNL     2      -9.124   2.089  63.972  1.00  0.00    -0.109 C  
ENDROOT
BRANCH   4  10
HETATM   10  C   UNL     1      -9.453   6.111  68.878  1.00  0.00    -0.131 C  
HETATM   11  C   UNL     1     -10.622   6.291  69.505  1.00  0.00    -0.331 C  
ENDBRANCH   4  10
TORSDOF 1
ENDMDL
MODEL      185
REMARK 921   NORMALIZED FREE ENERGY PREDICTED BY IDOCK:   -1.44 KCAL/MOL
REMARK 922        TOTAL FREE ENERGY PREDICTED BY IDOCK:   -1.55 KCAL/MOL
REMARK 923 INTER-LIGAND FREE ENERGY PREDICTED BY IDOCK:   -1.47 KCAL/MOL
REMARK 924 INTRA-LIGAND FREE ENERGY PREDICTED BY IDOCK:   -0.08 KCAL/MOL
REMARK 927      BINDING AFFINITY PREDICTED BY RF-SCORE:    0.00 PKD
ROOT
HETATM    1  N   UNL     1      -7.874   5.325  71.583  1.00  0.00    -0.108 NA 
HETATM    2  H1  UNL     1      -7.286   4.493  71.531  1.00  0.00     0.000 HD 
HETATM    3 CL   UNL     2      -7.574   7.207  68.440  1.00  0.00    -0.115 Cl 
HETATM    4  C   UNL     1      -9.191   5.053  71.030  1.00  0.00    -0.147 C  
HETATM    5  H2  UNL     1      -7.930   5.692  72.533  1.00  0.00     0.000 HD 
HETATM    6  O   UNL     2      -8.890   5.877  65.100  1.00  0.00    -0.097 OA 
HETATM    7  C   UNL     2      -8.689   6.157  67.532  1.00  0.00    -0.104 C  
HETATM    8  C   UNL     2      -8.967   6.777  66.213  1.00  0.00    -0.152 C  
HETATM    9  C   UNL     2      -7.896   6.910  65.163  1.00  0.00    -0.120 C  
ENDROOT
BRANCH   4  10
HETATM   10  C   UNL     1     -10.050   6.272  71.105  1.00  0.00    -0.218 C  
HETATM   11  C   UNL     1     -11.277   6.375  70.577  1.00  0.00    -0.414 C  
ENDBRANCH   4  10
TORSDOF 1
ENDMDL
MODEL      186
REMARK 921   NORMALIZED FREE ENERGY PREDICTED BY IDOCK:   -1.44 KCAL/MOL
REMARK 922        TOTAL FREE ENERGY PREDICTED BY IDOCK:   -1.55 KCAL/MOL
REMARK 923 INTER-LIGAND FREE ENERGY PREDICTED BY IDOCK:   -1.45 KCAL/MOL
REMARK 924 INTRA-LIGAND FREE ENERGY PREDICTED BY IDOCK:   -0.10 KCAL/MOL
REMARK 927      BINDING AFFINITY PREDICTED BY RF-SCORE:    0.00 PKD
ROOT
HETATM    1  N   UNL     1      -6.169   3.775  69.873  1.00  0.00    -0.027 NA 
HETATM    2  H1  UNL     1      -5.875   3.251  69.048  1.00  0.00     0.000 HD 
HETATM    3 CL   UNL     2      -7.944   6.809  68.801  1.00  0.00    -0.117 Cl 
HETATM    4  C   UNL     1      -7.518   3.398  70.262  1.00  0.00    -0.041 C  
HETATM    5  H2  UNL     1      -5.508   3.671  70.643  1.00  0.00     0.000 HD 
HETATM    6  O   UNL     2     -11.344   6.705  67.043  1.00  0.00    -0.348 OA 
HETATM    7  C   UNL     2      -9.479   5.972  68.465  1.00  0.00    -0.120 C  
HETATM    8  C   UNL     2     -10.529   6.984  68.190  1.00  0.00    -0.201 C  
HETATM    9  C   UNL     2     -10.484   7.850  66.959  1.00  0.00    -0.349 C  
ENDROOT
BRANCH   4  10
HETATM   10  C   UNL     1      -7.947   4.166  71.469  1.00  0.00    -0.077 C  
HETATM   11  C   UNL     1      -9.220   4.361  71.837  1.00  0.00    -0.174 C  
ENDBRANCH   4  10
TORSDOF 1
ENDMDL
MODEL      187
REMARK 921   NORMALIZED FREE ENERGY PREDICTED BY IDOCK:   -1.42 KCAL/MOL
REMARK 922        TOTAL FREE ENERGY PREDICTED BY IDOCK:   -1.53 KCAL/MOL
REMARK 923 INTER-LIGAND FREE ENERGY PREDICTED BY IDOCK:   -1.43 KCAL/MOL
REMARK 924 INTRA-LIGAND FREE ENERGY PREDICTED BY IDOCK:   -0.10 KCAL/MOL
REMARK 927      BINDING AFFINITY PREDICTED BY RF-SCORE:    0.00 PKD
ROOT
HETATM    1  N   UNL     1      -8.452   4.354  66.277  1.00  0.00    -0.112 NA 
HETATM    2  H1  UNL     1      -8.708   4.858  65.427  1.00  0.00     0.000 HD 
HETATM    3 CL   UNL     2      -7.032   6.725  68.700  1.00  0.00    -0.077 Cl 
HETATM    4  C   UNL     1      -9.547   4.384  67.233  1.00  0.00    -0.189 C  
HETATM    5  H2  UNL     1      -8.149   3.402  66.077  1.00  0.00     0.000 HD 
HETATM    6  O   UNL     2      -9.109   9.481  70.359  1.00  0.00    -0.238 OA 
HETATM    7  C   UNL     2      -8.610   7.355  69.233  1.00  0.00    -0.137 C  
HETATM    8  C   UNL     2      -8.404   8.233  70.411  1.00  0.00    -0.120 C  
HETATM    9  C   UNL     2      -7.678   9.547  70.297  1.00  0.00    -0.161 C  
ENDROOT
BRANCH   4  10
HETATM   10  C   UNL     1      -9.173   3.648  68.478  1.00  0.00    -0.220 C  
HETATM   11  C   UNL     1      -9.781   3.793  69.663  1.00  0.00    -0.177 C  
ENDBRANCH   4  10
TORSDOF 1
ENDMDL
MODEL      188
REMARK 921   NORMALIZED FREE ENERGY PREDICTED BY IDOCK:   -1.41 KCAL/MOL
REMARK 922        TOTAL FREE ENERGY PREDICTED BY IDOCK:   -1.52 KCAL/MOL
REMARK 923 INTER-LIGAND FREE ENERGY PREDICTED BY IDOCK:   -1.43 KCAL/MOL
REMARK 924 INTRA-LIGAND FREE ENERGY PREDICTED BY IDOCK:   -0.09 KCAL/MOL
REMARK 927      BINDING AFFINITY PREDICTED BY RF-SCORE:    0.00 PKD
ROOT
HETATM    1  N   UNL     1      -6.974   8.888  64.878  1.00  0.00    -0.073 NA 
HETATM    2  H1  UNL     1      -7.156   9.835  64.545  1.00  0.00     0.000 HD 
HETATM    3 CL   UNL     2      -7.665   8.726  68.484  1.00  0.00    -0.098 Cl 
HETATM    4  C   UNL     1      -8.192   8.094  64.840  1.00  0.00    -0.147 C  
HETATM    5  H2  UNL     1      -6.215   8.444  64.362  1.00  0.00     0.000 HD 
HETATM    6  O   UNL     2     -11.189   9.094  69.934  1.00  0.00    -0.206 OA 
HETATM    7  C   UNL     2      -9.430   8.600  68.291  1.00  0.00    -0.141 C  
HETATM    8  C   UNL     2     -10.038   8.302  69.612  1.00  0.00    -0.199 C  
HETATM    9  C   UNL     2     -10.017   9.305  70.734  1.00  0.00    -0.290 C  
ENDROOT
BRANCH   4  10
HETATM   10  C   UNL     1      -7.925   6.707  65.328  1.00  0.00    -0.123 C  
HETATM   11  C   UNL     1      -8.847   5.896  65.863  1.00  0.00    -0.154 C  
ENDBRANCH   4  10
TORSDOF 1
ENDMDL
MODEL      189
REMARK 921   NORMALIZED FREE ENERGY PREDICTED BY IDOCK:   -1.41 KCAL/MOL
REMARK 922        TOTAL FREE ENERGY PREDICTED BY IDOCK:   -1.52 KCAL/MOL
REMARK 923 INTER-LIGAND FREE ENERGY PREDICTED BY IDOCK:   -1.43 KCAL/MOL
REMARK 924 INTRA-LIGAND FREE ENERGY PREDICTED BY IDOCK:   -0.10 KCAL/MOL
REMARK 927      BINDING AFFINITY PREDICTED BY RF-SCORE:    0.00 PKD
ROOT
HETATM    1  N   UNL     1     -10.858   6.360  71.028  1.00  0.00    -0.250 NA 
HETATM    2  H1  UNL     1     -11.159   7.335  71.017  1.00  0.00     0.000 HD 
HETATM    3 CL   UNL     2     -10.164   5.275  67.586  1.00  0.00    -0.225 Cl 
HETATM    4  C   UNL     1      -9.408   6.276  71.104  1.00  0.00    -0.160 C  
HETATM    5  H2  UNL     1     -11.308   5.832  71.776  1.00  0.00     0.000 HD 
HETATM    6  O   UNL     2      -7.255   6.669  65.524  1.00  0.00    -0.066 OA 
HETATM    7  C   UNL     2      -8.559   6.042  67.509  1.00  0.00    -0.106 C  
HETATM    8  C   UNL     2      -7.879   5.610  66.263  1.00  0.00    -0.100 C  
HETATM    9  C   UNL     2      -8.380   6.028  64.906  1.00  0.00    -0.104 C  
ENDROOT
BRANCH   4  10
HETATM   10  C   UNL     1      -8.968   4.849  71.121  1.00  0.00    -0.167 C  
HETATM   11  C   UNL     1      -9.786   3.796  70.991  1.00  0.00    -0.248 C  
ENDBRANCH   4  10
TORSDOF 1
ENDMDL
MODEL      190
REMARK 921   NORMALIZED FREE ENERGY PREDICTED BY IDOCK:   -1.41 KCAL/MOL
REMARK 922        TOTAL FREE ENERGY PREDICTED BY IDOCK:   -1.52 KCAL/MOL
REMARK 923 INTER-LIGAND FREE ENERGY PREDICTED BY IDOCK:   -1.50 KCAL/MOL
REMARK 924 INTRA-LIGAND FREE ENERGY PREDICTED BY IDOCK:   -0.03 KCAL/MOL
REMARK 927      BINDING AFFINITY PREDICTED BY RF-SCORE:    0.00 PKD
ROOT
HETATM    1  N   UNL     1     -11.377   9.199  71.386  1.00  0.00    -0.315 NA 
HETATM    2  H1  UNL     1     -12.277   9.165  71.867  1.00  0.00     0.000 HD 
HETATM    3 CL   UNL     2      -8.961   7.109  73.204  1.00  0.00    -0.153 Cl 
HETATM    4  C   UNL     1     -11.267   8.102  70.438  1.00  0.00    -0.221 C  
HETATM    5  H2  UNL     1     -11.219  10.103  70.942  1.00  0.00     0.000 HD 
HETATM    6  O   UNL     2      -9.268   3.299  73.416  1.00  0.00    -0.092 OA 
HETATM    7  C   UNL     2      -9.558   5.573  72.532  1.00  0.00    -0.148 C  
HETATM    8  C   UNL     2      -8.629   4.484  72.921  1.00  0.00    -0.109 C  
HETATM    9  C   UNL     2      -8.483   4.047  74.355  1.00  0.00    -0.092 C  
ENDROOT
BRANCH   4  10
HETATM   10  C   UNL     1      -9.951   8.152  69.734  1.00  0.00    -0.191 C  
HETATM   11  C   UNL     1      -9.780   8.529  68.460  1.00  0.00    -0.174 C  
ENDBRANCH   4  10
TORSDOF 1
ENDMDL
MODEL      191
REMARK 921   NORMALIZED FREE ENERGY PREDICTED BY IDOCK:   -1.38 KCAL/MOL
REMARK 922        TOTAL FREE ENERGY PREDICTED BY IDOCK:   -1.49 KCAL/MOL
REMARK 923 INTER-LIGAND FREE ENERGY PREDICTED BY IDOCK:   -1.42 KCAL/MOL
REMARK 924 INTRA-LIGAND FREE ENERGY PREDICTED BY IDOCK:   -0.07 KCAL/MOL
REMARK 927      BINDING AFFINITY PREDICTED BY RF-SCORE:    0.00 PKD
ROOT
HETATM    1  N   UNL     1      -8.293   6.171  63.934  1.00  0.00    -0.321 NA 
HETATM    2  H1  UNL     1      -9.030   5.602  63.517  1.00  0.00     0.000 HD 
HETATM    3 CL   UNL     2      -9.597   7.805  66.956  1.00  0.00    -0.217 Cl 
HETATM    4  C   UNL     1      -7.567   5.407  64.935  1.00  0.00    -0.084 C  
HETATM    5  H2  UNL     1      -7.668   6.560  63.227  1.00  0.00     0.000 HD 
HETATM    6  O   UNL     2     -10.564   5.857  70.107  1.00  0.00    -0.241 OA 
HETATM    7  C   UNL     2      -9.429   6.364  67.987  1.00  0.00    -0.116 C  
HETATM    8  C   UNL     2      -9.692   6.748  69.397  1.00  0.00    -0.152 C  
HETATM    9  C   UNL     2     -11.061   7.179  69.853  1.00  0.00    -0.235 C  
ENDROOT
BRANCH   4  10
HETATM   10  C   UNL     1      -6.487   6.240  65.546  1.00  0.00    -0.039 C  
HETATM   11  C   UNL     1      -5.662   5.828  66.517  1.00  0.00    -0.017 C  
ENDBRANCH   4  10
TORSDOF 1
ENDMDL
MODEL      192
REMARK 921   NORMALIZED FREE ENERGY PREDICTED BY IDOCK:   -1.37 KCAL/MOL
REMARK 922        TOTAL FREE ENERGY PREDICTED BY IDOCK:   -1.48 KCAL/MOL
REMARK 923 INTER-LIGAND FREE ENERGY PREDICTED BY IDOCK:   -1.44 KCAL/MOL
REMARK 924 INTRA-LIGAND FREE ENERGY PREDICTED BY IDOCK:   -0.04 KCAL/MOL
REMARK 927      BINDING AFFINITY PREDICTED BY RF-SCORE:    0.00 PKD
ROOT
HETATM    1  N   UNL     1      -9.227   8.182  65.536  1.00  0.00    -0.412 NA 
HETATM    2  H1  UNL     1      -9.713   7.671  66.274  1.00  0.00     0.000 HD 
HETATM    3 CL   UNL     2      -9.699  11.789  66.059  1.00  0.00    -0.246 Cl 
HETATM    4  C   UNL     1      -7.880   8.528  65.961  1.00  0.00    -0.098 C  
HETATM    5  H2  UNL     1      -9.227   7.669  64.655  1.00  0.00     0.000 HD 
HETATM    6  O   UNL     2      -8.192  13.663  69.039  1.00  0.00     0.056 OA 
HETATM    7  C   UNL     2      -8.458  11.919  67.328  1.00  0.00    -0.172 C  
HETATM    8  C   UNL     2      -8.235  13.353  67.639  1.00  0.00    -0.177 C  
HETATM    9  C   UNL     2      -9.300  14.191  68.296  1.00  0.00    -0.203 C  
ENDROOT
BRANCH   4  10
HETATM   10  C   UNL     1      -7.169   9.276  64.881  1.00  0.00    -0.102 C  
HETATM   11  C   UNL     1      -6.979   8.822  63.636  1.00  0.00    -0.088 C  
ENDBRANCH   4  10
TORSDOF 1
ENDMDL
MODEL      193
REMARK 921   NORMALIZED FREE ENERGY PREDICTED BY IDOCK:   -1.34 KCAL/MOL
REMARK 922        TOTAL FREE ENERGY PREDICTED BY IDOCK:   -1.44 KCAL/MOL
REMARK 923 INTER-LIGAND FREE ENERGY PREDICTED BY IDOCK:   -1.55 KCAL/MOL
REMARK 924 INTRA-LIGAND FREE ENERGY PREDICTED BY IDOCK:    0.10 KCAL/MOL
REMARK 927      BINDING AFFINITY PREDICTED BY RF-SCORE:    0.00 PKD
ROOT
HETATM    1  N   UNL     1      -6.318  12.303  70.423  1.00  0.00    -0.493 NA 
HETATM    2  H1  UNL     1      -6.110  12.964  69.674  1.00  0.00     0.000 HD 
HETATM    3 CL   UNL     2      -9.144  10.184  69.406  1.00  0.00    -0.210 Cl 
HETATM    4  C   UNL     1      -5.602  11.055  70.213  1.00  0.00    -0.102 C  
HETATM    5  H2  UNL     1      -6.128  12.700  71.343  1.00  0.00     0.000 HD 
HETATM    6  O   UNL     2      -8.901   7.643  66.552  1.00  0.00    -0.133 OA 
HETATM    7  C   UNL     2      -8.162   9.112  68.378  1.00  0.00    -0.115 C  
HETATM    8  C   UNL     2      -8.996   7.962  67.947  1.00  0.00    -0.129 C  
HETATM    9  C   UNL     2     -10.164   8.142  67.015  1.00  0.00    -0.308 C  
ENDROOT
BRANCH   4  10
HETATM   10  C   UNL     1      -5.907  10.087  71.309  1.00  0.00    -0.005 C  
HETATM   11  C   UNL     1      -6.323   8.828  71.122  1.00  0.00    -0.054 C  
ENDBRANCH   4  10
TORSDOF 1
ENDMDL
MODEL      194
REMARK 921   NORMALIZED FREE ENERGY PREDICTED BY IDOCK:   -1.28 KCAL/MOL
REMARK 922        TOTAL FREE ENERGY PREDICTED BY IDOCK:   -1.38 KCAL/MOL
REMARK 923 INTER-LIGAND FREE ENERGY PREDICTED BY IDOCK:   -1.34 KCAL/MOL
REMARK 924 INTRA-LIGAND FREE ENERGY PREDICTED BY IDOCK:   -0.04 KCAL/MOL
REMARK 927      BINDING AFFINITY PREDICTED BY RF-SCORE:    0.00 PKD
ROOT
HETATM    1  N   UNL     1      -6.521   6.404  67.358  1.00  0.00    -0.047 NA 
HETATM    2  H1  UNL     1      -6.137   6.731  68.245  1.00  0.00     0.000 HD 
HETATM    3 CL   UNL     2      -9.624   8.238  66.640  1.00  0.00    -0.276 Cl 
HETATM    4  C   UNL     1      -6.046   7.234  66.262  1.00  0.00    -0.037 C  
HETATM    5  H2  UNL     1      -6.323   5.417  67.199  1.00  0.00     0.000 HD 
HETATM    6  O   UNL     2      -9.678  11.985  65.856  1.00  0.00    -0.235 OA 
HETATM    7  C   UNL     2      -8.798   9.699  66.045  1.00  0.00    -0.152 C  
HETATM    8  C   UNL     2      -9.806  10.614  65.454  1.00  0.00    -0.267 C  
HETATM    9  C   UNL     2     -10.850  11.290  66.303  1.00  0.00    -0.238 C  
ENDROOT
BRANCH   4  10
HETATM   10  C   UNL     1      -6.608   6.756  64.964  1.00  0.00    -0.043 C  
HETATM   11  C   UNL     1      -6.127   7.084  63.757  1.00  0.00    -0.043 C  
ENDBRANCH   4  10
TORSDOF 1
ENDMDL
MODEL      195
REMARK 921   NORMALIZED FREE ENERGY PREDICTED BY IDOCK:   -1.28 KCAL/MOL
REMARK 922        TOTAL FREE ENERGY PREDICTED BY IDOCK:   -1.38 KCAL/MOL
REMARK 923 INTER-LIGAND FREE ENERGY PREDICTED BY IDOCK:   -1.31 KCAL/MOL
REMARK 924 INTRA-LIGAND FREE ENERGY PREDICTED BY IDOCK:   -0.07 KCAL/MOL
REMARK 927      BINDING AFFINITY PREDICTED BY RF-SCORE:    0.00 PKD
ROOT
HETATM    1  N   UNL     1     -10.460   8.154  67.473  1.00  0.00    -0.327 NA 
HETATM    2  H1  UNL     1     -11.356   8.583  67.705  1.00  0.00     0.000 HD 
HETATM    3 CL   UNL     2      -8.063  10.787  66.563  1.00  0.00    -0.140 Cl 
HETATM    4  C   UNL     1      -9.605   8.097  68.647  1.00  0.00    -0.149 C  
HETATM    5  H2  UNL     1     -10.579   7.235  67.045  1.00  0.00     0.000 HD 
HETATM    6  O   UNL     2      -6.748  13.349  69.087  1.00  0.00    -0.106 OA 
HETATM    7  C   UNL     2      -7.704  11.247  68.245  1.00  0.00    -0.122 C  
HETATM    8  C   UNL     2      -6.564  12.198  68.251  1.00  0.00    -0.056 C  
HETATM    9  C   UNL     2      -6.690  13.582  67.673  1.00  0.00    -0.167 C  
ENDROOT
BRANCH   4  10
HETATM   10  C   UNL     1      -8.293   7.468  68.307  1.00  0.00    -0.125 C  
HETATM   11  C   UNL     1      -8.089   6.637  67.277  1.00  0.00    -0.121 C  
ENDBRANCH   4  10
TORSDOF 1
ENDMDL
MODEL      196
REMARK 921   NORMALIZED FREE ENERGY PREDICTED BY IDOCK:   -1.24 KCAL/MOL
REMARK 922        TOTAL FREE ENERGY PREDICTED BY IDOCK:   -1.35 KCAL/MOL
REMARK 923 INTER-LIGAND FREE ENERGY PREDICTED BY IDOCK:   -1.29 KCAL/MOL
REMARK 924 INTRA-LIGAND FREE ENERGY PREDICTED BY IDOCK:   -0.06 KCAL/MOL
REMARK 927      BINDING AFFINITY PREDICTED BY RF-SCORE:    0.00 PKD
ROOT
HETATM    1  N   UNL     1      -8.319   5.458  67.853  1.00  0.00    -0.099 NA 
HETATM    2  H1  UNL     1      -7.652   4.686  67.825  1.00  0.00     0.000 HD 
HETATM    3 CL   UNL     2     -10.684   4.905  70.611  1.00  0.00    -0.066 Cl 
HETATM    4  C   UNL     1      -7.856   6.496  68.760  1.00  0.00    -0.110 C  
HETATM    5  H2  UNL     1      -8.512   5.826  66.922  1.00  0.00     0.000 HD 
HETATM    6  O   UNL     2      -9.634   5.020  74.291  1.00  0.00    -0.123 OA 
HETATM    7  C   UNL     2      -9.571   5.476  71.878  1.00  0.00    -0.156 C  
HETATM    8  C   UNL     2     -10.312   5.581  73.159  1.00  0.00    -0.204 C  
HETATM    9  C   UNL     2     -10.836   4.360  73.868  1.00  0.00    -0.268 C  
ENDROOT
BRANCH   4  10
HETATM   10  C   UNL     1      -8.831   7.626  68.802  1.00  0.00    -0.131 C  
HETATM   11  C   UNL     1      -8.622   8.793  69.425  1.00  0.00    -0.133 C  
ENDBRANCH   4  10
TORSDOF 1
ENDMDL
MODEL      197
REMARK 921   NORMALIZED FREE ENERGY PREDICTED BY IDOCK:   -1.23 KCAL/MOL
REMARK 922        TOTAL FREE ENERGY PREDICTED BY IDOCK:   -1.33 KCAL/MOL
REMARK 923 INTER-LIGAND FREE ENERGY PREDICTED BY IDOCK:   -1.23 KCAL/MOL
REMARK 924 INTRA-LIGAND FREE ENERGY PREDICTED BY IDOCK:   -0.10 KCAL/MOL
REMARK 927      BINDING AFFINITY PREDICTED BY RF-SCORE:    0.00 PKD
ROOT
HETATM    1  N   UNL     1      -9.031   5.639  68.835  1.00  0.00    -0.111 NA 
HETATM    2  H1  UNL     1     -10.024   5.406  68.858  1.00  0.00     0.000 HD 
HETATM    3 CL   UNL     2      -8.189   6.997  65.525  1.00  0.00    -0.132 Cl 
HETATM    4  C   UNL     1      -8.827   7.030  69.206  1.00  0.00    -0.139 C  
HETATM    5  H2  UNL     1      -8.479   5.006  69.414  1.00  0.00     0.000 HD 
HETATM    6  O   UNL     2      -9.518  10.362  64.271  1.00  0.00    -0.244 OA 
HETATM    7  C   UNL     2      -8.830   8.623  65.865  1.00  0.00    -0.184 C  
HETATM    8  C   UNL     2      -8.453   9.531  64.753  1.00  0.00    -0.159 C  
HETATM    9  C   UNL     2      -9.022   9.361  63.370  1.00  0.00    -0.119 C  
ENDROOT
BRANCH   4  10
HETATM   10  C   UNL     1      -7.373   7.371  69.172  1.00  0.00    -0.090 C  
HETATM   11  C   UNL     1      -6.882   8.613  69.075  1.00  0.00    -0.056 C  
ENDBRANCH   4  10
TORSDOF 1
ENDMDL
MODEL      198
REMARK 921   NORMALIZED FREE ENERGY PREDICTED BY IDOCK:   -1.22 KCAL/MOL
REMARK 922        TOTAL FREE ENERGY PREDICTED BY IDOCK:   -1.32 KCAL/MOL
REMARK 923 INTER-LIGAND FREE ENERGY PREDICTED BY IDOCK:   -1.28 KCAL/MOL
REMARK 924 INTRA-LIGAND FREE ENERGY PREDICTED BY IDOCK:   -0.04 KCAL/MOL
REMARK 927      BINDING AFFINITY PREDICTED BY RF-SCORE:    0.00 PKD
ROOT
HETATM    1  N   UNL     1      -7.309   3.286  72.763  1.00  0.00    -0.048 NA 
HETATM    2  H1  UNL     1      -6.789   2.494  72.384  1.00  0.00     0.000 HD 
HETATM    3 CL   UNL     2      -7.940   5.710  70.073  1.00  0.00    -0.089 Cl 
HETATM    4  C   UNL     1      -8.739   3.079  72.601  1.00  0.00    -0.083 C  
HETATM    5  H2  UNL     1      -7.060   3.474  73.734  1.00  0.00     0.000 HD 
HETATM    6  O   UNL     2     -10.255   4.964  67.117  1.00  0.00    -0.195 OA 
HETATM    7  C   UNL     2      -9.308   4.808  69.379  1.00  0.00    -0.134 C  
HETATM    8  C   UNL     2      -9.961   5.647  68.343  1.00  0.00    -0.156 C  
HETATM    9  C   UNL     2      -9.262   5.998  67.057  1.00  0.00    -0.121 C  
ENDROOT
BRANCH   4  10
HETATM   10  C   UNL     1      -9.500   4.239  73.156  1.00  0.00    -0.133 C  
HETATM   11  C   UNL     1     -10.763   4.181  73.600  1.00  0.00    -0.318 C  
ENDBRANCH   4  10
TORSDOF 1
ENDMDL
MODEL      199
REMARK 921   NORMALIZED FREE ENERGY PREDICTED BY IDOCK:   -1.20 KCAL/MOL
REMARK 922        TOTAL FREE ENERGY PREDICTED BY IDOCK:   -1.30 KCAL/MOL
REMARK 923 INTER-LIGAND FREE ENERGY PREDICTED BY IDOCK:   -1.20 KCAL/MOL
REMARK 924 INTRA-LIGAND FREE ENERGY PREDICTED BY IDOCK:   -0.10 KCAL/MOL
REMARK 927      BINDING AFFINITY PREDICTED BY RF-SCORE:    0.00 PKD
ROOT
HETATM    1  N   UNL     1     -10.835   9.455  66.579  1.00  0.00     0.063 NA 
HETATM    2  H1  UNL     1     -11.365   8.675  66.188  1.00  0.00     0.000 HD 
HETATM    3 CL   UNL     2     -10.615   9.052  70.225  1.00  0.00    -0.233 Cl 
HETATM    4  C   UNL     1      -9.426   9.109  66.685  1.00  0.00    -0.185 C  
HETATM    5  H2  UNL     1     -10.976  10.314  66.048  1.00  0.00     0.000 HD 
HETATM    6  O   UNL     2      -8.635   6.223  71.879  1.00  0.00    -0.128 OA 
HETATM    7  C   UNL     2      -9.304   7.849  70.163  1.00  0.00    -0.156 C  
HETATM    8  C   UNL     2      -8.809   7.606  71.541  1.00  0.00    -0.124 C  
HETATM    9  C   UNL     2      -9.666   6.933  72.579  1.00  0.00    -0.153 C  
ENDROOT
BRANCH   4  10
HETATM   10  C   UNL     1      -8.650  10.249  67.257  1.00  0.00    -0.125 C  
HETATM   11  C   UNL     1      -9.193  11.367  67.757  1.00  0.00    -0.159 C  
ENDBRANCH   4  10
TORSDOF 1
ENDMDL
MODEL      200
REMARK 921   NORMALIZED FREE ENERGY PREDICTED BY IDOCK:   -1.17 KCAL/MOL
REMARK 922        TOTAL FREE ENERGY PREDICTED BY IDOCK:   -1.27 KCAL/MOL
REMARK 923 INTER-LIGAND FREE ENERGY PREDICTED BY IDOCK:   -1.17 KCAL/MOL
REMARK 924 INTRA-LIGAND FREE ENERGY PREDICTED BY IDOCK:   -0.10 KCAL/MOL
REMARK 927      BINDING AFFINITY PREDICTED BY RF-SCORE:    0.00 PKD
ROOT
HETATM    1  N   UNL     1     -10.125   5.265  65.691  1.00  0.00    -0.397 NA 
HETATM    2  H1  UNL     1     -10.954   5.794  65.418  1.00  0.00     0.000 HD 
HETATM    3 CL   UNL     2      -7.301   7.579  66.109  1.00  0.00    -0.080 Cl 
HETATM    4  C   UNL     1     -10.007   5.219  67.140  1.00  0.00    -0.184 C  
HETATM    5  H2  UNL     1     -10.119   4.331  65.281  1.00  0.00     0.000 HD 
HETATM    6  O   UNL     2      -7.166  10.195  68.901  1.00  0.00    -0.072 OA 
HETATM    7  C   UNL     2      -7.802   8.134  67.724  1.00  0.00    -0.118 C  
HETATM    8  C   UNL     2      -6.721   8.970  68.303  1.00  0.00    -0.061 C  
HETATM    9  C   UNL     2      -6.363  10.311  67.718  1.00  0.00    -0.057 C  
ENDROOT
BRANCH   4  10
HETATM   10  C   UNL     1      -8.794   4.445  67.541  1.00  0.00    -0.119 C  
HETATM   11  C   UNL     1      -8.200   4.523  68.739  1.00  0.00    -0.082 C  
ENDBRANCH   4  10
TORSDOF 1
ENDMDL
MODEL      201
REMARK 921   NORMALIZED FREE ENERGY PREDICTED BY IDOCK:   -1.08 KCAL/MOL
REMARK 922        TOTAL FREE ENERGY PREDICTED BY IDOCK:   -1.18 KCAL/MOL
REMARK 923 INTER-LIGAND FREE ENERGY PREDICTED BY IDOCK:   -1.15 KCAL/MOL
REMARK 924 INTRA-LIGAND FREE ENERGY PREDICTED BY IDOCK:   -0.03 KCAL/MOL
REMARK 927      BINDING AFFINITY PREDICTED BY RF-SCORE:    0.00 PKD
ROOT
HETATM    1  N   UNL     1      -8.614   3.655  70.536  1.00  0.00    -0.068 NA 
HETATM    2  H1  UNL     1      -8.837   2.762  70.974  1.00  0.00     0.000 HD 
HETATM    3 CL   UNL     2      -7.402   3.050  67.119  1.00  0.00    -0.061 Cl 
HETATM    4  C   UNL     1      -9.761   4.158  69.796  1.00  0.00    -0.208 C  
HETATM    5  H2  UNL     1      -8.272   4.336  71.213  1.00  0.00     0.000 HD 
HETATM    6  O   UNL     2      -9.648   1.677  64.340  1.00  0.00    -0.135 OA 
HETATM    7  C   UNL     2      -9.024   2.816  66.426  1.00  0.00    -0.145 C  
HETATM    8  C   UNL     2      -8.910   2.746  64.948  1.00  0.00    -0.119 C  
HETATM    9  C   UNL     2      -8.218   1.597  64.265  1.00  0.00    -0.070 C  
ENDROOT
BRANCH   4  10
HETATM   10  C   UNL     1      -9.435   5.466  69.153  1.00  0.00    -0.177 C  
HETATM   11  C   UNL     1      -9.862   6.658  69.589  1.00  0.00    -0.168 C  
ENDBRANCH   4  10
TORSDOF 1
ENDMDL
MODEL      202
REMARK 921   NORMALIZED FREE ENERGY PREDICTED BY IDOCK:   -0.81 KCAL/MOL
REMARK 922        TOTAL FREE ENERGY PREDICTED BY IDOCK:   -0.88 KCAL/MOL
REMARK 923 INTER-LIGAND FREE ENERGY PREDICTED BY IDOCK:   -1.06 KCAL/MOL
REMARK 924 INTRA-LIGAND FREE ENERGY PREDICTED BY IDOCK:    0.17 KCAL/MOL
REMARK 927      BINDING AFFINITY PREDICTED BY RF-SCORE:    0.00 PKD
ROOT
HETATM    1  N   UNL     1     -10.627   5.720  73.427  1.00  0.00    -0.242 NA 
HETATM    2  H1  UNL     1     -11.122   4.830  73.498  1.00  0.00     0.000 HD 
HETATM    3 CL   UNL     2      -7.124   5.077  72.520  1.00  0.00    -0.079 Cl 
HETATM    4  C   UNL     1     -10.654   6.209  72.058  1.00  0.00    -0.218 C  
HETATM    5  H2  UNL     1     -10.990   6.410  74.084  1.00  0.00     0.000 HD 
HETATM    6  O   UNL     2      -6.095   3.661  69.114  1.00  0.00    -0.026 OA 
HETATM    7  C   UNL     2      -7.462   4.828  70.790  1.00  0.00    -0.064 C  
HETATM    8  C   UNL     2      -6.175   4.740  70.055  1.00  0.00    -0.026 C  
HETATM    9  C   UNL     2      -5.231   3.585  70.256  1.00  0.00    -0.004 C  
ENDROOT
BRANCH   4  10
HETATM   10  C   UNL     1      -9.928   7.510  71.954  1.00  0.00    -0.204 C  
HETATM   11  C   UNL     1      -8.753   7.777  72.538  1.00  0.00    -0.196 C  
ENDBRANCH   4  10
TORSDOF 1
ENDMDL
