MODEL        1
REMARK 921   NORMALIZED FREE ENERGY PREDICTED BY IDOCK:   -8.10 KCAL/MOL
REMARK 922        TOTAL FREE ENERGY PREDICTED BY IDOCK:  -12.77 KCAL/MOL
REMARK 923 INTER-LIGAND FREE ENERGY PREDICTED BY IDOCK:  -11.42 KCAL/MOL
REMARK 924 INTRA-LIGAND FREE ENERGY PREDICTED BY IDOCK:   -1.35 KCAL/MOL
REMARK 927      BINDING AFFINITY PREDICTED BY RF-SCORE:    0.00 PKD
ROOT
HETATM    1  C   UNL     1     -11.930  16.466  72.819  1.00  0.00    -0.585 C  
HETATM    2  C   UNL     1     -13.011  15.610  73.464  1.00  0.00    -0.679 C  
ENDROOT
BRANCH   2   3
HETATM    3  C   UNL     1     -13.943  14.990  72.421  1.00  0.00    -0.593 C  
BRANCH   3   4
HETATM    4  C   UNL     1     -13.368  13.763  71.796  1.00  0.00    -0.383 A  
HETATM    5  N   UNL     1     -13.435  12.604  72.478  1.00  0.00    -0.398 NA 
HETATM    6  N   UNL     1     -12.873  11.693  71.651  1.00  0.00    -0.383 NA 
HETATM    7  C   UNL     1     -12.466  12.229  70.470  1.00  0.00    -0.189 A  
HETATM    8  C   UNL     1     -12.800  10.312  72.065  1.00  0.00    -0.359 C  
HETATM    9  C   UNL     1     -12.751  13.559  70.540  1.00  0.00    -0.157 A  
HETATM   10  N   UNL     1     -12.450  14.352  69.498  1.00  0.00    -0.216 NA 
HETATM   11  C   UNL     1     -11.841  13.738  68.403  1.00  0.00    -0.376 C  
HETATM   12  N   UNL     1     -11.569  12.462  68.310  1.00  0.00    -0.312 N  
HETATM   13  O   UNL     1     -11.584  10.399  69.314  1.00  0.00    -0.234 OA 
HETATM   14  H   UNL     1     -11.146  12.102  67.454  1.00  0.00     0.000 HD 
HETATM   15  C   UNL     1     -11.843  11.594  69.348  1.00  0.00    -0.342 C  
BRANCH  11  16
HETATM   16  C   UNL     1     -11.484  14.585  67.194  1.00  0.00    -0.383 A  
HETATM   17  C   UNL     1     -11.448  15.013  64.803  1.00  0.00    -0.403 A  
HETATM   18  C   UNL     1     -11.813  14.195  65.882  1.00  0.00    -0.384 A  
HETATM   19  C   UNL     1     -10.760  15.778  67.399  1.00  0.00    -0.317 A  
HETATM   20  C   UNL     1     -10.669  16.153  65.009  1.00  0.00    -0.359 A  
HETATM   21  C   UNL     1     -10.285  16.509  66.304  1.00  0.00    -0.332 A  
BRANCH  18  22
HETATM   22  O   UNL     1     -12.528  13.037  65.725  1.00  0.00    -0.470 OA 
BRANCH  22  23
HETATM   23  C   UNL     1     -12.282  12.283  64.538  1.00  0.00    -0.388 C  
HETATM   24  C   UNL     1     -10.965  11.559  64.744  1.00  0.00    -0.338 C  
ENDBRANCH  22  23
ENDBRANCH  18  22
BRANCH  21  25
HETATM   25  S   UNL     1      -9.272  17.963  66.527  1.00  0.00    -0.252 S  
HETATM   26  O   UNL     1     -10.143  19.115  66.433  1.00  0.00    -0.361 OA 
HETATM   27  O   UNL     1      -8.140  17.816  65.634  1.00  0.00    -0.518 OA 
BRANCH  25  28
HETATM   28  N   UNL     1      -8.665  17.882  68.104  1.00  0.00    -0.261 N  
HETATM   29  C   UNL     1      -7.673  16.846  68.456  1.00  0.00    -0.227 C  
HETATM   30  C   UNL     1      -6.247  17.371  68.249  1.00  0.00    -0.162 C  
HETATM   31  N   UNL     1      -5.938  18.620  68.973  1.00  0.00    -0.220 NA 
HETATM   32  C   UNL     1      -7.023  19.620  68.855  1.00  0.00    -0.347 C  
HETATM   33  C   UNL     1      -5.584  18.332  70.359  1.00  0.00    -0.212 C  
HETATM   34  C   UNL     1      -8.483  19.112  68.912  1.00  0.00    -0.283 C  
ENDBRANCH  25  28
ENDBRANCH  21  25
ENDBRANCH  11  16
ENDBRANCH   3   4
ENDBRANCH   2   3
TORSDOF 7
ENDMDL
MODEL        2
REMARK 921   NORMALIZED FREE ENERGY PREDICTED BY IDOCK:   -7.83 KCAL/MOL
REMARK 922        TOTAL FREE ENERGY PREDICTED BY IDOCK:  -12.38 KCAL/MOL
REMARK 923 INTER-LIGAND FREE ENERGY PREDICTED BY IDOCK:  -10.92 KCAL/MOL
REMARK 924 INTRA-LIGAND FREE ENERGY PREDICTED BY IDOCK:   -1.46 KCAL/MOL
REMARK 927      BINDING AFFINITY PREDICTED BY RF-SCORE:    0.00 PKD
ROOT
HETATM    1  C   UNL     1     -10.961  12.284  63.596  1.00  0.00    -0.532 C  
HETATM    2  C   UNL     1     -12.177  12.735  64.393  1.00  0.00    -0.499 C  
ENDROOT
BRANCH   2   3
HETATM    3  C   UNL     1     -12.280  14.260  64.457  1.00  0.00    -0.476 C  
BRANCH   3   4
HETATM    4  C   UNL     1     -11.386  14.852  65.495  1.00  0.00    -0.339 A  
HETATM    5  N   UNL     1     -10.551  15.844  65.134  1.00  0.00    -0.520 NA 
HETATM    6  N   UNL     1      -9.914  16.183  66.278  1.00  0.00    -0.296 NA 
HETATM    7  C   UNL     1     -10.324  15.453  67.349  1.00  0.00    -0.262 A  
HETATM    8  C   UNL     1      -8.945  17.252  66.258  1.00  0.00    -0.217 C  
HETATM    9  C   UNL     1     -11.254  14.577  66.876  1.00  0.00    -0.336 A  
HETATM   10  N   UNL     1     -11.836  13.715  67.725  1.00  0.00    -0.360 NA 
HETATM   11  C   UNL     1     -11.425  13.777  69.058  1.00  0.00    -0.305 C  
HETATM   12  N   UNL     1     -10.544  14.617  69.535  1.00  0.00    -0.381 N  
HETATM   13  O   UNL     1      -9.053  16.309  69.114  1.00  0.00    -0.253 OA 
HETATM   14  H   UNL     1     -10.328  14.603  70.532  1.00  0.00     0.000 HD 
HETATM   15  C   UNL     1      -9.900  15.523  68.715  1.00  0.00    -0.217 C  
BRANCH  11  16
HETATM   16  C   UNL     1     -12.055  12.829  70.063  1.00  0.00    -0.355 A  
HETATM   17  C   UNL     1     -13.416  12.366  72.022  1.00  0.00    -0.460 A  
HETATM   18  C   UNL     1     -12.868  13.288  71.117  1.00  0.00    -0.280 A  
HETATM   19  C   UNL     1     -11.776  11.451  69.956  1.00  0.00    -0.416 A  
HETATM   20  C   UNL     1     -13.074  11.015  71.952  1.00  0.00    -0.525 A  
HETATM   21  C   UNL     1     -12.215  10.565  70.946  1.00  0.00    -0.388 A  
BRANCH  18  22
HETATM   22  O   UNL     1     -13.128  14.631  71.179  1.00  0.00    -0.336 OA 
BRANCH  22  23
HETATM   23  C   UNL     1     -13.450  15.167  72.463  1.00  0.00    -0.464 C  
HETATM   24  C   UNL     1     -12.220  15.910  72.949  1.00  0.00    -0.605 C  
ENDBRANCH  22  23
ENDBRANCH  18  22
BRANCH  21  25
HETATM   25  S   UNL     1     -11.786   8.832  70.899  1.00  0.00    -0.221 S  
HETATM   26  O   UNL     1     -11.254   8.554  69.582  1.00  0.00    -0.086 OA 
HETATM   27  O   UNL     1     -12.938   8.110  71.400  1.00  0.00    -0.306 OA 
BRANCH  25  28
HETATM   28  N   UNL     1     -10.545   8.620  72.029  1.00  0.00    -0.333 N  
HETATM   29  C   UNL     1     -10.696   7.620  73.106  1.00  0.00    -0.387 C  
HETATM   30  C   UNL     1     -10.129   6.264  72.668  1.00  0.00    -0.178 C  
HETATM   31  N   UNL     1      -8.723   6.299  72.218  1.00  0.00    -0.132 NA 
HETATM   32  C   UNL     1      -8.451   7.440  71.315  1.00  0.00    -0.114 C  
HETATM   33  C   UNL     1      -7.820   6.258  73.363  1.00  0.00    -0.098 C  
HETATM   34  C   UNL     1      -9.125   8.795  71.641  1.00  0.00    -0.244 C  
ENDBRANCH  25  28
ENDBRANCH  21  25
ENDBRANCH  11  16
ENDBRANCH   3   4
ENDBRANCH   2   3
TORSDOF 7
ENDMDL
MODEL        3
REMARK 921   NORMALIZED FREE ENERGY PREDICTED BY IDOCK:   -7.82 KCAL/MOL
REMARK 922        TOTAL FREE ENERGY PREDICTED BY IDOCK:  -12.36 KCAL/MOL
REMARK 923 INTER-LIGAND FREE ENERGY PREDICTED BY IDOCK:  -10.83 KCAL/MOL
REMARK 924 INTRA-LIGAND FREE ENERGY PREDICTED BY IDOCK:   -1.54 KCAL/MOL
REMARK 927      BINDING AFFINITY PREDICTED BY RF-SCORE:    0.00 PKD
ROOT
HETATM    1  C   UNL     1     -10.052  11.824  63.357  1.00  0.00    -0.470 C  
HETATM    2  C   UNL     1     -11.482  11.593  63.827  1.00  0.00    -0.457 C  
ENDROOT
BRANCH   2   3
HETATM    3  C   UNL     1     -12.224  12.911  64.054  1.00  0.00    -0.500 C  
BRANCH   3   4
HETATM    4  C   UNL     1     -11.618  13.731  65.144  1.00  0.00    -0.331 A  
HETATM    5  N   UNL     1     -11.151  14.956  64.841  1.00  0.00    -0.405 NA 
HETATM    6  N   UNL     1     -10.704  15.448  66.019  1.00  0.00    -0.315 NA 
HETATM    7  C   UNL     1     -10.883  14.587  67.056  1.00  0.00    -0.297 A  
HETATM    8  C   UNL     1     -10.150  16.780  66.066  1.00  0.00    -0.332 C  
HETATM    9  C   UNL     1     -11.449  13.468  66.523  1.00  0.00    -0.339 A  
HETATM   10  N   UNL     1     -11.738  12.431  67.327  1.00  0.00    -0.451 NA 
HETATM   11  C   UNL     1     -11.418  12.580  68.677  1.00  0.00    -0.306 C  
HETATM   12  N   UNL     1     -10.886  13.649  69.211  1.00  0.00    -0.422 N  
HETATM   13  O   UNL     1     -10.035  15.755  68.893  1.00  0.00    -0.203 OA 
HETATM   14  H   UNL     1     -10.713  13.673  70.216  1.00  0.00     0.000 HD 
HETATM   15  C   UNL     1     -10.555  14.746  68.440  1.00  0.00    -0.242 C  
BRANCH  11  16
HETATM   16  C   UNL     1     -11.728  11.442  69.633  1.00  0.00    -0.415 A  
HETATM   17  C   UNL     1     -12.682  10.557  71.684  1.00  0.00    -0.550 A  
HETATM   18  C   UNL     1     -12.432  11.644  70.836  1.00  0.00    -0.341 A  
HETATM   19  C   UNL     1     -11.254  10.151  69.320  1.00  0.00    -0.247 A  
HETATM   20  C   UNL     1     -12.146   9.299  71.403  1.00  0.00    -0.424 A  
HETATM   21  C   UNL     1     -11.391   9.108  70.243  1.00  0.00    -0.188 A  
BRANCH  18  22
HETATM   22  O   UNL     1     -12.888  12.909  71.098  1.00  0.00    -0.326 OA 
BRANCH  22  23
HETATM   23  C   UNL     1     -13.588  13.100  72.328  1.00  0.00    -0.581 C  
HETATM   24  C   UNL     1     -13.169  14.456  72.865  1.00  0.00    -0.613 C  
ENDBRANCH  22  23
ENDBRANCH  18  22
BRANCH  21  25
HETATM   25  S   UNL     1     -10.705   7.490  69.925  1.00  0.00    -0.237 S  
HETATM   26  O   UNL     1     -11.798   6.541  69.968  1.00  0.00    -0.404 OA 
HETATM   27  O   UNL     1      -9.566   7.346  70.808  1.00  0.00    -0.170 OA 
BRANCH  25  28
HETATM   28  N   UNL     1     -10.100   7.533  68.346  1.00  0.00    -0.175 N  
HETATM   29  C   UNL     1      -8.656   7.334  68.108  1.00  0.00    -0.122 C  
HETATM   30  C   UNL     1      -8.346   5.851  67.872  1.00  0.00    -0.111 C  
HETATM   31  N   UNL     1      -9.119   5.224  66.781  1.00  0.00    -0.117 NA 
HETATM   32  C   UNL     1     -10.552   5.590  66.827  1.00  0.00    -0.291 C  
HETATM   33  C   UNL     1      -8.504   5.513  65.490  1.00  0.00    -0.144 C  
HETATM   34  C   UNL     1     -10.915   7.046  67.206  1.00  0.00    -0.302 C  
ENDBRANCH  25  28
ENDBRANCH  21  25
ENDBRANCH  11  16
ENDBRANCH   3   4
ENDBRANCH   2   3
TORSDOF 7
ENDMDL
MODEL        4
REMARK 921   NORMALIZED FREE ENERGY PREDICTED BY IDOCK:   -7.75 KCAL/MOL
REMARK 922        TOTAL FREE ENERGY PREDICTED BY IDOCK:  -12.27 KCAL/MOL
REMARK 923 INTER-LIGAND FREE ENERGY PREDICTED BY IDOCK:  -10.71 KCAL/MOL
REMARK 924 INTRA-LIGAND FREE ENERGY PREDICTED BY IDOCK:   -1.56 KCAL/MOL
REMARK 927      BINDING AFFINITY PREDICTED BY RF-SCORE:    0.00 PKD
ROOT
HETATM    1  C   UNL     1     -13.493  15.942  73.125  1.00  0.00    -0.650 C  
HETATM    2  C   UNL     1     -12.726  14.694  72.712  1.00  0.00    -0.485 C  
ENDROOT
BRANCH   2   3
HETATM    3  C   UNL     1     -13.666  13.557  72.308  1.00  0.00    -0.700 C  
BRANCH   3   4
HETATM    4  C   UNL     1     -12.993  12.529  71.461  1.00  0.00    -0.280 A  
HETATM    5  N   UNL     1     -12.922  11.266  71.919  1.00  0.00    -0.437 NA 
HETATM    6  N   UNL     1     -12.298  10.583  70.932  1.00  0.00    -0.355 NA 
HETATM    7  C   UNL     1     -11.986  11.363  69.864  1.00  0.00    -0.359 A  
HETATM    8  C   UNL     1     -12.075   9.165  71.085  1.00  0.00    -0.299 C  
HETATM    9  C   UNL     1     -12.400  12.621  70.180  1.00  0.00    -0.152 A  
HETATM   10  N   UNL     1     -12.213  13.616  69.298  1.00  0.00    -0.294 NA 
HETATM   11  C   UNL     1     -11.582  13.277  68.100  1.00  0.00    -0.338 C  
HETATM   12  N   UNL     1     -11.188  12.075  67.771  1.00  0.00    -0.251 N  
HETATM   13  O   UNL     1     -10.964   9.874  68.379  1.00  0.00    -0.231 OA 
HETATM   14  H   UNL     1     -10.759  11.921  66.858  1.00  0.00     0.000 HD 
HETATM   15  C   UNL     1     -11.340  11.009  68.636  1.00  0.00    -0.281 C  
BRANCH  11  16
HETATM   16  C   UNL     1     -11.350  14.362  67.062  1.00  0.00    -0.357 A  
HETATM   17  C   UNL     1     -11.329  15.180  64.775  1.00  0.00    -0.399 A  
HETATM   18  C   UNL     1     -11.569  14.143  65.688  1.00  0.00    -0.339 A  
HETATM   19  C   UNL     1     -10.858  15.611  67.493  1.00  0.00    -0.316 A  
HETATM   20  C   UNL     1     -10.772  16.387  65.201  1.00  0.00    -0.309 A  
HETATM   21  C   UNL     1     -10.492  16.584  66.555  1.00  0.00    -0.270 A  
BRANCH  18  22
HETATM   22  O   UNL     1     -12.061  12.922  65.311  1.00  0.00    -0.397 OA 
BRANCH  22  23
HETATM   23  C   UNL     1     -11.489  12.329  64.145  1.00  0.00    -0.383 C  
HETATM   24  C   UNL     1     -12.634  11.724  63.354  1.00  0.00    -0.458 C  
ENDBRANCH  22  23
ENDBRANCH  18  22
BRANCH  21  25
HETATM   25  S   UNL     1      -9.763  18.134  67.061  1.00  0.00    -0.321 S  
HETATM   26  O   UNL     1     -10.383  18.515  68.313  1.00  0.00    -0.369 OA 
HETATM   27  O   UNL     1      -9.821  19.010  65.909  1.00  0.00    -0.472 OA 
BRANCH  25  28
HETATM   28  N   UNL     1      -8.128  17.816  67.353  1.00  0.00    -0.208 N  
HETATM   29  C   UNL     1      -7.625  17.772  68.742  1.00  0.00    -0.260 C  
HETATM   30  C   UNL     1      -7.699  16.345  69.298  1.00  0.00    -0.171 C  
HETATM   31  N   UNL     1      -7.001  15.328  68.486  1.00  0.00    -0.109 NA 
HETATM   32  C   UNL     1      -7.278  15.478  67.040  1.00  0.00    -0.089 C  
HETATM   33  C   UNL     1      -5.573  15.326  68.788  1.00  0.00    -0.090 C  
HETATM   34  C   UNL     1      -7.359  16.912  66.464  1.00  0.00    -0.281 C  
ENDBRANCH  25  28
ENDBRANCH  21  25
ENDBRANCH  11  16
ENDBRANCH   3   4
ENDBRANCH   2   3
TORSDOF 7
ENDMDL
MODEL        5
REMARK 921   NORMALIZED FREE ENERGY PREDICTED BY IDOCK:   -7.68 KCAL/MOL
REMARK 922        TOTAL FREE ENERGY PREDICTED BY IDOCK:  -12.16 KCAL/MOL
REMARK 923 INTER-LIGAND FREE ENERGY PREDICTED BY IDOCK:  -10.76 KCAL/MOL
REMARK 924 INTRA-LIGAND FREE ENERGY PREDICTED BY IDOCK:   -1.40 KCAL/MOL
REMARK 927      BINDING AFFINITY PREDICTED BY RF-SCORE:    0.00 PKD
ROOT
HETATM    1  C   UNL     1     -10.529  11.135  64.110  1.00  0.00    -0.442 C  
HETATM    2  C   UNL     1     -11.422  12.139  63.396  1.00  0.00    -0.501 C  
ENDROOT
BRANCH   2   3
HETATM    3  C   UNL     1     -12.410  12.804  64.356  1.00  0.00    -0.498 C  
BRANCH   3   4
HETATM    4  C   UNL     1     -11.730  13.626  65.400  1.00  0.00    -0.332 A  
HETATM    5  N   UNL     1     -11.160  14.788  65.031  1.00  0.00    -0.381 NA 
HETATM    6  N   UNL     1     -10.668  15.302  66.181  1.00  0.00    -0.314 NA 
HETATM    7  C   UNL     1     -10.916  14.517  67.263  1.00  0.00    -0.305 A  
HETATM    8  C   UNL     1     -10.000  16.582  66.156  1.00  0.00    -0.343 C  
HETATM    9  C   UNL     1     -11.578  13.424  66.791  1.00  0.00    -0.365 A  
HETATM   10  N   UNL     1     -11.953  12.461  67.650  1.00  0.00    -0.481 NA 
HETATM   11  C   UNL     1     -11.616  12.655  68.990  1.00  0.00    -0.317 C  
HETATM   12  N   UNL     1     -10.991  13.700  69.465  1.00  0.00    -0.448 N  
HETATM   13  O   UNL     1      -9.962  15.705  69.034  1.00  0.00    -0.207 OA 
HETATM   14  H   UNL     1     -10.812  13.764  70.468  1.00  0.00     0.000 HD 
HETATM   15  C   UNL     1     -10.569  14.721  68.636  1.00  0.00    -0.255 C  
BRANCH  11  16
HETATM   16  C   UNL     1     -12.019  11.601  70.006  1.00  0.00    -0.429 A  
HETATM   17  C   UNL     1     -13.172  10.889  72.022  1.00  0.00    -0.456 A  
HETATM   18  C   UNL     1     -12.839  11.901  71.111  1.00  0.00    -0.249 A  
HETATM   19  C   UNL     1     -11.516  10.292  69.855  1.00  0.00    -0.340 A  
HETATM   20  C   UNL     1     -12.610   9.616  71.906  1.00  0.00    -0.481 A  
HETATM   21  C   UNL     1     -11.744   9.332  70.848  1.00  0.00    -0.296 A  
BRANCH  18  22
HETATM   22  O   UNL     1     -13.320  13.179  71.215  1.00  0.00    -0.199 OA 
BRANCH  22  23
HETATM   23  C   UNL     1     -13.560  13.672  72.534  1.00  0.00    -0.570 C  
HETATM   24  C   UNL     1     -13.698  15.179  72.420  1.00  0.00    -0.600 C  
ENDBRANCH  22  23
ENDBRANCH  18  22
BRANCH  21  25
HETATM   25  S   UNL     1     -11.029   7.698  70.741  1.00  0.00    -0.255 S  
HETATM   26  O   UNL     1      -9.806   7.811  69.976  1.00  0.00    -0.179 OA 
HETATM   27  O   UNL     1     -12.093   6.813  70.312  1.00  0.00    -0.328 OA 
BRANCH  25  28
HETATM   28  N   UNL     1     -10.628   7.252  72.323  1.00  0.00    -0.216 N  
HETATM   29  C   UNL     1     -11.037   5.929  72.838  1.00  0.00    -0.269 C  
HETATM   30  C   UNL     1      -9.942   4.887  72.580  1.00  0.00    -0.173 C  
HETATM   31  N   UNL     1      -8.613   5.240  73.119  1.00  0.00    -0.117 NA 
HETATM   32  C   UNL     1      -8.251   6.648  72.840  1.00  0.00    -0.107 C  
HETATM   33  C   UNL     1      -8.534   4.909  74.538  1.00  0.00    -0.109 C  
HETATM   34  C   UNL     1      -9.366   7.716  72.946  1.00  0.00    -0.198 C  
ENDBRANCH  25  28
ENDBRANCH  21  25
ENDBRANCH  11  16
ENDBRANCH   3   4
ENDBRANCH   2   3
TORSDOF 7
ENDMDL
MODEL        6
REMARK 921   NORMALIZED FREE ENERGY PREDICTED BY IDOCK:   -7.67 KCAL/MOL
REMARK 922        TOTAL FREE ENERGY PREDICTED BY IDOCK:  -12.16 KCAL/MOL
REMARK 923 INTER-LIGAND FREE ENERGY PREDICTED BY IDOCK:  -11.03 KCAL/MOL
REMARK 924 INTRA-LIGAND FREE ENERGY PREDICTED BY IDOCK:   -1.12 KCAL/MOL
REMARK 927      BINDING AFFINITY PREDICTED BY RF-SCORE:    0.00 PKD
ROOT
HETATM    1  C   UNL     1     -13.712  15.810  72.719  1.00  0.00    -0.639 C  
HETATM    2  C   UNL     1     -13.052  14.449  72.892  1.00  0.00    -0.612 C  
ENDROOT
BRANCH   2   3
HETATM    3  C   UNL     1     -13.802  13.354  72.131  1.00  0.00    -0.605 C  
BRANCH   3   4
HETATM    4  C   UNL     1     -12.899  12.530  71.274  1.00  0.00    -0.241 A  
HETATM    5  N   UNL     1     -12.704  11.240  71.602  1.00  0.00    -0.375 NA 
HETATM    6  N   UNL     1     -11.883  10.766  70.637  1.00  0.00    -0.342 NA 
HETATM    7  C   UNL     1     -11.562  11.704  69.706  1.00  0.00    -0.315 A  
HETATM    8  C   UNL     1     -11.482   9.380  70.666  1.00  0.00    -0.284 C  
HETATM    9  C   UNL     1     -12.182  12.852  70.098  1.00  0.00    -0.266 A  
HETATM   10  N   UNL     1     -12.037  13.963  69.357  1.00  0.00    -0.339 NA 
HETATM   11  C   UNL     1     -11.233  13.856  68.222  1.00  0.00    -0.272 C  
HETATM   12  N   UNL     1     -10.638  12.762  67.822  1.00  0.00    -0.218 N  
HETATM   13  O   UNL     1     -10.180  10.549  68.218  1.00  0.00    -0.153 OA 
HETATM   14  H   UNL     1     -10.091  12.776  66.961  1.00  0.00     0.000 HD 
HETATM   15  C   UNL     1     -10.738  11.588  68.542  1.00  0.00    -0.209 C  
BRANCH  11  16
HETATM   16  C   UNL     1     -11.038  15.079  67.344  1.00  0.00    -0.324 A  
HETATM   17  C   UNL     1     -10.954  16.182  65.181  1.00  0.00    -0.327 A  
HETATM   18  C   UNL     1     -11.154  15.021  65.942  1.00  0.00    -0.334 A  
HETATM   19  C   UNL     1     -10.687  16.299  67.958  1.00  0.00    -0.331 A  
HETATM   20  C   UNL     1     -10.535  17.366  65.790  1.00  0.00    -0.221 A  
HETATM   21  C   UNL     1     -10.355  17.411  67.175  1.00  0.00    -0.325 A  
BRANCH  18  22
HETATM   22  O   UNL     1     -11.511  13.822  65.384  1.00  0.00    -0.304 OA 
BRANCH  22  23
HETATM   23  C   UNL     1     -12.046  13.860  64.060  1.00  0.00    -0.396 C  
HETATM   24  C   UNL     1     -11.610  12.578  63.375  1.00  0.00    -0.547 C  
ENDBRANCH  22  23
ENDBRANCH  18  22
BRANCH  21  25
HETATM   25  S   UNL     1      -9.800  18.938  67.916  1.00  0.00    -0.365 S  
HETATM   26  O   UNL     1     -10.116  18.872  69.328  1.00  0.00    -0.305 OA 
HETATM   27  O   UNL     1     -10.320  20.008  67.090  1.00  0.00    -0.425 OA 
BRANCH  25  28
HETATM   28  N   UNL     1      -8.117  18.962  67.748  1.00  0.00    -0.256 N  
HETATM   29  C   UNL     1      -7.377  17.694  67.582  1.00  0.00    -0.194 C  
HETATM   30  C   UNL     1      -7.226  17.347  66.097  1.00  0.00    -0.292 C  
HETATM   31  N   UNL     1      -6.593  18.401  65.277  1.00  0.00    -0.468 NA 
HETATM   32  C   UNL     1      -7.132  19.746  65.580  1.00  0.00    -0.309 C  
HETATM   33  C   UNL     1      -5.140  18.335  65.396  1.00  0.00    -0.175 C  
HETATM   34  C   UNL     1      -7.438  20.086  67.059  1.00  0.00    -0.266 C  
ENDBRANCH  25  28
ENDBRANCH  21  25
ENDBRANCH  11  16
ENDBRANCH   3   4
ENDBRANCH   2   3
TORSDOF 7
ENDMDL
MODEL        7
REMARK 921   NORMALIZED FREE ENERGY PREDICTED BY IDOCK:   -7.51 KCAL/MOL
REMARK 922        TOTAL FREE ENERGY PREDICTED BY IDOCK:  -11.93 KCAL/MOL
REMARK 923 INTER-LIGAND FREE ENERGY PREDICTED BY IDOCK:  -10.49 KCAL/MOL
REMARK 924 INTRA-LIGAND FREE ENERGY PREDICTED BY IDOCK:   -1.44 KCAL/MOL
REMARK 927      BINDING AFFINITY PREDICTED BY RF-SCORE:    0.00 PKD
ROOT
HETATM    1  C   UNL     1     -10.468  12.052  63.506  1.00  0.00    -0.505 C  
HETATM    2  C   UNL     1     -11.245  12.678  64.655  1.00  0.00    -0.348 C  
ENDROOT
BRANCH   2   3
HETATM    3  C   UNL     1     -11.637  14.126  64.353  1.00  0.00    -0.377 C  
BRANCH   3   4
HETATM    4  C   UNL     1     -11.232  15.069  65.436  1.00  0.00    -0.356 A  
HETATM    5  N   UNL     1     -10.700  16.255  65.090  1.00  0.00    -0.604 NA 
HETATM    6  N   UNL     1     -10.474  16.881  66.267  1.00  0.00    -0.296 NA 
HETATM    7  C   UNL     1     -10.853  16.141  67.342  1.00  0.00    -0.265 A  
HETATM    8  C   UNL     1      -9.919  18.214  66.265  1.00  0.00    -0.342 C  
HETATM    9  C   UNL     1     -11.325  14.965  66.844  1.00  0.00    -0.337 A  
HETATM   10  N   UNL     1     -11.772  14.024  67.691  1.00  0.00    -0.356 NA 
HETATM   11  C   UNL     1     -11.706  14.327  69.052  1.00  0.00    -0.317 C  
HETATM   12  N   UNL     1     -11.269  15.454  69.551  1.00  0.00    -0.263 N  
HETATM   13  O   UNL     1     -10.344  17.517  69.162  1.00  0.00    -0.349 OA 
HETATM   14  H   UNL     1     -11.284  15.593  70.562  1.00  0.00     0.000 HD 
HETATM   15  C   UNL     1     -10.785  16.459  68.736  1.00  0.00    -0.321 C  
BRANCH  11  16
HETATM   16  C   UNL     1     -12.204  13.302  70.056  1.00  0.00    -0.345 A  
HETATM   17  C   UNL     1     -13.497  12.658  72.009  1.00  0.00    -0.516 A  
HETATM   18  C   UNL     1     -13.078  13.645  71.106  1.00  0.00    -0.234 A  
HETATM   19  C   UNL     1     -11.736  11.976  69.952  1.00  0.00    -0.374 A  
HETATM   20  C   UNL     1     -12.972  11.367  71.943  1.00  0.00    -0.466 A  
HETATM   21  C   UNL     1     -12.054  11.038  70.942  1.00  0.00    -0.339 A  
BRANCH  18  22
HETATM   22  O   UNL     1     -13.521  14.940  71.165  1.00  0.00    -0.386 OA 
BRANCH  22  23
HETATM   23  C   UNL     1     -13.767  15.479  72.464  1.00  0.00    -0.574 C  
HETATM   24  C   UNL     1     -12.436  15.984  72.988  1.00  0.00    -0.614 C  
ENDBRANCH  22  23
ENDBRANCH  18  22
BRANCH  21  25
HETATM   25  S   UNL     1     -11.389   9.382  70.900  1.00  0.00    -0.347 S  
HETATM   26  O   UNL     1     -12.502   8.474  70.712  1.00  0.00    -0.081 OA 
HETATM   27  O   UNL     1     -10.520   9.259  72.053  1.00  0.00    -0.250 OA 
BRANCH  25  28
HETATM   28  N   UNL     1     -10.400   9.302  69.530  1.00  0.00    -0.208 N  
HETATM   29  C   UNL     1      -8.934   9.405  69.676  1.00  0.00    -0.173 C  
HETATM   30  C   UNL     1      -8.309   8.015  69.847  1.00  0.00    -0.121 C  
HETATM   31  N   UNL     1      -8.633   7.056  68.772  1.00  0.00    -0.125 NA 
HETATM   32  C   UNL     1     -10.068   7.084  68.409  1.00  0.00    -0.164 C  
HETATM   33  C   UNL     1      -7.757   7.261  67.623  1.00  0.00    -0.112 C  
HETATM   34  C   UNL     1     -10.776   8.459  68.369  1.00  0.00    -0.023 C  
ENDBRANCH  25  28
ENDBRANCH  21  25
ENDBRANCH  11  16
ENDBRANCH   3   4
ENDBRANCH   2   3
TORSDOF 7
ENDMDL
MODEL        8
REMARK 921   NORMALIZED FREE ENERGY PREDICTED BY IDOCK:   -7.31 KCAL/MOL
REMARK 922        TOTAL FREE ENERGY PREDICTED BY IDOCK:  -11.64 KCAL/MOL
REMARK 923 INTER-LIGAND FREE ENERGY PREDICTED BY IDOCK:  -10.53 KCAL/MOL
REMARK 924 INTRA-LIGAND FREE ENERGY PREDICTED BY IDOCK:   -1.11 KCAL/MOL
REMARK 927      BINDING AFFINITY PREDICTED BY RF-SCORE:    0.00 PKD
ROOT
HETATM    1  C   UNL     1      -8.924   8.168  65.836  1.00  0.00    -0.195 C  
HETATM    2  C   UNL     1      -9.997   8.069  66.910  1.00  0.00    -0.338 C  
ENDROOT
BRANCH   2   3
HETATM    3  C   UNL     1      -9.409   8.215  68.315  1.00  0.00    -0.137 C  
BRANCH   3   4
HETATM    4  C   UNL     1     -10.441   8.563  69.336  1.00  0.00    -0.218 A  
HETATM    5  N   UNL     1     -10.928   7.582  70.117  1.00  0.00    -0.259 NA 
HETATM    6  N   UNL     1     -11.799   8.208  70.942  1.00  0.00    -0.261 NA 
HETATM    7  C   UNL     1     -11.870   9.547  70.720  1.00  0.00    -0.277 A  
HETATM    8  C   UNL     1     -12.497   7.442  71.946  1.00  0.00    -0.302 C  
HETATM    9  C   UNL     1     -11.025   9.803  69.683  1.00  0.00    -0.241 A  
HETATM   10  N   UNL     1     -10.894  11.064  69.238  1.00  0.00    -0.230 NA 
HETATM   11  C   UNL     1     -11.661  12.036  69.882  1.00  0.00    -0.299 C  
HETATM   12  N   UNL     1     -12.468  11.814  70.886  1.00  0.00    -0.363 N  
HETATM   13  O   UNL     1     -13.420  10.283  72.307  1.00  0.00    -0.377 OA 
HETATM   14  H   UNL     1     -12.968  12.596  71.309  1.00  0.00     0.000 HD 
HETATM   15  C   UNL     1     -12.658  10.540  71.386  1.00  0.00    -0.434 C  
BRANCH  11  16
HETATM   16  C   UNL     1     -11.549  13.480  69.425  1.00  0.00    -0.369 A  
HETATM   17  C   UNL     1     -12.153  15.829  69.552  1.00  0.00    -0.261 A  
HETATM   18  C   UNL     1     -12.291  14.515  70.023  1.00  0.00    -0.323 A  
HETATM   19  C   UNL     1     -10.703  13.776  68.335  1.00  0.00    -0.266 A  
HETATM   20  C   UNL     1     -11.372  16.101  68.428  1.00  0.00    -0.345 A  
HETATM   21  C   UNL     1     -10.684  15.066  67.790  1.00  0.00    -0.278 A  
BRANCH  18  22
HETATM   22  O   UNL     1     -13.090  14.189  71.087  1.00  0.00    -0.337 OA 
BRANCH  22  23
HETATM   23  C   UNL     1     -14.076  15.149  71.471  1.00  0.00    -0.540 C  
HETATM   24  C   UNL     1     -13.623  15.736  72.795  1.00  0.00    -0.662 C  
ENDBRANCH  22  23
ENDBRANCH  18  22
BRANCH  21  25
HETATM   25  S   UNL     1      -9.710  15.449  66.344  1.00  0.00    -0.312 S  
HETATM   26  O   UNL     1      -8.435  14.778  66.492  1.00  0.00    -0.147 OA 
HETATM   27  O   UNL     1      -9.775  16.886  66.174  1.00  0.00    -0.300 OA 
BRANCH  25  28
HETATM   28  N   UNL     1     -10.523  14.762  65.029  1.00  0.00    -0.417 N  
HETATM   29  C   UNL     1     -10.120  13.431  64.531  1.00  0.00    -0.192 C  
HETATM   30  C   UNL     1     -10.925  12.327  65.228  1.00  0.00    -0.307 C  
HETATM   31  N   UNL     1     -12.391  12.473  65.124  1.00  0.00    -0.573 NA 
HETATM   32  C   UNL     1     -12.836  13.861  65.377  1.00  0.00    -0.427 C  
HETATM   33  C   UNL     1     -12.866  11.952  63.846  1.00  0.00    -0.232 C  
HETATM   34  C   UNL     1     -11.968  15.012  64.814  1.00  0.00    -0.311 C  
ENDBRANCH  25  28
ENDBRANCH  21  25
ENDBRANCH  11  16
ENDBRANCH   3   4
ENDBRANCH   2   3
TORSDOF 7
ENDMDL
MODEL        9
REMARK 921   NORMALIZED FREE ENERGY PREDICTED BY IDOCK:   -7.30 KCAL/MOL
REMARK 922        TOTAL FREE ENERGY PREDICTED BY IDOCK:  -11.63 KCAL/MOL
REMARK 923 INTER-LIGAND FREE ENERGY PREDICTED BY IDOCK:  -10.32 KCAL/MOL
REMARK 924 INTRA-LIGAND FREE ENERGY PREDICTED BY IDOCK:   -1.31 KCAL/MOL
REMARK 927      BINDING AFFINITY PREDICTED BY RF-SCORE:    0.00 PKD
ROOT
HETATM    1  C   UNL     1     -10.452  11.107  63.590  1.00  0.00    -0.438 C  
HETATM    2  C   UNL     1     -11.647  11.973  63.221  1.00  0.00    -0.409 C  
ENDROOT
BRANCH   2   3
HETATM    3  C   UNL     1     -12.450  12.390  64.455  1.00  0.00    -0.520 C  
BRANCH   3   4
HETATM    4  C   UNL     1     -11.634  13.165  65.436  1.00  0.00    -0.333 A  
HETATM    5  N   UNL     1     -10.955  14.241  64.998  1.00  0.00    -0.364 NA 
HETATM    6  N   UNL     1     -10.355  14.735  66.104  1.00  0.00    -0.291 NA 
HETATM    7  C   UNL     1     -10.639  14.021  67.225  1.00  0.00    -0.273 A  
HETATM    8  C   UNL     1      -9.550  15.929  66.000  1.00  0.00    -0.350 C  
HETATM    9  C   UNL     1     -11.441  12.994  66.826  1.00  0.00    -0.345 A  
HETATM   10  N   UNL     1     -11.880  12.110  67.737  1.00  0.00    -0.514 NA 
HETATM   11  C   UNL     1     -11.460  12.310  69.053  1.00  0.00    -0.297 C  
HETATM   12  N   UNL     1     -10.701  13.294  69.460  1.00  0.00    -0.425 N  
HETATM   13  O   UNL     1      -9.475  15.153  68.907  1.00  0.00    -0.196 OA 
HETATM   14  H   UNL     1     -10.469  13.371  70.451  1.00  0.00     0.000 HD 
HETATM   15  C   UNL     1     -10.207  14.231  68.574  1.00  0.00    -0.245 C  
BRANCH  11  16
HETATM   16  C   UNL     1     -11.931  11.345  70.127  1.00  0.00    -0.460 A  
HETATM   17  C   UNL     1     -13.087  10.833  72.201  1.00  0.00    -0.350 A  
HETATM   18  C   UNL     1     -12.688  11.769  71.236  1.00  0.00    -0.316 A  
HETATM   19  C   UNL     1     -11.557   9.989  70.024  1.00  0.00    -0.279 A  
HETATM   20  C   UNL     1     -12.650   9.510  72.130  1.00  0.00    -0.411 A  
HETATM   21  C   UNL     1     -11.845   9.099  71.065  1.00  0.00    -0.292 A  
BRANCH  18  22
HETATM   22  O   UNL     1     -13.044  13.090  71.293  1.00  0.00    -0.284 OA 
BRANCH  22  23
HETATM   23  C   UNL     1     -13.807  13.504  72.427  1.00  0.00    -0.586 C  
HETATM   24  C   UNL     1     -13.034  14.629  73.089  1.00  0.00    -0.605 C  
ENDBRANCH  22  23
ENDBRANCH  18  22
BRANCH  21  25
HETATM   25  S   UNL     1     -11.289   7.402  71.017  1.00  0.00    -0.282 S  
HETATM   26  O   UNL     1     -11.271   6.993  69.628  1.00  0.00    -0.243 OA 
HETATM   27  O   UNL     1     -12.084   6.682  71.990  1.00  0.00    -0.321 OA 
BRANCH  25  28
HETATM   28  N   UNL     1      -9.698   7.407  71.591  1.00  0.00    -0.155 N  
HETATM   29  C   UNL     1      -8.790   6.295  71.246  1.00  0.00    -0.139 C  
HETATM   30  C   UNL     1      -8.015   6.607  69.960  1.00  0.00    -0.116 C  
HETATM   31  N   UNL     1      -7.258   7.875  69.988  1.00  0.00    -0.061 NA 
HETATM   32  C   UNL     1      -8.048   8.988  70.558  1.00  0.00    -0.154 C  
HETATM   33  C   UNL     1      -5.977   7.689  70.662  1.00  0.00    -0.030 C  
HETATM   34  C   UNL     1      -8.959   8.681  71.771  1.00  0.00    -0.237 C  
ENDBRANCH  25  28
ENDBRANCH  21  25
ENDBRANCH  11  16
ENDBRANCH   3   4
ENDBRANCH   2   3
TORSDOF 7
ENDMDL
MODEL       10
REMARK 921   NORMALIZED FREE ENERGY PREDICTED BY IDOCK:   -7.26 KCAL/MOL
REMARK 922        TOTAL FREE ENERGY PREDICTED BY IDOCK:  -11.58 KCAL/MOL
REMARK 923 INTER-LIGAND FREE ENERGY PREDICTED BY IDOCK:  -10.18 KCAL/MOL
REMARK 924 INTRA-LIGAND FREE ENERGY PREDICTED BY IDOCK:   -1.41 KCAL/MOL
REMARK 927      BINDING AFFINITY PREDICTED BY RF-SCORE:    0.00 PKD
ROOT
HETATM    1  C   UNL     1     -10.094  11.015  63.675  1.00  0.00    -0.428 C  
HETATM    2  C   UNL     1     -11.186  11.914  63.110  1.00  0.00    -0.248 C  
ENDROOT
BRANCH   2   3
HETATM    3  C   UNL     1     -12.152  12.385  64.198  1.00  0.00    -0.539 C  
BRANCH   3   4
HETATM    4  C   UNL     1     -11.476  13.190  65.257  1.00  0.00    -0.301 A  
HETATM    5  N   UNL     1     -10.902  14.357  64.909  1.00  0.00    -0.399 NA 
HETATM    6  N   UNL     1     -10.414  14.853  66.068  1.00  0.00    -0.301 NA 
HETATM    7  C   UNL     1     -10.669  14.052  67.137  1.00  0.00    -0.283 A  
HETATM    8  C   UNL     1      -9.744  16.131  66.065  1.00  0.00    -0.344 C  
HETATM    9  C   UNL     1     -11.332  12.968  66.646  1.00  0.00    -0.325 A  
HETATM   10  N   UNL     1     -11.712  11.993  67.489  1.00  0.00    -0.517 NA 
HETATM   11  C   UNL     1     -11.381  12.166  68.833  1.00  0.00    -0.283 C  
HETATM   12  N   UNL     1     -10.757  13.204  69.327  1.00  0.00    -0.440 N  
HETATM   13  O   UNL     1      -9.722  15.212  68.930  1.00  0.00    -0.207 OA 
HETATM   14  H   UNL     1     -10.583  13.252  70.331  1.00  0.00     0.000 HD 
HETATM   15  C   UNL     1     -10.329  14.236  68.515  1.00  0.00    -0.244 C  
BRANCH  11  16
HETATM   16  C   UNL     1     -11.792  11.098  69.832  1.00  0.00    -0.439 A  
HETATM   17  C   UNL     1     -12.789  10.386  71.929  1.00  0.00    -0.519 A  
HETATM   18  C   UNL     1     -12.441  11.413  71.041  1.00  0.00    -0.383 A  
HETATM   19  C   UNL     1     -11.468   9.755  69.551  1.00  0.00    -0.058 A  
HETATM   20  C   UNL     1     -12.399   9.069  71.679  1.00  0.00    -0.416 A  
HETATM   21  C   UNL     1     -11.697   8.761  70.511  1.00  0.00    -0.094 A  
BRANCH  18  22
HETATM   22  O   UNL     1     -12.751  12.728  71.270  1.00  0.00    -0.368 OA 
BRANCH  22  23
HETATM   23  C   UNL     1     -13.779  12.990  72.227  1.00  0.00    -0.512 C  
HETATM   24  C   UNL     1     -13.896  14.499  72.340  1.00  0.00    -0.587 C  
ENDBRANCH  22  23
ENDBRANCH  18  22
BRANCH  21  25
HETATM   25  S   UNL     1     -11.199   7.069  70.232  1.00  0.00    -0.296 S  
HETATM   26  O   UNL     1     -10.840   6.948  68.835  1.00  0.00    -0.229 OA 
HETATM   27  O   UNL     1     -12.238   6.236  70.804  1.00  0.00    -0.118 OA 
BRANCH  25  28
HETATM   28  N   UNL     1      -9.807   6.824  71.162  1.00  0.00    -0.178 N  
HETATM   29  C   UNL     1      -8.589   7.610  70.879  1.00  0.00    -0.129 C  
HETATM   30  C   UNL     1      -8.567   8.894  71.717  1.00  0.00    -0.042 C  
HETATM   31  N   UNL     1      -8.694   8.683  73.174  1.00  0.00    -0.348 NA 
HETATM   32  C   UNL     1      -9.754   7.705  73.508  1.00  0.00    -0.299 C  
HETATM   33  C   UNL     1      -7.401   8.334  73.753  1.00  0.00    -0.136 C  
HETATM   34  C   UNL     1      -9.905   6.464  72.597  1.00  0.00    -0.166 C  
ENDBRANCH  25  28
ENDBRANCH  21  25
ENDBRANCH  11  16
ENDBRANCH   3   4
ENDBRANCH   2   3
TORSDOF 7
ENDMDL
MODEL       11
REMARK 921   NORMALIZED FREE ENERGY PREDICTED BY IDOCK:   -7.16 KCAL/MOL
REMARK 922        TOTAL FREE ENERGY PREDICTED BY IDOCK:  -11.43 KCAL/MOL
REMARK 923 INTER-LIGAND FREE ENERGY PREDICTED BY IDOCK:  -10.04 KCAL/MOL
REMARK 924 INTRA-LIGAND FREE ENERGY PREDICTED BY IDOCK:   -1.39 KCAL/MOL
REMARK 927      BINDING AFFINITY PREDICTED BY RF-SCORE:    0.00 PKD
ROOT
HETATM    1  C   UNL     1     -14.295   8.424  71.710  1.00  0.00    -0.558 C  
HETATM    2  C   UNL     1     -13.344   9.502  72.212  1.00  0.00    -0.526 C  
ENDROOT
BRANCH   2   3
HETATM    3  C   UNL     1     -13.012  10.520  71.119  1.00  0.00    -0.506 C  
BRANCH   3   4
HETATM    4  C   UNL     1     -11.626  10.361  70.588  1.00  0.00    -0.349 A  
HETATM    5  N   UNL     1     -10.832   9.422  71.136  1.00  0.00    -0.331 NA 
HETATM    6  N   UNL     1      -9.680   9.502  70.433  1.00  0.00    -0.259 NA 
HETATM    7  C   UNL     1      -9.719  10.444  69.454  1.00  0.00    -0.200 A  
HETATM    8  C   UNL     1      -8.596   8.601  70.747  1.00  0.00    -0.171 C  
HETATM    9  C   UNL     1     -10.948  11.027  69.541  1.00  0.00    -0.243 A  
HETATM   10  N   UNL     1     -11.270  12.012  68.686  1.00  0.00    -0.236 NA 
HETATM   11  C   UNL     1     -10.292  12.379  67.760  1.00  0.00    -0.216 C  
HETATM   12  N   UNL     1      -9.113  11.825  67.652  1.00  0.00    -0.171 N  
HETATM   13  O   UNL     1      -7.613  10.287  68.455  1.00  0.00    -0.084 OA 
HETATM   14  H   UNL     1      -8.475  12.146  66.923  1.00  0.00     0.000 HD 
HETATM   15  C   UNL     1      -8.714  10.815  68.506  1.00  0.00    -0.149 C  
BRANCH  11  16
HETATM   16  C   UNL     1     -10.605  13.483  66.765  1.00  0.00    -0.272 A  
HETATM   17  C   UNL     1     -11.323  14.269  64.582  1.00  0.00    -0.375 A  
HETATM   18  C   UNL     1     -11.060  13.209  65.461  1.00  0.00    -0.278 A  
HETATM   19  C   UNL     1     -10.386  14.821  67.154  1.00  0.00    -0.255 A  
HETATM   20  C   UNL     1     -11.034  15.584  64.949  1.00  0.00    -0.452 A  
HETATM   21  C   UNL     1     -10.520  15.855  66.220  1.00  0.00    -0.318 A  
BRANCH  18  22
HETATM   22  O   UNL     1     -11.274  11.898  65.127  1.00  0.00    -0.311 OA 
BRANCH  22  23
HETATM   23  C   UNL     1     -10.694  11.442  63.904  1.00  0.00    -0.397 C  
HETATM   24  C   UNL     1      -9.738  10.320  64.264  1.00  0.00    -0.373 C  
ENDBRANCH  22  23
ENDBRANCH  18  22
BRANCH  21  25
HETATM   25  S   UNL     1     -10.144  17.548  66.649  1.00  0.00    -0.338 S  
HETATM   26  O   UNL     1     -10.781  17.823  67.919  1.00  0.00    -0.388 OA 
HETATM   27  O   UNL     1     -10.450  18.345  65.478  1.00  0.00    -0.610 OA 
BRANCH  25  28
HETATM   28  N   UNL     1      -8.468  17.621  66.867  1.00  0.00    -0.232 N  
HETATM   29  C   UNL     1      -7.658  18.530  66.030  1.00  0.00    -0.197 C  
HETATM   30  C   UNL     1      -7.510  19.898  66.707  1.00  0.00    -0.254 C  
HETATM   31  N   UNL     1      -6.953  19.855  68.074  1.00  0.00    -0.273 NA 
HETATM   32  C   UNL     1      -7.565  18.786  68.895  1.00  0.00    -0.278 C  
HETATM   33  C   UNL     1      -5.497  19.768  68.029  1.00  0.00    -0.194 C  
HETATM   34  C   UNL     1      -7.867  17.432  68.209  1.00  0.00    -0.247 C  
ENDBRANCH  25  28
ENDBRANCH  21  25
ENDBRANCH  11  16
ENDBRANCH   3   4
ENDBRANCH   2   3
TORSDOF 7
ENDMDL
MODEL       12
REMARK 921   NORMALIZED FREE ENERGY PREDICTED BY IDOCK:   -7.14 KCAL/MOL
REMARK 922        TOTAL FREE ENERGY PREDICTED BY IDOCK:  -11.40 KCAL/MOL
REMARK 923 INTER-LIGAND FREE ENERGY PREDICTED BY IDOCK:   -9.99 KCAL/MOL
REMARK 924 INTRA-LIGAND FREE ENERGY PREDICTED BY IDOCK:   -1.41 KCAL/MOL
REMARK 927      BINDING AFFINITY PREDICTED BY RF-SCORE:    0.00 PKD
ROOT
HETATM    1  C   UNL     1     -12.147   7.994  72.114  1.00  0.00    -0.391 C  
HETATM    2  C   UNL     1     -11.884   9.426  71.671  1.00  0.00    -0.464 C  
ENDROOT
BRANCH   2   3
HETATM    3  C   UNL     1     -13.082  10.336  71.950  1.00  0.00    -0.568 C  
BRANCH   3   4
HETATM    4  C   UNL     1     -12.896  11.713  71.406  1.00  0.00    -0.356 A  
HETATM    5  N   UNL     1     -13.229  12.760  72.182  1.00  0.00    -0.473 NA 
HETATM    6  N   UNL     1     -12.921  13.846  71.437  1.00  0.00    -0.344 NA 
HETATM    7  C   UNL     1     -12.394  13.525  70.225  1.00  0.00    -0.300 A  
HETATM    8  C   UNL     1     -13.131  15.164  71.985  1.00  0.00    -0.363 C  
HETATM    9  C   UNL     1     -12.384  12.164  70.167  1.00  0.00    -0.145 A  
HETATM   10  N   UNL     1     -11.913  11.556  69.065  1.00  0.00    -0.338 NA 
HETATM   11  C   UNL     1     -11.470  12.388  68.036  1.00  0.00    -0.322 C  
HETATM   12  N   UNL     1     -11.460  13.694  68.075  1.00  0.00    -0.291 N  
HETATM   13  O   UNL     1     -11.971  15.602  69.243  1.00  0.00    -0.365 OA 
HETATM   14  H   UNL     1     -11.091  14.217  67.280  1.00  0.00     0.000 HD 
HETATM   15  C   UNL     1     -11.939  14.382  69.173  1.00  0.00    -0.322 C  
BRANCH  11  16
HETATM   16  C   UNL     1     -10.922  11.755  66.768  1.00  0.00    -0.336 A  
HETATM   17  C   UNL     1     -10.832  11.509  64.354  1.00  0.00    -0.405 A  
HETATM   18  C   UNL     1     -11.368  12.135  65.488  1.00  0.00    -0.344 A  
HETATM   19  C   UNL     1      -9.967  10.724  66.890  1.00  0.00    -0.240 A  
HETATM   20  C   UNL     1      -9.944  10.440  64.485  1.00  0.00    -0.401 A  
HETATM   21  C   UNL     1      -9.548  10.017  65.757  1.00  0.00    -0.231 A  
BRANCH  18  22
HETATM   22  O   UNL     1     -12.284  13.150  65.411  1.00  0.00    -0.408 OA 
BRANCH  22  23
HETATM   23  C   UNL     1     -12.080  14.127  64.389  1.00  0.00    -0.463 C  
HETATM   24  C   UNL     1     -11.161  15.185  64.972  1.00  0.00    -0.414 C  
ENDBRANCH  22  23
ENDBRANCH  18  22
BRANCH  21  25
HETATM   25  S   UNL     1      -8.426   8.634  65.887  1.00  0.00    -0.155 S  
HETATM   26  O   UNL     1      -7.438   8.973  66.890  1.00  0.00    -0.089 OA 
HETATM   27  O   UNL     1      -8.024   8.302  64.535  1.00  0.00    -0.132 OA 
BRANCH  25  28
HETATM   28  N   UNL     1      -9.341   7.332  66.460  1.00  0.00    -0.173 N  
HETATM   29  C   UNL     1      -8.660   6.135  66.993  1.00  0.00    -0.108 C  
HETATM   30  C   UNL     1      -8.440   6.265  68.505  1.00  0.00    -0.115 C  
HETATM   31  N   UNL     1      -9.665   6.527  69.287  1.00  0.00    -0.144 NA 
HETATM   32  C   UNL     1     -10.519   7.562  68.661  1.00  0.00    -0.183 C  
HETATM   33  C   UNL     1     -10.384   5.283  69.542  1.00  0.00    -0.263 C  
HETATM   34  C   UNL     1     -10.650   7.556  67.119  1.00  0.00    -0.345 C  
ENDBRANCH  25  28
ENDBRANCH  21  25
ENDBRANCH  11  16
ENDBRANCH   3   4
ENDBRANCH   2   3
TORSDOF 7
ENDMDL
MODEL       13
REMARK 921   NORMALIZED FREE ENERGY PREDICTED BY IDOCK:   -7.11 KCAL/MOL
REMARK 922        TOTAL FREE ENERGY PREDICTED BY IDOCK:  -11.37 KCAL/MOL
REMARK 923 INTER-LIGAND FREE ENERGY PREDICTED BY IDOCK:   -9.96 KCAL/MOL
REMARK 924 INTRA-LIGAND FREE ENERGY PREDICTED BY IDOCK:   -1.41 KCAL/MOL
REMARK 927      BINDING AFFINITY PREDICTED BY RF-SCORE:    0.00 PKD
ROOT
HETATM    1  C   UNL     1     -13.613  15.127  72.390  1.00  0.00    -0.575 C  
HETATM    2  C   UNL     1     -13.100  15.343  70.973  1.00  0.00    -0.565 C  
ENDROOT
BRANCH   2   3
HETATM    3  C   UNL     1     -11.582  15.175  70.886  1.00  0.00    -0.380 C  
BRANCH   3   4
HETATM    4  C   UNL     1     -11.013  15.738  69.627  1.00  0.00    -0.306 A  
HETATM    5  N   UNL     1     -10.880  17.073  69.523  1.00  0.00    -0.176 NA 
HETATM    6  N   UNL     1     -10.319  17.263  68.307  1.00  0.00    -0.340 NA 
HETATM    7  C   UNL     1     -10.080  16.100  67.645  1.00  0.00    -0.248 A  
HETATM    8  C   UNL     1     -10.008  18.604  67.873  1.00  0.00    -0.350 C  
HETATM    9  C   UNL     1     -10.533  15.104  68.457  1.00  0.00    -0.233 A  
HETATM   10  N   UNL     1     -10.429  13.828  68.052  1.00  0.00    -0.239 NA 
HETATM   11  C   UNL     1      -9.862  13.616  66.795  1.00  0.00    -0.271 C  
HETATM   12  N   UNL     1      -9.410  14.555  66.006  1.00  0.00    -0.507 N  
HETATM   13  O   UNL     1      -9.108  16.800  65.639  1.00  0.00    -0.489 OA 
HETATM   14  H   UNL     1      -8.987  14.298  65.114  1.00  0.00     0.000 HD 
HETATM   15  C   UNL     1      -9.496  15.889  66.356  1.00  0.00    -0.295 C  
BRANCH  11  16
HETATM   16  C   UNL     1      -9.714  12.192  66.289  1.00  0.00    -0.251 A  
HETATM   17  C   UNL     1      -9.884  10.497  64.557  1.00  0.00    -0.401 A  
HETATM   18  C   UNL     1     -10.032  11.830  64.966  1.00  0.00    -0.254 A  
HETATM   19  C   UNL     1      -9.286  11.197  67.193  1.00  0.00    -0.176 A  
HETATM   20  C   UNL     1      -9.532   9.508  65.476  1.00  0.00    -0.334 A  
HETATM   21  C   UNL     1      -9.279   9.852  66.807  1.00  0.00    -0.148 A  
BRANCH  18  22
HETATM   22  O   UNL     1     -10.429  12.827  64.114  1.00  0.00    -0.385 OA 
BRANCH  22  23
HETATM   23  C   UNL     1     -11.685  12.650  63.457  1.00  0.00    -0.531 C  
HETATM   24  C   UNL     1     -12.755  12.713  64.532  1.00  0.00    -0.439 C  
ENDBRANCH  22  23
ENDBRANCH  18  22
BRANCH  21  25
HETATM   25  S   UNL     1      -8.849   8.557  67.959  1.00  0.00    -0.142 S  
HETATM   26  O   UNL     1      -7.816   9.078  68.828  1.00  0.00    -0.094 OA 
HETATM   27  O   UNL     1      -8.620   7.364  67.169  1.00  0.00    -0.116 OA 
BRANCH  25  28
HETATM   28  N   UNL     1     -10.233   8.270  68.889  1.00  0.00    -0.207 N  
HETATM   29  C   UNL     1     -10.425   6.955  69.533  1.00  0.00    -0.223 C  
HETATM   30  C   UNL     1      -9.832   6.954  70.947  1.00  0.00    -0.185 C  
HETATM   31  N   UNL     1     -10.345   8.019  71.833  1.00  0.00    -0.210 NA 
HETATM   32  C   UNL     1     -10.406   9.333  71.153  1.00  0.00    -0.322 C  
HETATM   33  C   UNL     1     -11.624   7.627  72.415  1.00  0.00    -0.336 C  
HETATM   34  C   UNL     1     -10.860   9.361  69.674  1.00  0.00    -0.228 C  
ENDBRANCH  25  28
ENDBRANCH  21  25
ENDBRANCH  11  16
ENDBRANCH   3   4
ENDBRANCH   2   3
TORSDOF 7
ENDMDL
MODEL       14
REMARK 921   NORMALIZED FREE ENERGY PREDICTED BY IDOCK:   -7.01 KCAL/MOL
REMARK 922        TOTAL FREE ENERGY PREDICTED BY IDOCK:  -11.22 KCAL/MOL
REMARK 923 INTER-LIGAND FREE ENERGY PREDICTED BY IDOCK:  -10.01 KCAL/MOL
REMARK 924 INTRA-LIGAND FREE ENERGY PREDICTED BY IDOCK:   -1.21 KCAL/MOL
REMARK 927      BINDING AFFINITY PREDICTED BY RF-SCORE:    0.00 PKD
ROOT
HETATM    1  C   UNL     1     -13.875  15.446  72.780  1.00  0.00    -0.576 C  
HETATM    2  C   UNL     1     -13.040  14.252  72.339  1.00  0.00    -0.519 C  
ENDROOT
BRANCH   2   3
HETATM    3  C   UNL     1     -13.860  12.961  72.322  1.00  0.00    -0.464 C  
BRANCH   3   4
HETATM    4  C   UNL     1     -13.144  11.834  71.654  1.00  0.00    -0.338 A  
HETATM    5  N   UNL     1     -13.354  10.584  72.105  1.00  0.00    -0.366 NA 
HETATM    6  N   UNL     1     -12.606   9.802  71.292  1.00  0.00    -0.341 NA 
HETATM    7  C   UNL     1     -11.944  10.510  70.338  1.00  0.00    -0.335 A  
HETATM    8  C   UNL     1     -12.617   8.372  71.481  1.00  0.00    -0.308 C  
HETATM    9  C   UNL     1     -12.253  11.818  70.557  1.00  0.00    -0.347 A  
HETATM   10  N   UNL     1     -11.728  12.760  69.756  1.00  0.00    -0.304 NA 
HETATM   11  C   UNL     1     -10.876  12.314  68.743  1.00  0.00    -0.229 C  
HETATM   12  N   UNL     1     -10.577  11.064  68.509  1.00  0.00    -0.179 N  
HETATM   13  O   UNL     1     -10.800   8.867  69.133  1.00  0.00    -0.182 OA 
HETATM   14  H   UNL     1      -9.964  10.834  67.726  1.00  0.00     0.000 HD 
HETATM   15  C   UNL     1     -11.073  10.047  69.301  1.00  0.00    -0.206 C  
BRANCH  11  16
HETATM   16  C   UNL     1     -10.259  13.335  67.803  1.00  0.00    -0.228 A  
HETATM   17  C   UNL     1      -9.996  14.362  65.618  1.00  0.00    -0.365 A  
HETATM   18  C   UNL     1     -10.606  13.404  66.440  1.00  0.00    -0.285 A  
HETATM   19  C   UNL     1      -9.275  14.208  68.311  1.00  0.00    -0.198 A  
HETATM   20  C   UNL     1      -8.971  15.171  66.110  1.00  0.00    -0.201 A  
HETATM   21  C   UNL     1      -8.578  15.061  67.447  1.00  0.00    -0.192 A  
BRANCH  18  22
HETATM   22  O   UNL     1     -11.576  12.549  65.989  1.00  0.00    -0.362 OA 
BRANCH  22  23
HETATM   23  C   UNL     1     -11.327  11.890  64.747  1.00  0.00    -0.283 C  
HETATM   24  C   UNL     1     -12.340  12.428  63.754  1.00  0.00    -0.625 C  
ENDBRANCH  22  23
ENDBRANCH  18  22
BRANCH  21  25
HETATM   25  S   UNL     1      -7.251  16.100  68.037  1.00  0.00    -0.136 S  
HETATM   26  O   UNL     1      -6.253  16.164  66.989  1.00  0.00    -0.292 OA 
HETATM   27  O   UNL     1      -6.906  15.614  69.358  1.00  0.00    -0.161 OA 
BRANCH  25  28
HETATM   28  N   UNL     1      -7.910  17.644  68.238  1.00  0.00    -0.246 N  
HETATM   29  C   UNL     1      -7.465  18.752  67.369  1.00  0.00    -0.223 C  
HETATM   30  C   UNL     1      -8.355  18.855  66.125  1.00  0.00    -0.193 C  
HETATM   31  N   UNL     1      -9.798  18.997  66.408  1.00  0.00    -0.360 NA 
HETATM   32  C   UNL     1     -10.257  18.065  67.462  1.00  0.00    -0.369 C  
HETATM   33  C   UNL     1     -10.125  20.388  66.704  1.00  0.00    -0.322 C  
HETATM   34  C   UNL     1      -9.319  17.819  68.668  1.00  0.00    -0.275 C  
ENDBRANCH  25  28
ENDBRANCH  21  25
ENDBRANCH  11  16
ENDBRANCH   3   4
ENDBRANCH   2   3
TORSDOF 7
ENDMDL
MODEL       15
REMARK 921   NORMALIZED FREE ENERGY PREDICTED BY IDOCK:   -6.98 KCAL/MOL
REMARK 922        TOTAL FREE ENERGY PREDICTED BY IDOCK:  -11.18 KCAL/MOL
REMARK 923 INTER-LIGAND FREE ENERGY PREDICTED BY IDOCK:   -9.56 KCAL/MOL
REMARK 924 INTRA-LIGAND FREE ENERGY PREDICTED BY IDOCK:   -1.62 KCAL/MOL
REMARK 927      BINDING AFFINITY PREDICTED BY RF-SCORE:    0.00 PKD
ROOT
HETATM    1  C   UNL     1     -13.202   9.228  72.297  1.00  0.00    -0.535 C  
HETATM    2  C   UNL     1     -12.460  10.005  71.218  1.00  0.00    -0.494 C  
ENDROOT
BRANCH   2   3
HETATM    3  C   UNL     1     -10.968   9.664  71.198  1.00  0.00    -0.430 C  
BRANCH   3   4
HETATM    4  C   UNL     1     -10.637   8.595  70.211  1.00  0.00    -0.223 A  
HETATM    5  N   UNL     1     -10.483   7.335  70.658  1.00  0.00    -0.212 NA 
HETATM    6  N   UNL     1     -10.227   6.611  69.545  1.00  0.00    -0.176 NA 
HETATM    7  C   UNL     1     -10.225   7.362  68.412  1.00  0.00    -0.183 A  
HETATM    8  C   UNL     1     -10.031   5.185  69.658  1.00  0.00    -0.243 C  
HETATM    9  C   UNL     1     -10.465   8.643  68.808  1.00  0.00    -0.185 A  
HETATM   10  N   UNL     1     -10.516   9.618  67.886  1.00  0.00    -0.231 NA 
HETATM   11  C   UNL     1     -10.302   9.235  66.561  1.00  0.00    -0.200 C  
HETATM   12  N   UNL     1     -10.082   8.011  66.158  1.00  0.00    -0.442 N  
HETATM   13  O   UNL     1      -9.780   5.808  66.724  1.00  0.00    -0.138 OA 
HETATM   14  H   UNL     1      -9.964   7.826  65.161  1.00  0.00     0.000 HD 
HETATM   15  C   UNL     1     -10.007   6.963  67.055  1.00  0.00    -0.197 C  
BRANCH  11  16
HETATM   16  C   UNL     1     -10.354  10.296  65.475  1.00  0.00    -0.239 A  
HETATM   17  C   UNL     1      -9.594  11.270  63.384  1.00  0.00    -0.351 A  
HETATM   18  C   UNL     1      -9.508  10.258  64.350  1.00  0.00    -0.302 A  
HETATM   19  C   UNL     1     -11.250  11.373  65.629  1.00  0.00    -0.144 A  
HETATM   20  C   UNL     1     -10.430  12.370  63.580  1.00  0.00    -0.460 A  
HETATM   21  C   UNL     1     -11.224  12.444  64.728  1.00  0.00    -0.310 A  
BRANCH  18  22
HETATM   22  O   UNL     1      -8.661   9.187  64.229  1.00  0.00    -0.199 OA 
BRANCH  22  23
HETATM   23  C   UNL     1      -7.397   9.432  63.612  1.00  0.00    -0.107 C  
HETATM   24  C   UNL     1      -6.453   9.884  64.711  1.00  0.00    -0.120 C  
ENDBRANCH  22  23
ENDBRANCH  18  22
BRANCH  21  25
HETATM   25  S   UNL     1     -12.268  13.875  64.955  1.00  0.00    -0.426 S  
HETATM   26  O   UNL     1     -13.496  13.420  65.571  1.00  0.00    -0.400 OA 
HETATM   27  O   UNL     1     -12.291  14.572  63.685  1.00  0.00    -0.704 OA 
BRANCH  25  28
HETATM   28  N   UNL     1     -11.463  14.881  66.051  1.00  0.00    -0.318 N  
HETATM   29  C   UNL     1     -11.769  14.788  67.493  1.00  0.00    -0.348 C  
HETATM   30  C   UNL     1     -10.836  13.784  68.181  1.00  0.00    -0.246 C  
HETATM   31  N   UNL     1      -9.395  14.053  67.996  1.00  0.00    -0.198 NA 
HETATM   32  C   UNL     1      -9.064  14.397  66.595  1.00  0.00    -0.240 C  
HETATM   33  C   UNL     1      -8.939  15.063  68.946  1.00  0.00    -0.202 C  
HETATM   34  C   UNL     1     -10.058  15.291  65.815  1.00  0.00    -0.356 C  
ENDBRANCH  25  28
ENDBRANCH  21  25
ENDBRANCH  11  16
ENDBRANCH   3   4
ENDBRANCH   2   3
TORSDOF 7
ENDMDL
MODEL       16
REMARK 921   NORMALIZED FREE ENERGY PREDICTED BY IDOCK:   -6.94 KCAL/MOL
REMARK 922        TOTAL FREE ENERGY PREDICTED BY IDOCK:  -11.13 KCAL/MOL
REMARK 923 INTER-LIGAND FREE ENERGY PREDICTED BY IDOCK:  -10.01 KCAL/MOL
REMARK 924 INTRA-LIGAND FREE ENERGY PREDICTED BY IDOCK:   -1.13 KCAL/MOL
REMARK 927      BINDING AFFINITY PREDICTED BY RF-SCORE:    0.00 PKD
ROOT
HETATM    1  C   UNL     1     -10.537   6.006  66.921  1.00  0.00    -0.384 C  
HETATM    2  C   UNL     1     -10.555   7.522  67.049  1.00  0.00    -0.409 C  
ENDROOT
BRANCH   2   3
HETATM    3  C   UNL     1      -9.790   7.996  68.286  1.00  0.00    -0.190 C  
BRANCH   3   4
HETATM    4  C   UNL     1     -10.650   8.764  69.234  1.00  0.00    -0.197 A  
HETATM    5  N   UNL     1     -11.129   8.132  70.321  1.00  0.00    -0.248 NA 
HETATM    6  N   UNL     1     -11.828   9.082  70.983  1.00  0.00    -0.287 NA 
HETATM    7  C   UNL     1     -11.798  10.292  70.363  1.00  0.00    -0.309 A  
HETATM    8  C   UNL     1     -12.467   8.748  72.233  1.00  0.00    -0.386 C  
HETATM    9  C   UNL     1     -11.067  10.115  69.227  1.00  0.00    -0.225 A  
HETATM   10  N   UNL     1     -10.872  11.157  68.402  1.00  0.00    -0.190 NA 
HETATM   11  C   UNL     1     -11.458  12.367  68.777  1.00  0.00    -0.304 C  
HETATM   12  N   UNL     1     -12.153  12.561  69.867  1.00  0.00    -0.287 N  
HETATM   13  O   UNL     1     -13.064  11.662  71.771  1.00  0.00    -0.465 OA 
HETATM   14  H   UNL     1     -12.520  13.492  70.067  1.00  0.00     0.000 HD 
HETATM   15  C   UNL     1     -12.400  11.530  70.752  1.00  0.00    -0.375 C  
BRANCH  11  16
HETATM   16  C   UNL     1     -11.265  13.581  67.884  1.00  0.00    -0.302 A  
HETATM   17  C   UNL     1     -11.494  14.751  65.768  1.00  0.00    -0.322 A  
HETATM   18  C   UNL     1     -11.708  13.606  66.548  1.00  0.00    -0.382 A  
HETATM   19  C   UNL     1     -10.580  14.698  68.406  1.00  0.00    -0.241 A  
HETATM   20  C   UNL     1     -10.751  15.822  66.268  1.00  0.00    -0.282 A  
HETATM   21  C   UNL     1     -10.253  15.774  67.573  1.00  0.00    -0.265 A  
BRANCH  18  22
HETATM   22  O   UNL     1     -12.382  12.508  66.083  1.00  0.00    -0.596 OA 
BRANCH  22  23
HETATM   23  C   UNL     1     -12.286  12.238  64.683  1.00  0.00    -0.369 C  
HETATM   24  C   UNL     1     -11.063  11.361  64.489  1.00  0.00    -0.302 C  
ENDBRANCH  22  23
ENDBRANCH  18  22
BRANCH  21  25
HETATM   25  S   UNL     1      -9.291  17.154  68.172  1.00  0.00    -0.272 S  
HETATM   26  O   UNL     1      -8.197  16.612  68.952  1.00  0.00    -0.235 OA 
HETATM   27  O   UNL     1     -10.231  18.084  68.763  1.00  0.00    -0.377 OA 
BRANCH  25  28
HETATM   28  N   UNL     1      -8.645  17.912  66.805  1.00  0.00    -0.246 N  
HETATM   29  C   UNL     1      -9.099  19.268  66.434  1.00  0.00    -0.352 C  
HETATM   30  C   UNL     1      -8.207  20.333  67.083  1.00  0.00    -0.334 C  
HETATM   31  N   UNL     1      -6.766  20.195  66.790  1.00  0.00    -0.213 NA 
HETATM   32  C   UNL     1      -6.301  18.795  66.910  1.00  0.00    -0.179 C  
HETATM   33  C   UNL     1      -6.452  20.785  65.492  1.00  0.00    -0.197 C  
HETATM   34  C   UNL     1      -7.238  17.675  66.398  1.00  0.00    -0.284 C  
ENDBRANCH  25  28
ENDBRANCH  21  25
ENDBRANCH  11  16
ENDBRANCH   3   4
ENDBRANCH   2   3
TORSDOF 7
ENDMDL
MODEL       17
REMARK 921   NORMALIZED FREE ENERGY PREDICTED BY IDOCK:   -6.94 KCAL/MOL
REMARK 922        TOTAL FREE ENERGY PREDICTED BY IDOCK:  -11.12 KCAL/MOL
REMARK 923 INTER-LIGAND FREE ENERGY PREDICTED BY IDOCK:  -10.15 KCAL/MOL
REMARK 924 INTRA-LIGAND FREE ENERGY PREDICTED BY IDOCK:   -0.98 KCAL/MOL
REMARK 927      BINDING AFFINITY PREDICTED BY RF-SCORE:    0.00 PKD
ROOT
HETATM    1  C   UNL     1     -10.982   6.182  67.201  1.00  0.00    -0.420 C  
HETATM    2  C   UNL     1     -10.894   6.325  68.714  1.00  0.00    -0.398 C  
ENDROOT
BRANCH   2   3
HETATM    3  C   UNL     1     -10.089   7.560  69.122  1.00  0.00    -0.192 C  
BRANCH   3   4
HETATM    4  C   UNL     1     -10.919   8.578  69.830  1.00  0.00    -0.165 A  
HETATM    5  N   UNL     1     -11.679   8.179  70.866  1.00  0.00    -0.273 NA 
HETATM    6  N   UNL     1     -12.272   9.312  71.307  1.00  0.00    -0.320 NA 
HETATM    7  C   UNL     1     -11.906  10.412  70.598  1.00  0.00    -0.350 A  
HETATM    8  C   UNL     1     -13.153   9.251  72.448  1.00  0.00    -0.406 C  
HETATM    9  C   UNL     1     -11.054   9.972  69.630  1.00  0.00    -0.259 A  
HETATM   10  N   UNL     1     -10.530  10.855  68.765  1.00  0.00    -0.190 NA 
HETATM   11  C   UNL     1     -10.917  12.187  68.921  1.00  0.00    -0.224 C  
HETATM   12  N   UNL     1     -11.723  12.632  69.849  1.00  0.00    -0.480 N  
HETATM   13  O   UNL     1     -13.082  12.147  71.632  1.00  0.00    -0.418 OA 
HETATM   14  H   UNL     1     -11.926  13.631  69.898  1.00  0.00     0.000 HD 
HETATM   15  C   UNL     1     -12.305  11.777  70.764  1.00  0.00    -0.337 C  
BRANCH  11  16
HETATM   16  C   UNL     1     -10.350  13.230  67.973  1.00  0.00    -0.243 A  
HETATM   17  C   UNL     1     -10.235  14.336  65.814  1.00  0.00    -0.351 A  
HETATM   18  C   UNL     1     -10.802  13.361  66.646  1.00  0.00    -0.282 A  
HETATM   19  C   UNL     1      -9.306  14.060  68.433  1.00  0.00    -0.210 A  
HETATM   20  C   UNL     1      -9.153  15.102  66.253  1.00  0.00    -0.313 A  
HETATM   21  C   UNL     1      -8.659  14.930  67.548  1.00  0.00    -0.184 A  
BRANCH  18  22
HETATM   22  O   UNL     1     -11.827  12.546  66.242  1.00  0.00    -0.414 OA 
BRANCH  22  23
HETATM   23  C   UNL     1     -12.611  12.997  65.136  1.00  0.00    -0.469 C  
HETATM   24  C   UNL     1     -12.252  12.113  63.956  1.00  0.00    -0.544 C  
ENDBRANCH  22  23
ENDBRANCH  18  22
BRANCH  21  25
HETATM   25  S   UNL     1      -7.262  15.914  68.068  1.00  0.00    -0.140 S  
HETATM   26  O   UNL     1      -6.362  16.018  66.939  1.00  0.00    -0.306 OA 
HETATM   27  O   UNL     1      -6.811  15.353  69.326  1.00  0.00    -0.132 OA 
BRANCH  25  28
HETATM   28  N   UNL     1      -7.869  17.456  68.409  1.00  0.00    -0.247 N  
HETATM   29  C   UNL     1      -7.331  18.631  67.693  1.00  0.00    -0.224 C  
HETATM   30  C   UNL     1      -8.147  18.911  66.425  1.00  0.00    -0.292 C  
HETATM   31  N   UNL     1      -9.596  19.088  66.649  1.00  0.00    -0.326 NA 
HETATM   32  C   UNL     1     -10.150  18.068  67.568  1.00  0.00    -0.351 C  
HETATM   33  C   UNL     1      -9.882  20.451  67.083  1.00  0.00    -0.461 C  
HETATM   34  C   UNL     1      -9.290  17.647  68.784  1.00  0.00    -0.228 C  
ENDBRANCH  25  28
ENDBRANCH  21  25
ENDBRANCH  11  16
ENDBRANCH   3   4
ENDBRANCH   2   3
TORSDOF 7
ENDMDL
MODEL       18
REMARK 921   NORMALIZED FREE ENERGY PREDICTED BY IDOCK:   -6.92 KCAL/MOL
REMARK 922        TOTAL FREE ENERGY PREDICTED BY IDOCK:  -11.10 KCAL/MOL
REMARK 923 INTER-LIGAND FREE ENERGY PREDICTED BY IDOCK:   -9.56 KCAL/MOL
REMARK 924 INTRA-LIGAND FREE ENERGY PREDICTED BY IDOCK:   -1.54 KCAL/MOL
REMARK 927      BINDING AFFINITY PREDICTED BY RF-SCORE:    0.00 PKD
ROOT
HETATM    1  C   UNL     1     -13.387  10.606  71.794  1.00  0.00    -0.437 C  
HETATM    2  C   UNL     1     -13.029   9.128  71.743  1.00  0.00    -0.448 C  
ENDROOT
BRANCH   2   3
HETATM    3  C   UNL     1     -11.515   8.910  71.751  1.00  0.00    -0.423 C  
BRANCH   3   4
HETATM    4  C   UNL     1     -10.971   8.612  70.393  1.00  0.00    -0.235 A  
HETATM    5  N   UNL     1     -10.578   7.355  70.120  1.00  0.00    -0.225 NA 
HETATM    6  N   UNL     1     -10.175   7.399  68.830  1.00  0.00    -0.191 NA 
HETATM    7  C   UNL     1     -10.310   8.632  68.274  1.00  0.00    -0.207 A  
HETATM    8  C   UNL     1      -9.705   6.192  68.194  1.00  0.00    -0.120 C  
HETATM    9  C   UNL     1     -10.799   9.438  69.258  1.00  0.00    -0.172 A  
HETATM   10  N   UNL     1     -11.032  10.734  68.991  1.00  0.00    -0.221 NA 
HETATM   11  C   UNL     1     -10.735  11.168  67.698  1.00  0.00    -0.230 C  
HETATM   12  N   UNL     1     -10.276  10.410  66.737  1.00  0.00    -0.217 N  
HETATM   13  O   UNL     1      -9.554   8.332  66.083  1.00  0.00    -0.209 OA 
HETATM   14  H   UNL     1     -10.114  10.815  65.814  1.00  0.00     0.000 HD 
HETATM   15  C   UNL     1     -10.005   9.071  66.947  1.00  0.00    -0.246 C  
BRANCH  11  16
HETATM   16  C   UNL     1     -10.983  12.622  67.339  1.00  0.00    -0.289 A  
HETATM   17  C   UNL     1     -11.880  14.357  65.895  1.00  0.00    -0.371 A  
HETATM   18  C   UNL     1     -11.689  12.998  66.180  1.00  0.00    -0.394 A  
HETATM   19  C   UNL     1     -10.448  13.623  68.176  1.00  0.00    -0.250 A  
HETATM   20  C   UNL     1     -11.284  15.339  66.687  1.00  0.00    -0.232 A  
HETATM   21  C   UNL     1     -10.528  14.970  67.802  1.00  0.00    -0.249 A  
BRANCH  18  22
HETATM   22  O   UNL     1     -12.206  11.997  65.401  1.00  0.00    -0.458 OA 
BRANCH  22  23
HETATM   23  C   UNL     1     -12.225  12.222  63.991  1.00  0.00    -0.475 C  
HETATM   24  C   UNL     1     -10.847  11.858  63.470  1.00  0.00    -0.502 C  
ENDBRANCH  22  23
ENDBRANCH  18  22
BRANCH  21  25
HETATM   25  S   UNL     1      -9.765  16.253  68.782  1.00  0.00    -0.250 S  
HETATM   26  O   UNL     1      -8.533  15.713  69.318  1.00  0.00    -0.237 OA 
HETATM   27  O   UNL     1     -10.795  16.763  69.664  1.00  0.00    -0.333 OA 
BRANCH  25  28
HETATM   28  N   UNL     1      -9.376  17.501  67.709  1.00  0.00    -0.254 N  
HETATM   29  C   UNL     1      -9.729  18.896  68.046  1.00  0.00    -0.337 C  
HETATM   30  C   UNL     1      -8.579  19.579  68.796  1.00  0.00    -0.298 C  
HETATM   31  N   UNL     1      -7.281  19.553  68.092  1.00  0.00    -0.285 NA 
HETATM   32  C   UNL     1      -6.983  18.223  67.515  1.00  0.00    -0.199 C  
HETATM   33  C   UNL     1      -7.216  20.624  67.104  1.00  0.00    -0.335 C  
HETATM   34  C   UNL     1      -8.151  17.434  66.876  1.00  0.00    -0.227 C  
ENDBRANCH  25  28
ENDBRANCH  21  25
ENDBRANCH  11  16
ENDBRANCH   3   4
ENDBRANCH   2   3
TORSDOF 7
ENDMDL
MODEL       19
REMARK 921   NORMALIZED FREE ENERGY PREDICTED BY IDOCK:   -6.89 KCAL/MOL
REMARK 922        TOTAL FREE ENERGY PREDICTED BY IDOCK:  -11.06 KCAL/MOL
REMARK 923 INTER-LIGAND FREE ENERGY PREDICTED BY IDOCK:   -9.71 KCAL/MOL
REMARK 924 INTRA-LIGAND FREE ENERGY PREDICTED BY IDOCK:   -1.35 KCAL/MOL
REMARK 927      BINDING AFFINITY PREDICTED BY RF-SCORE:    0.00 PKD
ROOT
HETATM    1  C   UNL     1      -6.791   9.981  70.131  1.00  0.00    -0.137 C  
HETATM    2  C   UNL     1      -7.149   8.973  71.214  1.00  0.00    -0.093 C  
ENDROOT
BRANCH   2   3
HETATM    3  C   UNL     1      -7.844   7.740  70.634  1.00  0.00    -0.096 C  
BRANCH   3   4
HETATM    4  C   UNL     1      -9.291   7.673  70.995  1.00  0.00    -0.152 A  
HETATM    5  N   UNL     1      -9.740   6.585  71.648  1.00  0.00    -0.164 NA 
HETATM    6  N   UNL     1     -11.052   6.834  71.857  1.00  0.00    -0.239 NA 
HETATM    7  C   UNL     1     -11.447   8.042  71.372  1.00  0.00    -0.258 A  
HETATM    8  C   UNL     1     -11.852   5.866  72.569  1.00  0.00    -0.185 C  
HETATM    9  C   UNL     1     -10.344   8.595  70.795  1.00  0.00    -0.204 A  
HETATM   10  N   UNL     1     -10.440   9.806  70.221  1.00  0.00    -0.270 NA 
HETATM   11  C   UNL     1     -11.696  10.413  70.251  1.00  0.00    -0.321 C  
HETATM   12  N   UNL     1     -12.764   9.905  70.809  1.00  0.00    -0.498 N  
HETATM   13  O   UNL     1     -13.717   8.138  71.919  1.00  0.00    -0.346 OA 
HETATM   14  H   UNL     1     -13.634  10.439  70.803  1.00  0.00     0.000 HD 
HETATM   15  C   UNL     1     -12.737   8.660  71.407  1.00  0.00    -0.276 C  
BRANCH  11  16
HETATM   16  C   UNL     1     -11.861  11.786  69.623  1.00  0.00    -0.407 A  
HETATM   17  C   UNL     1     -12.396  14.152  69.737  1.00  0.00    -0.350 A  
HETATM   18  C   UNL     1     -12.251  12.911  70.374  1.00  0.00    -0.304 A  
HETATM   19  C   UNL     1     -11.659  11.918  68.233  1.00  0.00    -0.390 A  
HETATM   20  C   UNL     1     -12.267  14.259  68.352  1.00  0.00    -0.197 A  
HETATM   21  C   UNL     1     -11.944  13.130  67.594  1.00  0.00    -0.315 A  
BRANCH  18  22
HETATM   22  O   UNL     1     -12.424  12.745  71.722  1.00  0.00    -0.076 OA 
BRANCH  22  23
HETATM   23  C   UNL     1     -13.566  13.372  72.308  1.00  0.00    -0.605 C  
HETATM   24  C   UNL     1     -13.048  14.515  73.161  1.00  0.00    -0.553 C  
ENDBRANCH  22  23
ENDBRANCH  18  22
BRANCH  21  25
HETATM   25  S   UNL     1     -11.804  13.301  65.822  1.00  0.00    -0.411 S  
HETATM   26  O   UNL     1     -12.929  14.095  65.374  1.00  0.00    -0.706 OA 
HETATM   27  O   UNL     1     -11.584  11.968  65.297  1.00  0.00    -0.336 OA 
BRANCH  25  28
HETATM   28  N   UNL     1     -10.387  14.180  65.539  1.00  0.00    -0.333 N  
HETATM   29  C   UNL     1     -10.470  15.559  65.017  1.00  0.00    -0.362 C  
HETATM   30  C   UNL     1     -10.518  16.571  66.168  1.00  0.00    -0.294 C  
HETATM   31  N   UNL     1      -9.399  16.470  67.126  1.00  0.00    -0.229 NA 
HETATM   32  C   UNL     1      -9.108  15.069  67.504  1.00  0.00    -0.185 C  
HETATM   33  C   UNL     1      -8.226  17.172  66.616  1.00  0.00    -0.256 C  
HETATM   34  C   UNL     1      -9.192  13.990  66.397  1.00  0.00    -0.162 C  
ENDBRANCH  25  28
ENDBRANCH  21  25
ENDBRANCH  11  16
ENDBRANCH   3   4
ENDBRANCH   2   3
TORSDOF 7
ENDMDL
MODEL       20
REMARK 921   NORMALIZED FREE ENERGY PREDICTED BY IDOCK:   -6.88 KCAL/MOL
REMARK 922        TOTAL FREE ENERGY PREDICTED BY IDOCK:  -11.05 KCAL/MOL
REMARK 923 INTER-LIGAND FREE ENERGY PREDICTED BY IDOCK:   -9.57 KCAL/MOL
REMARK 924 INTRA-LIGAND FREE ENERGY PREDICTED BY IDOCK:   -1.48 KCAL/MOL
REMARK 927      BINDING AFFINITY PREDICTED BY RF-SCORE:    0.00 PKD
ROOT
HETATM    1  C   UNL     1      -9.415   8.720  66.053  1.00  0.00    -0.302 C  
HETATM    2  C   UNL     1     -10.389   8.362  67.168  1.00  0.00    -0.381 C  
ENDROOT
BRANCH   2   3
HETATM    3  C   UNL     1      -9.813   8.681  68.549  1.00  0.00    -0.183 C  
BRANCH   3   4
HETATM    4  C   UNL     1     -10.668   9.629  69.322  1.00  0.00    -0.226 A  
HETATM    5  N   UNL     1     -11.288   9.178  70.428  1.00  0.00    -0.248 NA 
HETATM    6  N   UNL     1     -11.944  10.257  70.912  1.00  0.00    -0.344 NA 
HETATM    7  C   UNL     1     -11.751  11.375  70.162  1.00  0.00    -0.328 A  
HETATM    8  C   UNL     1     -12.708  10.133  72.130  1.00  0.00    -0.225 C  
HETATM    9  C   UNL     1     -10.954  11.000  69.123  1.00  0.00    -0.237 A  
HETATM   10  N   UNL     1     -10.597  11.913  68.205  1.00  0.00    -0.205 NA 
HETATM   11  C   UNL     1     -11.094  13.205  68.385  1.00  0.00    -0.268 C  
HETATM   12  N   UNL     1     -11.850  13.589  69.380  1.00  0.00    -0.317 N  
HETATM   13  O   UNL     1     -12.988  13.009  71.286  1.00  0.00    -0.324 OA 
HETATM   14  H   UNL     1     -12.142  14.565  69.439  1.00  0.00     0.000 HD 
HETATM   15  C   UNL     1     -12.262  12.698  70.352  1.00  0.00    -0.288 C  
BRANCH  11  16
HETATM   16  C   UNL     1     -10.718  14.280  67.380  1.00  0.00    -0.282 A  
HETATM   17  C   UNL     1     -11.090  15.534  65.334  1.00  0.00    -0.303 A  
HETATM   18  C   UNL     1     -11.492  14.535  66.232  1.00  0.00    -0.358 A  
HETATM   19  C   UNL     1      -9.530  15.010  67.589  1.00  0.00    -0.195 A  
HETATM   20  C   UNL     1      -9.876  16.200  65.509  1.00  0.00    -0.190 A  
HETATM   21  C   UNL     1      -9.073  15.904  66.613  1.00  0.00    -0.260 A  
BRANCH  18  22
HETATM   22  O   UNL     1     -12.646  13.815  66.072  1.00  0.00    -0.454 OA 
BRANCH  22  23
HETATM   23  C   UNL     1     -12.781  13.076  64.857  1.00  0.00    -0.390 C  
HETATM   24  C   UNL     1     -11.742  11.972  64.897  1.00  0.00    -0.321 C  
ENDBRANCH  22  23
ENDBRANCH  18  22
BRANCH  21  25
HETATM   25  S   UNL     1      -7.518  16.763  66.795  1.00  0.00    -0.272 S  
HETATM   26  O   UNL     1      -7.412  17.701  65.697  1.00  0.00    -0.508 OA 
HETATM   27  O   UNL     1      -6.508  15.744  66.998  1.00  0.00    -0.299 OA 
BRANCH  25  28
HETATM   28  N   UNL     1      -7.626  17.641  68.237  1.00  0.00    -0.247 N  
HETATM   29  C   UNL     1      -6.658  17.389  69.324  1.00  0.00    -0.240 C  
HETATM   30  C   UNL     1      -5.445  18.317  69.194  1.00  0.00    -0.198 C  
HETATM   31  N   UNL     1      -5.772  19.757  69.144  1.00  0.00    -0.219 NA 
HETATM   32  C   UNL     1      -6.910  20.043  68.243  1.00  0.00    -0.302 C  
HETATM   33  C   UNL     1      -5.973  20.280  70.492  1.00  0.00    -0.330 C  
HETATM   34  C   UNL     1      -8.095  19.047  68.237  1.00  0.00    -0.324 C  
ENDBRANCH  25  28
ENDBRANCH  21  25
ENDBRANCH  11  16
ENDBRANCH   3   4
ENDBRANCH   2   3
TORSDOF 7
ENDMDL
MODEL       21
REMARK 921   NORMALIZED FREE ENERGY PREDICTED BY IDOCK:   -6.84 KCAL/MOL
REMARK 922        TOTAL FREE ENERGY PREDICTED BY IDOCK:  -10.98 KCAL/MOL
REMARK 923 INTER-LIGAND FREE ENERGY PREDICTED BY IDOCK:  -10.26 KCAL/MOL
REMARK 924 INTRA-LIGAND FREE ENERGY PREDICTED BY IDOCK:   -0.72 KCAL/MOL
REMARK 927      BINDING AFFINITY PREDICTED BY RF-SCORE:    0.00 PKD
ROOT
HETATM    1  C   UNL     1     -10.186   5.811  66.323  1.00  0.00    -0.129 C  
HETATM    2  C   UNL     1     -10.959   6.837  67.139  1.00  0.00    -0.458 C  
ENDROOT
BRANCH   2   3
HETATM    3  C   UNL     1     -10.224   8.177  67.209  1.00  0.00    -0.348 C  
BRANCH   3   4
HETATM    4  C   UNL     1     -10.776   9.081  68.261  1.00  0.00    -0.103 A  
HETATM    5  N   UNL     1     -10.976   8.582  69.495  1.00  0.00    -0.118 NA 
HETATM    6  N   UNL     1     -11.441   9.631  70.212  1.00  0.00    -0.251 NA 
HETATM    7  C   UNL     1     -11.529  10.774  69.482  1.00  0.00    -0.294 A  
HETATM    8  C   UNL     1     -11.743   9.452  71.612  1.00  0.00    -0.398 C  
HETATM    9  C   UNL     1     -11.128  10.450  68.221  1.00  0.00    -0.281 A  
HETATM   10  N   UNL     1     -11.117  11.398  67.270  1.00  0.00    -0.287 NA 
HETATM   11  C   UNL     1     -11.539  12.672  67.655  1.00  0.00    -0.357 C  
HETATM   12  N   UNL     1     -11.915  13.008  68.861  1.00  0.00    -0.296 N  
HETATM   13  O   UNL     1     -12.328  12.344  71.018  1.00  0.00    -0.349 OA 
HETATM   14  H   UNL     1     -12.181  13.974  69.051  1.00  0.00     0.000 HD 
HETATM   15  C   UNL     1     -11.960  12.079  69.882  1.00  0.00    -0.318 C  
BRANCH  11  16
HETATM   16  C   UNL     1     -11.541  13.785  66.622  1.00  0.00    -0.392 A  
HETATM   17  C   UNL     1     -11.926  14.637  64.380  1.00  0.00    -0.454 A  
HETATM   18  C   UNL     1     -11.955  13.573  65.293  1.00  0.00    -0.373 A  
HETATM   19  C   UNL     1     -11.069  15.058  67.003  1.00  0.00    -0.334 A  
HETATM   20  C   UNL     1     -11.389  15.872  64.745  1.00  0.00    -0.314 A  
HETATM   21  C   UNL     1     -10.916  16.068  66.046  1.00  0.00    -0.097 A  
BRANCH  18  22
HETATM   22  O   UNL     1     -12.419  12.327  64.965  1.00  0.00    -0.535 OA 
BRANCH  22  23
HETATM   23  C   UNL     1     -12.137  11.860  63.645  1.00  0.00    -0.477 C  
HETATM   24  C   UNL     1     -10.680  11.436  63.633  1.00  0.00    -0.470 C  
ENDBRANCH  22  23
ENDBRANCH  18  22
BRANCH  21  25
HETATM   25  S   UNL     1     -10.219  17.656  66.472  1.00  0.00    -0.345 S  
HETATM   26  O   UNL     1     -10.681  17.987  67.804  1.00  0.00    -0.410 OA 
HETATM   27  O   UNL     1     -10.490  18.537  65.355  1.00  0.00    -0.538 OA 
BRANCH  25  28
HETATM   28  N   UNL     1      -8.543  17.438  66.530  1.00  0.00    -0.251 N  
HETATM   29  C   UNL     1      -7.679  18.518  67.048  1.00  0.00    -0.225 C  
HETATM   30  C   UNL     1      -7.456  18.356  68.556  1.00  0.00    -0.293 C  
HETATM   31  N   UNL     1      -6.908  17.046  68.962  1.00  0.00    -0.219 NA 
HETATM   32  C   UNL     1      -7.582  15.920  68.278  1.00  0.00    -0.135 C  
HETATM   33  C   UNL     1      -5.459  17.024  68.789  1.00  0.00    -0.137 C  
HETATM   34  C   UNL     1      -7.959  16.099  66.788  1.00  0.00    -0.272 C  
ENDBRANCH  25  28
ENDBRANCH  21  25
ENDBRANCH  11  16
ENDBRANCH   3   4
ENDBRANCH   2   3
TORSDOF 7
ENDMDL
MODEL       22
REMARK 921   NORMALIZED FREE ENERGY PREDICTED BY IDOCK:   -6.84 KCAL/MOL
REMARK 922        TOTAL FREE ENERGY PREDICTED BY IDOCK:  -10.98 KCAL/MOL
REMARK 923 INTER-LIGAND FREE ENERGY PREDICTED BY IDOCK:  -10.05 KCAL/MOL
REMARK 924 INTRA-LIGAND FREE ENERGY PREDICTED BY IDOCK:   -0.93 KCAL/MOL
REMARK 927      BINDING AFFINITY PREDICTED BY RF-SCORE:    0.00 PKD
ROOT
HETATM    1  C   UNL     1      -9.954  19.278  68.846  1.00  0.00    -0.495 C  
HETATM    2  C   UNL     1      -9.077  18.132  68.361  1.00  0.00    -0.318 C  
ENDROOT
BRANCH   2   3
HETATM    3  C   UNL     1      -9.563  16.781  68.891  1.00  0.00    -0.249 C  
BRANCH   3   4
HETATM    4  C   UNL     1     -10.236  15.962  67.841  1.00  0.00    -0.251 A  
HETATM    5  N   UNL     1     -10.351  16.474  66.603  1.00  0.00    -0.299 NA 
HETATM    6  N   UNL     1     -10.961  15.500  65.890  1.00  0.00    -0.300 NA 
HETATM    7  C   UNL     1     -11.224  14.389  66.627  1.00  0.00    -0.339 A  
HETATM    8  C   UNL     1     -11.223  15.709  64.486  1.00  0.00    -0.325 C  
HETATM    9  C   UNL     1     -10.789  14.661  67.888  1.00  0.00    -0.259 A  
HETATM   10  N   UNL     1     -10.926  13.729  68.846  1.00  0.00    -0.249 NA 
HETATM   11  C   UNL     1     -11.530  12.529  68.468  1.00  0.00    -0.305 C  
HETATM   12  N   UNL     1     -11.944  12.243  67.261  1.00  0.00    -0.240 N  
HETATM   13  O   UNL     1     -12.238  12.943  65.096  1.00  0.00    -0.415 OA 
HETATM   14  H   UNL     1     -12.350  11.326  67.076  1.00  0.00     0.000 HD 
HETATM   15  C   UNL     1     -11.842  13.159  66.233  1.00  0.00    -0.401 C  
BRANCH  11  16
HETATM   16  C   UNL     1     -11.705  11.438  69.509  1.00  0.00    -0.417 A  
HETATM   17  C   UNL     1     -12.440  10.637  71.682  1.00  0.00    -0.416 A  
HETATM   18  C   UNL     1     -12.313  11.682  70.755  1.00  0.00    -0.358 A  
HETATM   19  C   UNL     1     -11.200  10.152  69.228  1.00  0.00    -0.247 A  
HETATM   20  C   UNL     1     -11.871   9.389  71.425  1.00  0.00    -0.447 A  
HETATM   21  C   UNL     1     -11.209   9.160  70.216  1.00  0.00    -0.218 A  
BRANCH  18  22
HETATM   22  O   UNL     1     -12.804  12.940  70.985  1.00  0.00    -0.282 OA 
BRANCH  22  23
HETATM   23  C   UNL     1     -13.597  13.118  72.160  1.00  0.00    -0.544 C  
HETATM   24  C   UNL     1     -14.195  14.510  72.078  1.00  0.00    -0.630 C  
ENDBRANCH  22  23
ENDBRANCH  18  22
BRANCH  21  25
HETATM   25  S   UNL     1     -10.478   7.556  69.930  1.00  0.00    -0.233 S  
HETATM   26  O   UNL     1     -11.530   6.571  70.069  1.00  0.00    -0.380 OA 
HETATM   27  O   UNL     1      -9.291   7.493  70.758  1.00  0.00    -0.162 OA 
BRANCH  25  28
HETATM   28  N   UNL     1      -9.955   7.553  68.322  1.00  0.00    -0.167 N  
HETATM   29  C   UNL     1      -8.527   7.332  68.015  1.00  0.00    -0.123 C  
HETATM   30  C   UNL     1      -8.245   5.840  67.802  1.00  0.00    -0.101 C  
HETATM   31  N   UNL     1      -9.079   5.195  66.768  1.00  0.00    -0.116 NA 
HETATM   32  C   UNL     1     -10.505   5.579  66.878  1.00  0.00    -0.287 C  
HETATM   33  C   UNL     1      -8.529   5.445  65.440  1.00  0.00    -0.144 C  
HETATM   34  C   UNL     1     -10.832   7.048  67.238  1.00  0.00    -0.333 C  
ENDBRANCH  25  28
ENDBRANCH  21  25
ENDBRANCH  11  16
ENDBRANCH   3   4
ENDBRANCH   2   3
TORSDOF 7
ENDMDL
MODEL       23
REMARK 921   NORMALIZED FREE ENERGY PREDICTED BY IDOCK:   -6.80 KCAL/MOL
REMARK 922        TOTAL FREE ENERGY PREDICTED BY IDOCK:  -10.93 KCAL/MOL
REMARK 923 INTER-LIGAND FREE ENERGY PREDICTED BY IDOCK:   -9.89 KCAL/MOL
REMARK 924 INTRA-LIGAND FREE ENERGY PREDICTED BY IDOCK:   -1.04 KCAL/MOL
REMARK 927      BINDING AFFINITY PREDICTED BY RF-SCORE:    0.00 PKD
ROOT
HETATM    1  C   UNL     1      -7.635  19.340  67.852  1.00  0.00    -0.312 C  
HETATM    2  C   UNL     1      -8.800  18.538  68.416  1.00  0.00    -0.346 C  
ENDROOT
BRANCH   2   3
HETATM    3  C   UNL     1      -8.604  17.034  68.215  1.00  0.00    -0.234 C  
BRANCH   3   4
HETATM    4  C   UNL     1      -9.678  16.422  67.381  1.00  0.00    -0.238 A  
HETATM    5  N   UNL     1      -9.927  16.948  66.168  1.00  0.00    -0.359 NA 
HETATM    6  N   UNL     1     -10.909  16.170  65.657  1.00  0.00    -0.283 NA 
HETATM    7  C   UNL     1     -11.280  15.166  66.495  1.00  0.00    -0.283 A  
HETATM    8  C   UNL     1     -11.410  16.442  64.331  1.00  0.00    -0.027 C  
HETATM    9  C   UNL     1     -10.523  15.312  67.618  1.00  0.00    -0.263 A  
HETATM   10  N   UNL     1     -10.680  14.448  68.634  1.00  0.00    -0.246 NA 
HETATM   11  C   UNL     1     -11.640  13.450  68.461  1.00  0.00    -0.333 C  
HETATM   12  N   UNL     1     -12.369  13.284  67.388  1.00  0.00    -0.162 N  
HETATM   13  O   UNL     1     -12.942  14.039  65.299  1.00  0.00    -0.743 OA 
HETATM   14  H   UNL     1     -13.027  12.506  67.346  1.00  0.00     0.000 HD 
HETATM   15  C   UNL     1     -12.264  14.143  66.311  1.00  0.00    -0.449 C  
BRANCH  11  16
HETATM   16  C   UNL     1     -11.857  12.442  69.576  1.00  0.00    -0.368 A  
HETATM   17  C   UNL     1     -12.801  11.765  71.709  1.00  0.00    -0.403 A  
HETATM   18  C   UNL     1     -12.644  12.733  70.707  1.00  0.00    -0.225 A  
HETATM   19  C   UNL     1     -11.209  11.192  69.489  1.00  0.00    -0.341 A  
HETATM   20  C   UNL     1     -12.097  10.561  71.651  1.00  0.00    -0.197 A  
HETATM   21  C   UNL     1     -11.263  10.295  70.562  1.00  0.00    -0.330 A  
BRANCH  18  22
HETATM   22  O   UNL     1     -13.269  13.951  70.747  1.00  0.00    -0.215 OA 
BRANCH  22  23
HETATM   23  C   UNL     1     -14.079  14.222  71.892  1.00  0.00    -0.499 C  
HETATM   24  C   UNL     1     -13.447  15.403  72.606  1.00  0.00    -0.630 C  
ENDBRANCH  22  23
ENDBRANCH  18  22
BRANCH  21  25
HETATM   25  S   UNL     1     -10.364   8.752  70.530  1.00  0.00    -0.215 S  
HETATM   26  O   UNL     1      -9.040   9.013  71.054  1.00  0.00    -0.222 OA 
HETATM   27  O   UNL     1     -10.540   8.203  69.201  1.00  0.00    -0.219 OA 
BRANCH  25  28
HETATM   28  N   UNL     1     -11.164   7.714  71.599  1.00  0.00    -0.243 N  
HETATM   29  C   UNL     1     -11.688   6.421  71.113  1.00  0.00    -0.298 C  
HETATM   30  C   UNL     1     -10.640   5.315  71.286  1.00  0.00    -0.172 C  
HETATM   31  N   UNL     1     -10.130   5.157  72.663  1.00  0.00    -0.171 NA 
HETATM   32  C   UNL     1      -9.815   6.457  73.297  1.00  0.00    -0.170 C  
HETATM   33  C   UNL     1     -11.051   4.351  73.459  1.00  0.00    -0.303 C  
HETATM   34  C   UNL     1     -10.771   7.644  73.027  1.00  0.00    -0.391 C  
ENDBRANCH  25  28
ENDBRANCH  21  25
ENDBRANCH  11  16
ENDBRANCH   3   4
ENDBRANCH   2   3
TORSDOF 7
ENDMDL
MODEL       24
REMARK 921   NORMALIZED FREE ENERGY PREDICTED BY IDOCK:   -6.80 KCAL/MOL
REMARK 922        TOTAL FREE ENERGY PREDICTED BY IDOCK:  -10.92 KCAL/MOL
REMARK 923 INTER-LIGAND FREE ENERGY PREDICTED BY IDOCK:   -9.61 KCAL/MOL
REMARK 924 INTRA-LIGAND FREE ENERGY PREDICTED BY IDOCK:   -1.32 KCAL/MOL
REMARK 927      BINDING AFFINITY PREDICTED BY RF-SCORE:    0.00 PKD
ROOT
HETATM    1  C   UNL     1     -13.637   9.050  72.350  1.00  0.00    -0.533 C  
HETATM    2  C   UNL     1     -13.245   9.988  71.217  1.00  0.00    -0.469 C  
ENDROOT
BRANCH   2   3
HETATM    3  C   UNL     1     -11.731  10.192  71.146  1.00  0.00    -0.453 C  
BRANCH   3   4
HETATM    4  C   UNL     1     -11.136   9.650  69.889  1.00  0.00    -0.235 A  
HETATM    5  N   UNL     1     -10.799   8.348  69.847  1.00  0.00    -0.233 NA 
HETATM    6  N   UNL     1     -10.330   8.160  68.593  1.00  0.00    -0.208 NA 
HETATM    7  C   UNL     1     -10.370   9.290  67.837  1.00  0.00    -0.227 A  
HETATM    8  C   UNL     1      -9.894   6.845  68.190  1.00  0.00    -0.136 C  
HETATM    9  C   UNL     1     -10.864  10.268  68.646  1.00  0.00    -0.234 A  
HETATM   10  N   UNL     1     -11.012  11.511  68.159  1.00  0.00    -0.212 NA 
HETATM   11  C   UNL     1     -10.628  11.712  66.832  1.00  0.00    -0.241 C  
HETATM   12  N   UNL     1     -10.163  10.785  66.036  1.00  0.00    -0.247 N  
HETATM   13  O   UNL     1      -9.522   8.598  65.772  1.00  0.00    -0.206 OA 
HETATM   14  H   UNL     1      -9.934  11.024  65.070  1.00  0.00     0.000 HD 
HETATM   15  C   UNL     1      -9.976   9.489  66.475  1.00  0.00    -0.261 C  
BRANCH  11  16
HETATM   16  C   UNL     1     -10.779  13.096  66.228  1.00  0.00    -0.295 A  
HETATM   17  C   UNL     1     -11.780  14.661  64.662  1.00  0.00    -0.431 A  
HETATM   18  C   UNL     1     -11.690  13.364  65.188  1.00  0.00    -0.321 A  
HETATM   19  C   UNL     1      -9.945  14.131  66.699  1.00  0.00    -0.280 A  
HETATM   20  C   UNL     1     -10.900  15.660  65.082  1.00  0.00    -0.448 A  
HETATM   21  C   UNL     1      -9.951  15.381  66.068  1.00  0.00    -0.324 A  
BRANCH  18  22
HETATM   22  O   UNL     1     -12.493  12.337  64.768  1.00  0.00    -0.454 OA 
BRANCH  22  23
HETATM   23  C   UNL     1     -12.534  12.084  63.363  1.00  0.00    -0.509 C  
HETATM   24  C   UNL     1     -11.158  11.582  62.968  1.00  0.00     0.018 C  
ENDBRANCH  22  23
ENDBRANCH  18  22
BRANCH  21  25
HETATM   25  S   UNL     1      -8.829  16.678  66.567  1.00  0.00    -0.304 S  
HETATM   26  O   UNL     1      -9.093  17.826  65.724  1.00  0.00    -0.503 OA 
HETATM   27  O   UNL     1      -7.509  16.084  66.616  1.00  0.00    -0.218 OA 
BRANCH  25  28
HETATM   28  N   UNL     1      -9.245  17.079  68.157  1.00  0.00    -0.238 N  
HETATM   29  C   UNL     1     -10.618  17.528  68.466  1.00  0.00    -0.312 C  
HETATM   30  C   UNL     1     -11.504  16.336  68.846  1.00  0.00    -0.282 C  
HETATM   31  N   UNL     1     -10.990  15.515  69.960  1.00  0.00    -0.292 NA 
HETATM   32  C   UNL     1      -9.542  15.234  69.828  1.00  0.00    -0.129 C  
HETATM   33  C   UNL     1     -11.331  16.122  71.242  1.00  0.00    -0.288 C  
HETATM   34  C   UNL     1      -8.631  16.370  69.305  1.00  0.00    -0.106 C  
ENDBRANCH  25  28
ENDBRANCH  21  25
ENDBRANCH  11  16
ENDBRANCH   3   4
ENDBRANCH   2   3
TORSDOF 7
ENDMDL
MODEL       25
REMARK 921   NORMALIZED FREE ENERGY PREDICTED BY IDOCK:   -6.76 KCAL/MOL
REMARK 922        TOTAL FREE ENERGY PREDICTED BY IDOCK:  -10.87 KCAL/MOL
REMARK 923 INTER-LIGAND FREE ENERGY PREDICTED BY IDOCK:   -9.51 KCAL/MOL
REMARK 924 INTRA-LIGAND FREE ENERGY PREDICTED BY IDOCK:   -1.36 KCAL/MOL
REMARK 927      BINDING AFFINITY PREDICTED BY RF-SCORE:    0.00 PKD
ROOT
HETATM    1  C   UNL     1     -13.215   9.892  71.720  1.00  0.00    -0.535 C  
HETATM    2  C   UNL     1     -12.446  10.650  70.647  1.00  0.00    -0.462 C  
ENDROOT
BRANCH   2   3
HETATM    3  C   UNL     1     -10.985  10.201  70.572  1.00  0.00    -0.380 C  
BRANCH   3   4
HETATM    4  C   UNL     1     -10.569   9.832  69.187  1.00  0.00    -0.218 A  
HETATM    5  N   UNL     1     -10.438   8.528  68.881  1.00  0.00    -0.211 NA 
HETATM    6  N   UNL     1     -10.090   8.521  67.574  1.00  0.00    -0.203 NA 
HETATM    7  C   UNL     1     -10.009   9.768  67.040  1.00  0.00    -0.203 A  
HETATM    8  C   UNL     1      -9.889   7.259  66.902  1.00  0.00    -0.214 C  
HETATM    9  C   UNL     1     -10.291  10.633  68.054  1.00  0.00    -0.178 A  
HETATM   10  N   UNL     1     -10.281  11.954  67.814  1.00  0.00    -0.196 NA 
HETATM   11  C   UNL     1      -9.963  12.349  66.513  1.00  0.00    -0.230 C  
HETATM   12  N   UNL     1      -9.701  11.537  65.523  1.00  0.00    -0.225 N  
HETATM   13  O   UNL     1      -9.422   9.374  64.812  1.00  0.00    -0.201 OA 
HETATM   14  H   UNL     1      -9.505  11.922  64.599  1.00  0.00     0.000 HD 
HETATM   15  C   UNL     1      -9.685  10.168  65.704  1.00  0.00    -0.259 C  
BRANCH  11  16
HETATM   16  C   UNL     1      -9.943  13.832  66.183  1.00  0.00    -0.318 A  
HETATM   17  C   UNL     1     -10.877  15.814  65.136  1.00  0.00    -0.444 A  
HETATM   18  C   UNL     1     -10.954  14.442  65.417  1.00  0.00    -0.339 A  
HETATM   19  C   UNL     1      -8.849  14.604  66.625  1.00  0.00    -0.240 A  
HETATM   20  C   UNL     1      -9.756  16.554  65.513  1.00  0.00     0.023 A  
HETATM   21  C   UNL     1      -8.719  15.937  66.217  1.00  0.00    -0.337 A  
BRANCH  18  22
HETATM   22  O   UNL     1     -12.006  13.661  65.019  1.00  0.00    -0.346 OA 
BRANCH  22  23
HETATM   23  C   UNL     1     -12.137  13.421  63.617  1.00  0.00    -0.450 C  
HETATM   24  C   UNL     1     -12.614  11.990  63.460  1.00  0.00    -0.625 C  
ENDBRANCH  22  23
ENDBRANCH  18  22
BRANCH  21  25
HETATM   25  S   UNL     1      -7.292  16.912  66.667  1.00  0.00    -0.284 S  
HETATM   26  O   UNL     1      -7.068  17.867  65.603  1.00  0.00    -0.485 OA 
HETATM   27  O   UNL     1      -6.257  15.972  67.047  1.00  0.00    -0.314 OA 
BRANCH  25  28
HETATM   28  N   UNL     1      -7.719  17.762  68.065  1.00  0.00    -0.231 N  
HETATM   29  C   UNL     1      -7.627  19.237  68.084  1.00  0.00    -0.290 C  
HETATM   30  C   UNL     1      -8.955  19.867  67.649  1.00  0.00    -0.335 C  
HETATM   31  N   UNL     1     -10.131  19.434  68.431  1.00  0.00    -0.423 NA 
HETATM   32  C   UNL     1     -10.147  17.971  68.655  1.00  0.00    -0.394 C  
HETATM   33  C   UNL     1     -10.226  20.195  69.672  1.00  0.00     0.206 C  
HETATM   34  C   UNL     1      -8.799  17.270  68.954  1.00  0.00    -0.173 C  
ENDBRANCH  25  28
ENDBRANCH  21  25
ENDBRANCH  11  16
ENDBRANCH   3   4
ENDBRANCH   2   3
TORSDOF 7
ENDMDL
MODEL       26
REMARK 921   NORMALIZED FREE ENERGY PREDICTED BY IDOCK:   -6.72 KCAL/MOL
REMARK 922        TOTAL FREE ENERGY PREDICTED BY IDOCK:  -10.82 KCAL/MOL
REMARK 923 INTER-LIGAND FREE ENERGY PREDICTED BY IDOCK:   -9.74 KCAL/MOL
REMARK 924 INTRA-LIGAND FREE ENERGY PREDICTED BY IDOCK:   -1.08 KCAL/MOL
REMARK 927      BINDING AFFINITY PREDICTED BY RF-SCORE:    0.00 PKD
ROOT
HETATM    1  C   UNL     1     -13.659  13.020  72.094  1.00  0.00    -0.618 C  
HETATM    2  C   UNL     1     -12.726  12.078  71.347  1.00  0.00    -0.380 C  
ENDROOT
BRANCH   2   3
HETATM    3  C   UNL     1     -12.923  10.623  71.777  1.00  0.00    -0.577 C  
BRANCH   3   4
HETATM    4  C   UNL     1     -11.841   9.725  71.278  1.00  0.00    -0.399 A  
HETATM    5  N   UNL     1     -11.333   8.804  72.117  1.00  0.00    -0.360 NA 
HETATM    6  N   UNL     1     -10.416   8.141  71.376  1.00  0.00    -0.207 NA 
HETATM    7  C   UNL     1     -10.335   8.599  70.099  1.00  0.00    -0.207 A  
HETATM    8  C   UNL     1      -9.684   7.047  71.969  1.00  0.00    -0.155 C  
HETATM    9  C   UNL     1     -11.222   9.628  70.010  1.00  0.00    -0.231 A  
HETATM   10  N   UNL     1     -11.354  10.283  68.844  1.00  0.00    -0.209 NA 
HETATM   11  C   UNL     1     -10.543   9.855  67.792  1.00  0.00    -0.261 C  
HETATM   12  N   UNL     1      -9.695   8.862  67.853  1.00  0.00    -0.155 N  
HETATM   13  O   UNL     1      -8.702   7.235  69.130  1.00  0.00    -0.135 OA 
HETATM   14  H   UNL     1      -9.164   8.606  67.020  1.00  0.00     0.000 HD 
HETATM   15  C   UNL     1      -9.502   8.154  69.023  1.00  0.00    -0.155 C  
BRANCH  11  16
HETATM   16  C   UNL     1     -10.655  10.555  66.450  1.00  0.00    -0.218 A  
HETATM   17  C   UNL     1     -10.156  10.755  64.081  1.00  0.00    -0.418 A  
HETATM   18  C   UNL     1     -10.025  10.060  65.292  1.00  0.00    -0.298 A  
HETATM   19  C   UNL     1     -11.378  11.764  66.379  1.00  0.00    -0.361 A  
HETATM   20  C   UNL     1     -10.810  11.987  64.036  1.00  0.00    -0.433 A  
HETATM   21  C   UNL     1     -11.381  12.515  65.198  1.00  0.00    -0.313 A  
BRANCH  18  22
HETATM   22  O   UNL     1      -9.344   8.876  65.397  1.00  0.00    -0.193 OA 
BRANCH  22  23
HETATM   23  C   UNL     1      -8.315   8.637  64.437  1.00  0.00    -0.139 C  
HETATM   24  C   UNL     1      -7.036   9.217  65.012  1.00  0.00    -0.086 C  
ENDBRANCH  22  23
ENDBRANCH  18  22
BRANCH  21  25
HETATM   25  S   UNL     1     -12.193  14.102  65.107  1.00  0.00    -0.444 S  
HETATM   26  O   UNL     1     -13.507  13.949  65.695  1.00  0.00    -0.590 OA 
HETATM   27  O   UNL     1     -12.043  14.563  63.742  1.00  0.00    -0.437 OA 
BRANCH  25  28
HETATM   28  N   UNL     1     -11.294  15.152  66.081  1.00  0.00    -0.278 N  
HETATM   29  C   UNL     1     -11.642  15.311  67.507  1.00  0.00    -0.214 C  
HETATM   30  C   UNL     1     -10.860  14.313  68.369  1.00  0.00    -0.253 C  
HETATM   31  N   UNL     1      -9.393  14.374  68.208  1.00  0.00    -0.200 NA 
HETATM   32  C   UNL     1      -8.988  14.465  66.787  1.00  0.00    -0.233 C  
HETATM   33  C   UNL     1      -8.836  15.449  69.023  1.00  0.00    -0.231 C  
HETATM   34  C   UNL     1      -9.843  15.349  65.847  1.00  0.00    -0.356 C  
ENDBRANCH  25  28
ENDBRANCH  21  25
ENDBRANCH  11  16
ENDBRANCH   3   4
ENDBRANCH   2   3
TORSDOF 7
ENDMDL
MODEL       27
REMARK 921   NORMALIZED FREE ENERGY PREDICTED BY IDOCK:   -6.70 KCAL/MOL
REMARK 922        TOTAL FREE ENERGY PREDICTED BY IDOCK:  -10.79 KCAL/MOL
REMARK 923 INTER-LIGAND FREE ENERGY PREDICTED BY IDOCK:   -9.59 KCAL/MOL
REMARK 924 INTRA-LIGAND FREE ENERGY PREDICTED BY IDOCK:   -1.19 KCAL/MOL
REMARK 927      BINDING AFFINITY PREDICTED BY RF-SCORE:    0.00 PKD
ROOT
HETATM    1  C   UNL     1     -10.410   5.302  74.554  1.00  0.00    -0.286 C  
HETATM    2  C   UNL     1      -9.255   6.282  74.403  1.00  0.00    -0.185 C  
ENDROOT
BRANCH   2   3
HETATM    3  C   UNL     1      -8.258   5.825  73.338  1.00  0.00    -0.112 C  
BRANCH   3   4
HETATM    4  C   UNL     1      -8.883   5.677  71.991  1.00  0.00    -0.138 A  
HETATM    5  N   UNL     1      -8.712   4.520  71.327  1.00  0.00    -0.110 NA 
HETATM    6  N   UNL     1      -9.411   4.681  70.180  1.00  0.00    -0.158 NA 
HETATM    7  C   UNL     1     -10.028   5.890  70.101  1.00  0.00    -0.191 A  
HETATM    8  C   UNL     1      -9.464   3.601  69.225  1.00  0.00    -0.174 C  
HETATM    9  C   UNL     1      -9.692   6.560  71.239  1.00  0.00    -0.173 A  
HETATM   10  N   UNL     1     -10.164   7.803  71.433  1.00  0.00    -0.182 NA 
HETATM   11  C   UNL     1     -10.972   8.329  70.423  1.00  0.00    -0.239 C  
HETATM   12  N   UNL     1     -11.315   7.699  69.331  1.00  0.00    -0.428 N  
HETATM   13  O   UNL     1     -11.135   5.808  68.044  1.00  0.00    -0.178 OA 
HETATM   14  H   UNL     1     -11.934   8.159  68.662  1.00  0.00     0.000 HD 
HETATM   15  C   UNL     1     -10.857   6.424  69.064  1.00  0.00    -0.327 C  
BRANCH  11  16
HETATM   16  C   UNL     1     -11.537   9.728  70.593  1.00  0.00    -0.389 A  
HETATM   17  C   UNL     1     -12.982  11.345  71.687  1.00  0.00    -0.523 A  
HETATM   18  C   UNL     1     -12.488  10.037  71.584  1.00  0.00    -0.418 A  
HETATM   19  C   UNL     1     -11.124  10.734  69.695  1.00  0.00    -0.339 A  
HETATM   20  C   UNL     1     -12.625  12.315  70.750  1.00  0.00    -0.302 A  
HETATM   21  C   UNL     1     -11.731  11.996  69.724  1.00  0.00    -0.319 A  
BRANCH  18  22
HETATM   22  O   UNL     1     -12.853   9.036  72.446  1.00  0.00    -0.401 OA 
BRANCH  22  23
HETATM   23  C   UNL     1     -14.227   8.647  72.437  1.00  0.00    -0.363 C  
HETATM   24  C   UNL     1     -14.353   7.506  71.445  1.00  0.00    -0.540 C  
ENDBRANCH  22  23
ENDBRANCH  18  22
BRANCH  21  25
HETATM   25  S   UNL     1     -11.310  13.257  68.532  1.00  0.00    -0.307 S  
HETATM   26  O   UNL     1      -9.871  13.242  68.377  1.00  0.00    -0.234 OA 
HETATM   27  O   UNL     1     -11.998  14.462  68.949  1.00  0.00    -0.318 OA 
BRANCH  25  28
HETATM   28  N   UNL     1     -12.008  12.777  67.068  1.00  0.00    -0.355 N  
HETATM   29  C   UNL     1     -12.736  13.762  66.243  1.00  0.00    -0.207 C  
HETATM   30  C   UNL     1     -11.791  14.429  65.236  1.00  0.00    -0.373 C  
HETATM   31  N   UNL     1     -11.063  13.491  64.359  1.00  0.00    -0.382 NA 
HETATM   32  C   UNL     1     -10.510  12.338  65.105  1.00  0.00    -0.288 C  
HETATM   33  C   UNL     1     -11.903  13.086  63.236  1.00  0.00    -0.364 C  
HETATM   34  C   UNL     1     -11.375  11.726  66.233  1.00  0.00    -0.287 C  
ENDBRANCH  25  28
ENDBRANCH  21  25
ENDBRANCH  11  16
ENDBRANCH   3   4
ENDBRANCH   2   3
TORSDOF 7
ENDMDL
MODEL       28
REMARK 921   NORMALIZED FREE ENERGY PREDICTED BY IDOCK:   -6.67 KCAL/MOL
REMARK 922        TOTAL FREE ENERGY PREDICTED BY IDOCK:  -10.74 KCAL/MOL
REMARK 923 INTER-LIGAND FREE ENERGY PREDICTED BY IDOCK:   -9.32 KCAL/MOL
REMARK 924 INTRA-LIGAND FREE ENERGY PREDICTED BY IDOCK:   -1.43 KCAL/MOL
REMARK 927      BINDING AFFINITY PREDICTED BY RF-SCORE:    0.00 PKD
ROOT
HETATM    1  C   UNL     1     -14.023   9.136  72.410  1.00  0.00    -0.488 C  
HETATM    2  C   UNL     1     -14.084   8.003  71.395  1.00  0.00    -0.413 C  
ENDROOT
BRANCH   2   3
HETATM    3  C   UNL     1     -13.044   6.920  71.691  1.00  0.00    -0.338 C  
BRANCH   3   4
HETATM    4  C   UNL     1     -11.668   7.475  71.856  1.00  0.00    -0.284 A  
HETATM    5  N   UNL     1     -11.039   7.292  73.031  1.00  0.00    -0.330 NA 
HETATM    6  N   UNL     1      -9.828   7.868  72.860  1.00  0.00    -0.257 NA 
HETATM    7  C   UNL     1      -9.663   8.396  71.618  1.00  0.00    -0.219 A  
HETATM    8  C   UNL     1      -8.868   7.833  73.937  1.00  0.00    -0.272 C  
HETATM    9  C   UNL     1     -10.834   8.178  70.956  1.00  0.00    -0.235 A  
HETATM   10  N   UNL     1     -10.962   8.604  69.689  1.00  0.00    -0.153 NA 
HETATM   11  C   UNL     1      -9.863   9.264  69.138  1.00  0.00    -0.167 C  
HETATM   12  N   UNL     1      -8.727   9.473  69.750  1.00  0.00    -0.176 N  
HETATM   13  O   UNL     1      -7.495   9.267  71.675  1.00  0.00    -0.339 OA 
HETATM   14  H   UNL     1      -7.969   9.943  69.253  1.00  0.00     0.000 HD 
HETATM   15  C   UNL     1      -8.532   9.070  71.057  1.00  0.00    -0.203 C  
BRANCH  11  16
HETATM   16  C   UNL     1      -9.950   9.762  67.706  1.00  0.00    -0.206 A  
HETATM   17  C   UNL     1      -9.589   9.511  65.317  1.00  0.00    -0.314 A  
HETATM   18  C   UNL     1      -9.492   8.995  66.617  1.00  0.00    -0.194 A  
HETATM   19  C   UNL     1     -10.467  11.053  67.473  1.00  0.00    -0.244 A  
HETATM   20  C   UNL     1     -10.033  10.817  65.103  1.00  0.00    -0.351 A  
HETATM   21  C   UNL     1     -10.427  11.605  66.187  1.00  0.00    -0.247 A  
BRANCH  18  22
HETATM   22  O   UNL     1      -9.010   7.741  66.883  1.00  0.00    -0.124 OA 
BRANCH  22  23
HETATM   23  C   UNL     1      -9.646   6.651  66.215  1.00  0.00    -0.039 C  
HETATM   24  C   UNL     1     -10.910   6.338  66.993  1.00  0.00    -0.458 C  
ENDBRANCH  22  23
ENDBRANCH  18  22
BRANCH  21  25
HETATM   25  S   UNL     1     -10.972  13.277  65.876  1.00  0.00    -0.276 S  
HETATM   26  O   UNL     1     -12.377  13.344  66.217  1.00  0.00    -0.401 OA 
HETATM   27  O   UNL     1     -10.516  13.616  64.543  1.00  0.00    -0.430 OA 
BRANCH  25  28
HETATM   28  N   UNL     1     -10.116  14.262  66.952  1.00  0.00    -0.260 N  
HETATM   29  C   UNL     1      -9.361  15.424  66.442  1.00  0.00    -0.299 C  
HETATM   30  C   UNL     1     -10.237  16.683  66.446  1.00  0.00    -0.315 C  
HETATM   31  N   UNL     1     -10.833  17.016  67.756  1.00  0.00    -0.314 NA 
HETATM   32  C   UNL     1     -11.397  15.827  68.434  1.00  0.00    -0.372 C  
HETATM   33  C   UNL     1      -9.871  17.734  68.586  1.00  0.00    -0.359 C  
HETATM   34  C   UNL     1     -10.615  14.496  68.329  1.00  0.00    -0.241 C  
ENDBRANCH  25  28
ENDBRANCH  21  25
ENDBRANCH  11  16
ENDBRANCH   3   4
ENDBRANCH   2   3
TORSDOF 7
ENDMDL
MODEL       29
REMARK 921   NORMALIZED FREE ENERGY PREDICTED BY IDOCK:   -6.61 KCAL/MOL
REMARK 922        TOTAL FREE ENERGY PREDICTED BY IDOCK:  -10.66 KCAL/MOL
REMARK 923 INTER-LIGAND FREE ENERGY PREDICTED BY IDOCK:  -10.01 KCAL/MOL
REMARK 924 INTRA-LIGAND FREE ENERGY PREDICTED BY IDOCK:   -0.66 KCAL/MOL
REMARK 927      BINDING AFFINITY PREDICTED BY RF-SCORE:    0.00 PKD
ROOT
HETATM    1  C   UNL     1     -14.072   8.407  71.906  1.00  0.00    -0.516 C  
HETATM    2  C   UNL     1     -13.042   9.506  72.123  1.00  0.00    -0.522 C  
ENDROOT
BRANCH   2   3
HETATM    3  C   UNL     1     -11.614   8.993  71.924  1.00  0.00    -0.441 C  
BRANCH   3   4
HETATM    4  C   UNL     1     -11.190   9.018  70.493  1.00  0.00    -0.260 A  
HETATM    5  N   UNL     1     -10.944   7.848  69.876  1.00  0.00    -0.220 NA 
HETATM    6  N   UNL     1     -10.620   8.196  68.609  1.00  0.00    -0.159 NA 
HETATM    7  C   UNL     1     -10.664   9.538  68.400  1.00  0.00    -0.186 A  
HETATM    8  C   UNL     1     -10.316   7.163  67.648  1.00  0.00    -0.215 C  
HETATM    9  C   UNL     1     -11.007  10.095  69.595  1.00  0.00    -0.264 A  
HETATM   10  N   UNL     1     -11.123  11.430  69.689  1.00  0.00    -0.214 NA 
HETATM   11  C   UNL     1     -10.865  12.162  68.528  1.00  0.00    -0.236 C  
HETATM   12  N   UNL     1     -10.547  11.647  67.370  1.00  0.00    -0.212 N  
HETATM   13  O   UNL     1     -10.081   9.762  66.148  1.00  0.00    -0.257 OA 
HETATM   14  H   UNL     1     -10.403  12.265  66.570  1.00  0.00     0.000 HD 
HETATM   15  C   UNL     1     -10.401  10.283  67.207  1.00  0.00    -0.232 C  
BRANCH  11  16
HETATM   16  C   UNL     1     -10.987  13.675  68.575  1.00  0.00    -0.289 A  
HETATM   17  C   UNL     1     -11.993  15.726  69.400  1.00  0.00    -0.321 A  
HETATM   18  C   UNL     1     -11.919  14.326  69.406  1.00  0.00    -0.337 A  
HETATM   19  C   UNL     1     -10.167  14.443  67.722  1.00  0.00    -0.230 A  
HETATM   20  C   UNL     1     -11.231  16.474  68.500  1.00  0.00    -0.296 A  
HETATM   21  C   UNL     1     -10.351  15.827  67.628  1.00  0.00    -0.281 A  
BRANCH  18  22
HETATM   22  O   UNL     1     -12.687  13.547  70.229  1.00  0.00    -0.193 OA 
BRANCH  22  23
HETATM   23  C   UNL     1     -13.473  14.225  71.210  1.00  0.00    -0.311 C  
HETATM   24  C   UNL     1     -13.728  13.233  72.330  1.00  0.00    -0.686 C  
ENDBRANCH  22  23
ENDBRANCH  18  22
BRANCH  21  25
HETATM   25  S   UNL     1      -9.406  16.814  66.478  1.00  0.00    -0.280 S  
HETATM   26  O   UNL     1     -10.295  17.189  65.398  1.00  0.00    -0.619 OA 
HETATM   27  O   UNL     1      -8.187  16.079  66.212  1.00  0.00    -0.294 OA 
BRANCH  25  28
HETATM   28  N   UNL     1      -8.961  18.217  67.312  1.00  0.00    -0.246 N  
HETATM   29  C   UNL     1      -7.902  18.155  68.340  1.00  0.00    -0.297 C  
HETATM   30  C   UNL     1      -6.529  18.440  67.721  1.00  0.00    -0.205 C  
HETATM   31  N   UNL     1      -6.435  19.719  66.990  1.00  0.00    -0.192 NA 
HETATM   32  C   UNL     1      -7.605  19.953  66.114  1.00  0.00    -0.324 C  
HETATM   33  C   UNL     1      -6.197  20.820  67.918  1.00  0.00    -0.319 C  
HETATM   34  C   UNL     1      -8.999  19.541  66.646  1.00  0.00    -0.351 C  
ENDBRANCH  25  28
ENDBRANCH  21  25
ENDBRANCH  11  16
ENDBRANCH   3   4
ENDBRANCH   2   3
TORSDOF 7
ENDMDL
MODEL       30
REMARK 921   NORMALIZED FREE ENERGY PREDICTED BY IDOCK:   -6.56 KCAL/MOL
REMARK 922        TOTAL FREE ENERGY PREDICTED BY IDOCK:  -10.60 KCAL/MOL
REMARK 923 INTER-LIGAND FREE ENERGY PREDICTED BY IDOCK:   -9.79 KCAL/MOL
REMARK 924 INTRA-LIGAND FREE ENERGY PREDICTED BY IDOCK:   -0.81 KCAL/MOL
REMARK 927      BINDING AFFINITY PREDICTED BY RF-SCORE:    0.00 PKD
ROOT
HETATM    1  C   UNL     1     -10.120  10.618  64.410  1.00  0.00    -0.418 C  
HETATM    2  C   UNL     1      -9.102  10.080  65.405  1.00  0.00    -0.235 C  
ENDROOT
BRANCH   2   3
HETATM    3  C   UNL     1      -9.522   8.721  65.969  1.00  0.00    -0.302 C  
BRANCH   3   4
HETATM    4  C   UNL     1     -10.082   8.820  67.348  1.00  0.00    -0.226 A  
HETATM    5  N   UNL     1     -10.225   7.690  68.066  1.00  0.00    -0.194 NA 
HETATM    6  N   UNL     1     -10.713   8.105  69.256  1.00  0.00    -0.179 NA 
HETATM    7  C   UNL     1     -10.873   9.454  69.323  1.00  0.00    -0.172 A  
HETATM    8  C   UNL     1     -10.966   7.135  70.295  1.00  0.00    -0.263 C  
HETATM    9  C   UNL     1     -10.496   9.939  68.108  1.00  0.00    -0.215 A  
HETATM   10  N   UNL     1     -10.554  11.262  67.881  1.00  0.00    -0.185 NA 
HETATM   11  C   UNL     1     -11.020  12.055  68.931  1.00  0.00    -0.232 C  
HETATM   12  N   UNL     1     -11.375  11.611  70.108  1.00  0.00    -0.500 N  
HETATM   13  O   UNL     1     -11.695   9.802  71.483  1.00  0.00    -0.379 OA 
HETATM   14  H   UNL     1     -11.678  12.275  70.822  1.00  0.00     0.000 HD 
HETATM   15  C   UNL     1     -11.349  10.262  70.404  1.00  0.00    -0.332 C  
BRANCH  11  16
HETATM   16  C   UNL     1     -11.101  13.558  68.732  1.00  0.00    -0.298 A  
HETATM   17  C   UNL     1     -11.869  15.772  69.370  1.00  0.00    -0.361 A  
HETATM   18  C   UNL     1     -11.821  14.392  69.609  1.00  0.00    -0.321 A  
HETATM   19  C   UNL     1     -10.469  14.123  67.605  1.00  0.00    -0.245 A  
HETATM   20  C   UNL     1     -11.304  16.313  68.214  1.00  0.00    -0.280 A  
HETATM   21  C   UNL     1     -10.644  15.480  67.307  1.00  0.00    -0.299 A  
BRANCH  18  22
HETATM   22  O   UNL     1     -12.409  13.807  70.699  1.00  0.00    -0.339 OA 
BRANCH  22  23
HETATM   23  C   UNL     1     -13.374  14.587  71.407  1.00  0.00    -0.357 C  
HETATM   24  C   UNL     1     -13.072  14.422  72.885  1.00  0.00    -0.612 C  
ENDBRANCH  22  23
ENDBRANCH  18  22
BRANCH  21  25
HETATM   25  S   UNL     1      -9.949  16.204  65.830  1.00  0.00    -0.356 S  
HETATM   26  O   UNL     1     -10.746  17.367  65.503  1.00  0.00    -0.530 OA 
HETATM   27  O   UNL     1      -9.791  15.123  64.878  1.00  0.00    -0.178 OA 
BRANCH  25  28
HETATM   28  N   UNL     1      -8.393  16.724  66.243  1.00  0.00    -0.313 N  
HETATM   29  C   UNL     1      -8.105  18.169  66.346  1.00  0.00    -0.261 C  
HETATM   30  C   UNL     1      -8.333  18.665  67.779  1.00  0.00    -0.267 C  
HETATM   31  N   UNL     1      -7.574  17.933  68.814  1.00  0.00    -0.285 NA 
HETATM   32  C   UNL     1      -7.625  16.467  68.616  1.00  0.00    -0.213 C  
HETATM   33  C   UNL     1      -6.209  18.443  68.900  1.00  0.00    -0.222 C  
HETATM   34  C   UNL     1      -7.547  15.930  67.167  1.00  0.00    -0.220 C  
ENDBRANCH  25  28
ENDBRANCH  21  25
ENDBRANCH  11  16
ENDBRANCH   3   4
ENDBRANCH   2   3
TORSDOF 7
ENDMDL
MODEL       31
REMARK 921   NORMALIZED FREE ENERGY PREDICTED BY IDOCK:   -6.54 KCAL/MOL
REMARK 922        TOTAL FREE ENERGY PREDICTED BY IDOCK:  -10.56 KCAL/MOL
REMARK 923 INTER-LIGAND FREE ENERGY PREDICTED BY IDOCK:   -9.08 KCAL/MOL
REMARK 924 INTRA-LIGAND FREE ENERGY PREDICTED BY IDOCK:   -1.48 KCAL/MOL
REMARK 927      BINDING AFFINITY PREDICTED BY RF-SCORE:    0.00 PKD
ROOT
HETATM    1  C   UNL     1     -10.676  18.502  67.459  1.00  0.00    -0.419 C  
HETATM    2  C   UNL     1     -10.776  17.059  67.935  1.00  0.00    -0.348 C  
ENDROOT
BRANCH   2   3
HETATM    3  C   UNL     1     -10.581  16.945  69.448  1.00  0.00    -0.292 C  
BRANCH   3   4
HETATM    4  C   UNL     1     -11.189  15.705  70.013  1.00  0.00    -0.325 A  
HETATM    5  N   UNL     1     -11.878  15.796  71.165  1.00  0.00    -0.387 NA 
HETATM    6  N   UNL     1     -12.323  14.539  71.394  1.00  0.00    -0.340 NA 
HETATM    7  C   UNL     1     -11.952  13.662  70.424  1.00  0.00    -0.302 A  
HETATM    8  C   UNL     1     -13.135  14.277  72.557  1.00  0.00    -0.461 C  
HETATM    9  C   UNL     1     -11.207  14.374  69.534  1.00  0.00    -0.254 A  
HETATM   10  N   UNL     1     -10.696  13.754  68.458  1.00  0.00    -0.256 NA 
HETATM   11  C   UNL     1     -10.966  12.389  68.338  1.00  0.00    -0.241 C  
HETATM   12  N   UNL     1     -11.688  11.689  69.173  1.00  0.00    -0.298 N  
HETATM   13  O   UNL     1     -12.895  11.641  71.124  1.00  0.00    -0.364 OA 
HETATM   14  H   UNL     1     -11.852  10.700  68.986  1.00  0.00     0.000 HD 
HETATM   15  C   UNL     1     -12.234  12.263  70.305  1.00  0.00    -0.262 C  
BRANCH  11  16
HETATM   16  C   UNL     1     -10.419  11.638  67.138  1.00  0.00    -0.252 A  
HETATM   17  C   UNL     1     -10.485  10.980  64.800  1.00  0.00    -0.384 A  
HETATM   18  C   UNL     1     -11.030  11.703  65.871  1.00  0.00    -0.280 A  
HETATM   19  C   UNL     1      -9.288  10.814  67.318  1.00  0.00    -0.165 A  
HETATM   20  C   UNL     1      -9.412  10.111  65.004  1.00  0.00    -0.330 A  
HETATM   21  C   UNL     1      -8.843   9.993  66.275  1.00  0.00    -0.143 A  
BRANCH  18  22
HETATM   22  O   UNL     1     -12.117  12.525  65.733  1.00  0.00    -0.511 OA 
BRANCH  22  23
HETATM   23  C   UNL     1     -12.130  13.393  64.598  1.00  0.00    -0.410 C  
HETATM   24  C   UNL     1     -11.358  14.639  64.991  1.00  0.00    -0.390 C  
ENDBRANCH  22  23
ENDBRANCH  18  22
BRANCH  21  25
HETATM   25  S   UNL     1      -7.484   8.857  66.502  1.00  0.00    -0.089 S  
HETATM   26  O   UNL     1      -6.572   9.460  67.452  1.00  0.00    -0.063 OA 
HETATM   27  O   UNL     1      -7.032   8.487  65.176  1.00  0.00    -0.073 OA 
BRANCH  25  28
HETATM   28  N   UNL     1      -8.140   7.465  67.204  1.00  0.00    -0.113 N  
HETATM   29  C   UNL     1      -8.148   7.318  68.674  1.00  0.00    -0.125 C  
HETATM   30  C   UNL     1      -9.449   7.873  69.265  1.00  0.00    -0.152 C  
HETATM   31  N   UNL     1     -10.683   7.289  68.702  1.00  0.00    -0.178 NA 
HETATM   32  C   UNL     1     -10.631   7.185  67.226  1.00  0.00    -0.327 C  
HETATM   33  C   UNL     1     -10.984   6.015  69.347  1.00  0.00    -0.385 C  
HETATM   34  C   UNL     1      -9.289   6.768  66.578  1.00  0.00    -0.161 C  
ENDBRANCH  25  28
ENDBRANCH  21  25
ENDBRANCH  11  16
ENDBRANCH   3   4
ENDBRANCH   2   3
TORSDOF 7
ENDMDL
MODEL       32
REMARK 921   NORMALIZED FREE ENERGY PREDICTED BY IDOCK:   -6.51 KCAL/MOL
REMARK 922        TOTAL FREE ENERGY PREDICTED BY IDOCK:  -10.52 KCAL/MOL
REMARK 923 INTER-LIGAND FREE ENERGY PREDICTED BY IDOCK:   -9.36 KCAL/MOL
REMARK 924 INTRA-LIGAND FREE ENERGY PREDICTED BY IDOCK:   -1.16 KCAL/MOL
REMARK 927      BINDING AFFINITY PREDICTED BY RF-SCORE:    0.00 PKD
ROOT
HETATM    1  C   UNL     1     -12.569  15.279  73.509  1.00  0.00    -0.681 C  
HETATM    2  C   UNL     1     -13.772  15.521  72.608  1.00  0.00    -0.667 C  
ENDROOT
BRANCH   2   3
HETATM    3  C   UNL     1     -13.833  14.511  71.460  1.00  0.00    -0.477 C  
BRANCH   3   4
HETATM    4  C   UNL     1     -12.709  14.673  70.492  1.00  0.00    -0.337 A  
HETATM    5  N   UNL     1     -12.336  15.918  70.144  1.00  0.00    -0.278 NA 
HETATM    6  N   UNL     1     -11.295  15.735  69.300  1.00  0.00    -0.324 NA 
HETATM    7  C   UNL     1     -10.989  14.424  69.112  1.00  0.00    -0.265 A  
HETATM    8  C   UNL     1     -10.624  16.886  68.744  1.00  0.00    -0.355 C  
HETATM    9  C   UNL     1     -11.891  13.717  69.847  1.00  0.00    -0.320 A  
HETATM   10  N   UNL     1     -11.830  12.375  69.848  1.00  0.00    -0.328 NA 
HETATM   11  C   UNL     1     -10.830  11.795  69.066  1.00  0.00    -0.195 C  
HETATM   12  N   UNL     1      -9.948  12.455  68.362  1.00  0.00    -0.244 N  
HETATM   13  O   UNL     1      -9.170  14.491  67.646  1.00  0.00    -0.187 OA 
HETATM   14  H   UNL     1      -9.237  11.941  67.842  1.00  0.00     0.000 HD 
HETATM   15  C   UNL     1      -9.960  13.835  68.309  1.00  0.00    -0.243 C  
BRANCH  11  16
HETATM   16  C   UNL     1     -10.711  10.281  69.034  1.00  0.00    -0.257 A  
HETATM   17  C   UNL     1     -10.492   8.167  67.859  1.00  0.00    -0.259 A  
HETATM   18  C   UNL     1     -10.589   9.565  67.827  1.00  0.00    -0.261 A  
HETATM   19  C   UNL     1     -10.771   9.576  70.253  1.00  0.00    -0.315 A  
HETATM   20  C   UNL     1     -10.626   7.473  69.062  1.00  0.00    -0.190 A  
HETATM   21  C   UNL     1     -10.814   8.176  70.254  1.00  0.00    -0.244 A  
BRANCH  18  22
HETATM   22  O   UNL     1     -10.519  10.287  66.666  1.00  0.00    -0.230 OA 
BRANCH  22  23
HETATM   23  C   UNL     1      -9.671   9.775  65.637  1.00  0.00    -0.288 C  
HETATM   24  C   UNL     1      -9.951  10.593  64.390  1.00  0.00    -0.415 C  
ENDBRANCH  22  23
ENDBRANCH  18  22
BRANCH  21  25
HETATM   25  S   UNL     1     -11.001   7.254  71.772  1.00  0.00    -0.231 S  
HETATM   26  O   UNL     1     -11.735   6.047  71.457  1.00  0.00    -0.250 OA 
HETATM   27  O   UNL     1     -11.501   8.188  72.761  1.00  0.00    -0.408 OA 
BRANCH  25  28
HETATM   28  N   UNL     1      -9.440   6.816  72.256  1.00  0.00    -0.143 N  
HETATM   29  C   UNL     1      -8.273   7.275  71.476  1.00  0.00    -0.105 C  
HETATM   30  C   UNL     1      -7.750   8.610  72.020  1.00  0.00    -0.045 C  
HETATM   31  N   UNL     1      -7.412   8.601  73.457  1.00  0.00    -0.378 NA 
HETATM   32  C   UNL     1      -8.447   7.926  74.273  1.00  0.00    -0.223 C  
HETATM   33  C   UNL     1      -6.079   8.043  73.664  1.00  0.00    -0.080 C  
HETATM   34  C   UNL     1      -9.108   6.653  73.692  1.00  0.00    -0.136 C  
ENDBRANCH  25  28
ENDBRANCH  21  25
ENDBRANCH  11  16
ENDBRANCH   3   4
ENDBRANCH   2   3
TORSDOF 7
ENDMDL
MODEL       33
REMARK 921   NORMALIZED FREE ENERGY PREDICTED BY IDOCK:   -6.44 KCAL/MOL
REMARK 922        TOTAL FREE ENERGY PREDICTED BY IDOCK:  -10.42 KCAL/MOL
REMARK 923 INTER-LIGAND FREE ENERGY PREDICTED BY IDOCK:   -8.97 KCAL/MOL
REMARK 924 INTRA-LIGAND FREE ENERGY PREDICTED BY IDOCK:   -1.45 KCAL/MOL
REMARK 927      BINDING AFFINITY PREDICTED BY RF-SCORE:    0.00 PKD
ROOT
HETATM    1  C   UNL     1     -14.280   7.364  71.585  1.00  0.00    -0.583 C  
HETATM    2  C   UNL     1     -14.306   8.878  71.743  1.00  0.00    -0.351 C  
ENDROOT
BRANCH   2   3
HETATM    3  C   UNL     1     -12.903   9.452  71.943  1.00  0.00    -0.497 C  
BRANCH   3   4
HETATM    4  C   UNL     1     -12.802  10.882  71.527  1.00  0.00    -0.454 A  
HETATM    5  N   UNL     1     -13.195  11.832  72.394  1.00  0.00    -0.152 NA 
HETATM    6  N   UNL     1     -12.955  12.998  71.750  1.00  0.00    -0.349 NA 
HETATM    7  C   UNL     1     -12.416  12.820  70.516  1.00  0.00    -0.202 A  
HETATM    8  C   UNL     1     -13.243  14.246  72.415  1.00  0.00    -0.458 C  
HETATM    9  C   UNL     1     -12.324  11.473  70.334  1.00  0.00    -0.305 A  
HETATM   10  N   UNL     1     -11.822  10.997  69.183  1.00  0.00    -0.325 NA 
HETATM   11  C   UNL     1     -11.435  11.944  68.233  1.00  0.00    -0.311 C  
HETATM   12  N   UNL     1     -11.503  13.239  68.391  1.00  0.00    -0.291 N  
HETATM   13  O   UNL     1     -12.123  15.000  69.726  1.00  0.00    -0.304 OA 
HETATM   14  H   UNL     1     -11.170  13.853  67.646  1.00  0.00     0.000 HD 
HETATM   15  C   UNL     1     -12.018  13.795  69.546  1.00  0.00    -0.345 C  
BRANCH  11  16
HETATM   16  C   UNL     1     -10.854  11.463  66.914  1.00  0.00    -0.335 A  
HETATM   17  C   UNL     1     -10.858  11.318  64.490  1.00  0.00    -0.354 A  
HETATM   18  C   UNL     1     -11.432  11.799  65.675  1.00  0.00    -0.186 A  
HETATM   19  C   UNL     1      -9.727  10.616  66.944  1.00  0.00    -0.213 A  
HETATM   20  C   UNL     1      -9.789  10.421  64.531  1.00  0.00    -0.405 A  
HETATM   21  C   UNL     1      -9.253  10.034  65.762  1.00  0.00    -0.176 A  
BRANCH  18  22
HETATM   22  O   UNL     1     -12.517  12.634  65.687  1.00  0.00    -0.622 OA 
BRANCH  22  23
HETATM   23  C   UNL     1     -12.523  13.697  64.732  1.00  0.00    -0.350 C  
HETATM   24  C   UNL     1     -11.604  14.776  65.272  1.00  0.00    -0.338 C  
ENDBRANCH  22  23
ENDBRANCH  18  22
BRANCH  21  25
HETATM   25  S   UNL     1      -7.897   8.871  65.778  1.00  0.00    -0.101 S  
HETATM   26  O   UNL     1      -6.740   9.565  66.303  1.00  0.00    -0.073 OA 
HETATM   27  O   UNL     1      -7.863   8.263  64.463  1.00  0.00    -0.115 OA 
BRANCH  25  28
HETATM   28  N   UNL     1      -8.329   7.654  66.870  1.00  0.00    -0.122 N  
HETATM   29  C   UNL     1      -9.535   6.839  66.622  1.00  0.00    -0.165 C  
HETATM   30  C   UNL     1      -9.183   5.583  65.815  1.00  0.00    -0.120 C  
HETATM   31  N   UNL     1      -8.129   4.739  66.415  1.00  0.00    -0.107 NA 
HETATM   32  C   UNL     1      -6.985   5.538  66.910  1.00  0.00    -0.065 C  
HETATM   33  C   UNL     1      -8.695   3.869  67.440  1.00  0.00    -0.107 C  
HETATM   34  C   UNL     1      -7.291   6.888  67.602  1.00  0.00    -0.096 C  
ENDBRANCH  25  28
ENDBRANCH  21  25
ENDBRANCH  11  16
ENDBRANCH   3   4
ENDBRANCH   2   3
TORSDOF 7
ENDMDL
MODEL       34
REMARK 921   NORMALIZED FREE ENERGY PREDICTED BY IDOCK:   -6.44 KCAL/MOL
REMARK 922        TOTAL FREE ENERGY PREDICTED BY IDOCK:  -10.42 KCAL/MOL
REMARK 923 INTER-LIGAND FREE ENERGY PREDICTED BY IDOCK:   -9.27 KCAL/MOL
REMARK 924 INTRA-LIGAND FREE ENERGY PREDICTED BY IDOCK:   -1.15 KCAL/MOL
REMARK 927      BINDING AFFINITY PREDICTED BY RF-SCORE:    0.00 PKD
ROOT
HETATM    1  C   UNL     1     -13.699  13.455  72.034  1.00  0.00    -0.541 C  
HETATM    2  C   UNL     1     -12.795  12.332  71.546  1.00  0.00    -0.384 C  
ENDROOT
BRANCH   2   3
HETATM    3  C   UNL     1     -13.390  10.954  71.842  1.00  0.00    -0.429 C  
BRANCH   3   4
HETATM    4  C   UNL     1     -12.393   9.854  71.693  1.00  0.00    -0.406 A  
HETATM    5  N   UNL     1     -12.167   9.045  72.744  1.00  0.00    -0.026 NA 
HETATM    6  N   UNL     1     -11.258   8.151  72.294  1.00  0.00    -0.332 NA 
HETATM    7  C   UNL     1     -10.912   8.355  70.996  1.00  0.00    -0.246 A  
HETATM    8  C   UNL     1     -10.802   7.102  73.174  1.00  0.00    -0.335 C  
HETATM    9  C   UNL     1     -11.607   9.453  70.587  1.00  0.00    -0.269 A  
HETATM   10  N   UNL     1     -11.456   9.896  69.328  1.00  0.00    -0.068 NA 
HETATM   11  C   UNL     1     -10.567   9.187  68.520  1.00  0.00    -0.169 C  
HETATM   12  N   UNL     1      -9.899   8.125  68.887  1.00  0.00    -0.171 N  
HETATM   13  O   UNL     1      -9.376   6.647  70.563  1.00  0.00    -0.164 OA 
HETATM   14  H   UNL     1      -9.291   7.658  68.213  1.00  0.00     0.000 HD 
HETATM   15  C   UNL     1     -10.000   7.623  70.170  1.00  0.00    -0.186 C  
BRANCH  11  16
HETATM   16  C   UNL     1     -10.362   9.640  67.085  1.00  0.00    -0.319 A  
HETATM   17  C   UNL     1      -9.269   9.495  64.920  1.00  0.00    -0.284 A  
HETATM   18  C   UNL     1      -9.422   9.028  66.233  1.00  0.00    -0.242 A  
HETATM   19  C   UNL     1     -11.110  10.738  66.612  1.00  0.00    -0.107 A  
HETATM   20  C   UNL     1      -9.959  10.628  64.485  1.00  0.00    -0.410 A  
HETATM   21  C   UNL     1     -10.845  11.278  65.348  1.00  0.00    -0.188 A  
BRANCH  18  22
HETATM   22  O   UNL     1      -8.726   7.955  66.724  1.00  0.00    -0.125 OA 
BRANCH  22  23
HETATM   23  C   UNL     1      -8.346   6.949  65.785  1.00  0.00    -0.142 C  
HETATM   24  C   UNL     1      -8.977   5.651  66.254  1.00  0.00    -0.141 C  
ENDBRANCH  22  23
ENDBRANCH  18  22
BRANCH  21  25
HETATM   25  S   UNL     1     -11.695  12.735  64.763  1.00  0.00    -0.376 S  
HETATM   26  O   UNL     1     -13.114  12.505  64.936  1.00  0.00    -0.833 OA 
HETATM   27  O   UNL     1     -11.148  13.033  63.455  1.00  0.00    -0.338 OA 
BRANCH  25  28
HETATM   28  N   UNL     1     -11.232  13.998  65.788  1.00  0.00    -0.300 N  
HETATM   29  C   UNL     1     -12.155  14.463  66.843  1.00  0.00    -0.356 C  
HETATM   30  C   UNL     1     -11.907  13.704  68.152  1.00  0.00    -0.372 C  
HETATM   31  N   UNL     1     -10.517  13.764  68.647  1.00  0.00    -0.242 NA 
HETATM   32  C   UNL     1      -9.528  13.544  67.569  1.00  0.00    -0.222 C  
HETATM   33  C   UNL     1     -10.290  15.007  69.376  1.00  0.00    -0.235 C  
HETATM   34  C   UNL     1      -9.815  14.174  66.185  1.00  0.00    -0.308 C  
ENDBRANCH  25  28
ENDBRANCH  21  25
ENDBRANCH  11  16
ENDBRANCH   3   4
ENDBRANCH   2   3
TORSDOF 7
ENDMDL
MODEL       35
REMARK 921   NORMALIZED FREE ENERGY PREDICTED BY IDOCK:   -6.40 KCAL/MOL
REMARK 922        TOTAL FREE ENERGY PREDICTED BY IDOCK:  -10.37 KCAL/MOL
REMARK 923 INTER-LIGAND FREE ENERGY PREDICTED BY IDOCK:   -9.09 KCAL/MOL
REMARK 924 INTRA-LIGAND FREE ENERGY PREDICTED BY IDOCK:   -1.28 KCAL/MOL
REMARK 927      BINDING AFFINITY PREDICTED BY RF-SCORE:    0.00 PKD
ROOT
HETATM    1  C   UNL     1      -5.560  17.118  66.978  1.00  0.00    -0.203 C  
HETATM    2  C   UNL     1      -7.080  17.084  67.060  1.00  0.00    -0.228 C  
ENDROOT
BRANCH   2   3
HETATM    3  C   UNL     1      -7.603  15.670  67.321  1.00  0.00    -0.247 C  
BRANCH   3   4
HETATM    4  C   UNL     1      -8.966  15.449  66.755  1.00  0.00    -0.259 A  
HETATM    5  N   UNL     1      -9.357  16.200  65.709  1.00  0.00    -0.437 NA 
HETATM    6  N   UNL     1     -10.597  15.749  65.413  1.00  0.00    -0.398 NA 
HETATM    7  C   UNL     1     -11.000  14.735  66.224  1.00  0.00    -0.330 A  
HETATM    8  C   UNL     1     -11.315  16.329  64.304  1.00  0.00    -0.003 C  
HETATM    9  C   UNL     1      -9.984  14.532  67.108  1.00  0.00    -0.252 A  
HETATM   10  N   UNL     1     -10.108  13.578  68.045  1.00  0.00    -0.237 NA 
HETATM   11  C   UNL     1     -11.303  12.857  68.047  1.00  0.00    -0.292 C  
HETATM   12  N   UNL     1     -12.285  13.027  67.200  1.00  0.00    -0.243 N  
HETATM   13  O   UNL     1     -13.131  14.206  65.423  1.00  0.00    -0.743 OA 
HETATM   14  H   UNL     1     -13.111  12.431  67.266  1.00  0.00     0.000 HD 
HETATM   15  C   UNL     1     -12.226  13.997  66.220  1.00  0.00    -0.462 C  
BRANCH  11  16
HETATM   16  C   UNL     1     -11.495  11.761  69.080  1.00  0.00    -0.358 A  
HETATM   17  C   UNL     1     -12.222  10.961  71.256  1.00  0.00    -0.395 A  
HETATM   18  C   UNL     1     -12.078  12.011  70.337  1.00  0.00    -0.321 A  
HETATM   19  C   UNL     1     -11.032  10.463  68.779  1.00  0.00    -0.287 A  
HETATM   20  C   UNL     1     -11.694   9.699  70.979  1.00  0.00    -0.433 A  
HETATM   21  C   UNL     1     -11.057   9.463  69.758  1.00  0.00    -0.172 A  
BRANCH  18  22
HETATM   22  O   UNL     1     -12.528  13.281  70.586  1.00  0.00    -0.339 OA 
BRANCH  22  23
HETATM   23  C   UNL     1     -13.245  13.483  71.805  1.00  0.00    -0.404 C  
HETATM   24  C   UNL     1     -14.052  14.756  71.631  1.00  0.00    -0.590 C  
ENDBRANCH  22  23
ENDBRANCH  18  22
BRANCH  21  25
HETATM   25  S   UNL     1     -10.378   7.841  69.447  1.00  0.00    -0.220 S  
HETATM   26  O   UNL     1     -10.518   7.580  68.029  1.00  0.00    -0.204 OA 
HETATM   27  O   UNL     1     -10.973   6.953  70.425  1.00  0.00    -0.247 OA 
BRANCH  25  28
HETATM   28  N   UNL     1      -8.730   7.938  69.811  1.00  0.00    -0.137 N  
HETATM   29  C   UNL     1      -7.731   7.494  68.817  1.00  0.00    -0.119 C  
HETATM   30  C   UNL     1      -7.302   8.662  67.922  1.00  0.00    -0.092 C  
HETATM   31  N   UNL     1      -6.787   9.841  68.648  1.00  0.00    -0.052 NA 
HETATM   32  C   UNL     1      -7.626  10.190  69.816  1.00  0.00    -0.170 C  
HETATM   33  C   UNL     1      -5.384   9.651  68.999  1.00  0.00    -0.036 C  
HETATM   34  C   UNL     1      -8.203   9.031  70.664  1.00  0.00    -0.181 C  
ENDBRANCH  25  28
ENDBRANCH  21  25
ENDBRANCH  11  16
ENDBRANCH   3   4
ENDBRANCH   2   3
TORSDOF 7
ENDMDL
MODEL       36
REMARK 921   NORMALIZED FREE ENERGY PREDICTED BY IDOCK:   -6.36 KCAL/MOL
REMARK 922        TOTAL FREE ENERGY PREDICTED BY IDOCK:  -10.31 KCAL/MOL
REMARK 923 INTER-LIGAND FREE ENERGY PREDICTED BY IDOCK:   -8.73 KCAL/MOL
REMARK 924 INTRA-LIGAND FREE ENERGY PREDICTED BY IDOCK:   -1.58 KCAL/MOL
REMARK 927      BINDING AFFINITY PREDICTED BY RF-SCORE:    0.00 PKD
ROOT
HETATM    1  C   UNL     1     -10.294   6.633  74.048  1.00  0.00    -0.377 C  
HETATM    2  C   UNL     1      -9.173   7.600  73.695  1.00  0.00    -0.339 C  
ENDROOT
BRANCH   2   3
HETATM    3  C   UNL     1      -8.193   6.991  72.691  1.00  0.00    -0.117 C  
BRANCH   3   4
HETATM    4  C   UNL     1      -8.833   6.687  71.377  1.00  0.00    -0.139 A  
HETATM    5  N   UNL     1      -8.821   5.416  70.936  1.00  0.00    -0.136 NA 
HETATM    6  N   UNL     1      -9.491   5.459  69.763  1.00  0.00    -0.144 NA 
HETATM    7  C   UNL     1      -9.937   6.705  69.452  1.00  0.00    -0.156 A  
HETATM    8  C   UNL     1      -9.691   4.239  69.017  1.00  0.00    -0.139 C  
HETATM    9  C   UNL     1      -9.514   7.519  70.458  1.00  0.00    -0.164 A  
HETATM   10  N   UNL     1      -9.811   8.828  70.414  1.00  0.00    -0.175 NA 
HETATM   11  C   UNL     1     -10.539   9.265  69.306  1.00  0.00    -0.222 C  
HETATM   12  N   UNL     1     -10.965   8.500  68.336  1.00  0.00    -0.439 N  
HETATM   13  O   UNL     1     -11.044   6.399  67.416  1.00  0.00    -0.363 OA 
HETATM   14  H   UNL     1     -11.515   8.909  67.580  1.00  0.00     0.000 HD 
HETATM   15  C   UNL     1     -10.686   7.147  68.315  1.00  0.00    -0.153 C  
BRANCH  11  16
HETATM   16  C   UNL     1     -10.908  10.735  69.207  1.00  0.00    -0.287 A  
HETATM   17  C   UNL     1     -12.389  12.613  69.631  1.00  0.00    -0.045 A  
HETATM   18  C   UNL     1     -12.096  11.248  69.762  1.00  0.00    -0.325 A  
HETATM   19  C   UNL     1     -10.050  11.598  68.495  1.00  0.00    -0.210 A  
HETATM   20  C   UNL     1     -11.573  13.444  68.863  1.00  0.00    -0.356 A  
HETATM   21  C   UNL     1     -10.427  12.925  68.255  1.00  0.00    -0.242 A  
BRANCH  18  22
HETATM   22  O   UNL     1     -12.896  10.382  70.458  1.00  0.00    -0.341 OA 
BRANCH  22  23
HETATM   23  C   UNL     1     -12.891  10.501  71.882  1.00  0.00    -0.403 C  
HETATM   24  C   UNL     1     -12.922   9.090  72.440  1.00  0.00    -0.471 C  
ENDBRANCH  22  23
ENDBRANCH  18  22
BRANCH  21  25
HETATM   25  S   UNL     1      -9.415  14.013  67.264  1.00  0.00    -0.239 S  
HETATM   26  O   UNL     1      -8.078  13.458  67.240  1.00  0.00    -0.173 OA 
HETATM   27  O   UNL     1      -9.651  15.355  67.757  1.00  0.00    -0.209 OA 
BRANCH  25  28
HETATM   28  N   UNL     1     -10.046  13.950  65.696  1.00  0.00    -0.319 N  
HETATM   29  C   UNL     1      -9.915  12.711  64.901  1.00  0.00    -0.146 C  
HETATM   30  C   UNL     1     -11.132  11.803  65.111  1.00  0.00    -0.282 C  
HETATM   31  N   UNL     1     -12.434  12.439  64.826  1.00  0.00    -0.512 NA 
HETATM   32  C   UNL     1     -12.531  13.800  65.400  1.00  0.00    -0.500 C  
HETATM   33  C   UNL     1     -12.714  12.410  63.394  1.00  0.00    -0.266 C  
HETATM   34  C   UNL     1     -11.274  14.701  65.339  1.00  0.00    -0.347 C  
ENDBRANCH  25  28
ENDBRANCH  21  25
ENDBRANCH  11  16
ENDBRANCH   3   4
ENDBRANCH   2   3
TORSDOF 7
ENDMDL
MODEL       37
REMARK 921   NORMALIZED FREE ENERGY PREDICTED BY IDOCK:   -6.36 KCAL/MOL
REMARK 922        TOTAL FREE ENERGY PREDICTED BY IDOCK:  -10.31 KCAL/MOL
REMARK 923 INTER-LIGAND FREE ENERGY PREDICTED BY IDOCK:   -9.16 KCAL/MOL
REMARK 924 INTRA-LIGAND FREE ENERGY PREDICTED BY IDOCK:   -1.15 KCAL/MOL
REMARK 927      BINDING AFFINITY PREDICTED BY RF-SCORE:    0.00 PKD
ROOT
HETATM    1  C   UNL     1     -12.577  14.267  65.009  1.00  0.00    -0.360 C  
HETATM    2  C   UNL     1     -12.164  13.724  63.648  1.00  0.00    -0.311 C  
ENDROOT
BRANCH   2   3
HETATM    3  C   UNL     1     -12.281  12.200  63.586  1.00  0.00    -0.663 C  
BRANCH   3   4
HETATM    4  C   UNL     1     -11.150  11.509  64.271  1.00  0.00    -0.315 A  
HETATM    5  N   UNL     1     -10.107  11.095  63.529  1.00  0.00    -0.350 NA 
HETATM    6  N   UNL     1      -9.252  10.549  64.424  1.00  0.00    -0.224 NA 
HETATM    7  C   UNL     1      -9.709  10.614  65.702  1.00  0.00    -0.230 A  
HETATM    8  C   UNL     1      -7.991  10.017  63.964  1.00  0.00    -0.151 C  
HETATM    9  C   UNL     1     -10.934  11.206  65.636  1.00  0.00    -0.079 A  
HETATM   10  N   UNL     1     -11.633  11.400  66.766  1.00  0.00    -0.444 NA 
HETATM   11  C   UNL     1     -11.040  10.958  67.950  1.00  0.00    -0.302 C  
HETATM   12  N   UNL     1      -9.862  10.398  68.038  1.00  0.00    -0.149 N  
HETATM   13  O   UNL     1      -8.000   9.618  66.947  1.00  0.00    -0.105 OA 
HETATM   14  H   UNL     1      -9.502  10.132  68.955  1.00  0.00     0.000 HD 
HETATM   15  C   UNL     1      -9.096  10.160  66.913  1.00  0.00    -0.142 C  
BRANCH  11  16
HETATM   16  C   UNL     1     -11.783  11.157  69.259  1.00  0.00    -0.401 A  
HETATM   17  C   UNL     1     -12.562  12.536  71.101  1.00  0.00    -0.349 A  
HETATM   18  C   UNL     1     -11.870  12.414  69.888  1.00  0.00    -0.305 A  
HETATM   19  C   UNL     1     -12.363  10.032  69.882  1.00  0.00     0.106 A  
HETATM   20  C   UNL     1     -13.068  11.406  71.746  1.00  0.00    -0.523 A  
HETATM   21  C   UNL     1     -12.927  10.147  71.158  1.00  0.00    -0.395 A  
BRANCH  18  22
HETATM   22  O   UNL     1     -11.307  13.484  69.245  1.00  0.00    -0.259 OA 
BRANCH  22  23
HETATM   23  C   UNL     1     -12.187  14.541  68.860  1.00  0.00    -0.159 C  
HETATM   24  C   UNL     1     -11.339  15.794  68.736  1.00  0.00    -0.362 C  
ENDBRANCH  22  23
ENDBRANCH  18  22
BRANCH  21  25
HETATM   25  S   UNL     1     -13.571   8.722  72.021  1.00  0.00    -0.449 S  
HETATM   26  O   UNL     1     -14.409   7.996  71.090  1.00  0.00    -0.302 OA 
HETATM   27  O   UNL     1     -14.107   9.210  73.275  1.00  0.00    -0.239 OA 
BRANCH  25  28
HETATM   28  N   UNL     1     -12.236   7.754  72.401  1.00  0.00    -0.251 N  
HETATM   29  C   UNL     1     -12.139   6.388  71.847  1.00  0.00    -0.310 C  
HETATM   30  C   UNL     1     -11.380   6.398  70.515  1.00  0.00    -0.375 C  
HETATM   31  N   UNL     1     -10.036   7.007  70.574  1.00  0.00    -0.183 NA 
HETATM   32  C   UNL     1     -10.027   8.274  71.337  1.00  0.00    -0.194 C  
HETATM   33  C   UNL     1      -9.061   6.042  71.072  1.00  0.00    -0.143 C  
HETATM   34  C   UNL     1     -10.898   8.355  72.614  1.00  0.00    -0.238 C  
ENDBRANCH  25  28
ENDBRANCH  21  25
ENDBRANCH  11  16
ENDBRANCH   3   4
ENDBRANCH   2   3
TORSDOF 7
ENDMDL
MODEL       38
REMARK 921   NORMALIZED FREE ENERGY PREDICTED BY IDOCK:   -6.36 KCAL/MOL
REMARK 922        TOTAL FREE ENERGY PREDICTED BY IDOCK:  -10.31 KCAL/MOL
REMARK 923 INTER-LIGAND FREE ENERGY PREDICTED BY IDOCK:   -9.22 KCAL/MOL
REMARK 924 INTRA-LIGAND FREE ENERGY PREDICTED BY IDOCK:   -1.09 KCAL/MOL
REMARK 927      BINDING AFFINITY PREDICTED BY RF-SCORE:    0.00 PKD
ROOT
HETATM    1  C   UNL     1      -9.607  16.340  66.916  1.00  0.00    -0.244 C  
HETATM    2  C   UNL     1     -10.791  16.589  67.840  1.00  0.00    -0.326 C  
ENDROOT
BRANCH   2   3
HETATM    3  C   UNL     1     -10.365  16.636  69.309  1.00  0.00    -0.318 C  
BRANCH   3   4
HETATM    4  C   UNL     1     -11.199  15.753  70.177  1.00  0.00    -0.349 A  
HETATM    5  N   UNL     1     -11.918  16.317  71.164  1.00  0.00    -0.304 NA 
HETATM    6  N   UNL     1     -12.576  15.284  71.736  1.00  0.00    -0.333 NA 
HETATM    7  C   UNL     1     -12.312  14.091  71.140  1.00  0.00    -0.365 A  
HETATM    8  C   UNL     1     -13.476  15.539  72.836  1.00  0.00    -0.548 C  
HETATM    9  C   UNL     1     -11.416  14.356  70.148  1.00  0.00    -0.220 A  
HETATM   10  N   UNL     1     -10.965  13.348  69.383  1.00  0.00    -0.099 NA 
HETATM   11  C   UNL     1     -11.453  12.074  69.679  1.00  0.00    -0.252 C  
HETATM   12  N   UNL     1     -12.321  11.800  70.617  1.00  0.00    -0.356 N  
HETATM   13  O   UNL     1     -13.611  12.572  72.351  1.00  0.00    -0.521 OA 
HETATM   14  H   UNL     1     -12.639  10.838  70.740  1.00  0.00     0.000 HD 
HETATM   15  C   UNL     1     -12.817  12.788  71.446  1.00  0.00    -0.275 C  
BRANCH  11  16
HETATM   16  C   UNL     1     -10.982  10.897  68.842  1.00  0.00    -0.278 A  
HETATM   17  C   UNL     1     -10.806   9.685  66.745  1.00  0.00    -0.051 A  
HETATM   18  C   UNL     1     -11.258  10.800  67.465  1.00  0.00    -0.274 A  
HETATM   19  C   UNL     1     -10.285   9.852  69.483  1.00  0.00    -0.243 A  
HETATM   20  C   UNL     1     -10.183   8.622  67.400  1.00  0.00    -0.329 A  
HETATM   21  C   UNL     1      -9.965   8.685  68.779  1.00  0.00    -0.183 A  
BRANCH  18  22
HETATM   22  O   UNL     1     -11.925  11.842  66.876  1.00  0.00    -0.605 OA 
BRANCH  22  23
HETATM   23  C   UNL     1     -11.364  12.369  65.673  1.00  0.00    -0.347 C  
HETATM   24  C   UNL     1     -12.526  12.692  64.753  1.00  0.00    -0.555 C  
ENDBRANCH  22  23
ENDBRANCH  18  22
BRANCH  21  25
HETATM   25  S   UNL     1      -9.181   7.298  69.586  1.00  0.00    -0.141 S  
HETATM   26  O   UNL     1      -8.323   7.831  70.624  1.00  0.00    -0.120 OA 
HETATM   27  O   UNL     1      -8.639   6.463  68.534  1.00  0.00    -0.122 OA 
BRANCH  25  28
HETATM   28  N   UNL     1     -10.422   6.415  70.323  1.00  0.00    -0.207 N  
HETATM   29  C   UNL     1     -10.283   4.954  70.491  1.00  0.00    -0.218 C  
HETATM   30  C   UNL     1      -9.644   4.625  71.846  1.00  0.00    -0.154 C  
HETATM   31  N   UNL     1     -10.345   5.194  73.014  1.00  0.00    -0.182 NA 
HETATM   32  C   UNL     1     -10.731   6.607  72.803  1.00  0.00    -0.243 C  
HETATM   33  C   UNL     1     -11.475   4.351  73.391  1.00  0.00    -0.203 C  
HETATM   34  C   UNL     1     -11.244   7.015  71.401  1.00  0.00    -0.252 C  
ENDBRANCH  25  28
ENDBRANCH  21  25
ENDBRANCH  11  16
ENDBRANCH   3   4
ENDBRANCH   2   3
TORSDOF 7
ENDMDL
MODEL       39
REMARK 921   NORMALIZED FREE ENERGY PREDICTED BY IDOCK:   -6.35 KCAL/MOL
REMARK 922        TOTAL FREE ENERGY PREDICTED BY IDOCK:  -10.30 KCAL/MOL
REMARK 923 INTER-LIGAND FREE ENERGY PREDICTED BY IDOCK:   -9.33 KCAL/MOL
REMARK 924 INTRA-LIGAND FREE ENERGY PREDICTED BY IDOCK:   -0.96 KCAL/MOL
REMARK 927      BINDING AFFINITY PREDICTED BY RF-SCORE:    0.00 PKD
ROOT
HETATM    1  C   UNL     1      -8.047  18.971  68.757  1.00  0.00    -0.372 C  
HETATM    2  C   UNL     1      -8.105  18.047  67.549  1.00  0.00    -0.231 C  
ENDROOT
BRANCH   2   3
HETATM    3  C   UNL     1      -8.441  16.609  67.950  1.00  0.00    -0.194 C  
BRANCH   3   4
HETATM    4  C   UNL     1      -9.553  16.032  67.140  1.00  0.00    -0.218 A  
HETATM    5  N   UNL     1      -9.788  16.542  65.917  1.00  0.00    -0.459 NA 
HETATM    6  N   UNL     1     -10.813  15.802  65.433  1.00  0.00    -0.370 NA 
HETATM    7  C   UNL     1     -11.224  14.837  66.298  1.00  0.00    -0.343 A  
HETATM    8  C   UNL     1     -11.313  16.069  64.106  1.00  0.00     0.028 C  
HETATM    9  C   UNL     1     -10.449  14.971  67.410  1.00  0.00    -0.257 A  
HETATM   10  N   UNL     1     -10.639  14.140  68.448  1.00  0.00    -0.252 NA 
HETATM   11  C   UNL     1     -11.649  13.187  68.307  1.00  0.00    -0.335 C  
HETATM   12  N   UNL     1     -12.396  13.033  67.245  1.00  0.00    -0.100 N  
HETATM   13  O   UNL     1     -12.952  13.768  65.144  1.00  0.00    -0.738 OA 
HETATM   14  H   UNL     1     -13.093  12.288  67.227  1.00  0.00     0.000 HD 
HETATM   15  C   UNL     1     -12.260  13.861  66.147  1.00  0.00    -0.464 C  
BRANCH  11  16
HETATM   16  C   UNL     1     -11.904  12.216  69.447  1.00  0.00    -0.370 A  
HETATM   17  C   UNL     1     -12.686  11.687  71.685  1.00  0.00    -0.375 A  
HETATM   18  C   UNL     1     -12.483  12.626  70.664  1.00  0.00    -0.239 A  
HETATM   19  C   UNL     1     -11.504  10.873  69.290  1.00  0.00    -0.372 A  
HETATM   20  C   UNL     1     -12.220  10.378  71.549  1.00  0.00    -0.418 A  
HETATM   21  C   UNL     1     -11.586   9.984  70.368  1.00  0.00    -0.302 A  
BRANCH  18  22
HETATM   22  O   UNL     1     -12.871  13.935  70.772  1.00  0.00    -0.312 OA 
BRANCH  22  23
HETATM   23  C   UNL     1     -12.509  14.617  71.973  1.00  0.00    -0.332 C  
HETATM   24  C   UNL     1     -13.774  15.258  72.512  1.00  0.00    -0.627 C  
ENDBRANCH  22  23
ENDBRANCH  18  22
BRANCH  21  25
HETATM   25  S   UNL     1     -10.986   8.307  70.237  1.00  0.00    -0.203 S  
HETATM   26  O   UNL     1     -10.785   8.029  68.830  1.00  0.00    -0.162 OA 
HETATM   27  O   UNL     1     -11.879   7.489  71.033  1.00  0.00    -0.292 OA 
BRANCH  25  28
HETATM   28  N   UNL     1      -9.480   8.280  71.005  1.00  0.00    -0.155 N  
HETATM   29  C   UNL     1      -9.408   8.296  72.480  1.00  0.00    -0.280 C  
HETATM   30  C   UNL     1      -9.388   6.867  73.036  1.00  0.00    -0.140 C  
HETATM   31  N   UNL     1      -8.313   6.010  72.496  1.00  0.00    -0.116 NA 
HETATM   32  C   UNL     1      -8.175   6.139  71.028  1.00  0.00    -0.123 C  
HETATM   33  C   UNL     1      -7.061   6.256  73.204  1.00  0.00    -0.083 C  
HETATM   34  C   UNL     1      -8.336   7.549  70.409  1.00  0.00    -0.128 C  
ENDBRANCH  25  28
ENDBRANCH  21  25
ENDBRANCH  11  16
ENDBRANCH   3   4
ENDBRANCH   2   3
TORSDOF 7
ENDMDL
MODEL       40
REMARK 921   NORMALIZED FREE ENERGY PREDICTED BY IDOCK:   -6.34 KCAL/MOL
REMARK 922        TOTAL FREE ENERGY PREDICTED BY IDOCK:  -10.28 KCAL/MOL
REMARK 923 INTER-LIGAND FREE ENERGY PREDICTED BY IDOCK:   -9.62 KCAL/MOL
REMARK 924 INTRA-LIGAND FREE ENERGY PREDICTED BY IDOCK:   -0.66 KCAL/MOL
REMARK 927      BINDING AFFINITY PREDICTED BY RF-SCORE:    0.00 PKD
ROOT
HETATM    1  C   UNL     1      -6.425   6.659  69.316  1.00  0.00    -0.039 C  
HETATM    2  C   UNL     1      -7.825   7.252  69.402  1.00  0.00    -0.122 C  
ENDROOT
BRANCH   2   3
HETATM    3  C   UNL     1      -8.152   7.734  70.816  1.00  0.00    -0.102 C  
BRANCH   3   4
HETATM    4  C   UNL     1      -9.618   7.745  71.094  1.00  0.00    -0.158 A  
HETATM    5  N   UNL     1     -10.156   6.695  71.741  1.00  0.00    -0.183 NA 
HETATM    6  N   UNL     1     -11.465   7.011  71.868  1.00  0.00    -0.259 NA 
HETATM    7  C   UNL     1     -11.771   8.225  71.339  1.00  0.00    -0.287 A  
HETATM    8  C   UNL     1     -12.350   6.098  72.551  1.00  0.00     0.074 C  
HETATM    9  C   UNL     1     -10.611   8.712  70.816  1.00  0.00    -0.210 A  
HETATM   10  N   UNL     1     -10.615   9.913  70.215  1.00  0.00    -0.284 NA 
HETATM   11  C   UNL     1     -11.840  10.580  70.161  1.00  0.00    -0.320 C  
HETATM   12  N   UNL     1     -12.961  10.137  70.666  1.00  0.00    -0.551 N  
HETATM   13  O   UNL     1     -14.061   8.442  71.752  1.00  0.00    -0.396 OA 
HETATM   14  H   UNL     1     -13.802  10.711  70.599  1.00  0.00     0.000 HD 
HETATM   15  C   UNL     1     -13.029   8.905  71.288  1.00  0.00    -0.211 C  
BRANCH  11  16
HETATM   16  C   UNL     1     -11.901  11.945  69.498  1.00  0.00    -0.395 A  
HETATM   17  C   UNL     1     -12.285  14.343  69.547  1.00  0.00    -0.325 A  
HETATM   18  C   UNL     1     -12.235  13.111  70.214  1.00  0.00    -0.306 A  
HETATM   19  C   UNL     1     -11.658  12.032  68.112  1.00  0.00    -0.403 A  
HETATM   20  C   UNL     1     -12.116  14.409  68.163  1.00  0.00    -0.258 A  
HETATM   21  C   UNL     1     -11.849  13.244  67.438  1.00  0.00    -0.366 A  
BRANCH  18  22
HETATM   22  O   UNL     1     -12.450  12.988  71.561  1.00  0.00    -0.232 OA 
BRANCH  22  23
HETATM   23  C   UNL     1     -13.599  13.649  72.093  1.00  0.00    -0.538 C  
HETATM   24  C   UNL     1     -13.089  14.721  73.038  1.00  0.00    -0.614 C  
ENDBRANCH  22  23
ENDBRANCH  18  22
BRANCH  21  25
HETATM   25  S   UNL     1     -11.657  13.363  65.667  1.00  0.00    -0.341 S  
HETATM   26  O   UNL     1     -10.479  14.167  65.413  1.00  0.00    -0.316 OA 
HETATM   27  O   UNL     1     -12.948  13.756  65.140  1.00  0.00    -0.738 OA 
BRANCH  25  28
HETATM   28  N   UNL     1     -11.358  11.793  65.115  1.00  0.00    -0.262 N  
HETATM   29  C   UNL     1     -11.307  11.522  63.664  1.00  0.00    -0.318 C  
HETATM   30  C   UNL     1      -9.874  11.663  63.138  1.00  0.00    -0.382 C  
HETATM   31  N   UNL     1      -8.875  10.827  63.834  1.00  0.00    -0.152 NA 
HETATM   32  C   UNL     1      -9.036  10.868  65.305  1.00  0.00    -0.186 C  
HETATM   33  C   UNL     1      -8.890   9.467  63.303  1.00  0.00    -0.215 C  
HETATM   34  C   UNL     1     -10.475  10.875  65.875  1.00  0.00    -0.221 C  
ENDBRANCH  25  28
ENDBRANCH  21  25
ENDBRANCH  11  16
ENDBRANCH   3   4
ENDBRANCH   2   3
TORSDOF 7
ENDMDL
MODEL       41
REMARK 921   NORMALIZED FREE ENERGY PREDICTED BY IDOCK:   -6.32 KCAL/MOL
REMARK 922        TOTAL FREE ENERGY PREDICTED BY IDOCK:  -10.26 KCAL/MOL
REMARK 923 INTER-LIGAND FREE ENERGY PREDICTED BY IDOCK:   -8.94 KCAL/MOL
REMARK 924 INTRA-LIGAND FREE ENERGY PREDICTED BY IDOCK:   -1.32 KCAL/MOL
REMARK 927      BINDING AFFINITY PREDICTED BY RF-SCORE:    0.00 PKD
ROOT
HETATM    1  C   UNL     1     -10.496  19.858  66.150  1.00  0.00    -0.581 C  
HETATM    2  C   UNL     1      -9.678  20.268  67.366  1.00  0.00    -0.584 C  
ENDROOT
BRANCH   2   3
HETATM    3  C   UNL     1      -8.186  19.991  67.167  1.00  0.00    -0.365 C  
BRANCH   3   4
HETATM    4  C   UNL     1      -7.713  18.806  67.940  1.00  0.00    -0.256 A  
HETATM    5  N   UNL     1      -6.699  18.969  68.809  1.00  0.00    -0.275 NA 
HETATM    6  N   UNL     1      -6.530  17.748  69.364  1.00  0.00    -0.246 NA 
HETATM    7  C   UNL     1      -7.406  16.823  68.889  1.00  0.00    -0.235 A  
HETATM    8  C   UNL     1      -5.519  17.565  70.378  1.00  0.00    -0.253 C  
HETATM    9  C   UNL     1      -8.166  17.466  67.959  1.00  0.00    -0.229 A  
HETATM   10  N   UNL     1      -9.127  16.787  67.312  1.00  0.00    -0.218 NA 
HETATM   11  C   UNL     1      -9.269  15.438  67.643  1.00  0.00    -0.187 C  
HETATM   12  N   UNL     1      -8.559  14.805  68.540  1.00  0.00    -0.163 N  
HETATM   13  O   UNL     1      -6.845  14.882  70.063  1.00  0.00    -0.182 OA 
HETATM   14  H   UNL     1      -8.756  13.822  68.732  1.00  0.00     0.000 HD 
HETATM   15  C   UNL     1      -7.548  15.441  69.234  1.00  0.00    -0.216 C  
BRANCH  11  16
HETATM   16  C   UNL     1     -10.345  14.623  66.947  1.00  0.00    -0.264 A  
HETATM   17  C   UNL     1     -12.633  13.847  66.703  1.00  0.00    -0.177 A  
HETATM   18  C   UNL     1     -11.685  14.627  67.379  1.00  0.00    -0.390 A  
HETATM   19  C   UNL     1      -9.971  13.804  65.862  1.00  0.00    -0.308 A  
HETATM   20  C   UNL     1     -12.242  12.983  65.678  1.00  0.00    -0.521 A  
HETATM   21  C   UNL     1     -10.901  12.927  65.289  1.00  0.00    -0.292 A  
BRANCH  18  22
HETATM   22  O   UNL     1     -12.010  15.446  68.427  1.00  0.00    -0.301 OA 
BRANCH  22  23
HETATM   23  C   UNL     1     -12.118  14.835  69.714  1.00  0.00    -0.319 C  
HETATM   24  C   UNL     1     -11.445  15.770  70.701  1.00  0.00    -0.415 C  
ENDBRANCH  22  23
ENDBRANCH  18  22
BRANCH  21  25
HETATM   25  S   UNL     1     -10.434  11.798  63.987  1.00  0.00    -0.412 S  
HETATM   26  O   UNL     1      -9.290  12.370  63.309  1.00  0.00    -0.004 OA 
HETATM   27  O   UNL     1     -11.647  11.487  63.259  1.00  0.00    -0.298 OA 
BRANCH  25  28
HETATM   28  N   UNL     1      -9.941  10.372  64.751  1.00  0.00    -0.334 N  
HETATM   29  C   UNL     1      -8.800   9.605  64.209  1.00  0.00    -0.228 C  
HETATM   30  C   UNL     1      -7.487  10.059  64.858  1.00  0.00    -0.140 C  
HETATM   31  N   UNL     1      -7.472   9.993  66.333  1.00  0.00    -0.101 NA 
HETATM   32  C   UNL     1      -8.714  10.532  66.931  1.00  0.00    -0.127 C  
HETATM   33  C   UNL     1      -7.174   8.636  66.779  1.00  0.00    -0.078 C  
HETATM   34  C   UNL     1     -10.053  10.219  66.221  1.00  0.00    -0.236 C  
ENDBRANCH  25  28
ENDBRANCH  21  25
ENDBRANCH  11  16
ENDBRANCH   3   4
ENDBRANCH   2   3
TORSDOF 7
ENDMDL
MODEL       42
REMARK 921   NORMALIZED FREE ENERGY PREDICTED BY IDOCK:   -6.30 KCAL/MOL
REMARK 922        TOTAL FREE ENERGY PREDICTED BY IDOCK:  -10.23 KCAL/MOL
REMARK 923 INTER-LIGAND FREE ENERGY PREDICTED BY IDOCK:   -8.66 KCAL/MOL
REMARK 924 INTRA-LIGAND FREE ENERGY PREDICTED BY IDOCK:   -1.57 KCAL/MOL
REMARK 927      BINDING AFFINITY PREDICTED BY RF-SCORE:    0.00 PKD
ROOT
HETATM    1  C   UNL     1      -9.709  19.965  66.831  1.00  0.00    -0.532 C  
HETATM    2  C   UNL     1     -10.136  18.506  66.908  1.00  0.00    -0.396 C  
ENDROOT
BRANCH   2   3
HETATM    3  C   UNL     1      -9.257  17.707  67.872  1.00  0.00    -0.267 C  
BRANCH   3   4
HETATM    4  C   UNL     1     -10.032  16.702  68.657  1.00  0.00    -0.261 A  
HETATM    5  N   UNL     1     -10.593  17.088  69.818  1.00  0.00    -0.145 NA 
HETATM    6  N   UNL     1     -11.239  15.987  70.264  1.00  0.00    -0.366 NA 
HETATM    7  C   UNL     1     -11.118  14.925  69.424  1.00  0.00    -0.280 A  
HETATM    8  C   UNL     1     -11.984  16.054  71.498  1.00  0.00    -0.475 C  
HETATM    9  C   UNL     1     -10.333  15.346  68.393  1.00  0.00    -0.229 A  
HETATM   10  N   UNL     1     -10.037  14.491  67.400  1.00  0.00    -0.235 NA 
HETATM   11  C   UNL     1     -10.562  13.202  67.510  1.00  0.00    -0.235 C  
HETATM   12  N   UNL     1     -11.326  12.781  68.483  1.00  0.00    -0.268 N  
HETATM   13  O   UNL     1     -12.352  13.245  70.482  1.00  0.00    -0.342 OA 
HETATM   14  H   UNL     1     -11.683  11.825  68.461  1.00  0.00     0.000 HD 
HETATM   15  C   UNL     1     -11.660  13.605  69.540  1.00  0.00    -0.301 C  
BRANCH  11  16
HETATM   16  C   UNL     1     -10.264  12.195  66.412  1.00  0.00    -0.245 A  
HETATM   17  C   UNL     1     -10.785  11.084  64.316  1.00  0.00    -0.348 A  
HETATM   18  C   UNL     1     -11.105  12.036  65.294  1.00  0.00    -0.317 A  
HETATM   19  C   UNL     1      -9.131  11.366  66.548  1.00  0.00    -0.193 A  
HETATM   20  C   UNL     1      -9.705  10.218  64.495  1.00  0.00    -0.395 A  
HETATM   21  C   UNL     1      -8.905  10.329  65.635  1.00  0.00    -0.168 A  
BRANCH  18  22
HETATM   22  O   UNL     1     -12.188  12.869  65.191  1.00  0.00    -0.415 OA 
BRANCH  22  23
HETATM   23  C   UNL     1     -12.246  13.711  64.039  1.00  0.00    -0.390 C  
HETATM   24  C   UNL     1     -12.154  15.142  64.537  1.00  0.00    -0.310 C  
ENDBRANCH  22  23
ENDBRANCH  18  22
BRANCH  21  25
HETATM   25  S   UNL     1      -7.543   9.193  65.839  1.00  0.00    -0.095 S  
HETATM   26  O   UNL     1      -6.507   9.888  66.573  1.00  0.00    -0.068 OA 
HETATM   27  O   UNL     1      -7.275   8.634  64.530  1.00  0.00    -0.089 OA 
BRANCH  25  28
HETATM   28  N   UNL     1      -8.120   7.928  66.803  1.00  0.00    -0.106 N  
HETATM   29  C   UNL     1      -7.924   7.972  68.266  1.00  0.00    -0.128 C  
HETATM   30  C   UNL     1      -9.118   8.647  68.952  1.00  0.00    -0.145 C  
HETATM   31  N   UNL     1     -10.430   8.041  68.645  1.00  0.00    -0.196 NA 
HETATM   32  C   UNL     1     -10.588   7.746  67.203  1.00  0.00    -0.331 C  
HETATM   33  C   UNL     1     -10.661   6.873  69.489  1.00  0.00    -0.246 C  
HETATM   34  C   UNL     1      -9.359   7.199  66.438  1.00  0.00    -0.143 C  
ENDBRANCH  25  28
ENDBRANCH  21  25
ENDBRANCH  11  16
ENDBRANCH   3   4
ENDBRANCH   2   3
TORSDOF 7
ENDMDL
MODEL       43
REMARK 921   NORMALIZED FREE ENERGY PREDICTED BY IDOCK:   -6.29 KCAL/MOL
REMARK 922        TOTAL FREE ENERGY PREDICTED BY IDOCK:  -10.21 KCAL/MOL
REMARK 923 INTER-LIGAND FREE ENERGY PREDICTED BY IDOCK:   -9.48 KCAL/MOL
REMARK 924 INTRA-LIGAND FREE ENERGY PREDICTED BY IDOCK:   -0.73 KCAL/MOL
REMARK 927      BINDING AFFINITY PREDICTED BY RF-SCORE:    0.00 PKD
ROOT
HETATM    1  C   UNL     1     -11.782  12.242  63.945  1.00  0.00    -0.536 C  
HETATM    2  C   UNL     1     -10.895  11.014  63.795  1.00  0.00    -0.201 C  
ENDROOT
BRANCH   2   3
HETATM    3  C   UNL     1      -9.726  11.035  64.781  1.00  0.00    -0.311 C  
BRANCH   3   4
HETATM    4  C   UNL     1      -9.774   9.904  65.754  1.00  0.00    -0.266 A  
HETATM    5  N   UNL     1      -9.230   8.726  65.397  1.00  0.00    -0.145 NA 
HETATM    6  N   UNL     1      -9.400   7.933  66.479  1.00  0.00    -0.189 NA 
HETATM    7  C   UNL     1     -10.020   8.568  67.509  1.00  0.00    -0.200 A  
HETATM    8  C   UNL     1      -8.901   6.580  66.450  1.00  0.00    -0.143 C  
HETATM    9  C   UNL     1     -10.291   9.828  67.068  1.00  0.00    -0.239 A  
HETATM   10  N   UNL     1     -10.913  10.692  67.887  1.00  0.00    -0.273 NA 
HETATM   11  C   UNL     1     -11.253  10.215  69.155  1.00  0.00    -0.183 C  
HETATM   12  N   UNL     1     -10.992   9.015  69.602  1.00  0.00    -0.377 N  
HETATM   13  O   UNL     1     -10.122   6.935  69.178  1.00  0.00    -0.165 OA 
HETATM   14  H   UNL     1     -11.257   8.768  70.556  1.00  0.00     0.000 HD 
HETATM   15  C   UNL     1     -10.364   8.075  68.808  1.00  0.00    -0.206 C  
BRANCH  11  16
HETATM   16  C   UNL     1     -11.953  11.151  70.125  1.00  0.00    -0.449 A  
HETATM   17  C   UNL     1     -13.527  11.602  71.919  1.00  0.00    -0.269 A  
HETATM   18  C   UNL     1     -12.905  10.690  71.054  1.00  0.00    -0.402 A  
HETATM   19  C   UNL     1     -11.667  12.530  70.055  1.00  0.00    -0.297 A  
HETATM   20  C   UNL     1     -13.293  12.972  71.794  1.00  0.00    -0.468 A  
HETATM   21  C   UNL     1     -12.397  13.440  70.829  1.00  0.00    -0.354 A  
BRANCH  18  22
HETATM   22  O   UNL     1     -13.145   9.342  71.101  1.00  0.00    -0.307 OA 
BRANCH  22  23
HETATM   23  C   UNL     1     -13.210   8.743  72.396  1.00  0.00    -0.394 C  
HETATM   24  C   UNL     1     -11.875   8.060  72.629  1.00  0.00    -0.380 C  
ENDBRANCH  22  23
ENDBRANCH  18  22
BRANCH  21  25
HETATM   25  S   UNL     1     -12.137  15.201  70.684  1.00  0.00    -0.364 S  
HETATM   26  O   UNL     1     -11.231  15.592  71.744  1.00  0.00    -0.391 OA 
HETATM   27  O   UNL     1     -13.451  15.802  70.574  1.00  0.00    -0.366 OA 
BRANCH  25  28
HETATM   28  N   UNL     1     -11.360  15.446  69.202  1.00  0.00    -0.293 N  
HETATM   29  C   UNL     1     -11.396  16.778  68.566  1.00  0.00    -0.064 C  
HETATM   30  C   UNL     1     -10.191  17.619  69.003  1.00  0.00    -0.314 C  
HETATM   31  N   UNL     1      -8.877  16.990  68.759  1.00  0.00    -0.263 NA 
HETATM   32  C   UNL     1      -8.856  15.564  69.158  1.00  0.00    -0.253 C  
HETATM   33  C   UNL     1      -8.463  17.193  67.375  1.00  0.00    -0.191 C  
HETATM   34  C   UNL     1     -10.115  14.713  68.867  1.00  0.00    -0.234 C  
ENDBRANCH  25  28
ENDBRANCH  21  25
ENDBRANCH  11  16
ENDBRANCH   3   4
ENDBRANCH   2   3
TORSDOF 7
ENDMDL
MODEL       44
REMARK 921   NORMALIZED FREE ENERGY PREDICTED BY IDOCK:   -6.27 KCAL/MOL
REMARK 922        TOTAL FREE ENERGY PREDICTED BY IDOCK:  -10.18 KCAL/MOL
REMARK 923 INTER-LIGAND FREE ENERGY PREDICTED BY IDOCK:   -9.17 KCAL/MOL
REMARK 924 INTRA-LIGAND FREE ENERGY PREDICTED BY IDOCK:   -1.02 KCAL/MOL
REMARK 927      BINDING AFFINITY PREDICTED BY RF-SCORE:    0.00 PKD
ROOT
HETATM    1  C   UNL     1     -11.204   4.547  73.336  1.00  0.00    -0.404 C  
HETATM    2  C   UNL     1     -10.443   5.864  73.383  1.00  0.00    -0.263 C  
ENDROOT
BRANCH   2   3
HETATM    3  C   UNL     1      -9.160   5.809  72.551  1.00  0.00    -0.136 C  
BRANCH   3   4
HETATM    4  C   UNL     1      -9.403   6.078  71.103  1.00  0.00    -0.160 A  
HETATM    5  N   UNL     1      -9.056   5.136  70.208  1.00  0.00    -0.122 NA 
HETATM    6  N   UNL     1      -9.425   5.652  69.013  1.00  0.00    -0.123 NA 
HETATM    7  C   UNL     1     -10.003   6.878  69.121  1.00  0.00    -0.162 A  
HETATM    8  C   UNL     1      -9.217   4.878  67.813  1.00  0.00    -0.121 C  
HETATM    9  C   UNL     1      -9.986   7.188  70.448  1.00  0.00    -0.187 A  
HETATM   10  N   UNL     1     -10.497   8.361  70.855  1.00  0.00    -0.192 NA 
HETATM   11  C   UNL     1     -11.008   9.198  69.862  1.00  0.00    -0.204 C  
HETATM   12  N   UNL     1     -11.045   8.915  68.586  1.00  0.00    -0.433 N  
HETATM   13  O   UNL     1     -10.520   7.437  66.912  1.00  0.00    -0.302 OA 
HETATM   14  H   UNL     1     -11.465   9.582  67.938  1.00  0.00     0.000 HD 
HETATM   15  C   UNL     1     -10.528   7.731  68.099  1.00  0.00    -0.176 C  
BRANCH  11  16
HETATM   16  C   UNL     1     -11.604  10.535  70.266  1.00  0.00    -0.417 A  
HETATM   17  C   UNL     1     -13.012  11.922  71.678  1.00  0.00    -0.447 A  
HETATM   18  C   UNL     1     -12.485  10.663  71.357  1.00  0.00    -0.390 A  
HETATM   19  C   UNL     1     -11.295  11.672  69.491  1.00  0.00    -0.328 A  
HETATM   20  C   UNL     1     -12.760  13.026  70.862  1.00  0.00    -0.299 A  
HETATM   21  C   UNL     1     -11.938  12.890  69.741  1.00  0.00    -0.296 A  
BRANCH  18  22
HETATM   22  O   UNL     1     -12.749   9.539  72.094  1.00  0.00    -0.380 OA 
BRANCH  22  23
HETATM   23  C   UNL     1     -14.071   9.006  72.005  1.00  0.00    -0.368 C  
HETATM   24  C   UNL     1     -13.936   7.578  71.510  1.00  0.00    -0.522 C  
ENDBRANCH  22  23
ENDBRANCH  18  22
BRANCH  21  25
HETATM   25  S   UNL     1     -11.653  14.319  68.709  1.00  0.00    -0.344 S  
HETATM   26  O   UNL     1     -12.140  15.476  69.431  1.00  0.00    -0.336 OA 
HETATM   27  O   UNL     1     -12.175  13.991  67.398  1.00  0.00    -0.384 OA 
BRANCH  25  28
HETATM   28  N   UNL     1      -9.975  14.461  68.548  1.00  0.00    -0.233 N  
HETATM   29  C   UNL     1      -9.333  14.148  67.255  1.00  0.00    -0.225 C  
HETATM   30  C   UNL     1      -9.227  15.406  66.385  1.00  0.00    -0.305 C  
HETATM   31  N   UNL     1      -8.530  16.541  67.022  1.00  0.00    -0.183 NA 
HETATM   32  C   UNL     1      -8.964  16.751  68.422  1.00  0.00    -0.233 C  
HETATM   33  C   UNL     1      -7.084  16.386  66.898  1.00  0.00    -0.221 C  
HETATM   34  C   UNL     1      -9.224  15.500  69.294  1.00  0.00    -0.268 C  
ENDBRANCH  25  28
ENDBRANCH  21  25
ENDBRANCH  11  16
ENDBRANCH   3   4
ENDBRANCH   2   3
TORSDOF 7
ENDMDL
MODEL       45
REMARK 921   NORMALIZED FREE ENERGY PREDICTED BY IDOCK:   -6.26 KCAL/MOL
REMARK 922        TOTAL FREE ENERGY PREDICTED BY IDOCK:  -10.17 KCAL/MOL
REMARK 923 INTER-LIGAND FREE ENERGY PREDICTED BY IDOCK:   -8.69 KCAL/MOL
REMARK 924 INTRA-LIGAND FREE ENERGY PREDICTED BY IDOCK:   -1.48 KCAL/MOL
REMARK 927      BINDING AFFINITY PREDICTED BY RF-SCORE:    0.00 PKD
ROOT
HETATM    1  C   UNL     1      -6.239   7.759  67.797  1.00  0.00    -0.050 C  
HETATM    2  C   UNL     1      -7.375   8.749  67.583  1.00  0.00    -0.085 C  
ENDROOT
BRANCH   2   3
HETATM    3  C   UNL     1      -8.152   8.453  66.299  1.00  0.00    -0.105 C  
BRANCH   3   4
HETATM    4  C   UNL     1      -8.920   9.634  65.807  1.00  0.00    -0.169 A  
HETATM    5  N   UNL     1      -8.765  10.012  64.525  1.00  0.00    -0.179 NA 
HETATM    6  N   UNL     1      -9.600  11.066  64.380  1.00  0.00    -0.243 NA 
HETATM    7  C   UNL     1     -10.285  11.360  65.517  1.00  0.00    -0.264 A  
HETATM    8  C   UNL     1      -9.705  11.714  63.095  1.00  0.00    -0.360 C  
HETATM    9  C   UNL     1      -9.856  10.472  66.457  1.00  0.00    -0.206 A  
HETATM   10  N   UNL     1     -10.367  10.530  67.698  1.00  0.00    -0.204 NA 
HETATM   11  C   UNL     1     -11.312  11.528  67.937  1.00  0.00    -0.303 C  
HETATM   12  N   UNL     1     -11.746  12.382  67.048  1.00  0.00    -0.368 N  
HETATM   13  O   UNL     1     -11.615  13.180  64.901  1.00  0.00    -0.307 OA 
HETATM   14  H   UNL     1     -12.461  13.061  67.313  1.00  0.00     0.000 HD 
HETATM   15  C   UNL     1     -11.255  12.385  65.757  1.00  0.00    -0.333 C  
BRANCH  11  16
HETATM   16  C   UNL     1     -11.928  11.636  69.321  1.00  0.00    -0.382 A  
HETATM   17  C   UNL     1     -12.530  12.887  71.315  1.00  0.00    -0.298 A  
HETATM   18  C   UNL     1     -11.957  12.849  70.036  1.00  0.00    -0.309 A  
HETATM   19  C   UNL     1     -12.445  10.469  69.921  1.00  0.00    -0.190 A  
HETATM   20  C   UNL     1     -12.972  11.714  71.930  1.00  0.00    -0.442 A  
HETATM   21  C   UNL     1     -12.885  10.497  71.250  1.00  0.00    -0.431 A  
BRANCH  18  22
HETATM   22  O   UNL     1     -11.458  13.963  69.414  1.00  0.00    -0.256 OA 
BRANCH  22  23
HETATM   23  C   UNL     1     -12.029  15.219  69.784  1.00  0.00    -0.347 C  
HETATM   24  C   UNL     1     -10.879  16.199  69.924  1.00  0.00    -0.355 C  
ENDBRANCH  22  23
ENDBRANCH  18  22
BRANCH  21  25
HETATM   25  S   UNL     1     -13.443   9.014  72.075  1.00  0.00    -0.472 S  
HETATM   26  O   UNL     1     -14.410   8.375  71.207  1.00  0.00    -0.358 OA 
HETATM   27  O   UNL     1     -13.803   9.406  73.422  1.00  0.00     0.177 OA 
BRANCH  25  28
HETATM   28  N   UNL     1     -12.092   8.005  72.201  1.00  0.00    -0.329 N  
HETATM   29  C   UNL     1     -12.069   6.716  71.480  1.00  0.00    -0.355 C  
HETATM   30  C   UNL     1     -11.445   6.885  70.090  1.00  0.00    -0.303 C  
HETATM   31  N   UNL     1     -10.093   7.478  70.087  1.00  0.00    -0.193 NA 
HETATM   32  C   UNL     1      -9.990   8.645  70.993  1.00  0.00    -0.215 C  
HETATM   33  C   UNL     1      -9.088   6.458  70.366  1.00  0.00    -0.155 C  
HETATM   34  C   UNL     1     -10.730   8.573  72.350  1.00  0.00    -0.306 C  
ENDBRANCH  25  28
ENDBRANCH  21  25
ENDBRANCH  11  16
ENDBRANCH   3   4
ENDBRANCH   2   3
TORSDOF 7
ENDMDL
MODEL       46
REMARK 921   NORMALIZED FREE ENERGY PREDICTED BY IDOCK:   -6.26 KCAL/MOL
REMARK 922        TOTAL FREE ENERGY PREDICTED BY IDOCK:  -10.17 KCAL/MOL
REMARK 923 INTER-LIGAND FREE ENERGY PREDICTED BY IDOCK:   -8.85 KCAL/MOL
REMARK 924 INTRA-LIGAND FREE ENERGY PREDICTED BY IDOCK:   -1.32 KCAL/MOL
REMARK 927      BINDING AFFINITY PREDICTED BY RF-SCORE:    0.00 PKD
ROOT
HETATM    1  C   UNL     1      -8.946  16.873  68.320  1.00  0.00    -0.235 C  
HETATM    2  C   UNL     1     -10.425  17.073  68.619  1.00  0.00    -0.363 C  
ENDROOT
BRANCH   2   3
HETATM    3  C   UNL     1     -11.252  15.841  68.245  1.00  0.00    -0.356 C  
BRANCH   3   4
HETATM    4  C   UNL     1     -11.951  15.241  69.419  1.00  0.00    -0.315 A  
HETATM    5  N   UNL     1     -12.656  16.052  70.229  1.00  0.00    -0.197 NA 
HETATM    6  N   UNL     1     -13.186  15.224  71.158  1.00  0.00    -0.469 NA 
HETATM    7  C   UNL     1     -12.854  13.921  70.958  1.00  0.00    -0.324 A  
HETATM    8  C   UNL     1     -14.037  15.769  72.189  1.00  0.00    -0.316 C  
HETATM    9  C   UNL     1     -12.046  13.901  69.861  1.00  0.00    -0.344 A  
HETATM   10  N   UNL     1     -11.556  12.729  69.427  1.00  0.00    -0.297 NA 
HETATM   11  C   UNL     1     -11.912  11.594  70.158  1.00  0.00    -0.359 C  
HETATM   12  N   UNL     1     -12.694  11.589  71.205  1.00  0.00    -0.398 N  
HETATM   13  O   UNL     1     -13.941  12.805  72.700  1.00  0.00    -0.503 OA 
HETATM   14  H   UNL     1     -12.919  10.703  71.658  1.00  0.00     0.000 HD 
HETATM   15  C   UNL     1     -13.224  12.761  71.710  1.00  0.00    -0.374 C  
BRANCH  11  16
HETATM   16  C   UNL     1     -11.391  10.240  69.709  1.00  0.00    -0.334 A  
HETATM   17  C   UNL     1     -10.873   7.899  70.098  1.00  0.00    -0.243 A  
HETATM   18  C   UNL     1     -11.375   9.122  70.565  1.00  0.00    -0.257 A  
HETATM   19  C   UNL     1     -10.867  10.120  68.405  1.00  0.00    -0.284 A  
HETATM   20  C   UNL     1     -10.289   7.808  68.833  1.00  0.00    -0.224 A  
HETATM   21  C   UNL     1     -10.244   8.932  68.004  1.00  0.00    -0.213 A  
BRANCH  18  22
HETATM   22  O   UNL     1     -11.905   9.276  71.818  1.00  0.00    -0.353 OA 
BRANCH  22  23
HETATM   23  C   UNL     1     -12.708   8.204  72.315  1.00  0.00    -0.255 C  
HETATM   24  C   UNL     1     -14.136   8.494  71.892  1.00  0.00    -0.519 C  
ENDBRANCH  22  23
ENDBRANCH  18  22
BRANCH  21  25
HETATM   25  S   UNL     1      -9.474   8.782  66.400  1.00  0.00    -0.246 S  
HETATM   26  O   UNL     1     -10.235   9.597  65.477  1.00  0.00    -0.228 OA 
HETATM   27  O   UNL     1      -9.295   7.364  66.162  1.00  0.00    -0.146 OA 
BRANCH  25  28
HETATM   28  N   UNL     1      -7.928   9.453  66.552  1.00  0.00    -0.107 N  
HETATM   29  C   UNL     1      -7.667  10.816  66.047  1.00  0.00    -0.139 C  
HETATM   30  C   UNL     1      -7.905  11.856  67.149  1.00  0.00    -0.168 C  
HETATM   31  N   UNL     1      -7.134  11.630  68.388  1.00  0.00    -0.077 NA 
HETATM   32  C   UNL     1      -7.159  10.213  68.814  1.00  0.00    -0.075 C  
HETATM   33  C   UNL     1      -5.779  12.153  68.248  1.00  0.00    -0.052 C  
HETATM   34  C   UNL     1      -7.069   9.126  67.715  1.00  0.00    -0.079 C  
ENDBRANCH  25  28
ENDBRANCH  21  25
ENDBRANCH  11  16
ENDBRANCH   3   4
ENDBRANCH   2   3
TORSDOF 7
ENDMDL
MODEL       47
REMARK 921   NORMALIZED FREE ENERGY PREDICTED BY IDOCK:   -6.22 KCAL/MOL
REMARK 922        TOTAL FREE ENERGY PREDICTED BY IDOCK:  -10.12 KCAL/MOL
REMARK 923 INTER-LIGAND FREE ENERGY PREDICTED BY IDOCK:   -8.91 KCAL/MOL
REMARK 924 INTRA-LIGAND FREE ENERGY PREDICTED BY IDOCK:   -1.21 KCAL/MOL
REMARK 927      BINDING AFFINITY PREDICTED BY RF-SCORE:    0.00 PKD
ROOT
HETATM    1  C   UNL     1     -12.785  14.907  73.563  1.00  0.00    -0.629 C  
HETATM    2  C   UNL     1     -13.722  15.655  72.624  1.00  0.00    -0.666 C  
ENDROOT
BRANCH   2   3
HETATM    3  C   UNL     1     -13.951  14.886  71.321  1.00  0.00    -0.489 C  
BRANCH   3   4
HETATM    4  C   UNL     1     -12.756  14.901  70.428  1.00  0.00    -0.321 A  
HETATM    5  N   UNL     1     -12.286  16.089  70.004  1.00  0.00    -0.181 NA 
HETATM    6  N   UNL     1     -11.203  15.777  69.257  1.00  0.00    -0.299 NA 
HETATM    7  C   UNL     1     -10.964  14.439  69.202  1.00  0.00    -0.265 A  
HETATM    8  C   UNL     1     -10.428  16.836  68.656  1.00  0.00    -0.333 C  
HETATM    9  C   UNL     1     -11.954  13.849  69.927  1.00  0.00    -0.341 A  
HETATM   10  N   UNL     1     -11.975  12.511  70.045  1.00  0.00    -0.334 NA 
HETATM   11  C   UNL     1     -10.960  11.812  69.390  1.00  0.00    -0.125 C  
HETATM   12  N   UNL     1      -9.994  12.358  68.699  1.00  0.00    -0.382 N  
HETATM   13  O   UNL     1      -9.049  14.279  67.873  1.00  0.00    -0.177 OA 
HETATM   14  H   UNL     1      -9.281  11.763  68.277  1.00  0.00     0.000 HD 
HETATM   15  C   UNL     1      -9.920  13.727  68.530  1.00  0.00    -0.217 C  
BRANCH  11  16
HETATM   16  C   UNL     1     -10.930  10.297  69.494  1.00  0.00    -0.300 A  
HETATM   17  C   UNL     1     -10.515   8.087  68.576  1.00  0.00    -0.200 A  
HETATM   18  C   UNL     1     -10.513   9.481  68.425  1.00  0.00    -0.224 A  
HETATM   19  C   UNL     1     -11.379   9.695  70.688  1.00  0.00    -0.379 A  
HETATM   20  C   UNL     1     -11.030   7.498  69.732  1.00  0.00    -0.195 A  
HETATM   21  C   UNL     1     -11.506   8.304  70.770  1.00  0.00    -0.252 A  
BRANCH  18  22
HETATM   22  O   UNL     1     -10.071  10.102  67.288  1.00  0.00    -0.186 OA 
BRANCH  22  23
HETATM   23  C   UNL     1      -9.948   9.294  66.117  1.00  0.00    -0.277 C  
HETATM   24  C   UNL     1      -9.317  10.165  65.047  1.00  0.00    -0.299 C  
ENDBRANCH  22  23
ENDBRANCH  18  22
BRANCH  21  25
HETATM   25  S   UNL     1     -12.174   7.516  72.227  1.00  0.00    -0.141 S  
HETATM   26  O   UNL     1     -12.932   6.364  71.786  1.00  0.00    -0.168 OA 
HETATM   27  O   UNL     1     -12.804   8.562  73.007  1.00  0.00    -0.206 OA 
BRANCH  25  28
HETATM   28  N   UNL     1     -10.847   6.969  73.122  1.00  0.00    -0.311 N  
HETATM   29  C   UNL     1     -10.598   5.519  73.253  1.00  0.00    -0.250 C  
HETATM   30  C   UNL     1      -9.673   5.026  72.134  1.00  0.00    -0.161 C  
HETATM   31  N   UNL     1      -8.386   5.744  72.035  1.00  0.00    -0.121 NA 
HETATM   32  C   UNL     1      -8.551   7.210  72.145  1.00  0.00    -0.110 C  
HETATM   33  C   UNL     1      -7.430   5.211  73.001  1.00  0.00    -0.096 C  
HETATM   34  C   UNL     1      -9.586   7.747  73.163  1.00  0.00    -0.275 C  
ENDBRANCH  25  28
ENDBRANCH  21  25
ENDBRANCH  11  16
ENDBRANCH   3   4
ENDBRANCH   2   3
TORSDOF 7
ENDMDL
MODEL       48
REMARK 921   NORMALIZED FREE ENERGY PREDICTED BY IDOCK:   -6.22 KCAL/MOL
REMARK 922        TOTAL FREE ENERGY PREDICTED BY IDOCK:  -10.12 KCAL/MOL
REMARK 923 INTER-LIGAND FREE ENERGY PREDICTED BY IDOCK:   -9.07 KCAL/MOL
REMARK 924 INTRA-LIGAND FREE ENERGY PREDICTED BY IDOCK:   -1.05 KCAL/MOL
REMARK 927      BINDING AFFINITY PREDICTED BY RF-SCORE:    0.00 PKD
ROOT
HETATM    1  C   UNL     1      -9.375  10.178  63.744  1.00  0.00    -0.336 C  
HETATM    2  C   UNL     1      -8.579   8.903  63.986  1.00  0.00    -0.122 C  
ENDROOT
BRANCH   2   3
HETATM    3  C   UNL     1      -7.957   8.878  65.384  1.00  0.00    -0.110 C  
BRANCH   3   4
HETATM    4  C   UNL     1      -8.722   8.021  66.337  1.00  0.00    -0.151 A  
HETATM    5  N   UNL     1      -8.597   6.685  66.242  1.00  0.00    -0.133 NA 
HETATM    6  N   UNL     1      -9.370   6.201  67.241  1.00  0.00    -0.113 NA 
HETATM    7  C   UNL     1      -9.967   7.180  67.971  1.00  0.00    -0.158 A  
HETATM    8  C   UNL     1      -9.448   4.775  67.447  1.00  0.00    -0.146 C  
HETATM    9  C   UNL     1      -9.588   8.359  67.403  1.00  0.00    -0.157 A  
HETATM   10  N   UNL     1     -10.038   9.513  67.922  1.00  0.00    -0.180 NA 
HETATM   11  C   UNL     1     -10.890   9.411  69.023  1.00  0.00    -0.136 C  
HETATM   12  N   UNL     1     -11.258   8.292  69.590  1.00  0.00    -0.452 N  
HETATM   13  O   UNL     1     -11.177   5.999  69.584  1.00  0.00    -0.394 OA 
HETATM   14  H   UNL     1     -11.865   8.322  70.409  1.00  0.00     0.000 HD 
HETATM   15  C   UNL     1     -10.839   7.070  69.100  1.00  0.00    -0.195 C  
BRANCH  11  16
HETATM   16  C   UNL     1     -11.425  10.685  69.655  1.00  0.00    -0.361 A  
HETATM   17  C   UNL     1     -12.646  11.880  71.382  1.00  0.00    -0.346 A  
HETATM   18  C   UNL     1     -12.169  10.673  70.850  1.00  0.00    -0.395 A  
HETATM   19  C   UNL     1     -11.202  11.910  68.992  1.00  0.00    -0.316 A  
HETATM   20  C   UNL     1     -12.485  13.076  70.682  1.00  0.00    -0.347 A  
HETATM   21  C   UNL     1     -11.803  13.083  69.462  1.00  0.00    -0.323 A  
BRANCH  18  22
HETATM   22  O   UNL     1     -12.352   9.466  71.471  1.00  0.00    -0.325 OA 
BRANCH  22  23
HETATM   23  C   UNL     1     -13.557   9.301  72.219  1.00  0.00    -0.480 C  
HETATM   24  C   UNL     1     -14.345   8.195  71.544  1.00  0.00    -0.534 C  
ENDBRANCH  22  23
ENDBRANCH  18  22
BRANCH  21  25
HETATM   25  S   UNL     1     -11.632  14.630  68.586  1.00  0.00    -0.326 S  
HETATM   26  O   UNL     1     -12.058  15.684  69.483  1.00  0.00    -0.360 OA 
HETATM   27  O   UNL     1     -12.276  14.447  67.301  1.00  0.00    -0.383 OA 
BRANCH  25  28
HETATM   28  N   UNL     1      -9.980  14.824  68.283  1.00  0.00    -0.217 N  
HETATM   29  C   UNL     1      -9.465  14.690  66.905  1.00  0.00    -0.246 C  
HETATM   30  C   UNL     1      -9.454  16.050  66.197  1.00  0.00    -0.336 C  
HETATM   31  N   UNL     1      -8.706  17.109  66.905  1.00  0.00    -0.222 NA 
HETATM   32  C   UNL     1      -9.002  17.132  68.355  1.00  0.00    -0.259 C  
HETATM   33  C   UNL     1      -7.279  16.999  66.623  1.00  0.00    -0.258 C  
HETATM   34  C   UNL     1      -9.167  15.774  69.080  1.00  0.00    -0.256 C  
ENDBRANCH  25  28
ENDBRANCH  21  25
ENDBRANCH  11  16
ENDBRANCH   3   4
ENDBRANCH   2   3
TORSDOF 7
ENDMDL
MODEL       49
REMARK 921   NORMALIZED FREE ENERGY PREDICTED BY IDOCK:   -6.22 KCAL/MOL
REMARK 922        TOTAL FREE ENERGY PREDICTED BY IDOCK:  -10.11 KCAL/MOL
REMARK 923 INTER-LIGAND FREE ENERGY PREDICTED BY IDOCK:   -8.98 KCAL/MOL
REMARK 924 INTRA-LIGAND FREE ENERGY PREDICTED BY IDOCK:   -1.13 KCAL/MOL
REMARK 927      BINDING AFFINITY PREDICTED BY RF-SCORE:    0.00 PKD
ROOT
HETATM    1  C   UNL     1     -12.555  15.237  73.808  1.00  0.00    -0.736 C  
HETATM    2  C   UNL     1     -13.479  15.376  72.607  1.00  0.00    -0.630 C  
ENDROOT
BRANCH   2   3
HETATM    3  C   UNL     1     -13.259  14.255  71.589  1.00  0.00    -0.429 C  
BRANCH   3   4
HETATM    4  C   UNL     1     -12.281  14.629  70.526  1.00  0.00    -0.324 A  
HETATM    5  N   UNL     1     -11.969  15.929  70.369  1.00  0.00    -0.348 NA 
HETATM    6  N   UNL     1     -11.054  15.939  69.373  1.00  0.00    -0.296 NA 
HETATM    7  C   UNL     1     -10.767  14.695  68.904  1.00  0.00    -0.248 A  
HETATM    8  C   UNL     1     -10.475  17.193  68.956  1.00  0.00    -0.321 C  
HETATM    9  C   UNL     1     -11.553  13.835  69.609  1.00  0.00    -0.281 A  
HETATM   10  N   UNL     1     -11.483  12.519  69.352  1.00  0.00    -0.275 NA 
HETATM   11  C   UNL     1     -10.596  12.126  68.348  1.00  0.00    -0.226 C  
HETATM   12  N   UNL     1      -9.825  12.933  67.667  1.00  0.00    -0.207 N  
HETATM   13  O   UNL     1      -9.169  15.090  67.245  1.00  0.00    -0.190 OA 
HETATM   14  H   UNL     1      -9.188  12.547  66.969  1.00  0.00     0.000 HD 
HETATM   15  C   UNL     1      -9.855  14.298  67.875  1.00  0.00    -0.226 C  
BRANCH  11  16
HETATM   16  C   UNL     1     -10.471  10.649  68.018  1.00  0.00    -0.228 A  
HETATM   17  C   UNL     1     -10.172   8.812  66.457  1.00  0.00    -0.314 A  
HETATM   18  C   UNL     1     -10.270  10.189  66.702  1.00  0.00    -0.224 A  
HETATM   19  C   UNL     1     -10.607   9.712  69.064  1.00  0.00    -0.237 A  
HETATM   20  C   UNL     1     -10.381   7.891  67.484  1.00  0.00    -0.329 A  
HETATM   21  C   UNL     1     -10.646   8.342  68.780  1.00  0.00    -0.123 A  
BRANCH  18  22
HETATM   22  O   UNL     1     -10.129  11.130  65.717  1.00  0.00    -0.230 OA 
BRANCH  22  23
HETATM   23  C   UNL     1     -10.363  10.699  64.376  1.00  0.00    -0.276 C  
HETATM   24  C   UNL     1     -10.103  11.895  63.479  1.00  0.00    -0.464 C  
ENDBRANCH  22  23
ENDBRANCH  18  22
BRANCH  21  25
HETATM   25  S   UNL     1     -10.927   7.134  70.065  1.00  0.00    -0.253 S  
HETATM   26  O   UNL     1     -11.162   5.861  69.418  1.00  0.00    -0.375 OA 
HETATM   27  O   UNL     1     -11.916   7.706  70.956  1.00  0.00    -0.299 OA 
BRANCH  25  28
HETATM   28  N   UNL     1      -9.483   7.028  70.940  1.00  0.00    -0.161 N  
HETATM   29  C   UNL     1      -9.510   7.115  72.414  1.00  0.00    -0.145 C  
HETATM   30  C   UNL     1      -9.647   5.721  73.036  1.00  0.00    -0.150 C  
HETATM   31  N   UNL     1      -8.613   4.753  72.616  1.00  0.00    -0.115 NA 
HETATM   32  C   UNL     1      -8.367   4.794  71.158  1.00  0.00    -0.105 C  
HETATM   33  C   UNL     1      -7.395   4.935  73.399  1.00  0.00    -0.087 C  
HETATM   34  C   UNL     1      -8.367   6.176  70.463  1.00  0.00    -0.129 C  
ENDBRANCH  25  28
ENDBRANCH  21  25
ENDBRANCH  11  16
ENDBRANCH   3   4
ENDBRANCH   2   3
TORSDOF 7
ENDMDL
MODEL       50
REMARK 921   NORMALIZED FREE ENERGY PREDICTED BY IDOCK:   -6.20 KCAL/MOL
REMARK 922        TOTAL FREE ENERGY PREDICTED BY IDOCK:  -10.08 KCAL/MOL
REMARK 923 INTER-LIGAND FREE ENERGY PREDICTED BY IDOCK:   -8.57 KCAL/MOL
REMARK 924 INTRA-LIGAND FREE ENERGY PREDICTED BY IDOCK:   -1.51 KCAL/MOL
REMARK 927      BINDING AFFINITY PREDICTED BY RF-SCORE:    0.00 PKD
ROOT
HETATM    1  C   UNL     1      -6.970   7.147  72.216  1.00  0.00    -0.064 C  
HETATM    2  C   UNL     1      -6.383   8.396  71.574  1.00  0.00    -0.052 C  
ENDROOT
BRANCH   2   3
HETATM    3  C   UNL     1      -5.980   8.151  70.119  1.00  0.00    -0.025 C  
BRANCH   3   4
HETATM    4  C   UNL     1      -7.141   7.782  69.256  1.00  0.00    -0.076 A  
HETATM    5  N   UNL     1      -7.114   6.599  68.616  1.00  0.00    -0.080 NA 
HETATM    6  N   UNL     1      -8.295   6.544  67.958  1.00  0.00    -0.116 NA 
HETATM    7  C   UNL     1      -9.070   7.641  68.169  1.00  0.00    -0.132 A  
HETATM    8  C   UNL     1      -8.614   5.376  67.174  1.00  0.00    -0.108 C  
HETATM    9  C   UNL     1      -8.350   8.463  68.981  1.00  0.00    -0.119 A  
HETATM   10  N   UNL     1      -8.874   9.641  69.357  1.00  0.00    -0.166 NA 
HETATM   11  C   UNL     1     -10.144   9.944  68.864  1.00  0.00    -0.184 C  
HETATM   12  N   UNL     1     -10.858   9.165  68.094  1.00  0.00    -0.464 N  
HETATM   13  O   UNL     1     -10.997   7.197  66.922  1.00  0.00    -0.363 OA 
HETATM   14  H   UNL     1     -11.790   9.464  67.806  1.00  0.00     0.000 HD 
HETATM   15  C   UNL     1     -10.374   7.946  67.662  1.00  0.00    -0.241 C  
BRANCH  11  16
HETATM   16  C   UNL     1     -10.789  11.260  69.262  1.00  0.00    -0.259 A  
HETATM   17  C   UNL     1     -12.370  12.576  70.554  1.00  0.00    -0.345 A  
HETATM   18  C   UNL     1     -11.805  11.333  70.234  1.00  0.00    -0.357 A  
HETATM   19  C   UNL     1     -10.382  12.436  68.599  1.00  0.00    -0.198 A  
HETATM   20  C   UNL     1     -12.015  13.722  69.842  1.00  0.00    -0.412 A  
HETATM   21  C   UNL     1     -11.053  13.643  68.831  1.00  0.00    -0.256 A  
BRANCH  18  22
HETATM   22  O   UNL     1     -12.163  10.171  70.866  1.00  0.00    -0.305 OA 
BRANCH  22  23
HETATM   23  C   UNL     1     -13.164  10.270  71.880  1.00  0.00    -0.445 C  
HETATM   24  C   UNL     1     -13.565   8.852  72.239  1.00  0.00    -0.513 C  
ENDBRANCH  22  23
ENDBRANCH  18  22
BRANCH  21  25
HETATM   25  S   UNL     1     -10.637  15.126  67.928  1.00  0.00    -0.263 S  
HETATM   26  O   UNL     1      -9.195  15.167  67.807  1.00  0.00    -0.179 OA 
HETATM   27  O   UNL     1     -11.357  16.210  68.565  1.00  0.00    -0.359 OA 
BRANCH  25  28
HETATM   28  N   UNL     1     -11.296  14.941  66.381  1.00  0.00    -0.335 N  
HETATM   29  C   UNL     1     -10.402  14.845  65.209  1.00  0.00    -0.396 C  
HETATM   30  C   UNL     1     -10.052  13.382  64.914  1.00  0.00    -0.233 C  
HETATM   31  N   UNL     1     -11.217  12.495  64.723  1.00  0.00    -0.296 NA 
HETATM   32  C   UNL     1     -12.267  12.720  65.741  1.00  0.00    -0.408 C  
HETATM   33  C   UNL     1     -11.722  12.603  63.358  1.00  0.00    -0.498 C  
HETATM   34  C   UNL     1     -12.551  14.178  66.176  1.00  0.00    -0.321 C  
ENDBRANCH  25  28
ENDBRANCH  21  25
ENDBRANCH  11  16
ENDBRANCH   3   4
ENDBRANCH   2   3
TORSDOF 7
ENDMDL
MODEL       51
REMARK 921   NORMALIZED FREE ENERGY PREDICTED BY IDOCK:   -6.18 KCAL/MOL
REMARK 922        TOTAL FREE ENERGY PREDICTED BY IDOCK:  -10.06 KCAL/MOL
REMARK 923 INTER-LIGAND FREE ENERGY PREDICTED BY IDOCK:   -8.96 KCAL/MOL
REMARK 924 INTRA-LIGAND FREE ENERGY PREDICTED BY IDOCK:   -1.11 KCAL/MOL
REMARK 927      BINDING AFFINITY PREDICTED BY RF-SCORE:    0.00 PKD
ROOT
HETATM    1  C   UNL     1      -7.677   9.626  69.590  1.00  0.00    -0.124 C  
HETATM    2  C   UNL     1      -7.286   8.764  68.398  1.00  0.00    -0.086 C  
ENDROOT
BRANCH   2   3
HETATM    3  C   UNL     1      -8.512   8.274  67.625  1.00  0.00    -0.130 C  
BRANCH   3   4
HETATM    4  C   UNL     1      -8.718   9.016  66.346  1.00  0.00    -0.132 A  
HETATM    5  N   UNL     1      -8.439   8.389  65.189  1.00  0.00    -0.173 NA 
HETATM    6  N   UNL     1      -8.752   9.291  64.231  1.00  0.00    -0.195 NA 
HETATM    7  C   UNL     1      -9.230  10.458  64.739  1.00  0.00    -0.230 A  
HETATM    8  C   UNL     1      -8.596   8.932  62.842  1.00  0.00    -0.145 C  
HETATM    9  C   UNL     1      -9.201  10.321  66.094  1.00  0.00    -0.158 A  
HETATM   10  N   UNL     1      -9.618  11.337  66.867  1.00  0.00    -0.188 NA 
HETATM   11  C   UNL     1     -10.049  12.488  66.205  1.00  0.00    -0.250 C  
HETATM   12  N   UNL     1     -10.097  12.637  64.908  1.00  0.00    -0.432 N  
HETATM   13  O   UNL     1      -9.677  11.741  62.837  1.00  0.00    -0.357 OA 
HETATM   14  H   UNL     1     -10.453  13.509  64.516  1.00  0.00     0.000 HD 
HETATM   15  C   UNL     1      -9.672  11.635  64.055  1.00  0.00    -0.202 C  
BRANCH  11  16
HETATM   16  C   UNL     1     -10.538  13.666  67.030  1.00  0.00    -0.274 A  
HETATM   17  C   UNL     1     -11.864  14.635  68.819  1.00  0.00    -0.348 A  
HETATM   18  C   UNL     1     -11.440  13.509  68.099  1.00  0.00    -0.303 A  
HETATM   19  C   UNL     1     -10.104  14.960  66.677  1.00  0.00    -0.264 A  
HETATM   20  C   UNL     1     -11.489  15.917  68.417  1.00  0.00    -0.348 A  
HETATM   21  C   UNL     1     -10.645  16.082  67.316  1.00  0.00    -0.313 A  
BRANCH  18  22
HETATM   22  O   UNL     1     -11.827  12.235  68.420  1.00  0.00    -0.317 OA 
BRANCH  22  23
HETATM   23  C   UNL     1     -11.886  11.909  69.810  1.00  0.00    -0.340 C  
HETATM   24  C   UNL     1     -11.346  10.499  69.953  1.00  0.00    -0.380 C  
ENDBRANCH  22  23
ENDBRANCH  18  22
BRANCH  21  25
HETATM   25  S   UNL     1     -10.200  17.739  66.819  1.00  0.00    -0.351 S  
HETATM   26  O   UNL     1     -10.874  18.655  67.716  1.00  0.00    -0.390 OA 
HETATM   27  O   UNL     1     -10.418  17.811  65.388  1.00  0.00    -0.641 OA 
BRANCH  25  28
HETATM   28  N   UNL     1      -8.534  17.878  67.069  1.00  0.00    -0.230 N  
HETATM   29  C   UNL     1      -7.704  18.617  66.095  1.00  0.00    -0.233 C  
HETATM   30  C   UNL     1      -7.590  20.093  66.493  1.00  0.00    -0.282 C  
HETATM   31  N   UNL     1      -7.078  20.327  67.859  1.00  0.00    -0.291 NA 
HETATM   32  C   UNL     1      -7.707  19.432  68.855  1.00  0.00    -0.347 C  
HETATM   33  C   UNL     1      -5.620  20.254  67.876  1.00  0.00    -0.205 C  
HETATM   34  C   UNL     1      -7.976  17.965  68.440  1.00  0.00    -0.298 C  
ENDBRANCH  25  28
ENDBRANCH  21  25
ENDBRANCH  11  16
ENDBRANCH   3   4
ENDBRANCH   2   3
TORSDOF 7
ENDMDL
MODEL       52
REMARK 921   NORMALIZED FREE ENERGY PREDICTED BY IDOCK:   -6.16 KCAL/MOL
REMARK 922        TOTAL FREE ENERGY PREDICTED BY IDOCK:  -10.03 KCAL/MOL
REMARK 923 INTER-LIGAND FREE ENERGY PREDICTED BY IDOCK:   -8.66 KCAL/MOL
REMARK 924 INTRA-LIGAND FREE ENERGY PREDICTED BY IDOCK:   -1.37 KCAL/MOL
REMARK 927      BINDING AFFINITY PREDICTED BY RF-SCORE:    0.00 PKD
ROOT
HETATM    1  C   UNL     1     -10.204   4.044  64.853  1.00  0.00    -0.211 C  
HETATM    2  C   UNL     1      -9.578   4.860  65.975  1.00  0.00    -0.185 C  
ENDROOT
BRANCH   2   3
HETATM    3  C   UNL     1     -10.623   5.685  66.728  1.00  0.00    -0.372 C  
BRANCH   3   4
HETATM    4  C   UNL     1     -10.457   5.608  68.209  1.00  0.00    -0.192 A  
HETATM    5  N   UNL     1     -10.031   4.450  68.747  1.00  0.00    -0.079 NA 
HETATM    6  N   UNL     1      -9.952   4.703  70.074  1.00  0.00    -0.231 NA 
HETATM    7  C   UNL     1     -10.299   5.979  70.392  1.00  0.00    -0.223 A  
HETATM    8  C   UNL     1      -9.495   3.665  70.966  1.00  0.00    -0.164 C  
HETATM    9  C   UNL     1     -10.648   6.579  69.219  1.00  0.00    -0.247 A  
HETATM   10  N   UNL     1     -11.044   7.862  69.230  1.00  0.00     0.031 NA 
HETATM   11  C   UNL     1     -11.081   8.493  70.474  1.00  0.00    -0.244 C  
HETATM   12  N   UNL     1     -10.739   7.941  71.609  1.00  0.00    -0.219 N  
HETATM   13  O   UNL     1     -10.028   6.058  72.712  1.00  0.00    -0.173 OA 
HETATM   14  H   UNL     1     -10.775   8.494  72.466  1.00  0.00     0.000 HD 
HETATM   15  C   UNL     1     -10.332   6.622  71.670  1.00  0.00    -0.205 C  
BRANCH  11  16
HETATM   16  C   UNL     1     -11.516   9.947  70.545  1.00  0.00    -0.391 A  
HETATM   17  C   UNL     1     -12.876  11.741  71.456  1.00  0.00    -0.450 A  
HETATM   18  C   UNL     1     -12.508  10.388  71.442  1.00  0.00    -0.415 A  
HETATM   19  C   UNL     1     -10.934  10.868  69.650  1.00  0.00    -0.311 A  
HETATM   20  C   UNL     1     -12.349  12.630  70.518  1.00  0.00    -0.350 A  
HETATM   21  C   UNL     1     -11.412  12.182  69.583  1.00  0.00    -0.238 A  
BRANCH  18  22
HETATM   22  O   UNL     1     -13.038   9.467  72.305  1.00  0.00    -0.415 OA 
BRANCH  22  23
HETATM   23  C   UNL     1     -14.399   9.090  72.089  1.00  0.00    -0.267 C  
HETATM   24  C   UNL     1     -14.388   7.633  71.665  1.00  0.00    -0.613 C  
ENDBRANCH  22  23
ENDBRANCH  18  22
BRANCH  21  25
HETATM   25  S   UNL     1     -10.774  13.343  68.386  1.00  0.00    -0.261 S  
HETATM   26  O   UNL     1     -11.641  13.290  67.228  1.00  0.00    -0.319 OA 
HETATM   27  O   UNL     1      -9.357  13.069  68.264  1.00  0.00    -0.212 OA 
BRANCH  25  28
HETATM   28  N   UNL     1     -10.918  14.875  69.088  1.00  0.00    -0.249 N  
HETATM   29  C   UNL     1      -9.758  15.480  69.775  1.00  0.00    -0.241 C  
HETATM   30  C   UNL     1      -8.933  16.327  68.800  1.00  0.00    -0.243 C  
HETATM   31  N   UNL     1      -9.696  17.379  68.097  1.00  0.00    -0.279 NA 
HETATM   32  C   UNL     1     -10.996  16.885  67.592  1.00  0.00    -0.165 C  
HETATM   33  C   UNL     1      -9.831  18.561  68.942  1.00  0.00    -0.341 C  
HETATM   34  C   UNL     1     -11.796  15.908  68.486  1.00  0.00    -0.188 C  
ENDBRANCH  25  28
ENDBRANCH  21  25
ENDBRANCH  11  16
ENDBRANCH   3   4
ENDBRANCH   2   3
TORSDOF 7
ENDMDL
MODEL       53
REMARK 921   NORMALIZED FREE ENERGY PREDICTED BY IDOCK:   -6.16 KCAL/MOL
REMARK 922        TOTAL FREE ENERGY PREDICTED BY IDOCK:  -10.02 KCAL/MOL
REMARK 923 INTER-LIGAND FREE ENERGY PREDICTED BY IDOCK:   -9.17 KCAL/MOL
REMARK 924 INTRA-LIGAND FREE ENERGY PREDICTED BY IDOCK:   -0.85 KCAL/MOL
REMARK 927      BINDING AFFINITY PREDICTED BY RF-SCORE:    0.00 PKD
ROOT
HETATM    1  C   UNL     1     -11.699  16.179  72.186  1.00  0.00    -0.569 C  
HETATM    2  C   UNL     1     -12.093  16.044  70.722  1.00  0.00    -0.296 C  
ENDROOT
BRANCH   2   3
HETATM    3  C   UNL     1     -10.890  16.211  69.792  1.00  0.00    -0.333 C  
BRANCH   3   4
HETATM    4  C   UNL     1     -10.978  15.346  68.579  1.00  0.00    -0.278 A  
HETATM    5  N   UNL     1     -10.928  15.931  67.368  1.00  0.00    -0.296 NA 
HETATM    6  N   UNL     1     -10.997  14.903  66.492  1.00  0.00    -0.324 NA 
HETATM    7  C   UNL     1     -11.076  13.691  67.103  1.00  0.00    -0.297 A  
HETATM    8  C   UNL     1     -10.942  15.175  65.076  1.00  0.00    -0.430 C  
HETATM    9  C   UNL     1     -11.087  13.943  68.442  1.00  0.00    -0.255 A  
HETATM   10  N   UNL     1     -11.164  12.915  69.303  1.00  0.00    -0.224 NA 
HETATM   11  C   UNL     1     -11.242  11.638  68.746  1.00  0.00    -0.245 C  
HETATM   12  N   UNL     1     -11.221  11.373  67.466  1.00  0.00    -0.279 N  
HETATM   13  O   UNL     1     -11.156  12.182  65.320  1.00  0.00    -0.303 OA 
HETATM   14  H   UNL     1     -11.256  10.402  67.155  1.00  0.00     0.000 HD 
HETATM   15  C   UNL     1     -11.153  12.383  66.526  1.00  0.00    -0.301 C  
BRANCH  11  16
HETATM   16  C   UNL     1     -11.325  10.438  69.673  1.00  0.00    -0.333 A  
HETATM   17  C   UNL     1     -12.277   9.243  71.561  1.00  0.00    -0.439 A  
HETATM   18  C   UNL     1     -12.252  10.372  70.731  1.00  0.00    -0.359 A  
HETATM   19  C   UNL     1     -10.411   9.380  69.488  1.00  0.00    -0.229 A  
HETATM   20  C   UNL     1     -11.322   8.235  71.418  1.00  0.00    -0.309 A  
HETATM   21  C   UNL     1     -10.359   8.327  70.410  1.00  0.00    -0.205 A  
BRANCH  18  22
HETATM   22  O   UNL     1     -13.132  11.413  70.869  1.00  0.00    -0.189 OA 
BRANCH  22  23
HETATM   23  C   UNL     1     -13.423  11.840  72.200  1.00  0.00    -0.168 C  
HETATM   24  C   UNL     1     -13.658  13.337  72.139  1.00  0.00    -0.655 C  
ENDBRANCH  22  23
ENDBRANCH  18  22
BRANCH  21  25
HETATM   25  S   UNL     1      -9.141   7.028  70.268  1.00  0.00    -0.156 S  
HETATM   26  O   UNL     1      -8.938   6.481  71.593  1.00  0.00    -0.142 OA 
HETATM   27  O   UNL     1      -8.033   7.585  69.519  1.00  0.00    -0.120 OA 
BRANCH  25  28
HETATM   28  N   UNL     1      -9.836   5.830  69.298  1.00  0.00    -0.159 N  
HETATM   29  C   UNL     1     -11.025   6.146  68.480  1.00  0.00    -0.320 C  
HETATM   30  C   UNL     1     -10.609   6.623  67.083  1.00  0.00    -0.331 C  
HETATM   31  N   UNL     1      -9.735   5.688  66.346  1.00  0.00    -0.157 NA 
HETATM   32  C   UNL     1      -8.654   5.142  67.197  1.00  0.00    -0.105 C  
HETATM   33  C   UNL     1     -10.530   4.644  65.706  1.00  0.00    -0.255 C  
HETATM   34  C   UNL     1      -8.998   4.785  68.663  1.00  0.00    -0.107 C  
ENDBRANCH  25  28
ENDBRANCH  21  25
ENDBRANCH  11  16
ENDBRANCH   3   4
ENDBRANCH   2   3
TORSDOF 7
ENDMDL
MODEL       54
REMARK 921   NORMALIZED FREE ENERGY PREDICTED BY IDOCK:   -6.14 KCAL/MOL
REMARK 922        TOTAL FREE ENERGY PREDICTED BY IDOCK:  -10.00 KCAL/MOL
REMARK 923 INTER-LIGAND FREE ENERGY PREDICTED BY IDOCK:   -8.84 KCAL/MOL
REMARK 924 INTRA-LIGAND FREE ENERGY PREDICTED BY IDOCK:   -1.16 KCAL/MOL
REMARK 927      BINDING AFFINITY PREDICTED BY RF-SCORE:    0.00 PKD
ROOT
HETATM    1  C   UNL     1      -8.388  10.672  62.628  1.00  0.00    -0.217 C  
HETATM    2  C   UNL     1      -9.102   9.756  63.613  1.00  0.00    -0.269 C  
ENDROOT
BRANCH   2   3
HETATM    3  C   UNL     1      -8.124   8.825  64.332  1.00  0.00    -0.155 C  
BRANCH   3   4
HETATM    4  C   UNL     1      -8.761   8.086  65.462  1.00  0.00    -0.102 A  
HETATM    5  N   UNL     1      -8.658   6.744  65.491  1.00  0.00    -0.125 NA 
HETATM    6  N   UNL     1      -9.294   6.381  66.628  1.00  0.00    -0.149 NA 
HETATM    7  C   UNL     1      -9.784   7.441  67.323  1.00  0.00    -0.157 A  
HETATM    8  C   UNL     1      -9.353   4.985  66.990  1.00  0.00    -0.128 C  
HETATM    9  C   UNL     1      -9.476   8.548  66.591  1.00  0.00    -0.207 A  
HETATM   10  N   UNL     1      -9.846   9.758  67.041  1.00  0.00    -0.182 NA 
HETATM   11  C   UNL     1     -10.546   9.787  68.249  1.00  0.00    -0.229 C  
HETATM   12  N   UNL     1     -10.841   8.740  68.973  1.00  0.00    -0.420 N  
HETATM   13  O   UNL     1     -10.776   6.457  69.196  1.00  0.00    -0.224 OA 
HETATM   14  H   UNL     1     -11.334   8.865  69.857  1.00  0.00     0.000 HD 
HETATM   15  C   UNL     1     -10.499   7.465  68.563  1.00  0.00    -0.186 C  
BRANCH  11  16
HETATM   16  C   UNL     1     -10.984  11.129  68.809  1.00  0.00    -0.268 A  
HETATM   17  C   UNL     1     -12.220  12.499  70.388  1.00  0.00    -0.368 A  
HETATM   18  C   UNL     1     -11.841  11.233  69.921  1.00  0.00    -0.360 A  
HETATM   19  C   UNL     1     -10.549  12.303  68.160  1.00  0.00    -0.232 A  
HETATM   20  C   UNL     1     -11.846  13.652  69.696  1.00  0.00    -0.396 A  
HETATM   21  C   UNL     1     -11.048  13.551  68.554  1.00  0.00    -0.272 A  
BRANCH  18  22
HETATM   22  O   UNL     1     -12.230  10.070  70.532  1.00  0.00    -0.268 OA 
BRANCH  22  23
HETATM   23  C   UNL     1     -13.461  10.103  71.256  1.00  0.00    -0.228 C  
HETATM   24  C   UNL     1     -13.432   8.934  72.223  1.00  0.00    -0.503 C  
ENDBRANCH  22  23
ENDBRANCH  18  22
BRANCH  21  25
HETATM   25  S   UNL     1     -10.604  15.046  67.684  1.00  0.00    -0.272 S  
HETATM   26  O   UNL     1      -9.163  15.053  67.546  1.00  0.00    -0.183 OA 
HETATM   27  O   UNL     1     -11.289  16.131  68.357  1.00  0.00    -0.366 OA 
BRANCH  25  28
HETATM   28  N   UNL     1     -11.286  14.918  66.141  1.00  0.00    -0.335 N  
HETATM   29  C   UNL     1     -10.411  14.737  64.965  1.00  0.00    -0.416 C  
HETATM   30  C   UNL     1     -10.198  13.247  64.673  1.00  0.00    -0.313 C  
HETATM   31  N   UNL     1     -11.440  12.469  64.491  1.00  0.00    -0.322 NA 
HETATM   32  C   UNL     1     -12.460  12.793  65.513  1.00  0.00    -0.354 C  
HETATM   33  C   UNL     1     -11.941  12.620  63.128  1.00  0.00    -0.274 C  
HETATM   34  C   UNL     1     -12.607  14.272  65.945  1.00  0.00    -0.352 C  
ENDBRANCH  25  28
ENDBRANCH  21  25
ENDBRANCH  11  16
ENDBRANCH   3   4
ENDBRANCH   2   3
TORSDOF 7
ENDMDL
MODEL       55
REMARK 921   NORMALIZED FREE ENERGY PREDICTED BY IDOCK:   -6.14 KCAL/MOL
REMARK 922        TOTAL FREE ENERGY PREDICTED BY IDOCK:  -10.00 KCAL/MOL
REMARK 923 INTER-LIGAND FREE ENERGY PREDICTED BY IDOCK:   -8.89 KCAL/MOL
REMARK 924 INTRA-LIGAND FREE ENERGY PREDICTED BY IDOCK:   -1.10 KCAL/MOL
REMARK 927      BINDING AFFINITY PREDICTED BY RF-SCORE:    0.00 PKD
ROOT
HETATM    1  C   UNL     1      -6.248  19.367  70.073  1.00  0.00    -0.266 C  
HETATM    2  C   UNL     1      -6.734  18.929  68.699  1.00  0.00    -0.294 C  
ENDROOT
BRANCH   2   3
HETATM    3  C   UNL     1      -7.615  17.682  68.779  1.00  0.00    -0.253 C  
BRANCH   3   4
HETATM    4  C   UNL     1      -8.617  17.614  67.675  1.00  0.00    -0.224 A  
HETATM    5  N   UNL     1      -9.070  18.766  67.148  1.00  0.00    -0.280 NA 
HETATM    6  N   UNL     1      -9.919  18.379  66.169  1.00  0.00    -0.509 NA 
HETATM    7  C   UNL     1     -10.010  17.028  66.050  1.00  0.00    -0.269 A  
HETATM    8  C   UNL     1     -10.578  19.382  65.367  1.00  0.00     0.056 C  
HETATM    9  C   UNL     1      -9.202  16.508  67.015  1.00  0.00    -0.218 A  
HETATM   10  N   UNL     1      -9.097  15.175  67.137  1.00  0.00    -0.200 NA 
HETATM   11  C   UNL     1      -9.852  14.406  66.250  1.00  0.00    -0.304 C  
HETATM   12  N   UNL     1     -10.624  14.883  65.310  1.00  0.00    -0.369 N  
HETATM   13  O   UNL     1     -11.515  16.734  64.286  1.00  0.00    -1.125 OA 
HETATM   14  H   UNL     1     -11.118  14.238  64.692  1.00  0.00     0.000 HD 
HETATM   15  C   UNL     1     -10.785  16.244  65.137  1.00  0.00    -0.331 C  
BRANCH  11  16
HETATM   16  C   UNL     1      -9.767  12.892  66.338  1.00  0.00    -0.263 A  
HETATM   17  C   UNL     1      -9.858  10.673  65.355  1.00  0.00    -0.325 A  
HETATM   18  C   UNL     1      -9.938  12.065  65.211  1.00  0.00    -0.247 A  
HETATM   19  C   UNL     1      -9.555  12.303  67.602  1.00  0.00    -0.191 A  
HETATM   20  C   UNL     1      -9.722  10.096  66.619  1.00  0.00    -0.242 A  
HETATM   21  C   UNL     1      -9.618  10.912  67.748  1.00  0.00    -0.164 A  
BRANCH  18  22
HETATM   22  O   UNL     1     -10.128  12.676  64.000  1.00  0.00    -0.366 OA 
BRANCH  22  23
HETATM   23  C   UNL     1     -11.010  12.028  63.083  1.00  0.00    -0.195 C  
HETATM   24  C   UNL     1     -12.422  12.399  63.498  1.00  0.00    -0.605 C  
ENDBRANCH  22  23
ENDBRANCH  18  22
BRANCH  21  25
HETATM   25  S   UNL     1      -9.463  10.138  69.351  1.00  0.00    -0.213 S  
HETATM   26  O   UNL     1     -10.585  10.579  70.153  1.00  0.00    -0.246 OA 
HETATM   27  O   UNL     1      -8.102  10.372  69.789  1.00  0.00    -0.146 OA 
BRANCH  25  28
HETATM   28  N   UNL     1      -9.616   8.474  69.091  1.00  0.00    -0.165 N  
HETATM   29  C   UNL     1      -8.412   7.618  69.087  1.00  0.00    -0.138 C  
HETATM   30  C   UNL     1      -8.129   7.075  70.493  1.00  0.00    -0.114 C  
HETATM   31  N   UNL     1      -9.254   6.345  71.111  1.00  0.00    -0.156 NA 
HETATM   32  C   UNL     1     -10.545   7.047  70.931  1.00  0.00    -0.217 C  
HETATM   33  C   UNL     1      -9.291   4.967  70.633  1.00  0.00    -0.162 C  
HETATM   34  C   UNL     1     -10.809   7.737  69.571  1.00  0.00    -0.153 C  
ENDBRANCH  25  28
ENDBRANCH  21  25
ENDBRANCH  11  16
ENDBRANCH   3   4
ENDBRANCH   2   3
TORSDOF 7
ENDMDL
MODEL       56
REMARK 921   NORMALIZED FREE ENERGY PREDICTED BY IDOCK:   -6.13 KCAL/MOL
REMARK 922        TOTAL FREE ENERGY PREDICTED BY IDOCK:   -9.99 KCAL/MOL
REMARK 923 INTER-LIGAND FREE ENERGY PREDICTED BY IDOCK:   -9.14 KCAL/MOL
REMARK 924 INTRA-LIGAND FREE ENERGY PREDICTED BY IDOCK:   -0.84 KCAL/MOL
REMARK 927      BINDING AFFINITY PREDICTED BY RF-SCORE:    0.00 PKD
ROOT
HETATM    1  C   UNL     1     -10.740   4.260  74.156  1.00  0.00    -0.303 C  
HETATM    2  C   UNL     1      -9.945   5.497  74.549  1.00  0.00    -0.271 C  
ENDROOT
BRANCH   2   3
HETATM    3  C   UNL     1      -8.813   5.782  73.561  1.00  0.00    -0.122 C  
BRANCH   3   4
HETATM    4  C   UNL     1      -9.249   5.662  72.138  1.00  0.00    -0.146 A  
HETATM    5  N   UNL     1      -9.057   4.490  71.505  1.00  0.00    -0.127 NA 
HETATM    6  N   UNL     1      -9.575   4.685  70.271  1.00  0.00    -0.180 NA 
HETATM    7  C   UNL     1     -10.098   5.928  70.105  1.00  0.00    -0.202 A  
HETATM    8  C   UNL     1      -9.559   3.601  69.318  1.00  0.00    -0.115 C  
HETATM    9  C   UNL     1      -9.886   6.587  71.278  1.00  0.00    -0.181 A  
HETATM   10  N   UNL     1     -10.301   7.858  71.404  1.00  0.00    -0.196 NA 
HETATM   11  C   UNL     1     -10.923   8.424  70.289  1.00  0.00    -0.232 C  
HETATM   12  N   UNL     1     -11.146   7.807  69.159  1.00  0.00    -0.428 N  
HETATM   13  O   UNL     1     -10.903   5.897  67.911  1.00  0.00    -0.271 OA 
HETATM   14  H   UNL     1     -11.633   8.298  68.408  1.00  0.00     0.000 HD 
HETATM   15  C   UNL     1     -10.736   6.503  68.960  1.00  0.00    -0.278 C  
BRANCH  11  16
HETATM   16  C   UNL     1     -11.418   9.857  70.376  1.00  0.00    -0.372 A  
HETATM   17  C   UNL     1     -12.801  11.597  71.354  1.00  0.00    -0.461 A  
HETATM   18  C   UNL     1     -12.374  10.262  71.327  1.00  0.00    -0.403 A  
HETATM   19  C   UNL     1     -10.932  10.795  69.442  1.00  0.00    -0.305 A  
HETATM   20  C   UNL     1     -12.372  12.500  70.381  1.00  0.00    -0.311 A  
HETATM   21  C   UNL     1     -11.472  12.085  69.395  1.00  0.00    -0.296 A  
BRANCH  18  22
HETATM   22  O   UNL     1     -12.811   9.326  72.226  1.00  0.00    -0.389 OA 
BRANCH  22  23
HETATM   23  C   UNL     1     -14.189   8.956  72.153  1.00  0.00    -0.388 C  
HETATM   24  C   UNL     1     -14.245   7.610  71.455  1.00  0.00    -0.564 C  
ENDBRANCH  22  23
ENDBRANCH  18  22
BRANCH  21  25
HETATM   25  S   UNL     1     -10.958  13.263  68.155  1.00  0.00    -0.267 S  
HETATM   26  O   UNL     1     -12.151  13.727  67.479  1.00  0.00    -0.384 OA 
HETATM   27  O   UNL     1      -9.884  12.635  67.413  1.00  0.00    -0.201 OA 
BRANCH  25  28
HETATM   28  N   UNL     1     -10.279  14.567  68.991  1.00  0.00    -0.229 N  
HETATM   29  C   UNL     1      -8.833  14.845  68.868  1.00  0.00    -0.184 C  
HETATM   30  C   UNL     1      -8.567  15.823  67.719  1.00  0.00    -0.159 C  
HETATM   31  N   UNL     1      -9.310  17.096  67.805  1.00  0.00    -0.242 NA 
HETATM   32  C   UNL     1     -10.730  16.893  68.171  1.00  0.00    -0.375 C  
HETATM   33  C   UNL     1      -8.626  18.026  68.698  1.00  0.00    -0.264 C  
HETATM   34  C   UNL     1     -11.057  15.808  69.225  1.00  0.00    -0.297 C  
ENDBRANCH  25  28
ENDBRANCH  21  25
ENDBRANCH  11  16
ENDBRANCH   3   4
ENDBRANCH   2   3
TORSDOF 7
ENDMDL
MODEL       57
REMARK 921   NORMALIZED FREE ENERGY PREDICTED BY IDOCK:   -6.10 KCAL/MOL
REMARK 922        TOTAL FREE ENERGY PREDICTED BY IDOCK:   -9.94 KCAL/MOL
REMARK 923 INTER-LIGAND FREE ENERGY PREDICTED BY IDOCK:   -8.72 KCAL/MOL
REMARK 924 INTRA-LIGAND FREE ENERGY PREDICTED BY IDOCK:   -1.22 KCAL/MOL
REMARK 927      BINDING AFFINITY PREDICTED BY RF-SCORE:    0.00 PKD
ROOT
HETATM    1  C   UNL     1      -7.619  18.201  68.574  1.00  0.00    -0.298 C  
HETATM    2  C   UNL     1      -8.647  17.456  67.735  1.00  0.00    -0.227 C  
ENDROOT
BRANCH   2   3
HETATM    3  C   UNL     1      -9.234  16.260  68.487  1.00  0.00    -0.211 C  
BRANCH   3   4
HETATM    4  C   UNL     1     -10.082  15.394  67.616  1.00  0.00    -0.236 A  
HETATM    5  N   UNL     1     -10.519  15.893  66.445  1.00  0.00    -0.302 NA 
HETATM    6  N   UNL     1     -11.216  14.879  65.885  1.00  0.00    -0.336 NA 
HETATM    7  C   UNL     1     -11.226  13.755  66.650  1.00  0.00    -0.318 A  
HETATM    8  C   UNL     1     -11.815  15.065  64.585  1.00  0.00    -0.375 C  
HETATM    9  C   UNL     1     -10.524  14.060  67.777  1.00  0.00    -0.236 A  
HETATM   10  N   UNL     1     -10.371  13.125  68.730  1.00  0.00    -0.182 NA 
HETATM   11  C   UNL     1     -10.969  11.887  68.490  1.00  0.00    -0.235 C  
HETATM   12  N   UNL     1     -11.637  11.570  67.412  1.00  0.00    -0.273 N  
HETATM   13  O   UNL     1     -12.478  12.240  65.385  1.00  0.00    -0.596 OA 
HETATM   14  H   UNL     1     -12.016  10.627  67.317  1.00  0.00     0.000 HD 
HETATM   15  C   UNL     1     -11.840  12.487  66.399  1.00  0.00    -0.381 C  
BRANCH  11  16
HETATM   16  C   UNL     1     -10.824  10.790  69.531  1.00  0.00    -0.288 A  
HETATM   17  C   UNL     1     -11.529   9.632  71.546  1.00  0.00    -0.439 A  
HETATM   18  C   UNL     1     -11.719  10.659  70.610  1.00  0.00    -0.356 A  
HETATM   19  C   UNL     1      -9.729   9.908  69.430  1.00  0.00    -0.228 A  
HETATM   20  C   UNL     1     -10.403   8.810  71.480  1.00  0.00    -0.374 A  
HETATM   21  C   UNL     1      -9.477   8.980  70.447  1.00  0.00    -0.210 A  
BRANCH  18  22
HETATM   22  O   UNL     1     -12.777  11.526  70.665  1.00  0.00    -0.260 OA 
BRANCH  22  23
HETATM   23  C   UNL     1     -13.363  11.748  71.949  1.00  0.00    -0.296 C  
HETATM   24  C   UNL     1     -13.617  13.239  72.063  1.00  0.00    -0.573 C  
ENDBRANCH  22  23
ENDBRANCH  18  22
BRANCH  21  25
HETATM   25  S   UNL     1      -8.038   7.922  70.405  1.00  0.00    -0.116 S  
HETATM   26  O   UNL     1      -7.892   7.340  71.723  1.00  0.00    -0.090 OA 
HETATM   27  O   UNL     1      -6.970   8.707  69.820  1.00  0.00    -0.045 OA 
BRANCH  25  28
HETATM   28  N   UNL     1      -8.393   6.682  69.311  1.00  0.00    -0.123 N  
HETATM   29  C   UNL     1      -9.586   5.837  69.520  1.00  0.00    -0.141 C  
HETATM   30  C   UNL     1     -10.800   6.426  68.793  1.00  0.00    -0.317 C  
HETATM   31  N   UNL     1     -10.603   6.656  67.347  1.00  0.00    -0.257 NA 
HETATM   32  C   UNL     1      -9.297   7.288  67.053  1.00  0.00    -0.148 C  
HETATM   33  C   UNL     1     -10.811   5.418  66.602  1.00  0.00    -0.141 C  
HETATM   34  C   UNL     1      -8.068   6.824  67.871  1.00  0.00    -0.114 C  
ENDBRANCH  25  28
ENDBRANCH  21  25
ENDBRANCH  11  16
ENDBRANCH   3   4
ENDBRANCH   2   3
TORSDOF 7
ENDMDL
MODEL       58
REMARK 921   NORMALIZED FREE ENERGY PREDICTED BY IDOCK:   -6.09 KCAL/MOL
REMARK 922        TOTAL FREE ENERGY PREDICTED BY IDOCK:   -9.93 KCAL/MOL
REMARK 923 INTER-LIGAND FREE ENERGY PREDICTED BY IDOCK:   -8.57 KCAL/MOL
REMARK 924 INTRA-LIGAND FREE ENERGY PREDICTED BY IDOCK:   -1.36 KCAL/MOL
REMARK 927      BINDING AFFINITY PREDICTED BY RF-SCORE:    0.00 PKD
ROOT
HETATM    1  C   UNL     1      -7.436   9.669  63.286  1.00  0.00    -0.116 C  
HETATM    2  C   UNL     1      -7.901   8.220  63.346  1.00  0.00    -0.152 C  
ENDROOT
BRANCH   2   3
HETATM    3  C   UNL     1      -7.209   7.448  64.471  1.00  0.00    -0.073 C  
BRANCH   3   4
HETATM    4  C   UNL     1      -8.173   6.901  65.470  1.00  0.00    -0.135 A  
HETATM    5  N   UNL     1      -8.171   5.577  65.706  1.00  0.00    -0.118 NA 
HETATM    6  N   UNL     1      -9.112   5.403  66.662  1.00  0.00    -0.121 NA 
HETATM    7  C   UNL     1      -9.699   6.567  67.047  1.00  0.00    -0.151 A  
HETATM    8  C   UNL     1      -9.359   4.078  67.179  1.00  0.00    -0.184 C  
HETATM    9  C   UNL     1      -9.133   7.545  66.286  1.00  0.00    -0.157 A  
HETATM   10  N   UNL     1      -9.529   8.818  66.450  1.00  0.00    -0.208 NA 
HETATM   11  C   UNL     1     -10.523   9.044  67.403  1.00  0.00    -0.269 C  
HETATM   12  N   UNL     1     -11.072   8.123  68.151  1.00  0.00    -0.343 N  
HETATM   13  O   UNL     1     -11.222   5.897  68.688  1.00  0.00    -0.238 OA 
HETATM   14  H   UNL     1     -11.775   8.391  68.841  1.00  0.00     0.000 HD 
HETATM   15  C   UNL     1     -10.718   6.793  68.026  1.00  0.00    -0.241 C  
BRANCH  11  16
HETATM   16  C   UNL     1     -11.006  10.465  67.634  1.00  0.00    -0.374 A  
HETATM   17  C   UNL     1     -11.696  12.293  69.078  1.00  0.00    -0.376 A  
HETATM   18  C   UNL     1     -11.242  10.975  68.925  1.00  0.00    -0.265 A  
HETATM   19  C   UNL     1     -11.265  11.279  66.512  1.00  0.00    -0.222 A  
HETATM   20  C   UNL     1     -12.020  13.065  67.962  1.00  0.00    -0.335 A  
HETATM   21  C   UNL     1     -11.849  12.540  66.678  1.00  0.00    -0.352 A  
BRANCH  18  22
HETATM   22  O   UNL     1     -10.965  10.159  69.990  1.00  0.00    -0.263 OA 
BRANCH  22  23
HETATM   23  C   UNL     1     -11.982  10.026  70.983  1.00  0.00    -0.376 C  
HETATM   24  C   UNL     1     -11.616   8.820  71.827  1.00  0.00    -0.416 C  
ENDBRANCH  22  23
ENDBRANCH  18  22
BRANCH  21  25
HETATM   25  S   UNL     1     -12.292  13.551  65.274  1.00  0.00    -0.488 S  
HETATM   26  O   UNL     1     -13.358  14.434  65.697  1.00  0.00    -0.420 OA 
HETATM   27  O   UNL     1     -12.480  12.645  64.159  1.00  0.00    -0.529 OA 
BRANCH  25  28
HETATM   28  N   UNL     1     -10.932  14.491  64.918  1.00  0.00    -0.395 N  
HETATM   29  C   UNL     1     -11.026  15.965  64.962  1.00  0.00    -0.412 C  
HETATM   30  C   UNL     1     -10.659  16.488  66.356  1.00  0.00    -0.221 C  
HETATM   31  N   UNL     1      -9.333  16.062  66.847  1.00  0.00    -0.219 NA 
HETATM   32  C   UNL     1      -9.082  14.623  66.605  1.00  0.00    -0.258 C  
HETATM   33  C   UNL     1      -8.286  16.917  66.297  1.00  0.00    -0.296 C  
HETATM   34  C   UNL     1      -9.570  14.019  65.266  1.00  0.00     0.151 C  
ENDBRANCH  25  28
ENDBRANCH  21  25
ENDBRANCH  11  16
ENDBRANCH   3   4
ENDBRANCH   2   3
TORSDOF 7
ENDMDL
MODEL       59
REMARK 921   NORMALIZED FREE ENERGY PREDICTED BY IDOCK:   -6.09 KCAL/MOL
REMARK 922        TOTAL FREE ENERGY PREDICTED BY IDOCK:   -9.93 KCAL/MOL
REMARK 923 INTER-LIGAND FREE ENERGY PREDICTED BY IDOCK:   -8.70 KCAL/MOL
REMARK 924 INTRA-LIGAND FREE ENERGY PREDICTED BY IDOCK:   -1.22 KCAL/MOL
REMARK 927      BINDING AFFINITY PREDICTED BY RF-SCORE:    0.00 PKD
ROOT
HETATM    1  C   UNL     1     -10.270   6.972  73.630  1.00  0.00    -0.396 C  
HETATM    2  C   UNL     1      -9.108   7.854  73.194  1.00  0.00    -0.322 C  
ENDROOT
BRANCH   2   3
HETATM    3  C   UNL     1      -8.181   7.129  72.217  1.00  0.00    -0.108 C  
BRANCH   3   4
HETATM    4  C   UNL     1      -8.799   6.940  70.872  1.00  0.00    -0.149 A  
HETATM    5  N   UNL     1      -8.792   5.709  70.329  1.00  0.00    -0.137 NA 
HETATM    6  N   UNL     1      -9.439   5.855  69.151  1.00  0.00    -0.126 NA 
HETATM    7  C   UNL     1      -9.866   7.128  68.935  1.00  0.00    -0.156 A  
HETATM    8  C   UNL     1      -9.638   4.703  68.305  1.00  0.00    -0.149 C  
HETATM    9  C   UNL     1      -9.453   7.853  70.012  1.00  0.00    -0.157 A  
HETATM   10  N   UNL     1      -9.734   9.165  70.069  1.00  0.00    -0.183 NA 
HETATM   11  C   UNL     1     -10.437   9.699  68.987  1.00  0.00    -0.213 C  
HETATM   12  N   UNL     1     -10.853   9.020  67.951  1.00  0.00    -0.480 N  
HETATM   13  O   UNL     1     -10.937   7.003  66.861  1.00  0.00    -0.371 OA 
HETATM   14  H   UNL     1     -11.383   9.497  67.221  1.00  0.00     0.000 HD 
HETATM   15  C   UNL     1     -10.588   7.670  67.824  1.00  0.00    -0.196 C  
BRANCH  11  16
HETATM   16  C   UNL     1     -10.788  11.177  69.001  1.00  0.00    -0.276 A  
HETATM   17  C   UNL     1     -12.250  13.033  69.561  1.00  0.00    -0.198 A  
HETATM   18  C   UNL     1     -11.974  11.659  69.587  1.00  0.00    -0.324 A  
HETATM   19  C   UNL     1      -9.913  12.082  68.366  1.00  0.00    -0.209 A  
HETATM   20  C   UNL     1     -11.418  13.912  68.867  1.00  0.00    -0.340 A  
HETATM   21  C   UNL     1     -10.273  13.428  68.228  1.00  0.00    -0.250 A  
BRANCH  18  22
HETATM   22  O   UNL     1     -12.790  10.750  70.206  1.00  0.00    -0.299 OA 
BRANCH  22  23
HETATM   23  C   UNL     1     -13.000  10.923  71.609  1.00  0.00    -0.464 C  
HETATM   24  C   UNL     1     -13.343   9.557  72.172  1.00  0.00    -0.545 C  
ENDBRANCH  22  23
ENDBRANCH  18  22
BRANCH  21  25
HETATM   25  S   UNL     1      -9.241  14.579  67.333  1.00  0.00    -0.208 S  
HETATM   26  O   UNL     1      -9.664  14.553  65.949  1.00  0.00    -0.311 OA 
HETATM   27  O   UNL     1      -7.873  14.269  67.695  1.00  0.00    -0.148 OA 
BRANCH  25  28
HETATM   28  N   UNL     1      -9.580  16.111  67.965  1.00  0.00    -0.219 N  
HETATM   29  C   UNL     1      -8.492  16.923  68.546  1.00  0.00    -0.258 C  
HETATM   30  C   UNL     1      -7.862  17.826  67.480  1.00  0.00    -0.207 C  
HETATM   31  N   UNL     1      -8.814  18.707  66.774  1.00  0.00    -0.288 NA 
HETATM   32  C   UNL     1     -10.049  17.994  66.377  1.00  0.00    -0.384 C  
HETATM   33  C   UNL     1      -9.084  19.903  67.565  1.00  0.00    -0.340 C  
HETATM   34  C   UNL     1     -10.638  16.961  67.368  1.00  0.00    -0.294 C  
ENDBRANCH  25  28
ENDBRANCH  21  25
ENDBRANCH  11  16
ENDBRANCH   3   4
ENDBRANCH   2   3
TORSDOF 7
ENDMDL
MODEL       60
REMARK 921   NORMALIZED FREE ENERGY PREDICTED BY IDOCK:   -6.06 KCAL/MOL
REMARK 922        TOTAL FREE ENERGY PREDICTED BY IDOCK:   -9.89 KCAL/MOL
REMARK 923 INTER-LIGAND FREE ENERGY PREDICTED BY IDOCK:   -8.14 KCAL/MOL
REMARK 924 INTRA-LIGAND FREE ENERGY PREDICTED BY IDOCK:   -1.75 KCAL/MOL
REMARK 927      BINDING AFFINITY PREDICTED BY RF-SCORE:    0.00 PKD
ROOT
HETATM    1  C   UNL     1     -11.939  12.918  66.329  1.00  0.00    -0.472 C  
HETATM    2  C   UNL     1     -11.189  11.744  66.942  1.00  0.00    -0.387 C  
ENDROOT
BRANCH   2   3
HETATM    3  C   UNL     1     -10.549  12.117  68.281  1.00  0.00    -0.236 C  
BRANCH   3   4
HETATM    4  C   UNL     1     -11.342  11.637  69.450  1.00  0.00    -0.278 A  
HETATM    5  N   UNL     1     -12.094  12.526  70.124  1.00  0.00    -0.332 NA 
HETATM    6  N   UNL     1     -12.704  11.794  71.084  1.00  0.00    -0.358 NA 
HETATM    7  C   UNL     1     -12.376  10.476  71.035  1.00  0.00    -0.399 A  
HETATM    8  C   UNL     1     -13.621  12.441  71.991  1.00  0.00    -0.252 C  
HETATM    9  C   UNL     1     -11.488  10.346  70.009  1.00  0.00    -0.308 A  
HETATM   10  N   UNL     1     -10.983   9.134  69.727  1.00  0.00    -0.216 NA 
HETATM   11  C   UNL     1     -11.408   8.078  70.533  1.00  0.00    -0.225 C  
HETATM   12  N   UNL     1     -12.267   8.178  71.514  1.00  0.00    -0.294 N  
HETATM   13  O   UNL     1     -13.604   9.539  72.788  1.00  0.00    -0.297 OA 
HETATM   14  H   UNL     1     -12.536   7.340  72.031  1.00  0.00     0.000 HD 
HETATM   15  C   UNL     1     -12.817   9.396  71.864  1.00  0.00    -0.412 C  
BRANCH  11  16
HETATM   16  C   UNL     1     -10.874   6.684  70.255  1.00  0.00    -0.321 A  
HETATM   17  C   UNL     1     -10.026   4.524  70.973  1.00  0.00    -0.257 A  
HETATM   18  C   UNL     1     -10.523   5.795  71.290  1.00  0.00    -0.235 A  
HETATM   19  C   UNL     1     -10.684   6.291  68.914  1.00  0.00    -0.357 A  
HETATM   20  C   UNL     1      -9.771   4.171  69.647  1.00  0.00    -0.269 A  
HETATM   21  C   UNL     1     -10.057   5.074  68.620  1.00  0.00    -0.121 A  
BRANCH  18  22
HETATM   22  O   UNL     1     -10.736   6.208  72.579  1.00  0.00    -0.205 OA 
BRANCH  22  23
HETATM   23  C   UNL     1      -9.591   6.281  73.430  1.00  0.00    -0.149 C  
HETATM   24  C   UNL     1      -9.165   7.737  73.467  1.00  0.00    -0.350 C  
ENDBRANCH  22  23
ENDBRANCH  18  22
BRANCH  21  25
HETATM   25  S   UNL     1      -9.701   4.596  66.936  1.00  0.00    -0.211 S  
HETATM   26  O   UNL     1     -10.811   5.036  66.118  1.00  0.00    -0.294 OA 
HETATM   27  O   UNL     1      -9.321   3.198  66.978  1.00  0.00    -0.184 OA 
BRANCH  25  28
HETATM   28  N   UNL     1      -8.324   5.464  66.477  1.00  0.00    -0.109 N  
HETATM   29  C   UNL     1      -8.449   6.592  65.531  1.00  0.00    -0.131 C  
HETATM   30  C   UNL     1      -8.668   7.909  66.286  1.00  0.00    -0.154 C  
HETATM   31  N   UNL     1      -7.637   8.221  67.296  1.00  0.00    -0.096 NA 
HETATM   32  C   UNL     1      -7.289   7.045  68.125  1.00  0.00    -0.097 C  
HETATM   33  C   UNL     1      -6.470   8.828  66.662  1.00  0.00    -0.063 C  
HETATM   34  C   UNL     1      -7.202   5.667  67.425  1.00  0.00    -0.076 C  
ENDBRANCH  25  28
ENDBRANCH  21  25
ENDBRANCH  11  16
ENDBRANCH   3   4
ENDBRANCH   2   3
TORSDOF 7
ENDMDL
MODEL       61
REMARK 921   NORMALIZED FREE ENERGY PREDICTED BY IDOCK:   -6.05 KCAL/MOL
REMARK 922        TOTAL FREE ENERGY PREDICTED BY IDOCK:   -9.88 KCAL/MOL
REMARK 923 INTER-LIGAND FREE ENERGY PREDICTED BY IDOCK:   -8.54 KCAL/MOL
REMARK 924 INTRA-LIGAND FREE ENERGY PREDICTED BY IDOCK:   -1.33 KCAL/MOL
REMARK 927      BINDING AFFINITY PREDICTED BY RF-SCORE:    0.00 PKD
ROOT
HETATM    1  C   UNL     1     -11.920  15.736  71.628  1.00  0.00    -0.527 C  
HETATM    2  C   UNL     1     -12.497  15.335  70.278  1.00  0.00    -0.405 C  
ENDROOT
BRANCH   2   3
HETATM    3  C   UNL     1     -11.566  15.720  69.126  1.00  0.00    -0.399 C  
BRANCH   3   4
HETATM    4  C   UNL     1     -11.437  14.637  68.107  1.00  0.00    -0.323 A  
HETATM    5  N   UNL     1     -11.509  14.970  66.805  1.00  0.00    -0.300 NA 
HETATM    6  N   UNL     1     -11.327  13.802  66.147  1.00  0.00    -0.308 NA 
HETATM    7  C   UNL     1     -11.129  12.748  66.983  1.00  0.00    -0.278 A  
HETATM    8  C   UNL     1     -11.321  13.796  64.704  1.00  0.00    -0.372 C  
HETATM    9  C   UNL     1     -11.214  13.248  68.247  1.00  0.00    -0.277 A  
HETATM   10  N   UNL     1     -11.061  12.419  69.293  1.00  0.00    -0.191 NA 
HETATM   11  C   UNL     1     -10.832  11.075  68.996  1.00  0.00    -0.229 C  
HETATM   12  N   UNL     1     -10.736  10.576  67.791  1.00  0.00    -0.250 N  
HETATM   13  O   UNL     1     -10.835  10.943  65.528  1.00  0.00    -0.161 OA 
HETATM   14  H   UNL     1     -10.541   9.582  67.675  1.00  0.00     0.000 HD 
HETATM   15  C   UNL     1     -10.894  11.371  66.672  1.00  0.00    -0.289 C  
BRANCH  11  16
HETATM   16  C   UNL     1     -10.645  10.094  70.140  1.00  0.00    -0.337 A  
HETATM   17  C   UNL     1     -11.453   8.871  72.077  1.00  0.00    -0.431 A  
HETATM   18  C   UNL     1     -11.687   9.777  71.033  1.00  0.00    -0.370 A  
HETATM   19  C   UNL     1      -9.372   9.519  70.333  1.00  0.00    -0.311 A  
HETATM   20  C   UNL     1     -10.173   8.365  72.305  1.00  0.00    -0.396 A  
HETATM   21  C   UNL     1      -9.121   8.728  71.460  1.00  0.00    -0.252 A  
BRANCH  18  22
HETATM   22  O   UNL     1     -12.913  10.344  70.804  1.00  0.00    -0.375 OA 
BRANCH  22  23
HETATM   23  C   UNL     1     -13.618  10.837  71.944  1.00  0.00    -0.078 C  
HETATM   24  C   UNL     1     -13.308  12.319  72.044  1.00  0.00    -0.491 C  
ENDBRANCH  22  23
ENDBRANCH  18  22
BRANCH  21  25
HETATM   25  S   UNL     1      -7.492   8.076  71.793  1.00  0.00    -0.088 S  
HETATM   26  O   UNL     1      -7.396   7.862  73.222  1.00  0.00    -0.098 OA 
HETATM   27  O   UNL     1      -6.555   8.945  71.110  1.00  0.00    -0.063 OA 
BRANCH  25  28
HETATM   28  N   UNL     1      -7.416   6.572  71.023  1.00  0.00    -0.083 N  
HETATM   29  C   UNL     1      -7.692   5.340  71.790  1.00  0.00    -0.109 C  
HETATM   30  C   UNL     1      -9.180   4.976  71.710  1.00  0.00    -0.141 C  
HETATM   31  N   UNL     1      -9.709   4.835  70.338  1.00  0.00    -0.199 NA 
HETATM   32  C   UNL     1      -9.257   5.928  69.448  1.00  0.00    -0.130 C  
HETATM   33  C   UNL     1      -9.401   3.512  69.806  1.00  0.00    -0.174 C  
HETATM   34  C   UNL     1      -7.800   6.427  69.598  1.00  0.00    -0.108 C  
ENDBRANCH  25  28
ENDBRANCH  21  25
ENDBRANCH  11  16
ENDBRANCH   3   4
ENDBRANCH   2   3
TORSDOF 7
ENDMDL
MODEL       62
REMARK 921   NORMALIZED FREE ENERGY PREDICTED BY IDOCK:   -6.04 KCAL/MOL
REMARK 922        TOTAL FREE ENERGY PREDICTED BY IDOCK:   -9.86 KCAL/MOL
REMARK 923 INTER-LIGAND FREE ENERGY PREDICTED BY IDOCK:   -8.51 KCAL/MOL
REMARK 924 INTRA-LIGAND FREE ENERGY PREDICTED BY IDOCK:   -1.35 KCAL/MOL
REMARK 927      BINDING AFFINITY PREDICTED BY RF-SCORE:    0.00 PKD
ROOT
HETATM    1  C   UNL     1      -5.512  19.250  63.860  1.00  0.00    -0.329 C  
HETATM    2  C   UNL     1      -6.224  19.325  65.203  1.00  0.00    -0.312 C  
ENDROOT
BRANCH   2   3
HETATM    3  C   UNL     1      -6.363  17.945  65.849  1.00  0.00    -0.287 C  
BRANCH   3   4
HETATM    4  C   UNL     1      -7.618  17.808  66.645  1.00  0.00    -0.236 A  
HETATM    5  N   UNL     1      -8.132  18.906  67.228  1.00  0.00    -0.259 NA 
HETATM    6  N   UNL     1      -9.261  18.471  67.833  1.00  0.00    -0.285 NA 
HETATM    7  C   UNL     1      -9.486  17.144  67.643  1.00  0.00    -0.241 A  
HETATM    8  C   UNL     1     -10.089  19.413  68.547  1.00  0.00    -0.437 C  
HETATM    9  C   UNL     1      -8.440  16.685  66.902  1.00  0.00    -0.215 A  
HETATM   10  N   UNL     1      -8.394  15.387  66.560  1.00  0.00    -0.223 NA 
HETATM   11  C   UNL     1      -9.443  14.586  67.014  1.00  0.00    -0.239 C  
HETATM   12  N   UNL     1     -10.462  15.007  67.716  1.00  0.00    -0.246 N  
HETATM   13  O   UNL     1     -11.488  16.759  68.786  1.00  0.00    -0.172 OA 
HETATM   14  H   UNL     1     -11.196  14.348  67.979  1.00  0.00     0.000 HD 
HETATM   15  C   UNL     1     -10.565  16.327  68.109  1.00  0.00    -0.307 C  
BRANCH  11  16
HETATM   16  C   UNL     1      -9.447  13.111  66.653  1.00  0.00    -0.260 A  
HETATM   17  C   UNL     1      -9.937  11.267  65.150  1.00  0.00    -0.312 A  
HETATM   18  C   UNL     1      -9.951  12.641  65.425  1.00  0.00    -0.214 A  
HETATM   19  C   UNL     1      -8.969  12.184  67.603  1.00  0.00    -0.178 A  
HETATM   20  C   UNL     1      -9.532  10.352  66.123  1.00  0.00    -0.227 A  
HETATM   21  C   UNL     1      -9.091  10.810  67.368  1.00  0.00    -0.143 A  
BRANCH  18  22
HETATM   22  O   UNL     1     -10.393  13.573  64.523  1.00  0.00    -0.423 OA 
BRANCH  22  23
HETATM   23  C   UNL     1     -11.729  13.421  64.041  1.00  0.00    -0.416 C  
HETATM   24  C   UNL     1     -12.643  14.042  65.082  1.00  0.00    -0.453 C  
ENDBRANCH  22  23
ENDBRANCH  18  22
BRANCH  21  25
HETATM   25  S   UNL     1      -8.598   9.610  68.595  1.00  0.00    -0.122 S  
HETATM   26  O   UNL     1      -7.965  10.334  69.677  1.00  0.00    -0.160 OA 
HETATM   27  O   UNL     1      -7.885   8.567  67.886  1.00  0.00    -0.101 OA 
BRANCH  25  28
HETATM   28  N   UNL     1     -10.025   8.917  69.182  1.00  0.00    -0.184 N  
HETATM   29  C   UNL     1      -9.957   7.730  70.058  1.00  0.00    -0.187 C  
HETATM   30  C   UNL     1      -9.902   8.148  71.532  1.00  0.00    -0.179 C  
HETATM   31  N   UNL     1     -11.009   9.024  71.968  1.00  0.00    -0.347 NA 
HETATM   32  C   UNL     1     -11.286  10.103  70.994  1.00  0.00    -0.307 C  
HETATM   33  C   UNL     1     -12.193   8.231  72.282  1.00  0.00    -0.370 C  
HETATM   34  C   UNL     1     -11.208   9.756  69.488  1.00  0.00    -0.142 C  
ENDBRANCH  25  28
ENDBRANCH  21  25
ENDBRANCH  11  16
ENDBRANCH   3   4
ENDBRANCH   2   3
TORSDOF 7
ENDMDL
MODEL       63
REMARK 921   NORMALIZED FREE ENERGY PREDICTED BY IDOCK:   -6.02 KCAL/MOL
REMARK 922        TOTAL FREE ENERGY PREDICTED BY IDOCK:   -9.84 KCAL/MOL
REMARK 923 INTER-LIGAND FREE ENERGY PREDICTED BY IDOCK:   -8.55 KCAL/MOL
REMARK 924 INTRA-LIGAND FREE ENERGY PREDICTED BY IDOCK:   -1.29 KCAL/MOL
REMARK 927      BINDING AFFINITY PREDICTED BY RF-SCORE:    0.00 PKD
ROOT
HETATM    1  C   UNL     1      -5.242  19.229  71.442  1.00  0.00    -0.340 C  
HETATM    2  C   UNL     1      -5.545  19.198  69.951  1.00  0.00    -0.243 C  
ENDROOT
BRANCH   2   3
HETATM    3  C   UNL     1      -6.209  17.884  69.534  1.00  0.00    -0.237 C  
BRANCH   3   4
HETATM    4  C   UNL     1      -7.282  18.081  68.515  1.00  0.00    -0.263 A  
HETATM    5  N   UNL     1      -7.210  19.155  67.707  1.00  0.00    -0.237 NA 
HETATM    6  N   UNL     1      -8.283  19.037  66.893  1.00  0.00    -0.266 NA 
HETATM    7  C   UNL     1      -9.022  17.924  67.146  1.00  0.00    -0.251 A  
HETATM    8  C   UNL     1      -8.504  20.026  65.865  1.00  0.00    -0.126 C  
HETATM    9  C   UNL     1      -8.417  17.301  68.195  1.00  0.00    -0.238 A  
HETATM   10  N   UNL     1      -8.940  16.159  68.672  1.00  0.00    -0.210 NA 
HETATM   11  C   UNL     1     -10.098  15.694  68.046  1.00  0.00    -0.224 C  
HETATM   12  N   UNL     1     -10.688  16.270  67.032  1.00  0.00    -0.279 N  
HETATM   13  O   UNL     1     -10.742  18.036  65.568  1.00  0.00    -0.597 OA 
HETATM   14  H   UNL     1     -11.518  15.839  66.625  1.00  0.00     0.000 HD 
HETATM   15  C   UNL     1     -10.209  17.452  66.500  1.00  0.00    -0.329 C  
BRANCH  11  16
HETATM   16  C   UNL     1     -10.729  14.404  68.540  1.00  0.00    -0.258 A  
HETATM   17  C   UNL     1     -12.377  13.174  69.833  1.00  0.00    -0.201 A  
HETATM   18  C   UNL     1     -11.842  14.397  69.403  1.00  0.00    -0.325 A  
HETATM   19  C   UNL     1     -10.148  13.179  68.151  1.00  0.00    -0.237 A  
HETATM   20  C   UNL     1     -11.751  11.970  69.505  1.00  0.00    -0.408 A  
HETATM   21  C   UNL     1     -10.608  11.977  68.701  1.00  0.00    -0.229 A  
BRANCH  18  22
HETATM   22  O   UNL     1     -12.386  15.606  69.746  1.00  0.00    -0.333 OA 
BRANCH  22  23
HETATM   23  C   UNL     1     -12.958  15.709  71.050  1.00  0.00    -0.458 C  
HETATM   24  C   UNL     1     -11.814  15.973  72.011  1.00  0.00    -0.623 C  
ENDBRANCH  22  23
ENDBRANCH  18  22
BRANCH  21  25
HETATM   25  S   UNL     1      -9.824  10.419  68.316  1.00  0.00    -0.159 S  
HETATM   26  O   UNL     1      -8.565  10.718  67.666  1.00  0.00    -0.122 OA 
HETATM   27  O   UNL     1     -10.826   9.609  67.653  1.00  0.00    -0.282 OA 
BRANCH  25  28
HETATM   28  N   UNL     1      -9.494   9.675  69.799  1.00  0.00    -0.206 N  
HETATM   29  C   UNL     1     -10.317   8.532  70.246  1.00  0.00    -0.205 C  
HETATM   30  C   UNL     1      -9.702   7.208  69.778  1.00  0.00    -0.165 C  
HETATM   31  N   UNL     1      -8.299   6.999  70.189  1.00  0.00    -0.136 NA 
HETATM   32  C   UNL     1      -7.469   8.208  69.988  1.00  0.00    -0.065 C  
HETATM   33  C   UNL     1      -8.238   6.494  71.557  1.00  0.00    -0.116 C  
HETATM   34  C   UNL     1      -8.105   9.582  70.310  1.00  0.00    -0.181 C  
ENDBRANCH  25  28
ENDBRANCH  21  25
ENDBRANCH  11  16
ENDBRANCH   3   4
ENDBRANCH   2   3
TORSDOF 7
ENDMDL
MODEL       64
REMARK 921   NORMALIZED FREE ENERGY PREDICTED BY IDOCK:   -6.02 KCAL/MOL
REMARK 922        TOTAL FREE ENERGY PREDICTED BY IDOCK:   -9.83 KCAL/MOL
REMARK 923 INTER-LIGAND FREE ENERGY PREDICTED BY IDOCK:   -8.55 KCAL/MOL
REMARK 924 INTRA-LIGAND FREE ENERGY PREDICTED BY IDOCK:   -1.28 KCAL/MOL
REMARK 927      BINDING AFFINITY PREDICTED BY RF-SCORE:    0.00 PKD
ROOT
HETATM    1  C   UNL     1      -5.318  19.619  71.557  1.00  0.00    -0.389 C  
HETATM    2  C   UNL     1      -6.010  19.754  70.207  1.00  0.00    -0.337 C  
ENDROOT
BRANCH   2   3
HETATM    3  C   UNL     1      -6.464  18.398  69.665  1.00  0.00    -0.155 C  
BRANCH   3   4
HETATM    4  C   UNL     1      -7.514  18.524  68.611  1.00  0.00    -0.301 A  
HETATM    5  N   UNL     1      -7.493  19.605  67.811  1.00  0.00    -0.270 NA 
HETATM    6  N   UNL     1      -8.527  19.415  66.959  1.00  0.00    -0.278 NA 
HETATM    7  C   UNL     1      -9.191  18.250  67.183  1.00  0.00    -0.264 A  
HETATM    8  C   UNL     1      -8.785  20.393  65.930  1.00  0.00     0.173 C  
HETATM    9  C   UNL     1      -8.577  17.665  68.249  1.00  0.00    -0.268 A  
HETATM   10  N   UNL     1      -9.031  16.484  68.702  1.00  0.00    -0.228 NA 
HETATM   11  C   UNL     1     -10.131  15.941  68.035  1.00  0.00    -0.230 C  
HETATM   12  N   UNL     1     -10.726  16.480  67.004  1.00  0.00    -0.247 N  
HETATM   13  O   UNL     1     -10.860  18.248  65.547  1.00  0.00    -0.490 OA 
HETATM   14  H   UNL     1     -11.509  15.992  66.567  1.00  0.00     0.000 HD 
HETATM   15  C   UNL     1     -10.317  17.697  66.495  1.00  0.00    -0.337 C  
BRANCH  11  16
HETATM   16  C   UNL     1     -10.682  14.605  68.501  1.00  0.00    -0.248 A  
HETATM   17  C   UNL     1     -12.147  13.248  69.885  1.00  0.00    -0.377 A  
HETATM   18  C   UNL     1     -11.682  14.510  69.488  1.00  0.00    -0.314 A  
HETATM   19  C   UNL     1     -10.137  13.425  67.954  1.00  0.00    -0.238 A  
HETATM   20  C   UNL     1     -11.551  12.086  69.393  1.00  0.00    -0.393 A  
HETATM   21  C   UNL     1     -10.513  12.175  68.462  1.00  0.00    -0.233 A  
BRANCH  18  22
HETATM   22  O   UNL     1     -12.196  15.679  69.984  1.00  0.00    -0.367 OA 
BRANCH  22  23
HETATM   23  C   UNL     1     -12.904  15.598  71.222  1.00  0.00    -0.487 C  
HETATM   24  C   UNL     1     -11.944  16.053  72.306  1.00  0.00    -0.633 C  
ENDBRANCH  22  23
ENDBRANCH  18  22
BRANCH  21  25
HETATM   25  S   UNL     1      -9.762  10.667  67.869  1.00  0.00    -0.164 S  
HETATM   26  O   UNL     1     -10.830   9.806  67.408  1.00  0.00    -0.274 OA 
HETATM   27  O   UNL     1      -8.852  10.227  68.907  1.00  0.00    -0.138 OA 
BRANCH  25  28
HETATM   28  N   UNL     1      -8.815  11.101  66.537  1.00  0.00    -0.165 N  
HETATM   29  C   UNL     1      -7.354  10.889  66.575  1.00  0.00    -0.142 C  
HETATM   30  C   UNL     1      -6.992   9.510  66.012  1.00  0.00    -0.091 C  
HETATM   31  N   UNL     1      -7.495   9.249  64.648  1.00  0.00    -0.099 NA 
HETATM   32  C   UNL     1      -8.903   9.672  64.478  1.00  0.00    -0.223 C  
HETATM   33  C   UNL     1      -6.604   9.840  63.655  1.00  0.00    -0.119 C  
HETATM   34  C   UNL     1      -9.348  10.990  65.158  1.00  0.00    -0.220 C  
ENDBRANCH  25  28
ENDBRANCH  21  25
ENDBRANCH  11  16
ENDBRANCH   3   4
ENDBRANCH   2   3
TORSDOF 7
ENDMDL
MODEL       65
REMARK 921   NORMALIZED FREE ENERGY PREDICTED BY IDOCK:   -6.00 KCAL/MOL
REMARK 922        TOTAL FREE ENERGY PREDICTED BY IDOCK:   -9.80 KCAL/MOL
REMARK 923 INTER-LIGAND FREE ENERGY PREDICTED BY IDOCK:   -8.64 KCAL/MOL
REMARK 924 INTRA-LIGAND FREE ENERGY PREDICTED BY IDOCK:   -1.16 KCAL/MOL
REMARK 927      BINDING AFFINITY PREDICTED BY RF-SCORE:    0.00 PKD
ROOT
HETATM    1  C   UNL     1      -7.419  16.576  68.363  1.00  0.00    -0.186 C  
HETATM    2  C   UNL     1      -8.536  16.165  69.312  1.00  0.00    -0.187 C  
ENDROOT
BRANCH   2   3
HETATM    3  C   UNL     1      -9.903  16.645  68.822  1.00  0.00    -0.252 C  
BRANCH   3   4
HETATM    4  C   UNL     1     -10.526  15.704  67.845  1.00  0.00    -0.267 A  
HETATM    5  N   UNL     1     -10.723  16.127  66.584  1.00  0.00    -0.275 NA 
HETATM    6  N   UNL     1     -11.260  15.060  65.950  1.00  0.00    -0.336 NA 
HETATM    7  C   UNL     1     -11.397  13.976  66.759  1.00  0.00    -0.334 A  
HETATM    8  C   UNL     1     -11.580  15.158  64.546  1.00  0.00    -0.329 C  
HETATM    9  C   UNL     1     -10.953  14.364  67.987  1.00  0.00    -0.258 A  
HETATM   10  N   UNL     1     -10.976  13.484  69.002  1.00  0.00    -0.248 NA 
HETATM   11  C   UNL     1     -11.475  12.213  68.715  1.00  0.00    -0.307 C  
HETATM   12  N   UNL     1     -11.895  11.817  67.542  1.00  0.00    -0.232 N  
HETATM   13  O   UNL     1     -12.314  12.352  65.351  1.00  0.00    -0.596 OA 
HETATM   14  H   UNL     1     -12.218  10.856  67.424  1.00  0.00     0.000 HD 
HETATM   15  C   UNL     1     -11.908  12.674  66.458  1.00  0.00    -0.396 C  
BRANCH  11  16
HETATM   16  C   UNL     1     -11.518  11.176  69.823  1.00  0.00    -0.388 A  
HETATM   17  C   UNL     1     -12.418  10.277  71.893  1.00  0.00    -0.336 A  
HETATM   18  C   UNL     1     -12.431  11.259  70.892  1.00  0.00    -0.394 A  
HETATM   19  C   UNL     1     -10.580  10.123  69.796  1.00  0.00    -0.298 A  
HETATM   20  C   UNL     1     -11.440   9.282  71.898  1.00  0.00    -0.382 A  
HETATM   21  C   UNL     1     -10.491   9.233  70.874  1.00  0.00    -0.302 A  
BRANCH  18  22
HETATM   22  O   UNL     1     -13.334  12.288  70.875  1.00  0.00     0.189 OA 
BRANCH  22  23
HETATM   23  C   UNL     1     -13.497  13.024  72.089  1.00  0.00    -0.542 C  
HETATM   24  C   UNL     1     -13.522  14.493  71.711  1.00  0.00    -0.458 C  
ENDBRANCH  22  23
ENDBRANCH  18  22
BRANCH  21  25
HETATM   25  S   UNL     1      -9.243   7.956  70.923  1.00  0.00    -0.153 S  
HETATM   26  O   UNL     1      -8.320   8.295  71.986  1.00  0.00    -0.137 OA 
HETATM   27  O   UNL     1      -8.775   7.787  69.562  1.00  0.00    -0.134 OA 
BRANCH  25  28
HETATM   28  N   UNL     1     -10.043   6.527  71.347  1.00  0.00    -0.191 N  
HETATM   29  C   UNL     1     -10.400   5.548  70.301  1.00  0.00    -0.279 C  
HETATM   30  C   UNL     1      -9.278   4.519  70.118  1.00  0.00    -0.130 C  
HETATM   31  N   UNL     1      -8.886   3.806  71.351  1.00  0.00    -0.093 NA 
HETATM   32  C   UNL     1      -8.749   4.720  72.507  1.00  0.00    -0.116 C  
HETATM   33  C   UNL     1      -9.800   2.699  71.613  1.00  0.00    -0.143 C  
HETATM   34  C   UNL     1      -9.779   5.867  72.648  1.00  0.00    -0.153 C  
ENDBRANCH  25  28
ENDBRANCH  21  25
ENDBRANCH  11  16
ENDBRANCH   3   4
ENDBRANCH   2   3
TORSDOF 7
ENDMDL
MODEL       66
REMARK 921   NORMALIZED FREE ENERGY PREDICTED BY IDOCK:   -5.99 KCAL/MOL
REMARK 922        TOTAL FREE ENERGY PREDICTED BY IDOCK:   -9.79 KCAL/MOL
REMARK 923 INTER-LIGAND FREE ENERGY PREDICTED BY IDOCK:   -9.03 KCAL/MOL
REMARK 924 INTRA-LIGAND FREE ENERGY PREDICTED BY IDOCK:   -0.76 KCAL/MOL
REMARK 927      BINDING AFFINITY PREDICTED BY RF-SCORE:    0.00 PKD
ROOT
HETATM    1  C   UNL     1     -13.042  11.838  71.774  1.00  0.00    -0.480 C  
HETATM    2  C   UNL     1     -12.624  10.805  70.736  1.00  0.00    -0.476 C  
ENDROOT
BRANCH   2   3
HETATM    3  C   UNL     1     -12.328   9.447  71.374  1.00  0.00    -0.439 C  
BRANCH   3   4
HETATM    4  C   UNL     1     -11.302   8.669  70.619  1.00  0.00    -0.247 A  
HETATM    5  N   UNL     1     -10.789   7.563  71.187  1.00  0.00    -0.236 NA 
HETATM    6  N   UNL     1      -9.931   7.075  70.262  1.00  0.00    -0.179 NA 
HETATM    7  C   UNL     1      -9.892   7.824  69.128  1.00  0.00    -0.173 A  
HETATM    8  C   UNL     1      -9.212   5.855  70.538  1.00  0.00    -0.152 C  
HETATM    9  C   UNL     1     -10.745   8.865  69.334  1.00  0.00    -0.181 A  
HETATM   10  N   UNL     1     -10.908   9.783  68.367  1.00  0.00    -0.224 NA 
HETATM   11  C   UNL     1     -10.161   9.601  67.201  1.00  0.00    -0.243 C  
HETATM   12  N   UNL     1      -9.346   8.603  66.979  1.00  0.00    -0.152 N  
HETATM   13  O   UNL     1      -8.355   6.694  67.778  1.00  0.00    -0.121 OA 
HETATM   14  H   UNL     1      -8.864   8.542  66.082  1.00  0.00     0.000 HD 
HETATM   15  C   UNL     1      -9.126   7.630  67.935  1.00  0.00    -0.134 C  
BRANCH  11  16
HETATM   16  C   UNL     1     -10.310  10.605  66.072  1.00  0.00    -0.290 A  
HETATM   17  C   UNL     1     -10.008  11.307  63.766  1.00  0.00    -0.388 A  
HETATM   18  C   UNL     1      -9.853  10.338  64.767  1.00  0.00    -0.334 A  
HETATM   19  C   UNL     1     -10.884  11.860  66.359  1.00  0.00    -0.318 A  
HETATM   20  C   UNL     1     -10.510  12.573  64.076  1.00  0.00    -0.449 A  
HETATM   21  C   UNL     1     -10.904  12.865  65.384  1.00  0.00    -0.283 A  
BRANCH  18  22
HETATM   22  O   UNL     1      -9.313   9.102  64.525  1.00  0.00    -0.043 OA 
BRANCH  22  23
HETATM   23  C   UNL     1      -8.274   9.033  63.548  1.00  0.00    -0.178 C  
HETATM   24  C   UNL     1      -7.193   8.136  64.121  1.00  0.00    -0.086 C  
ENDBRANCH  22  23
ENDBRANCH  18  22
BRANCH  21  25
HETATM   25  S   UNL     1     -11.524  14.500  65.746  1.00  0.00    -0.337 S  
HETATM   26  O   UNL     1     -12.657  14.345  66.635  1.00  0.00    -0.263 OA 
HETATM   27  O   UNL     1     -11.668  15.175  64.473  1.00  0.00    -0.403 OA 
BRANCH  25  28
HETATM   28  N   UNL     1     -10.293  15.298  66.588  1.00  0.00    -0.273 N  
HETATM   29  C   UNL     1      -9.634  16.474  65.984  1.00  0.00    -0.290 C  
HETATM   30  C   UNL     1     -10.350  17.766  66.396  1.00  0.00    -0.351 C  
HETATM   31  N   UNL     1     -10.478  17.964  67.854  1.00  0.00    -0.389 NA 
HETATM   32  C   UNL     1     -10.907  16.731  68.552  1.00  0.00    -0.345 C  
HETATM   33  C   UNL     1      -9.247  18.523  68.402  1.00  0.00    -0.324 C  
HETATM   34  C   UNL     1     -10.316  15.384  68.068  1.00  0.00    -0.249 C  
ENDBRANCH  25  28
ENDBRANCH  21  25
ENDBRANCH  11  16
ENDBRANCH   3   4
ENDBRANCH   2   3
TORSDOF 7
ENDMDL
MODEL       67
REMARK 921   NORMALIZED FREE ENERGY PREDICTED BY IDOCK:   -5.98 KCAL/MOL
REMARK 922        TOTAL FREE ENERGY PREDICTED BY IDOCK:   -9.77 KCAL/MOL
REMARK 923 INTER-LIGAND FREE ENERGY PREDICTED BY IDOCK:   -8.43 KCAL/MOL
REMARK 924 INTRA-LIGAND FREE ENERGY PREDICTED BY IDOCK:   -1.35 KCAL/MOL
REMARK 927      BINDING AFFINITY PREDICTED BY RF-SCORE:    0.00 PKD
ROOT
HETATM    1  C   UNL     1     -13.263  10.169  71.757  1.00  0.00    -0.542 C  
HETATM    2  C   UNL     1     -13.344   8.859  72.529  1.00  0.00    -0.451 C  
ENDROOT
BRANCH   2   3
HETATM    3  C   UNL     1     -13.283   7.647  71.597  1.00  0.00    -0.395 C  
BRANCH   3   4
HETATM    4  C   UNL     1     -11.884   7.257  71.254  1.00  0.00    -0.307 A  
HETATM    5  N   UNL     1     -11.285   6.303  71.989  1.00  0.00    -0.266 NA 
HETATM    6  N   UNL     1     -10.066   6.154  71.422  1.00  0.00    -0.191 NA 
HETATM    7  C   UNL     1      -9.877   6.968  70.350  1.00  0.00    -0.179 A  
HETATM    8  C   UNL     1      -9.151   5.174  71.956  1.00  0.00    -0.137 C  
HETATM    9  C   UNL     1     -11.018   7.702  70.228  1.00  0.00    -0.252 A  
HETATM   10  N   UNL     1     -11.115   8.607  69.240  1.00  0.00     0.037 NA 
HETATM   11  C   UNL     1     -10.007   8.736  68.401  1.00  0.00    -0.179 C  
HETATM   12  N   UNL     1      -8.908   8.034  68.492  1.00  0.00    -0.134 N  
HETATM   13  O   UNL     1      -7.720   6.434  69.628  1.00  0.00    -0.098 OA 
HETATM   14  H   UNL     1      -8.161   8.183  67.813  1.00  0.00     0.000 HD 
HETATM   15  C   UNL     1      -8.739   7.095  69.491  1.00  0.00    -0.134 C  
BRANCH  11  16
HETATM   16  C   UNL     1     -10.064   9.740  67.263  1.00  0.00    -0.261 A  
HETATM   17  C   UNL     1      -9.744  10.378  64.941  1.00  0.00    -0.372 A  
HETATM   18  C   UNL     1      -9.679   9.407  65.950  1.00  0.00    -0.285 A  
HETATM   19  C   UNL     1     -10.474  11.059  67.548  1.00  0.00    -0.244 A  
HETATM   20  C   UNL     1     -10.079  11.698  65.247  1.00  0.00    -0.305 A  
HETATM   21  C   UNL     1     -10.399  12.048  66.561  1.00  0.00    -0.210 A  
BRANCH  18  22
HETATM   22  O   UNL     1      -9.300   8.113  65.710  1.00  0.00    -0.113 OA 
BRANCH  22  23
HETATM   23  C   UNL     1      -8.187   7.918  64.837  1.00  0.00    -0.124 C  
HETATM   24  C   UNL     1      -6.936   8.074  65.681  1.00  0.00    -0.063 C  
ENDBRANCH  22  23
ENDBRANCH  18  22
BRANCH  21  25
HETATM   25  S   UNL     1     -10.805  13.750  66.918  1.00  0.00    -0.286 S  
HETATM   26  O   UNL     1     -12.203  13.938  66.591  1.00  0.00    -0.437 OA 
HETATM   27  O   UNL     1      -9.782  14.558  66.286  1.00  0.00    -0.281 OA 
BRANCH  25  28
HETATM   28  N   UNL     1     -10.620  13.942  68.588  1.00  0.00    -0.254 N  
HETATM   29  C   UNL     1     -10.043  15.192  69.124  1.00  0.00    -0.245 C  
HETATM   30  C   UNL     1     -11.148  16.211  69.427  1.00  0.00    -0.335 C  
HETATM   31  N   UNL     1     -12.205  15.724  70.335  1.00  0.00    -0.387 NA 
HETATM   32  C   UNL     1     -12.657  14.358  69.989  1.00  0.00    -0.233 C  
HETATM   33  C   UNL     1     -11.776  15.841  71.725  1.00  0.00    -0.478 C  
HETATM   34  C   UNL     1     -11.586  13.336  69.535  1.00  0.00    -0.286 C  
ENDBRANCH  25  28
ENDBRANCH  21  25
ENDBRANCH  11  16
ENDBRANCH   3   4
ENDBRANCH   2   3
TORSDOF 7
ENDMDL
MODEL       68
REMARK 921   NORMALIZED FREE ENERGY PREDICTED BY IDOCK:   -5.97 KCAL/MOL
REMARK 922        TOTAL FREE ENERGY PREDICTED BY IDOCK:   -9.76 KCAL/MOL
REMARK 923 INTER-LIGAND FREE ENERGY PREDICTED BY IDOCK:   -9.23 KCAL/MOL
REMARK 924 INTRA-LIGAND FREE ENERGY PREDICTED BY IDOCK:   -0.53 KCAL/MOL
REMARK 927      BINDING AFFINITY PREDICTED BY RF-SCORE:    0.00 PKD
ROOT
HETATM    1  C   UNL     1     -10.167  14.988  65.880  1.00  0.00    -0.335 C  
HETATM    2  C   UNL     1     -11.373  14.999  66.809  1.00  0.00    -0.293 C  
ENDROOT
BRANCH   2   3
HETATM    3  C   UNL     1     -11.069  15.713  68.127  1.00  0.00    -0.330 C  
BRANCH   3   4
HETATM    4  C   UNL     1     -11.726  15.062  69.298  1.00  0.00    -0.323 A  
HETATM    5  N   UNL     1     -12.399  15.836  70.169  1.00  0.00    -0.353 NA 
HETATM    6  N   UNL     1     -12.896  14.967  71.079  1.00  0.00    -0.337 NA 
HETATM    7  C   UNL     1     -12.572  13.674  70.809  1.00  0.00    -0.325 A  
HETATM    8  C   UNL     1     -13.708  15.465  72.163  1.00  0.00    -0.515 C  
HETATM    9  C   UNL     1     -11.805  13.704  69.684  1.00  0.00    -0.335 A  
HETATM   10  N   UNL     1     -11.331  12.552  69.181  1.00  0.00    -0.271 NA 
HETATM   11  C   UNL     1     -11.661  11.386  69.874  1.00  0.00    -0.346 C  
HETATM   12  N   UNL     1     -12.405  11.334  70.948  1.00  0.00    -0.387 N  
HETATM   13  O   UNL     1     -13.595  12.481  72.539  1.00  0.00    -0.453 OA 
HETATM   14  H   UNL     1     -12.613  10.428  71.369  1.00  0.00     0.000 HD 
HETATM   15  C   UNL     1     -12.915  12.482  71.523  1.00  0.00    -0.280 C  
BRANCH  11  16
HETATM   16  C   UNL     1     -11.158  10.054  69.347  1.00  0.00    -0.265 A  
HETATM   17  C   UNL     1     -10.393   8.601  67.557  1.00  0.00    -0.336 A  
HETATM   18  C   UNL     1     -10.845   9.856  67.988  1.00  0.00    -0.243 A  
HETATM   19  C   UNL     1     -11.046   8.973  70.246  1.00  0.00    -0.263 A  
HETATM   20  C   UNL     1     -10.356   7.518  68.438  1.00  0.00    -0.226 A  
HETATM   21  C   UNL     1     -10.728   7.694  69.773  1.00  0.00    -0.240 A  
BRANCH  18  22
HETATM   22  O   UNL     1     -10.953  10.933  67.150  1.00  0.00    -0.274 OA 
BRANCH  22  23
HETATM   23  C   UNL     1      -9.906  11.115  66.195  1.00  0.00    -0.225 C  
HETATM   24  C   UNL     1      -8.749  11.762  66.933  1.00  0.00    -0.189 C  
ENDBRANCH  22  23
ENDBRANCH  18  22
BRANCH  21  25
HETATM   25  S   UNL     1     -10.686   6.283  70.866  1.00  0.00    -0.274 S  
HETATM   26  O   UNL     1     -10.718   5.095  70.040  1.00  0.00    -0.241 OA 
HETATM   27  O   UNL     1     -11.703   6.513  71.872  1.00  0.00    -0.296 OA 
BRANCH  25  28
HETATM   28  N   UNL     1      -9.192   6.341  71.658  1.00  0.00    -0.145 N  
HETATM   29  C   UNL     1      -8.066   7.077  71.048  1.00  0.00    -0.105 C  
HETATM   30  C   UNL     1      -8.046   8.532  71.530  1.00  0.00    -0.151 C  
HETATM   31  N   UNL     1      -8.008   8.696  72.997  1.00  0.00    -0.403 NA 
HETATM   32  C   UNL     1      -8.957   7.794  73.687  1.00  0.00    -0.277 C  
HETATM   33  C   UNL     1      -6.641   8.559  73.490  1.00  0.00    -0.069 C  
HETATM   34  C   UNL     1      -9.117   6.355  73.139  1.00  0.00    -0.128 C  
ENDBRANCH  25  28
ENDBRANCH  21  25
ENDBRANCH  11  16
ENDBRANCH   3   4
ENDBRANCH   2   3
TORSDOF 7
ENDMDL
MODEL       69
REMARK 921   NORMALIZED FREE ENERGY PREDICTED BY IDOCK:   -5.92 KCAL/MOL
REMARK 922        TOTAL FREE ENERGY PREDICTED BY IDOCK:   -9.69 KCAL/MOL
REMARK 923 INTER-LIGAND FREE ENERGY PREDICTED BY IDOCK:   -9.05 KCAL/MOL
REMARK 924 INTRA-LIGAND FREE ENERGY PREDICTED BY IDOCK:   -0.64 KCAL/MOL
REMARK 927      BINDING AFFINITY PREDICTED BY RF-SCORE:    0.00 PKD
ROOT
HETATM    1  C   UNL     1      -9.900  18.174  68.380  1.00  0.00    -0.380 C  
HETATM    2  C   UNL     1     -10.151  16.781  68.938  1.00  0.00    -0.285 C  
ENDROOT
BRANCH   2   3
HETATM    3  C   UNL     1     -11.597  16.333  68.717  1.00  0.00    -0.223 C  
BRANCH   3   4
HETATM    4  C   UNL     1     -11.982  15.185  69.591  1.00  0.00    -0.329 A  
HETATM    5  N   UNL     1     -12.647  15.442  70.732  1.00  0.00    -0.412 NA 
HETATM    6  N   UNL     1     -12.876  14.223  71.271  1.00  0.00    -0.333 NA 
HETATM    7  C   UNL     1     -12.393  13.206  70.508  1.00  0.00    -0.304 A  
HETATM    8  C   UNL     1     -13.604  14.124  72.513  1.00  0.00    -0.541 C  
HETATM    9  C   UNL     1     -11.796  13.792  69.433  1.00  0.00    -0.341 A  
HETATM   10  N   UNL     1     -11.219  13.018  68.499  1.00  0.00    -0.256 NA 
HETATM   11  C   UNL     1     -11.268  11.640  68.714  1.00  0.00    -0.245 C  
HETATM   12  N   UNL     1     -11.845  11.057  69.731  1.00  0.00    -0.316 N  
HETATM   13  O   UNL     1     -12.977  11.291  71.713  1.00  0.00    -0.453 OA 
HETATM   14  H   UNL     1     -11.850  10.038  69.787  1.00  0.00     0.000 HD 
HETATM   15  C   UNL     1     -12.447  11.794  70.733  1.00  0.00    -0.312 C  
BRANCH  11  16
HETATM   16  C   UNL     1     -10.637  10.717  67.686  1.00  0.00    -0.288 A  
HETATM   17  C   UNL     1      -9.977  10.157  65.416  1.00  0.00    -0.377 A  
HETATM   18  C   UNL     1     -10.563  11.054  66.321  1.00  0.00    -0.237 A  
HETATM   19  C   UNL     1     -10.152   9.464  68.115  1.00  0.00    -0.215 A  
HETATM   20  C   UNL     1      -9.568   8.891  65.836  1.00  0.00    -0.293 A  
HETATM   21  C   UNL     1      -9.699   8.527  67.179  1.00  0.00    -0.192 A  
BRANCH  18  22
HETATM   22  O   UNL     1     -11.031  12.285  65.946  1.00  0.00    -0.280 OA 
BRANCH  22  23
HETATM   23  C   UNL     1     -11.875  12.331  64.794  1.00  0.00    -0.364 C  
HETATM   24  C   UNL     1     -11.964  13.786  64.374  1.00  0.00    -0.480 C  
ENDBRANCH  22  23
ENDBRANCH  18  22
BRANCH  21  25
HETATM   25  S   UNL     1      -9.182   6.892  67.677  1.00  0.00    -0.119 S  
HETATM   26  O   UNL     1      -7.734   6.869  67.646  1.00  0.00    -0.107 OA 
HETATM   27  O   UNL     1      -9.953   5.957  66.882  1.00  0.00    -0.145 OA 
BRANCH  25  28
HETATM   28  N   UNL     1      -9.683   6.703  69.281  1.00  0.00    -0.146 N  
HETATM   29  C   UNL     1     -10.636   5.629  69.630  1.00  0.00    -0.331 C  
HETATM   30  C   UNL     1      -9.888   4.350  70.023  1.00  0.00    -0.223 C  
HETATM   31  N   UNL     1      -8.907   4.517  71.115  1.00  0.00    -0.113 NA 
HETATM   32  C   UNL     1      -8.077   5.730  70.941  1.00  0.00    -0.119 C  
HETATM   33  C   UNL     1      -9.576   4.473  72.411  1.00  0.00    -0.146 C  
HETATM   34  C   UNL     1      -8.766   7.008  70.405  1.00  0.00    -0.147 C  
ENDBRANCH  25  28
ENDBRANCH  21  25
ENDBRANCH  11  16
ENDBRANCH   3   4
ENDBRANCH   2   3
TORSDOF 7
ENDMDL
MODEL       70
REMARK 921   NORMALIZED FREE ENERGY PREDICTED BY IDOCK:   -5.92 KCAL/MOL
REMARK 922        TOTAL FREE ENERGY PREDICTED BY IDOCK:   -9.69 KCAL/MOL
REMARK 923 INTER-LIGAND FREE ENERGY PREDICTED BY IDOCK:   -8.20 KCAL/MOL
REMARK 924 INTRA-LIGAND FREE ENERGY PREDICTED BY IDOCK:   -1.48 KCAL/MOL
REMARK 927      BINDING AFFINITY PREDICTED BY RF-SCORE:    0.00 PKD
ROOT
HETATM    1  C   UNL     1     -10.296  17.492  68.465  1.00  0.00    -0.380 C  
HETATM    2  C   UNL     1     -10.445  16.028  68.855  1.00  0.00    -0.245 C  
ENDROOT
BRANCH   2   3
HETATM    3  C   UNL     1     -11.767  15.440  68.357  1.00  0.00    -0.332 C  
BRANCH   3   4
HETATM    4  C   UNL     1     -11.568  14.330  67.379  1.00  0.00    -0.369 A  
HETATM    5  N   UNL     1     -11.935  14.530  66.099  1.00  0.00    -0.350 NA 
HETATM    6  N   UNL     1     -11.605  13.379  65.470  1.00  0.00    -0.317 NA 
HETATM    7  C   UNL     1     -11.033  12.466  66.300  1.00  0.00    -0.286 A  
HETATM    8  C   UNL     1     -11.842  13.254  64.052  1.00  0.00    -0.455 C  
HETATM    9  C   UNL     1     -11.014  13.039  67.535  1.00  0.00    -0.259 A  
HETATM   10  N   UNL     1     -10.501  12.353  68.570  1.00  0.00    -0.230 NA 
HETATM   11  C   UNL     1     -10.025  11.070  68.294  1.00  0.00    -0.179 C  
HETATM   12  N   UNL     1     -10.023  10.506  67.114  1.00  0.00    -0.186 N  
HETATM   13  O   UNL     1     -10.586  10.653  64.895  1.00  0.00    -0.279 OA 
HETATM   14  H   UNL     1      -9.629   9.571  67.007  1.00  0.00     0.000 HD 
HETATM   15  C   UNL     1     -10.546  11.152  66.010  1.00  0.00    -0.239 C  
BRANCH  11  16
HETATM   16  C   UNL     1      -9.428  10.251  69.425  1.00  0.00    -0.225 A  
HETATM   17  C   UNL     1      -7.545   9.303  70.630  1.00  0.00    -0.161 A  
HETATM   18  C   UNL     1      -8.039  10.077  69.571  1.00  0.00    -0.161 A  
HETATM   19  C   UNL     1     -10.303   9.612  70.327  1.00  0.00    -0.336 A  
HETATM   20  C   UNL     1      -8.418   8.614  71.473  1.00  0.00    -0.238 A  
HETATM   21  C   UNL     1      -9.799   8.731  71.292  1.00  0.00    -0.266 A  
BRANCH  18  22
HETATM   22  O   UNL     1      -7.222  10.726  68.684  1.00  0.00    -0.078 OA 
BRANCH  22  23
HETATM   23  C   UNL     1      -6.625  11.945  69.129  1.00  0.00    -0.103 C  
HETATM   24  C   UNL     1      -6.838  12.965  68.027  1.00  0.00    -0.108 C  
ENDBRANCH  22  23
ENDBRANCH  18  22
BRANCH  21  25
HETATM   25  S   UNL     1     -10.885   7.821  72.378  1.00  0.00    -0.332 S  
HETATM   26  O   UNL     1     -12.185   8.457  72.321  1.00  0.00    -0.351 OA 
HETATM   27  O   UNL     1     -10.184   7.682  73.638  1.00  0.00    -0.320 OA 
BRANCH  25  28
HETATM   28  N   UNL     1     -11.023   6.269  71.719  1.00  0.00    -0.248 N  
HETATM   29  C   UNL     1     -11.266   6.105  70.272  1.00  0.00    -0.369 C  
HETATM   30  C   UNL     1      -9.940   5.990  69.510  1.00  0.00    -0.178 C  
HETATM   31  N   UNL     1      -9.044   4.918  69.987  1.00  0.00    -0.105 NA 
HETATM   32  C   UNL     1      -8.952   4.879  71.464  1.00  0.00    -0.135 C  
HETATM   33  C   UNL     1      -9.434   3.634  69.413  1.00  0.00    -0.179 C  
HETATM   34  C   UNL     1     -10.245   5.136  72.276  1.00  0.00    -0.202 C  
ENDBRANCH  25  28
ENDBRANCH  21  25
ENDBRANCH  11  16
ENDBRANCH   3   4
ENDBRANCH   2   3
TORSDOF 7
ENDMDL
MODEL       71
REMARK 921   NORMALIZED FREE ENERGY PREDICTED BY IDOCK:   -5.91 KCAL/MOL
REMARK 922        TOTAL FREE ENERGY PREDICTED BY IDOCK:   -9.68 KCAL/MOL
REMARK 923 INTER-LIGAND FREE ENERGY PREDICTED BY IDOCK:   -8.45 KCAL/MOL
REMARK 924 INTRA-LIGAND FREE ENERGY PREDICTED BY IDOCK:   -1.23 KCAL/MOL
REMARK 927      BINDING AFFINITY PREDICTED BY RF-SCORE:    0.00 PKD
ROOT
HETATM    1  C   UNL     1     -13.166  11.320  71.879  1.00  0.00    -0.491 C  
HETATM    2  C   UNL     1     -13.102  10.043  71.052  1.00  0.00    -0.435 C  
ENDROOT
BRANCH   2   3
HETATM    3  C   UNL     1     -12.290   8.952  71.754  1.00  0.00    -0.424 C  
BRANCH   3   4
HETATM    4  C   UNL     1     -10.826   9.065  71.486  1.00  0.00    -0.346 A  
HETATM    5  N   UNL     1      -9.968   8.512  72.364  1.00  0.00    -0.309 NA 
HETATM    6  N   UNL     1      -8.746   8.749  71.836  1.00  0.00    -0.351 NA 
HETATM    7  C   UNL     1      -8.799   9.418  70.654  1.00  0.00    -0.220 A  
HETATM    8  C   UNL     1      -7.573   8.261  72.521  1.00  0.00    -0.115 C  
HETATM    9  C   UNL     1     -10.119   9.653  70.412  1.00  0.00    -0.276 A  
HETATM   10  N   UNL     1     -10.476  10.312  69.297  1.00  0.00    -0.213 NA 
HETATM   11  C   UNL     1      -9.440  10.725  68.458  1.00  0.00    -0.181 C  
HETATM   12  N   UNL     1      -8.169  10.500  68.665  1.00  0.00    -0.122 N  
HETATM   13  O   UNL     1      -6.553   9.627  70.041  1.00  0.00    -0.055 OA 
HETATM   14  H   UNL     1      -7.485  10.819  67.977  1.00  0.00     0.000 HD 
HETATM   15  C   UNL     1      -7.733   9.838  69.796  1.00  0.00    -0.143 C  
BRANCH  11  16
HETATM   16  C   UNL     1      -9.786  11.469  67.180  1.00  0.00    -0.199 A  
HETATM   17  C   UNL     1     -10.015  11.603  64.765  1.00  0.00    -0.292 A  
HETATM   18  C   UNL     1      -9.691  10.863  65.912  1.00  0.00    -0.224 A  
HETATM   19  C   UNL     1     -10.170  12.822  67.272  1.00  0.00    -0.232 A  
HETATM   20  C   UNL     1     -10.322  12.961  64.859  1.00  0.00    -0.329 A  
HETATM   21  C   UNL     1     -10.353  13.582  66.110  1.00  0.00    -0.296 A  
BRANCH  18  22
HETATM   22  O   UNL     1      -9.328   9.543  65.865  1.00  0.00    -0.189 OA 
BRANCH  22  23
HETATM   23  C   UNL     1      -8.050   9.246  65.301  1.00  0.00    -0.121 C  
HETATM   24  C   UNL     1      -8.171   7.888  64.633  1.00  0.00    -0.094 C  
ENDBRANCH  22  23
ENDBRANCH  18  22
BRANCH  21  25
HETATM   25  S   UNL     1     -10.732  15.325  66.191  1.00  0.00    -0.324 S  
HETATM   26  O   UNL     1     -11.965  15.466  66.938  1.00  0.00     0.079 OA 
HETATM   27  O   UNL     1     -10.625  15.832  64.838  1.00  0.00    -0.490 OA 
BRANCH  25  28
HETATM   28  N   UNL     1      -9.486  16.041  67.082  1.00  0.00    -0.214 N  
HETATM   29  C   UNL     1      -8.559  16.984  66.422  1.00  0.00    -0.276 C  
HETATM   30  C   UNL     1      -9.074  18.423  66.543  1.00  0.00    -0.290 C  
HETATM   31  N   UNL     1      -9.336  18.871  67.925  1.00  0.00    -0.293 NA 
HETATM   32  C   UNL     1     -10.059  17.852  68.719  1.00  0.00    -0.384 C  
HETATM   33  C   UNL     1      -8.098  19.307  68.563  1.00  0.00    -0.366 C  
HETATM   34  C   UNL     1      -9.669  16.368  68.517  1.00  0.00    -0.228 C  
ENDBRANCH  25  28
ENDBRANCH  21  25
ENDBRANCH  11  16
ENDBRANCH   3   4
ENDBRANCH   2   3
TORSDOF 7
ENDMDL
MODEL       72
REMARK 921   NORMALIZED FREE ENERGY PREDICTED BY IDOCK:   -5.91 KCAL/MOL
REMARK 922        TOTAL FREE ENERGY PREDICTED BY IDOCK:   -9.67 KCAL/MOL
REMARK 923 INTER-LIGAND FREE ENERGY PREDICTED BY IDOCK:   -8.24 KCAL/MOL
REMARK 924 INTRA-LIGAND FREE ENERGY PREDICTED BY IDOCK:   -1.43 KCAL/MOL
REMARK 927      BINDING AFFINITY PREDICTED BY RF-SCORE:    0.00 PKD
ROOT
HETATM    1  C   UNL     1      -6.093   7.339  69.388  1.00  0.00    -0.030 C  
HETATM    2  C   UNL     1      -5.669   7.917  70.731  1.00  0.00    -0.030 C  
ENDROOT
BRANCH   2   3
HETATM    3  C   UNL     1      -6.442   9.193  71.070  1.00  0.00    -0.081 C  
BRANCH   3   4
HETATM    4  C   UNL     1      -7.908   8.955  71.216  1.00  0.00    -0.125 A  
HETATM    5  N   UNL     1      -8.357   8.402  72.358  1.00  0.00    -0.257 NA 
HETATM    6  N   UNL     1      -9.700   8.347  72.201  1.00  0.00    -0.271 NA 
HETATM    7  C   UNL     1     -10.116   8.855  71.011  1.00  0.00    -0.255 A  
HETATM    8  C   UNL     1     -10.516   7.821  73.269  1.00  0.00    -0.294 C  
HETATM    9  C   UNL     1      -8.988   9.235  70.348  1.00  0.00    -0.239 A  
HETATM   10  N   UNL     1      -9.096   9.776  69.123  1.00  0.00    -0.155 NA 
HETATM   11  C   UNL     1     -10.388   9.900  68.607  1.00  0.00    -0.195 C  
HETATM   12  N   UNL     1     -11.483   9.553  69.231  1.00  0.00    -0.438 N  
HETATM   13  O   UNL     1     -12.439   8.621  71.097  1.00  0.00    -0.276 OA 
HETATM   14  H   UNL     1     -12.385   9.707  68.781  1.00  0.00     0.000 HD 
HETATM   15  C   UNL     1     -11.442   8.981  70.488  1.00  0.00    -0.212 C  
BRANCH  11  16
HETATM   16  C   UNL     1     -10.570  10.510  67.229  1.00  0.00    -0.317 A  
HETATM   17  C   UNL     1     -10.320  10.478  64.813  1.00  0.00    -0.300 A  
HETATM   18  C   UNL     1     -10.133   9.861  66.058  1.00  0.00    -0.244 A  
HETATM   19  C   UNL     1     -11.157  11.789  67.132  1.00  0.00    -0.350 A  
HETATM   20  C   UNL     1     -10.833  11.774  64.732  1.00  0.00    -0.358 A  
HETATM   21  C   UNL     1     -11.208  12.448  65.898  1.00  0.00    -0.336 A  
BRANCH  18  22
HETATM   22  O   UNL     1      -9.581   8.615  66.193  1.00  0.00    -0.239 OA 
BRANCH  22  23
HETATM   23  C   UNL     1      -8.415   8.339  65.416  1.00  0.00    -0.172 C  
HETATM   24  C   UNL     1      -7.229   8.862  66.204  1.00  0.00    -0.090 C  
ENDBRANCH  22  23
ENDBRANCH  18  22
BRANCH  21  25
HETATM   25  S   UNL     1     -11.844  14.110  65.757  1.00  0.00    -0.395 S  
HETATM   26  O   UNL     1     -12.497  14.430  67.009  1.00  0.00    -0.260 OA 
HETATM   27  O   UNL     1     -12.573  14.167  64.507  1.00  0.00    -0.643 OA 
BRANCH  25  28
HETATM   28  N   UNL     1     -10.498  15.120  65.586  1.00  0.00    -0.332 N  
HETATM   29  C   UNL     1     -10.684  16.584  65.509  1.00  0.00    -0.256 C  
HETATM   30  C   UNL     1     -10.610  17.213  66.905  1.00  0.00    -0.209 C  
HETATM   31  N   UNL     1      -9.374  16.909  67.655  1.00  0.00    -0.231 NA 
HETATM   32  C   UNL     1      -9.000  15.480  67.564  1.00  0.00    -0.189 C  
HETATM   33  C   UNL     1      -8.295  17.801  67.243  1.00  0.00    -0.220 C  
HETATM   34  C   UNL     1      -9.198  14.766  66.205  1.00  0.00    -0.243 C  
ENDBRANCH  25  28
ENDBRANCH  21  25
ENDBRANCH  11  16
ENDBRANCH   3   4
ENDBRANCH   2   3
TORSDOF 7
ENDMDL
MODEL       73
REMARK 921   NORMALIZED FREE ENERGY PREDICTED BY IDOCK:   -5.90 KCAL/MOL
REMARK 922        TOTAL FREE ENERGY PREDICTED BY IDOCK:   -9.66 KCAL/MOL
REMARK 923 INTER-LIGAND FREE ENERGY PREDICTED BY IDOCK:   -8.75 KCAL/MOL
REMARK 924 INTRA-LIGAND FREE ENERGY PREDICTED BY IDOCK:   -0.91 KCAL/MOL
REMARK 927      BINDING AFFINITY PREDICTED BY RF-SCORE:    0.00 PKD
ROOT
HETATM    1  C   UNL     1      -8.806   2.895  66.476  1.00  0.00    -0.153 C  
HETATM    2  C   UNL     1      -9.323   3.731  67.638  1.00  0.00    -0.240 C  
ENDROOT
BRANCH   2   3
HETATM    3  C   UNL     1     -10.236   4.862  67.161  1.00  0.00    -0.211 C  
BRANCH   3   4
HETATM    4  C   UNL     1     -10.291   6.000  68.126  1.00  0.00    -0.205 A  
HETATM    5  N   UNL     1     -10.239   5.728  69.443  1.00  0.00    -0.211 NA 
HETATM    6  N   UNL     1     -10.276   6.941  70.040  1.00  0.00    -0.193 NA 
HETATM    7  C   UNL     1     -10.336   7.968  69.151  1.00  0.00    -0.220 A  
HETATM    8  C   UNL     1     -10.211   7.023  71.479  1.00  0.00    -0.198 C  
HETATM    9  C   UNL     1     -10.367   7.396  67.915  1.00  0.00    -0.204 A  
HETATM   10  N   UNL     1     -10.433   8.183  66.828  1.00  0.00    -0.309 NA 
HETATM   11  C   UNL     1     -10.476   9.559  67.056  1.00  0.00    -0.232 C  
HETATM   12  N   UNL     1     -10.435  10.129  68.232  1.00  0.00    -0.199 N  
HETATM   13  O   UNL     1     -10.362   9.869  70.511  1.00  0.00    -0.286 OA 
HETATM   14  H   UNL     1     -10.445  11.147  68.295  1.00  0.00     0.000 HD 
HETATM   15  C   UNL     1     -10.378   9.379  69.390  1.00  0.00    -0.212 C  
BRANCH  11  16
HETATM   16  C   UNL     1     -10.544  10.497  65.863  1.00  0.00    -0.149 A  
HETATM   17  C   UNL     1      -9.885  11.184  63.628  1.00  0.00    -0.387 A  
HETATM   18  C   UNL     1      -9.789  10.279  64.695  1.00  0.00    -0.327 A  
HETATM   19  C   UNL     1     -11.358  11.645  65.955  1.00  0.00    -0.261 A  
HETATM   20  C   UNL     1     -10.635  12.354  63.756  1.00  0.00    -0.486 A  
HETATM   21  C   UNL     1     -11.334  12.607  64.939  1.00  0.00    -0.311 A  
BRANCH  18  22
HETATM   22  O   UNL     1      -9.021   9.146  64.639  1.00  0.00    -0.192 OA 
BRANCH  22  23
HETATM   23  C   UNL     1      -8.244   8.951  63.456  1.00  0.00    -0.177 C  
HETATM   24  C   UNL     1      -7.365   7.739  63.703  1.00  0.00    -0.100 C  
ENDBRANCH  22  23
ENDBRANCH  18  22
BRANCH  21  25
HETATM   25  S   UNL     1     -12.268  14.123  65.073  1.00  0.00    -0.448 S  
HETATM   26  O   UNL     1     -13.502  13.811  65.764  1.00  0.00    -0.400 OA 
HETATM   27  O   UNL     1     -12.290  14.710  63.749  1.00  0.00    -0.720 OA 
BRANCH  25  28
HETATM   28  N   UNL     1     -11.356  15.157  66.053  1.00  0.00    -0.278 N  
HETATM   29  C   UNL     1     -11.700  15.308  67.482  1.00  0.00    -0.140 C  
HETATM   30  C   UNL     1     -10.924  14.296  68.333  1.00  0.00    -0.253 C  
HETATM   31  N   UNL     1      -9.457  14.345  68.169  1.00  0.00    -0.198 NA 
HETATM   32  C   UNL     1      -9.056  14.443  66.748  1.00  0.00    -0.257 C  
HETATM   33  C   UNL     1      -8.888  15.408  68.990  1.00  0.00    -0.231 C  
HETATM   34  C   UNL     1      -9.904  15.343  65.817  1.00  0.00    -0.364 C  
ENDBRANCH  25  28
ENDBRANCH  21  25
ENDBRANCH  11  16
ENDBRANCH   3   4
ENDBRANCH   2   3
TORSDOF 7
ENDMDL
MODEL       74
REMARK 921   NORMALIZED FREE ENERGY PREDICTED BY IDOCK:   -5.89 KCAL/MOL
REMARK 922        TOTAL FREE ENERGY PREDICTED BY IDOCK:   -9.65 KCAL/MOL
REMARK 923 INTER-LIGAND FREE ENERGY PREDICTED BY IDOCK:   -8.46 KCAL/MOL
REMARK 924 INTRA-LIGAND FREE ENERGY PREDICTED BY IDOCK:   -1.19 KCAL/MOL
REMARK 927      BINDING AFFINITY PREDICTED BY RF-SCORE:    0.00 PKD
ROOT
HETATM    1  C   UNL     1     -11.960  12.571  63.252  1.00  0.00    -0.516 C  
HETATM    2  C   UNL     1     -12.860  12.655  64.477  1.00  0.00    -0.356 C  
ENDROOT
BRANCH   2   3
HETATM    3  C   UNL     1     -12.756  14.017  65.165  1.00  0.00    -0.419 C  
BRANCH   3   4
HETATM    4  C   UNL     1     -11.468  14.193  65.899  1.00  0.00    -0.338 A  
HETATM    5  N   UNL     1     -10.724  15.283  65.637  1.00  0.00    -0.344 NA 
HETATM    6  N   UNL     1      -9.661  15.173  66.466  1.00  0.00    -0.254 NA 
HETATM    7  C   UNL     1      -9.711  14.063  67.249  1.00  0.00    -0.237 A  
HETATM    8  C   UNL     1      -8.654  16.207  66.465  1.00  0.00    -0.306 C  
HETATM    9  C   UNL     1     -10.849  13.403  66.895  1.00  0.00    -0.277 A  
HETATM   10  N   UNL     1     -11.159  12.250  67.511  1.00  0.00    -0.260 NA 
HETATM   11  C   UNL     1     -10.263  11.802  68.483  1.00  0.00    -0.210 C  
HETATM   12  N   UNL     1      -9.173  12.425  68.846  1.00  0.00    -0.373 N  
HETATM   13  O   UNL     1      -7.767  14.212  68.537  1.00  0.00    -0.126 OA 
HETATM   14  H   UNL     1      -8.594  12.030  69.587  1.00  0.00     0.000 HD 
HETATM   15  C   UNL     1      -8.790  13.609  68.245  1.00  0.00    -0.179 C  
BRANCH  11  16
HETATM   16  C   UNL     1     -10.567  10.507  69.217  1.00  0.00    -0.265 A  
HETATM   17  C   UNL     1     -11.721   9.225  70.927  1.00  0.00    -0.360 A  
HETATM   18  C   UNL     1     -11.488  10.447  70.280  1.00  0.00    -0.325 A  
HETATM   19  C   UNL     1      -9.866   9.342  68.844  1.00  0.00    -0.170 A  
HETATM   20  C   UNL     1     -10.970   8.095  70.601  1.00  0.00    -0.255 A  
HETATM   21  C   UNL     1     -10.008   8.166  69.590  1.00  0.00    -0.193 A  
BRANCH  18  22
HETATM   22  O   UNL     1     -12.159  11.597  70.603  1.00  0.00    -0.368 OA 
BRANCH  22  23
HETATM   23  C   UNL     1     -13.120  11.508  71.656  1.00  0.00    -0.373 C  
HETATM   24  C   UNL     1     -13.368  12.924  72.142  1.00  0.00    -0.615 C  
ENDBRANCH  22  23
ENDBRANCH  18  22
BRANCH  21  25
HETATM   25  S   UNL     1      -9.053   6.705  69.213  1.00  0.00    -0.137 S  
HETATM   26  O   UNL     1      -9.743   5.575  69.800  1.00  0.00    -0.155 OA 
HETATM   27  O   UNL     1      -7.683   7.006  69.576  1.00  0.00    -0.102 OA 
BRANCH  25  28
HETATM   28  N   UNL     1      -9.089   6.536  67.531  1.00  0.00    -0.116 N  
HETATM   29  C   UNL     1      -8.018   5.784  66.845  1.00  0.00    -0.102 C  
HETATM   30  C   UNL     1      -8.398   4.305  66.708  1.00  0.00    -0.101 C  
HETATM   31  N   UNL     1      -9.687   4.059  66.031  1.00  0.00    -0.194 NA 
HETATM   32  C   UNL     1     -10.755   4.963  66.512  1.00  0.00    -0.055 C  
HETATM   33  C   UNL     1      -9.519   4.106  64.582  1.00  0.00    -0.168 C  
HETATM   34  C   UNL     1     -10.378   6.436  66.804  1.00  0.00    -0.213 C  
ENDBRANCH  25  28
ENDBRANCH  21  25
ENDBRANCH  11  16
ENDBRANCH   3   4
ENDBRANCH   2   3
TORSDOF 7
ENDMDL
MODEL       75
REMARK 921   NORMALIZED FREE ENERGY PREDICTED BY IDOCK:   -5.88 KCAL/MOL
REMARK 922        TOTAL FREE ENERGY PREDICTED BY IDOCK:   -9.63 KCAL/MOL
REMARK 923 INTER-LIGAND FREE ENERGY PREDICTED BY IDOCK:   -8.72 KCAL/MOL
REMARK 924 INTRA-LIGAND FREE ENERGY PREDICTED BY IDOCK:   -0.92 KCAL/MOL
REMARK 927      BINDING AFFINITY PREDICTED BY RF-SCORE:    0.00 PKD
ROOT
HETATM    1  C   UNL     1     -12.864  13.952  65.481  1.00  0.00    -0.471 C  
HETATM    2  C   UNL     1     -12.001  13.954  64.226  1.00  0.00    -0.477 C  
ENDROOT
BRANCH   2   3
HETATM    3  C   UNL     1     -11.975  12.581  63.552  1.00  0.00    -0.629 C  
BRANCH   3   4
HETATM    4  C   UNL     1     -10.802  11.759  63.972  1.00  0.00    -0.385 A  
HETATM    5  N   UNL     1      -9.834  11.514  63.070  1.00  0.00    -0.376 NA 
HETATM    6  N   UNL     1      -8.916  10.788  63.748  1.00  0.00    -0.180 NA 
HETATM    7  C   UNL     1      -9.261  10.576  65.045  1.00  0.00    -0.206 A  
HETATM    8  C   UNL     1      -7.710  10.368  63.076  1.00  0.00    -0.118 C  
HETATM    9  C   UNL     1     -10.476  11.169  65.215  1.00  0.00    -0.263 A  
HETATM   10  N   UNL     1     -11.072  11.114  66.417  1.00  0.00    -0.202 NA 
HETATM   11  C   UNL     1     -10.389  10.427  67.422  1.00  0.00    -0.228 C  
HETATM   12  N   UNL     1      -9.218   9.861  67.284  1.00  0.00    -0.137 N  
HETATM   13  O   UNL     1      -7.471   9.335  65.893  1.00  0.00    -0.093 OA 
HETATM   14  H   UNL     1      -8.786   9.403  68.087  1.00  0.00     0.000 HD 
HETATM   15  C   UNL     1      -8.555   9.872  66.072  1.00  0.00    -0.136 C  
BRANCH  11  16
HETATM   16  C   UNL     1     -11.013  10.338  68.803  1.00  0.00    -0.285 A  
HETATM   17  C   UNL     1     -12.222  11.294  70.681  1.00  0.00    -0.489 A  
HETATM   18  C   UNL     1     -11.672  11.431  69.399  1.00  0.00    -0.338 A  
HETATM   19  C   UNL     1     -10.886   9.133  69.524  1.00  0.00    -0.194 A  
HETATM   20  C   UNL     1     -12.026  10.123  71.416  1.00  0.00    -0.447 A  
HETATM   21  C   UNL     1     -11.317   9.059  70.853  1.00  0.00    -0.293 A  
BRANCH  18  22
HETATM   22  O   UNL     1     -11.788  12.580  68.662  1.00  0.00    -0.304 OA 
BRANCH  22  23
HETATM   23  C   UNL     1     -10.905  13.652  68.996  1.00  0.00    -0.204 C  
HETATM   24  C   UNL     1     -11.776  14.841  69.356  1.00  0.00    -0.358 C  
ENDBRANCH  22  23
ENDBRANCH  18  22
BRANCH  21  25
HETATM   25  S   UNL     1     -11.071   7.583  71.829  1.00  0.00    -0.248 S  
HETATM   26  O   UNL     1     -12.298   6.818  71.771  1.00  0.00    -0.341 OA 
HETATM   27  O   UNL     1     -10.529   8.018  73.101  1.00  0.00    -0.338 OA 
BRANCH  25  28
HETATM   28  N   UNL     1      -9.855   6.699  71.054  1.00  0.00    -0.182 N  
HETATM   29  C   UNL     1      -8.498   6.650  71.637  1.00  0.00    -0.119 C  
HETATM   30  C   UNL     1      -8.359   5.453  72.583  1.00  0.00    -0.114 C  
HETATM   31  N   UNL     1      -8.685   4.146  71.978  1.00  0.00    -0.105 NA 
HETATM   32  C   UNL     1      -9.924   4.196  71.170  1.00  0.00    -0.140 C  
HETATM   33  C   UNL     1      -7.544   3.631  71.228  1.00  0.00    -0.048 C  
HETATM   34  C   UNL     1     -10.176   5.458  70.310  1.00  0.00    -0.267 C  
ENDBRANCH  25  28
ENDBRANCH  21  25
ENDBRANCH  11  16
ENDBRANCH   3   4
ENDBRANCH   2   3
TORSDOF 7
ENDMDL
MODEL       76
REMARK 921   NORMALIZED FREE ENERGY PREDICTED BY IDOCK:   -5.87 KCAL/MOL
REMARK 922        TOTAL FREE ENERGY PREDICTED BY IDOCK:   -9.61 KCAL/MOL
REMARK 923 INTER-LIGAND FREE ENERGY PREDICTED BY IDOCK:   -8.38 KCAL/MOL
REMARK 924 INTRA-LIGAND FREE ENERGY PREDICTED BY IDOCK:   -1.24 KCAL/MOL
REMARK 927      BINDING AFFINITY PREDICTED BY RF-SCORE:    0.00 PKD
ROOT
HETATM    1  C   UNL     1     -11.206  11.870  63.300  1.00  0.00    -0.382 C  
HETATM    2  C   UNL     1     -12.264  12.953  63.465  1.00  0.00    -0.595 C  
ENDROOT
BRANCH   2   3
HETATM    3  C   UNL     1     -12.596  13.203  64.937  1.00  0.00    -0.468 C  
BRANCH   3   4
HETATM    4  C   UNL     1     -11.376  13.344  65.785  1.00  0.00    -0.305 A  
HETATM    5  N   UNL     1     -10.682  14.496  65.724  1.00  0.00    -0.301 NA 
HETATM    6  N   UNL     1      -9.675  14.331  66.611  1.00  0.00    -0.276 NA 
HETATM    7  C   UNL     1      -9.713  13.126  67.239  1.00  0.00    -0.230 A  
HETATM    8  C   UNL     1      -8.734  15.405  66.822  1.00  0.00    -0.269 C  
HETATM    9  C   UNL     1     -10.781  12.461  66.716  1.00  0.00    -0.234 A  
HETATM   10  N   UNL     1     -11.064  11.223  67.153  1.00  0.00    -0.294 NA 
HETATM   11  C   UNL     1     -10.213  10.696  68.126  1.00  0.00    -0.168 C  
HETATM   12  N   UNL     1      -9.190  11.319  68.649  1.00  0.00    -0.239 N  
HETATM   13  O   UNL     1      -7.877  13.200  68.683  1.00  0.00    -0.126 OA 
HETATM   14  H   UNL     1      -8.642  10.859  69.376  1.00  0.00     0.000 HD 
HETATM   15  C   UNL     1      -8.838  12.590  68.237  1.00  0.00    -0.171 C  
BRANCH  11  16
HETATM   16  C   UNL     1     -10.489   9.301  68.661  1.00  0.00    -0.236 A  
HETATM   17  C   UNL     1     -10.593   6.887  68.418  1.00  0.00    -0.249 A  
HETATM   18  C   UNL     1     -10.313   8.148  67.873  1.00  0.00    -0.220 A  
HETATM   19  C   UNL     1     -10.978   9.171  69.977  1.00  0.00    -0.240 A  
HETATM   20  C   UNL     1     -11.146   6.772  69.694  1.00  0.00    -0.343 A  
HETATM   21  C   UNL     1     -11.383   7.919  70.456  1.00  0.00    -0.234 A  
BRANCH  18  22
HETATM   22  O   UNL     1      -9.823   8.316  66.605  1.00  0.00    -0.227 OA 
BRANCH  22  23
HETATM   23  C   UNL     1      -8.712   7.500  66.230  1.00  0.00    -0.149 C  
HETATM   24  C   UNL     1      -7.666   8.428  65.641  1.00  0.00    -0.099 C  
ENDBRANCH  22  23
ENDBRANCH  18  22
BRANCH  21  25
HETATM   25  S   UNL     1     -12.109   7.735  72.077  1.00  0.00    -0.310 S  
HETATM   26  O   UNL     1     -13.003   6.598  72.023  1.00  0.00    -0.267 OA 
HETATM   27  O   UNL     1     -12.598   9.044  72.459  1.00  0.00    -0.359 OA 
BRANCH  25  28
HETATM   28  N   UNL     1     -10.837   7.361  73.127  1.00  0.00    -0.376 N  
HETATM   29  C   UNL     1     -10.629   5.965  73.562  1.00  0.00    -0.268 C  
HETATM   30  C   UNL     1      -9.668   5.240  72.612  1.00  0.00    -0.151 C  
HETATM   31  N   UNL     1      -8.360   5.903  72.432  1.00  0.00    -0.117 NA 
HETATM   32  C   UNL     1      -8.494   7.364  72.234  1.00  0.00    -0.112 C  
HETATM   33  C   UNL     1      -7.462   5.564  73.531  1.00  0.00    -0.095 C  
HETATM   34  C   UNL     1      -9.559   8.112  73.071  1.00  0.00    -0.266 C  
ENDBRANCH  25  28
ENDBRANCH  21  25
ENDBRANCH  11  16
ENDBRANCH   3   4
ENDBRANCH   2   3
TORSDOF 7
ENDMDL
MODEL       77
REMARK 921   NORMALIZED FREE ENERGY PREDICTED BY IDOCK:   -5.86 KCAL/MOL
REMARK 922        TOTAL FREE ENERGY PREDICTED BY IDOCK:   -9.60 KCAL/MOL
REMARK 923 INTER-LIGAND FREE ENERGY PREDICTED BY IDOCK:   -9.02 KCAL/MOL
REMARK 924 INTRA-LIGAND FREE ENERGY PREDICTED BY IDOCK:   -0.58 KCAL/MOL
REMARK 927      BINDING AFFINITY PREDICTED BY RF-SCORE:    0.00 PKD
ROOT
HETATM    1  C   UNL     1     -10.034  20.553  67.360  1.00  0.00    -0.525 C  
HETATM    2  C   UNL     1     -10.682  19.177  67.428  1.00  0.00    -0.578 C  
ENDROOT
BRANCH   2   3
HETATM    3  C   UNL     1     -10.335  18.325  66.206  1.00  0.00    -0.422 C  
BRANCH   3   4
HETATM    4  C   UNL     1      -9.122  17.482  66.419  1.00  0.00    -0.240 A  
HETATM    5  N   UNL     1      -7.924  17.979  66.061  1.00  0.00    -0.519 NA 
HETATM    6  N   UNL     1      -7.042  17.013  66.404  1.00  0.00    -0.260 NA 
HETATM    7  C   UNL     1      -7.635  15.931  66.976  1.00  0.00    -0.229 A  
HETATM    8  C   UNL     1      -5.633  17.229  66.178  1.00  0.00    -0.044 C  
HETATM    9  C   UNL     1      -8.972  16.193  66.981  1.00  0.00    -0.211 A  
HETATM   10  N   UNL     1      -9.818  15.283  67.492  1.00  0.00    -0.213 NA 
HETATM   11  C   UNL     1      -9.248  14.105  67.978  1.00  0.00    -0.195 C  
HETATM   12  N   UNL     1      -7.968  13.839  67.993  1.00  0.00    -0.141 N  
HETATM   13  O   UNL     1      -5.842  14.507  67.446  1.00  0.00    -0.342 OA 
HETATM   14  H   UNL     1      -7.645  12.958  68.395  1.00  0.00     0.000 HD 
HETATM   15  C   UNL     1      -7.045  14.726  67.474  1.00  0.00    -0.184 C  
BRANCH  11  16
HETATM   16  C   UNL     1     -10.157  13.043  68.572  1.00  0.00    -0.195 A  
HETATM   17  C   UNL     1     -12.131  12.348  69.803  1.00  0.00    -0.292 A  
HETATM   18  C   UNL     1     -11.336  13.371  69.268  1.00  0.00    -0.257 A  
HETATM   19  C   UNL     1      -9.776  11.690  68.456  1.00  0.00    -0.187 A  
HETATM   20  C   UNL     1     -11.710  11.018  69.749  1.00  0.00    -0.410 A  
HETATM   21  C   UNL     1     -10.507  10.695  69.116  1.00  0.00    -0.222 A  
BRANCH  18  22
HETATM   22  O   UNL     1     -11.679  14.694  69.346  1.00  0.00    -0.281 OA 
BRANCH  22  23
HETATM   23  C   UNL     1     -12.584  15.065  70.387  1.00  0.00    -0.350 C  
HETATM   24  C   UNL     1     -11.741  15.585  71.537  1.00  0.00    -0.479 C  
ENDBRANCH  22  23
ENDBRANCH  18  22
BRANCH  21  25
HETATM   25  S   UNL     1      -9.990   8.986  69.081  1.00  0.00    -0.191 S  
HETATM   26  O   UNL     1      -8.597   8.948  69.471  1.00  0.00    -0.127 OA 
HETATM   27  O   UNL     1     -10.416   8.454  67.802  1.00  0.00    -0.236 OA 
BRANCH  25  28
HETATM   28  N   UNL     1     -10.897   8.192  70.268  1.00  0.00    -0.243 N  
HETATM   29  C   UNL     1     -11.453   6.852  69.993  1.00  0.00    -0.277 C  
HETATM   30  C   UNL     1     -10.471   5.758  70.429  1.00  0.00    -0.273 C  
HETATM   31  N   UNL     1     -10.046   5.838  71.841  1.00  0.00    -0.181 NA 
HETATM   32  C   UNL     1      -9.704   7.219  72.247  1.00  0.00    -0.149 C  
HETATM   33  C   UNL     1     -11.046   5.226  72.710  1.00  0.00    -0.286 C  
HETATM   34  C   UNL     1     -10.587   8.370  71.707  1.00  0.00    -0.282 C  
ENDBRANCH  25  28
ENDBRANCH  21  25
ENDBRANCH  11  16
ENDBRANCH   3   4
ENDBRANCH   2   3
TORSDOF 7
ENDMDL
MODEL       78
REMARK 921   NORMALIZED FREE ENERGY PREDICTED BY IDOCK:   -5.85 KCAL/MOL
REMARK 922        TOTAL FREE ENERGY PREDICTED BY IDOCK:   -9.59 KCAL/MOL
REMARK 923 INTER-LIGAND FREE ENERGY PREDICTED BY IDOCK:   -7.84 KCAL/MOL
REMARK 924 INTRA-LIGAND FREE ENERGY PREDICTED BY IDOCK:   -1.75 KCAL/MOL
REMARK 927      BINDING AFFINITY PREDICTED BY RF-SCORE:    0.00 PKD
ROOT
HETATM    1  C   UNL     1     -12.072  12.133  70.322  1.00  0.00    -0.385 C  
HETATM    2  C   UNL     1     -11.126  12.244  69.135  1.00  0.00    -0.261 C  
ENDROOT
BRANCH   2   3
HETATM    3  C   UNL     1     -11.886  12.324  67.809  1.00  0.00    -0.341 C  
BRANCH   3   4
HETATM    4  C   UNL     1     -11.148  11.679  66.684  1.00  0.00    -0.307 A  
HETATM    5  N   UNL     1     -10.932  12.394  65.565  1.00  0.00    -0.284 NA 
HETATM    6  N   UNL     1     -10.225  11.563  64.765  1.00  0.00    -0.265 NA 
HETATM    7  C   UNL     1      -9.976  10.357  65.340  1.00  0.00    -0.295 A  
HETATM    8  C   UNL     1      -9.795  12.027  63.467  1.00  0.00    -0.289 C  
HETATM    9  C   UNL     1     -10.572  10.393  66.564  1.00  0.00    -0.151 A  
HETATM   10  N   UNL     1     -10.492   9.318  67.366  1.00  0.00    -0.266 NA 
HETATM   11  C   UNL     1      -9.797   8.216  66.865  1.00  0.00    -0.247 C  
HETATM   12  N   UNL     1      -9.208   8.165  65.699  1.00  0.00    -0.412 N  
HETATM   13  O   UNL     1      -8.745   9.218  63.713  1.00  0.00    -0.209 OA 
HETATM   14  H   UNL     1      -8.699   7.322  65.431  1.00  0.00     0.000 HD 
HETATM   15  C   UNL     1      -9.260   9.231  64.822  1.00  0.00    -0.095 C  
BRANCH  11  16
HETATM   16  C   UNL     1      -9.669   6.975  67.731  1.00  0.00    -0.156 A  
HETATM   17  C   UNL     1      -9.891   4.586  68.110  1.00  0.00    -0.152 A  
HETATM   18  C   UNL     1     -10.021   5.695  67.262  1.00  0.00    -0.159 A  
HETATM   19  C   UNL     1      -9.225   7.126  69.061  1.00  0.00    -0.135 A  
HETATM   20  C   UNL     1      -9.522   4.754  69.446  1.00  0.00    -0.229 A  
HETATM   21  C   UNL     1      -9.235   6.031  69.934  1.00  0.00    -0.148 A  
BRANCH  18  22
HETATM   22  O   UNL     1     -10.434   5.589  65.960  1.00  0.00    -0.115 OA 
BRANCH  22  23
HETATM   23  C   UNL     1      -9.737   4.653  65.137  1.00  0.00    -0.106 C  
HETATM   24  C   UNL     1     -10.786   3.920  64.321  1.00  0.00    -0.218 C  
ENDBRANCH  22  23
ENDBRANCH  18  22
BRANCH  21  25
HETATM   25  S   UNL     1      -8.784   6.209  71.652  1.00  0.00    -0.134 S  
HETATM   26  O   UNL     1      -7.772   7.242  71.729  1.00  0.00    -0.085 OA 
HETATM   27  O   UNL     1      -8.517   4.874  72.147  1.00  0.00    -0.120 OA 
BRANCH  25  28
HETATM   28  N   UNL     1     -10.169   6.761  72.451  1.00  0.00    -0.179 N  
HETATM   29  C   UNL     1     -10.286   8.187  72.817  1.00  0.00    -0.302 C  
HETATM   30  C   UNL     1     -10.974   8.978  71.698  1.00  0.00    -0.365 C  
HETATM   31  N   UNL     1     -12.298   8.458  71.299  1.00  0.00    -0.294 NA 
HETATM   32  C   UNL     1     -12.302   6.985  71.153  1.00  0.00    -0.378 C  
HETATM   33  C   UNL     1     -13.330   8.937  72.214  1.00  0.00    -0.449 C  
HETATM   34  C   UNL     1     -11.495   6.155  72.180  1.00  0.00    -0.311 C  
ENDBRANCH  25  28
ENDBRANCH  21  25
ENDBRANCH  11  16
ENDBRANCH   3   4
ENDBRANCH   2   3
TORSDOF 7
ENDMDL
MODEL       79
REMARK 921   NORMALIZED FREE ENERGY PREDICTED BY IDOCK:   -5.80 KCAL/MOL
REMARK 922        TOTAL FREE ENERGY PREDICTED BY IDOCK:   -9.53 KCAL/MOL
REMARK 923 INTER-LIGAND FREE ENERGY PREDICTED BY IDOCK:   -7.96 KCAL/MOL
REMARK 924 INTRA-LIGAND FREE ENERGY PREDICTED BY IDOCK:   -1.57 KCAL/MOL
REMARK 927      BINDING AFFINITY PREDICTED BY RF-SCORE:    0.00 PKD
ROOT
HETATM    1  C   UNL     1     -10.120   4.255  66.190  1.00  0.00    -0.210 C  
HETATM    2  C   UNL     1      -9.984   5.764  66.328  1.00  0.00    -0.129 C  
ENDROOT
BRANCH   2   3
HETATM    3  C   UNL     1     -11.129   6.365  67.145  1.00  0.00    -0.422 C  
BRANCH   3   4
HETATM    4  C   UNL     1     -10.689   6.828  68.494  1.00  0.00    -0.231 A  
HETATM    5  N   UNL     1     -10.816   5.985  69.535  1.00  0.00    -0.335 NA 
HETATM    6  N   UNL     1     -10.312   6.669  70.588  1.00  0.00    -0.200 NA 
HETATM    7  C   UNL     1      -9.860   7.906  70.249  1.00  0.00    -0.184 A  
HETATM    8  C   UNL     1     -10.268   6.039  71.885  1.00  0.00    -0.200 C  
HETATM    9  C   UNL     1     -10.107   8.046  68.917  1.00  0.00    -0.201 A  
HETATM   10  N   UNL     1      -9.764   9.190  68.301  1.00  0.00    -0.151 NA 
HETATM   11  C   UNL     1      -9.177  10.175  69.097  1.00  0.00    -0.197 C  
HETATM   12  N   UNL     1      -8.921  10.056  70.374  1.00  0.00    -0.294 N  
HETATM   13  O   UNL     1      -9.058   8.768  72.268  1.00  0.00    -0.355 OA 
HETATM   14  H   UNL     1      -8.464  10.825  70.866  1.00  0.00     0.000 HD 
HETATM   15  C   UNL     1      -9.258   8.911  71.070  1.00  0.00    -0.245 C  
BRANCH  11  16
HETATM   16  C   UNL     1      -8.764  11.486  68.453  1.00  0.00    -0.160 A  
HETATM   17  C   UNL     1      -7.112  12.972  67.472  1.00  0.00    -0.158 A  
HETATM   18  C   UNL     1      -7.438  11.739  68.053  1.00  0.00    -0.101 A  
HETATM   19  C   UNL     1      -9.737  12.495  68.295  1.00  0.00    -0.220 A  
HETATM   20  C   UNL     1      -8.063  13.990  67.387  1.00  0.00    -0.199 A  
HETATM   21  C   UNL     1      -9.365  13.766  67.843  1.00  0.00    -0.211 A  
BRANCH  18  22
HETATM   22  O   UNL     1      -6.525  10.729  68.210  1.00  0.00    -0.057 OA 
BRANCH  22  23
HETATM   23  C   UNL     1      -5.955  10.185  67.019  1.00  0.00    -0.051 C  
HETATM   24  C   UNL     1      -6.279   8.703  67.016  1.00  0.00    -0.056 C  
ENDBRANCH  22  23
ENDBRANCH  18  22
BRANCH  21  25
HETATM   25  S   UNL     1     -10.550  15.098  67.735  1.00  0.00    -0.270 S  
HETATM   26  O   UNL     1      -9.805  16.327  67.564  1.00  0.00    -0.233 OA 
HETATM   27  O   UNL     1     -11.456  14.931  68.854  1.00  0.00    -0.269 OA 
BRANCH  25  28
HETATM   28  N   UNL     1     -11.450  14.820  66.330  1.00  0.00    -0.343 N  
HETATM   29  C   UNL     1     -10.789  14.886  65.011  1.00  0.00    -0.423 C  
HETATM   30  C   UNL     1     -10.268  13.505  64.597  1.00  0.00    -0.316 C  
HETATM   31  N   UNL     1     -11.287  12.437  64.587  1.00  0.00    -0.304 NA 
HETATM   32  C   UNL     1     -12.150  12.474  65.790  1.00  0.00    -0.378 C  
HETATM   33  C   UNL     1     -12.051  12.473  63.344  1.00  0.00    -0.529 C  
HETATM   34  C   UNL     1     -12.580  13.860  66.329  1.00  0.00    -0.330 C  
ENDBRANCH  25  28
ENDBRANCH  21  25
ENDBRANCH  11  16
ENDBRANCH   3   4
ENDBRANCH   2   3
TORSDOF 7
ENDMDL
MODEL       80
REMARK 921   NORMALIZED FREE ENERGY PREDICTED BY IDOCK:   -5.80 KCAL/MOL
REMARK 922        TOTAL FREE ENERGY PREDICTED BY IDOCK:   -9.52 KCAL/MOL
REMARK 923 INTER-LIGAND FREE ENERGY PREDICTED BY IDOCK:   -8.47 KCAL/MOL
REMARK 924 INTRA-LIGAND FREE ENERGY PREDICTED BY IDOCK:   -1.05 KCAL/MOL
REMARK 927      BINDING AFFINITY PREDICTED BY RF-SCORE:    0.00 PKD
ROOT
HETATM    1  C   UNL     1     -10.286  20.092  68.568  1.00  0.00    -0.484 C  
HETATM    2  C   UNL     1      -9.945  20.054  67.084  1.00  0.00    -0.580 C  
ENDROOT
BRANCH   2   3
HETATM    3  C   UNL     1      -8.434  20.031  66.849  1.00  0.00    -0.385 C  
BRANCH   3   4
HETATM    4  C   UNL     1      -7.730  19.056  67.734  1.00  0.00    -0.246 A  
HETATM    5  N   UNL     1      -6.667  19.482  68.440  1.00  0.00    -0.270 NA 
HETATM    6  N   UNL     1      -6.279  18.400  69.152  1.00  0.00    -0.231 NA 
HETATM    7  C   UNL     1      -7.064  17.312  68.934  1.00  0.00    -0.242 A  
HETATM    8  C   UNL     1      -5.158  18.512  70.055  1.00  0.00    -0.200 C  
HETATM    9  C   UNL     1      -7.992  17.695  68.013  1.00  0.00    -0.241 A  
HETATM   10  N   UNL     1      -8.911  16.808  67.597  1.00  0.00    -0.209 NA 
HETATM   11  C   UNL     1      -8.835  15.527  68.147  1.00  0.00    -0.169 C  
HETATM   12  N   UNL     1      -7.961  15.142  69.039  1.00  0.00    -0.173 N  
HETATM   13  O   UNL     1      -6.131  15.676  70.317  1.00  0.00    -0.146 OA 
HETATM   14  H   UNL     1      -8.002  14.189  69.402  1.00  0.00     0.000 HD 
HETATM   15  C   UNL     1      -6.982  16.001  69.501  1.00  0.00    -0.191 C  
BRANCH  11  16
HETATM   16  C   UNL     1      -9.852  14.484  67.718  1.00  0.00    -0.220 A  
HETATM   17  C   UNL     1     -12.116  13.611  67.600  1.00  0.00    -0.328 A  
HETATM   18  C   UNL     1     -11.223  14.610  68.013  1.00  0.00    -0.293 A  
HETATM   19  C   UNL     1      -9.394  13.335  67.041  1.00  0.00    -0.242 A  
HETATM   20  C   UNL     1     -11.645  12.444  66.997  1.00  0.00    -0.434 A  
HETATM   21  C   UNL     1     -10.277  12.285  66.760  1.00  0.00    -0.211 A  
BRANCH  18  22
HETATM   22  O   UNL     1     -11.631  15.747  68.659  1.00  0.00    -0.368 OA 
BRANCH  22  23
HETATM   23  C   UNL     1     -12.331  15.573  69.891  1.00  0.00    -0.277 C  
HETATM   24  C   UNL     1     -11.280  15.451  70.979  1.00  0.00    -0.408 C  
ENDBRANCH  22  23
ENDBRANCH  18  22
BRANCH  21  25
HETATM   25  S   UNL     1      -9.709  10.771  66.004  1.00  0.00    -0.229 S  
HETATM   26  O   UNL     1      -8.262  10.813  65.986  1.00  0.00    -0.158 OA 
HETATM   27  O   UNL     1     -10.460  10.619  64.775  1.00  0.00    -0.325 OA 
BRANCH  25  28
HETATM   28  N   UNL     1     -10.191   9.517  67.032  1.00  0.00    -0.241 N  
HETATM   29  C   UNL     1     -10.000   8.112  66.616  1.00  0.00    -0.269 C  
HETATM   30  C   UNL     1      -8.641   7.587  67.095  1.00  0.00    -0.121 C  
HETATM   31  N   UNL     1      -8.409   7.710  68.548  1.00  0.00    -0.128 NA 
HETATM   32  C   UNL     1      -8.816   9.033  69.072  1.00  0.00    -0.136 C  
HETATM   33  C   UNL     1      -9.039   6.603  69.261  1.00  0.00    -0.138 C  
HETATM   34  C   UNL     1     -10.109   9.668  68.505  1.00  0.00    -0.175 C  
ENDBRANCH  25  28
ENDBRANCH  21  25
ENDBRANCH  11  16
ENDBRANCH   3   4
ENDBRANCH   2   3
TORSDOF 7
ENDMDL
MODEL       81
REMARK 921   NORMALIZED FREE ENERGY PREDICTED BY IDOCK:   -5.79 KCAL/MOL
REMARK 922        TOTAL FREE ENERGY PREDICTED BY IDOCK:   -9.51 KCAL/MOL
REMARK 923 INTER-LIGAND FREE ENERGY PREDICTED BY IDOCK:   -8.83 KCAL/MOL
REMARK 924 INTRA-LIGAND FREE ENERGY PREDICTED BY IDOCK:   -0.68 KCAL/MOL
REMARK 927      BINDING AFFINITY PREDICTED BY RF-SCORE:    0.00 PKD
ROOT
HETATM    1  C   UNL     1     -10.510  18.309  67.797  1.00  0.00    -0.430 C  
HETATM    2  C   UNL     1     -10.517  17.193  68.833  1.00  0.00    -0.346 C  
ENDROOT
BRANCH   2   3
HETATM    3  C   UNL     1     -11.331  15.987  68.363  1.00  0.00    -0.355 C  
BRANCH   3   4
HETATM    4  C   UNL     1     -12.022  15.287  69.486  1.00  0.00    -0.330 A  
HETATM    5  N   UNL     1     -12.774  16.017  70.331  1.00  0.00    -0.209 NA 
HETATM    6  N   UNL     1     -13.282  15.112  71.198  1.00  0.00    -0.437 NA 
HETATM    7  C   UNL     1     -12.891  13.839  70.926  1.00  0.00    -0.271 A  
HETATM    8  C   UNL     1     -14.171  15.557  72.244  1.00  0.00    -0.524 C  
HETATM    9  C   UNL     1     -12.066  13.920  69.845  1.00  0.00    -0.344 A  
HETATM   10  N   UNL     1     -11.518  12.798  69.350  1.00  0.00    -0.272 NA 
HETATM   11  C   UNL     1     -11.836  11.607  70.006  1.00  0.00    -0.355 C  
HETATM   12  N   UNL     1     -12.634  11.505  71.036  1.00  0.00    -0.387 N  
HETATM   13  O   UNL     1     -13.954  12.574  72.578  1.00  0.00    -0.312 OA 
HETATM   14  H   UNL     1     -12.826  10.584  71.431  1.00  0.00     0.000 HD 
HETATM   15  C   UNL     1     -13.221  12.621  71.601  1.00  0.00    -0.298 C  
BRANCH  11  16
HETATM   16  C   UNL     1     -11.250  10.307  69.485  1.00  0.00    -0.314 A  
HETATM   17  C   UNL     1     -10.616   8.802  67.687  1.00  0.00    -0.281 A  
HETATM   18  C   UNL     1     -11.158  10.024  68.109  1.00  0.00    -0.193 A  
HETATM   19  C   UNL     1     -10.827   9.338  70.419  1.00  0.00    -0.302 A  
HETATM   20  C   UNL     1     -10.269   7.820  68.617  1.00  0.00    -0.217 A  
HETATM   21  C   UNL     1     -10.419   8.072  69.983  1.00  0.00    -0.228 A  
BRANCH  18  22
HETATM   22  O   UNL     1     -11.566  10.996  67.234  1.00  0.00    -0.496 OA 
BRANCH  22  23
HETATM   23  C   UNL     1     -10.584  11.499  66.326  1.00  0.00    -0.263 C  
HETATM   24  C   UNL     1     -11.242  12.625  65.550  1.00  0.00    -0.337 C  
ENDBRANCH  22  23
ENDBRANCH  18  22
BRANCH  21  25
HETATM   25  S   UNL     1      -9.982   6.786  71.143  1.00  0.00    -0.180 S  
HETATM   26  O   UNL     1     -11.215   6.174  71.594  1.00  0.00    -0.269 OA 
HETATM   27  O   UNL     1      -9.063   7.383  72.090  1.00  0.00    -0.130 OA 
BRANCH  25  28
HETATM   28  N   UNL     1      -9.106   5.635  70.267  1.00  0.00    -0.141 N  
HETATM   29  C   UNL     1      -7.658   5.471  70.513  1.00  0.00    -0.084 C  
HETATM   30  C   UNL     1      -7.409   4.410  71.591  1.00  0.00    -0.064 C  
HETATM   31  N   UNL     1      -8.016   3.093  71.314  1.00  0.00    -0.057 NA 
HETATM   32  C   UNL     1      -9.408   3.209  70.823  1.00  0.00    -0.153 C  
HETATM   33  C   UNL     1      -7.165   2.318  70.416  1.00  0.00    -0.033 C  
HETATM   34  C   UNL     1      -9.736   4.361  69.843  1.00  0.00    -0.221 C  
ENDBRANCH  25  28
ENDBRANCH  21  25
ENDBRANCH  11  16
ENDBRANCH   3   4
ENDBRANCH   2   3
TORSDOF 7
ENDMDL
MODEL       82
REMARK 921   NORMALIZED FREE ENERGY PREDICTED BY IDOCK:   -5.79 KCAL/MOL
REMARK 922        TOTAL FREE ENERGY PREDICTED BY IDOCK:   -9.51 KCAL/MOL
REMARK 923 INTER-LIGAND FREE ENERGY PREDICTED BY IDOCK:   -8.73 KCAL/MOL
REMARK 924 INTRA-LIGAND FREE ENERGY PREDICTED BY IDOCK:   -0.77 KCAL/MOL
REMARK 927      BINDING AFFINITY PREDICTED BY RF-SCORE:    0.00 PKD
ROOT
HETATM    1  C   UNL     1      -6.421   5.542  73.418  1.00  0.00    -0.067 C  
HETATM    2  C   UNL     1      -6.722   6.223  72.090  1.00  0.00    -0.064 C  
ENDROOT
BRANCH   2   3
HETATM    3  C   UNL     1      -8.174   6.700  72.013  1.00  0.00    -0.106 C  
BRANCH   3   4
HETATM    4  C   UNL     1      -8.796   6.433  70.683  1.00  0.00    -0.144 A  
HETATM    5  N   UNL     1      -8.717   5.189  70.176  1.00  0.00    -0.109 NA 
HETATM    6  N   UNL     1      -9.388   5.260  69.004  1.00  0.00    -0.124 NA 
HETATM    7  C   UNL     1      -9.898   6.495  68.758  1.00  0.00    -0.140 A  
HETATM    8  C   UNL     1      -9.524   4.073  68.194  1.00  0.00    -0.158 C  
HETATM    9  C   UNL     1      -9.518   7.276  69.807  1.00  0.00    -0.149 A  
HETATM   10  N   UNL     1      -9.883   8.569  69.831  1.00  0.00    -0.183 NA 
HETATM   11  C   UNL     1     -10.632   9.026  68.746  1.00  0.00    -0.169 C  
HETATM   12  N   UNL     1     -11.017   8.292  67.735  1.00  0.00    -0.491 N  
HETATM   13  O   UNL     1     -10.986   6.242  66.705  1.00  0.00    -0.347 OA 
HETATM   14  H   UNL     1     -11.587   8.711  67.000  1.00  0.00     0.000 HD 
HETATM   15  C   UNL     1     -10.668   6.958  67.644  1.00  0.00    -0.274 C  
BRANCH  11  16
HETATM   16  C   UNL     1     -11.077  10.477  68.723  1.00  0.00    -0.315 A  
HETATM   17  C   UNL     1     -12.026  12.452  69.773  1.00  0.00    -0.359 A  
HETATM   18  C   UNL     1     -11.624  11.111  69.856  1.00  0.00    -0.337 A  
HETATM   19  C   UNL     1     -10.978  11.193  67.512  1.00  0.00    -0.331 A  
HETATM   20  C   UNL     1     -11.993  13.129  68.553  1.00  0.00    -0.324 A  
HETATM   21  C   UNL     1     -11.512  12.483  67.411  1.00  0.00    -0.341 A  
BRANCH  18  22
HETATM   22  O   UNL     1     -11.691  10.387  71.017  1.00  0.00    -0.348 OA 
BRANCH  22  23
HETATM   23  C   UNL     1     -12.914  10.457  71.751  1.00  0.00    -0.475 C  
HETATM   24  C   UNL     1     -13.287   9.033  72.117  1.00  0.00    -0.510 C  
ENDBRANCH  22  23
ENDBRANCH  18  22
BRANCH  21  25
HETATM   25  S   UNL     1     -11.502  13.375  65.864  1.00  0.00    -0.332 S  
HETATM   26  O   UNL     1     -12.731  14.137  65.797  1.00  0.00    -0.508 OA 
HETATM   27  O   UNL     1     -11.174  12.408  64.836  1.00  0.00    -0.295 OA 
BRANCH  25  28
HETATM   28  N   UNL     1     -10.207  14.459  65.950  1.00  0.00    -0.310 N  
HETATM   29  C   UNL     1     -10.467  15.912  65.979  1.00  0.00    -0.345 C  
HETATM   30  C   UNL     1     -10.596  16.410  67.424  1.00  0.00    -0.306 C  
HETATM   31  N   UNL     1      -9.442  16.095  68.291  1.00  0.00    -0.205 NA 
HETATM   32  C   UNL     1      -8.977  14.701  68.121  1.00  0.00    -0.179 C  
HETATM   33  C   UNL     1      -8.377  17.073  68.095  1.00  0.00    -0.222 C  
HETATM   34  C   UNL     1      -8.971  14.109  66.691  1.00  0.00    -0.169 C  
ENDBRANCH  25  28
ENDBRANCH  21  25
ENDBRANCH  11  16
ENDBRANCH   3   4
ENDBRANCH   2   3
TORSDOF 7
ENDMDL
MODEL       83
REMARK 921   NORMALIZED FREE ENERGY PREDICTED BY IDOCK:   -5.77 KCAL/MOL
REMARK 922        TOTAL FREE ENERGY PREDICTED BY IDOCK:   -9.47 KCAL/MOL
REMARK 923 INTER-LIGAND FREE ENERGY PREDICTED BY IDOCK:   -8.42 KCAL/MOL
REMARK 924 INTRA-LIGAND FREE ENERGY PREDICTED BY IDOCK:   -1.05 KCAL/MOL
REMARK 927      BINDING AFFINITY PREDICTED BY RF-SCORE:    0.00 PKD
ROOT
HETATM    1  C   UNL     1     -12.627  12.203  63.960  1.00  0.00    -0.507 C  
HETATM    2  C   UNL     1     -12.711  13.324  64.986  1.00  0.00    -0.438 C  
ENDROOT
BRANCH   2   3
HETATM    3  C   UNL     1     -12.034  14.602  64.487  1.00  0.00    -0.473 C  
BRANCH   3   4
HETATM    4  C   UNL     1     -10.768  14.903  65.218  1.00  0.00    -0.393 A  
HETATM    5  N   UNL     1     -10.287  16.159  65.179  1.00  0.00    -0.584 NA 
HETATM    6  N   UNL     1      -9.174  16.119  65.946  1.00  0.00    -0.411 NA 
HETATM    7  C   UNL     1      -8.941  14.891  66.479  1.00  0.00    -0.253 A  
HETATM    8  C   UNL     1      -8.408  17.326  66.146  1.00  0.00    -0.203 C  
HETATM    9  C   UNL     1      -9.935  14.083  66.015  1.00  0.00    -0.315 A  
HETATM   10  N   UNL     1      -9.957  12.791  66.380  1.00  0.00    -0.259 NA 
HETATM   11  C   UNL     1      -8.928  12.362  67.220  1.00  0.00    -0.190 C  
HETATM   12  N   UNL     1      -7.972  13.122  67.686  1.00  0.00    -0.160 N  
HETATM   13  O   UNL     1      -6.994  15.197  67.735  1.00  0.00    -0.136 OA 
HETATM   14  H   UNL     1      -7.277  12.722  68.317  1.00  0.00     0.000 HD 
HETATM   15  C   UNL     1      -7.884  14.457  67.341  1.00  0.00    -0.190 C  
BRANCH  11  16
HETATM   16  C   UNL     1      -8.906  10.912  67.670  1.00  0.00    -0.133 A  
HETATM   17  C   UNL     1      -8.589   8.539  67.261  1.00  0.00    -0.123 A  
HETATM   18  C   UNL     1      -8.584   9.860  66.792  1.00  0.00    -0.128 A  
HETATM   19  C   UNL     1      -9.265  10.615  69.001  1.00  0.00    -0.177 A  
HETATM   20  C   UNL     1      -9.017   8.248  68.558  1.00  0.00    -0.137 A  
HETATM   21  C   UNL     1      -9.401   9.284  69.413  1.00  0.00    -0.164 A  
BRANCH  18  22
HETATM   22  O   UNL     1      -8.227  10.190  65.511  1.00  0.00    -0.142 OA 
BRANCH  22  23
HETATM   23  C   UNL     1      -8.771   9.387  64.463  1.00  0.00    -0.203 C  
HETATM   24  C   UNL     1      -9.461  10.334  63.499  1.00  0.00    -0.345 C  
ENDBRANCH  22  23
ENDBRANCH  18  22
BRANCH  21  25
HETATM   25  S   UNL     1      -9.960   8.873  71.058  1.00  0.00    -0.282 S  
HETATM   26  O   UNL     1     -11.275   9.455  71.226  1.00  0.00    -0.309 OA 
HETATM   27  O   UNL     1      -8.877   9.218  71.958  1.00  0.00    -0.245 OA 
BRANCH  25  28
HETATM   28  N   UNL     1     -10.115   7.189  71.100  1.00  0.00    -0.188 N  
HETATM   29  C   UNL     1      -9.175   6.386  71.909  1.00  0.00    -0.149 C  
HETATM   30  C   UNL     1      -9.722   6.177  73.325  1.00  0.00    -0.157 C  
HETATM   31  N   UNL     1     -11.069   5.573  73.385  1.00  0.00    -0.272 NA 
HETATM   32  C   UNL     1     -12.001   6.183  72.410  1.00  0.00    -0.190 C  
HETATM   33  C   UNL     1     -10.983   4.122  73.250  1.00  0.00    -0.232 C  
HETATM   34  C   UNL     1     -11.448   6.546  71.011  1.00  0.00    -0.336 C  
ENDBRANCH  25  28
ENDBRANCH  21  25
ENDBRANCH  11  16
ENDBRANCH   3   4
ENDBRANCH   2   3
TORSDOF 7
ENDMDL
MODEL       84
REMARK 921   NORMALIZED FREE ENERGY PREDICTED BY IDOCK:   -5.76 KCAL/MOL
REMARK 922        TOTAL FREE ENERGY PREDICTED BY IDOCK:   -9.47 KCAL/MOL
REMARK 923 INTER-LIGAND FREE ENERGY PREDICTED BY IDOCK:   -8.42 KCAL/MOL
REMARK 924 INTRA-LIGAND FREE ENERGY PREDICTED BY IDOCK:   -1.05 KCAL/MOL
REMARK 927      BINDING AFFINITY PREDICTED BY RF-SCORE:    0.00 PKD
ROOT
HETATM    1  C   UNL     1      -9.354   3.513  68.003  1.00  0.00    -0.237 C  
HETATM    2  C   UNL     1      -8.998   4.988  68.132  1.00  0.00    -0.119 C  
ENDROOT
BRANCH   2   3
HETATM    3  C   UNL     1     -10.147   5.891  67.678  1.00  0.00    -0.194 C  
BRANCH   3   4
HETATM    4  C   UNL     1     -10.705   6.714  68.791  1.00  0.00    -0.258 A  
HETATM    5  N   UNL     1     -11.422   6.098  69.748  1.00  0.00    -0.401 NA 
HETATM    6  N   UNL     1     -11.753   7.085  70.611  1.00  0.00    -0.339 NA 
HETATM    7  C   UNL     1     -11.260   8.298  70.243  1.00  0.00    -0.176 A  
HETATM    8  C   UNL     1     -12.518   6.766  71.792  1.00  0.00    -0.349 C  
HETATM    9  C   UNL     1     -10.600   8.097  69.068  1.00  0.00    -0.151 A  
HETATM   10  N   UNL     1     -10.008   9.138  68.461  1.00  0.00    -0.168 NA 
HETATM   11  C   UNL     1     -10.127  10.378  69.090  1.00  0.00    -0.222 C  
HETATM   12  N   UNL     1     -10.745  10.591  70.222  1.00  0.00    -0.454 N  
HETATM   13  O   UNL     1     -11.994   9.726  71.941  1.00  0.00    -0.365 OA 
HETATM   14  H   UNL     1     -10.756  11.532  70.617  1.00  0.00     0.000 HD 
HETATM   15  C   UNL     1     -11.385   9.567  70.893  1.00  0.00    -0.341 C  
BRANCH  11  16
HETATM   16  C   UNL     1      -9.471  11.589  68.451  1.00  0.00    -0.195 A  
HETATM   17  C   UNL     1      -7.527  12.825  67.679  1.00  0.00    -0.144 A  
HETATM   18  C   UNL     1      -8.078  11.677  68.267  1.00  0.00    -0.150 A  
HETATM   19  C   UNL     1     -10.287  12.675  68.072  1.00  0.00    -0.231 A  
HETATM   20  C   UNL     1      -8.333  13.923  67.376  1.00  0.00    -0.208 A  
HETATM   21  C   UNL     1      -9.708  13.866  67.617  1.00  0.00    -0.226 A  
BRANCH  18  22
HETATM   22  O   UNL     1      -7.321  10.596  68.634  1.00  0.00    -0.083 OA 
BRANCH  22  23
HETATM   23  C   UNL     1      -6.663  10.670  69.900  1.00  0.00    -0.147 C  
HETATM   24  C   UNL     1      -7.181   9.512  70.732  1.00  0.00    -0.105 C  
ENDBRANCH  22  23
ENDBRANCH  18  22
BRANCH  21  25
HETATM   25  S   UNL     1     -10.705  15.297  67.234  1.00  0.00    -0.316 S  
HETATM   26  O   UNL     1     -11.657  15.462  68.312  1.00  0.00    -0.351 OA 
HETATM   27  O   UNL     1     -11.157  15.128  65.868  1.00  0.00    -0.339 OA 
BRANCH  25  28
HETATM   28  N   UNL     1      -9.655  16.623  67.243  1.00  0.00    -0.240 N  
HETATM   29  C   UNL     1      -9.535  17.473  66.041  1.00  0.00    -0.070 C  
HETATM   30  C   UNL     1     -10.533  18.636  66.100  1.00  0.00    -0.430 C  
HETATM   31  N   UNL     1     -10.433  19.475  67.311  1.00  0.00    -0.441 NA 
HETATM   32  C   UNL     1     -10.303  18.666  68.544  1.00  0.00    -0.265 C  
HETATM   33  C   UNL     1      -9.363  20.456  67.166  1.00  0.00    -0.403 C  
HETATM   34  C   UNL     1      -9.419  17.397  68.486  1.00  0.00    -0.297 C  
ENDBRANCH  25  28
ENDBRANCH  21  25
ENDBRANCH  11  16
ENDBRANCH   3   4
ENDBRANCH   2   3
TORSDOF 7
ENDMDL
MODEL       85
REMARK 921   NORMALIZED FREE ENERGY PREDICTED BY IDOCK:   -5.72 KCAL/MOL
REMARK 922        TOTAL FREE ENERGY PREDICTED BY IDOCK:   -9.41 KCAL/MOL
REMARK 923 INTER-LIGAND FREE ENERGY PREDICTED BY IDOCK:   -8.24 KCAL/MOL
REMARK 924 INTRA-LIGAND FREE ENERGY PREDICTED BY IDOCK:   -1.17 KCAL/MOL
REMARK 927      BINDING AFFINITY PREDICTED BY RF-SCORE:    0.00 PKD
ROOT
HETATM    1  C   UNL     1     -12.985  15.199  72.864  1.00  0.00    -0.561 C  
HETATM    2  C   UNL     1     -13.418  15.231  71.405  1.00  0.00    -0.588 C  
ENDROOT
BRANCH   2   3
HETATM    3  C   UNL     1     -12.637  14.225  70.558  1.00  0.00    -0.418 C  
BRANCH   3   4
HETATM    4  C   UNL     1     -11.819  14.881  69.496  1.00  0.00    -0.325 A  
HETATM    5  N   UNL     1     -11.657  16.216  69.543  1.00  0.00    -0.294 NA 
HETATM    6  N   UNL     1     -10.859  16.497  68.488  1.00  0.00    -0.334 NA 
HETATM    7  C   UNL     1     -10.500  15.390  67.784  1.00  0.00    -0.266 A  
HETATM    8  C   UNL     1     -10.456  17.862  68.249  1.00  0.00    -0.354 C  
HETATM    9  C   UNL     1     -11.117  14.339  68.394  1.00  0.00    -0.256 A  
HETATM   10  N   UNL     1     -10.943  13.101  67.904  1.00  0.00    -0.241 NA 
HETATM   11  C   UNL     1     -10.134  12.985  66.773  1.00  0.00    -0.247 C  
HETATM   12  N   UNL     1      -9.524  13.978  66.179  1.00  0.00    -0.470 N  
HETATM   13  O   UNL     1      -9.135  16.237  66.087  1.00  0.00    -0.302 OA 
HETATM   14  H   UNL     1      -8.930  13.789  65.371  1.00  0.00     0.000 HD 
HETATM   15  C   UNL     1      -9.668  15.277  66.626  1.00  0.00    -0.252 C  
BRANCH  11  16
HETATM   16  C   UNL     1      -9.898  11.607  66.179  1.00  0.00    -0.250 A  
HETATM   17  C   UNL     1      -9.721  10.077  64.301  1.00  0.00    -0.242 A  
HETATM   18  C   UNL     1      -9.937  11.373  64.791  1.00  0.00    -0.267 A  
HETATM   19  C   UNL     1      -9.677  10.526  67.056  1.00  0.00    -0.212 A  
HETATM   20  C   UNL     1      -9.577   9.001  65.178  1.00  0.00     0.113 A  
HETATM   21  C   UNL     1      -9.603   9.220  66.558  1.00  0.00    -0.224 A  
BRANCH  18  22
HETATM   22  O   UNL     1     -10.140  12.452  63.972  1.00  0.00    -0.352 OA 
BRANCH  22  23
HETATM   23  C   UNL     1     -11.437  12.584  63.389  1.00  0.00    -0.452 C  
HETATM   24  C   UNL     1     -12.072  13.816  64.008  1.00  0.00    -0.448 C  
ENDBRANCH  22  23
ENDBRANCH  18  22
BRANCH  21  25
HETATM   25  S   UNL     1      -9.434   7.816  67.649  1.00  0.00    -0.147 S  
HETATM   26  O   UNL     1     -10.359   6.800  67.193  1.00  0.00    -0.199 OA 
HETATM   27  O   UNL     1      -9.513   8.336  69.000  1.00  0.00    -0.154 OA 
BRANCH  25  28
HETATM   28  N   UNL     1      -7.859   7.237  67.438  1.00  0.00    -0.110 N  
HETATM   29  C   UNL     1      -6.925   7.214  68.582  1.00  0.00    -0.082 C  
HETATM   30  C   UNL     1      -7.005   5.872  69.319  1.00  0.00    -0.064 C  
HETATM   31  N   UNL     1      -6.777   4.686  68.470  1.00  0.00    -0.049 NA 
HETATM   32  C   UNL     1      -7.506   4.768  67.184  1.00  0.00    -0.086 C  
HETATM   33  C   UNL     1      -5.347   4.454  68.292  1.00  0.00    -0.012 C  
HETATM   34  C   UNL     1      -7.575   6.143  66.478  1.00  0.00    -0.094 C  
ENDBRANCH  25  28
ENDBRANCH  21  25
ENDBRANCH  11  16
ENDBRANCH   3   4
ENDBRANCH   2   3
TORSDOF 7
ENDMDL
MODEL       86
REMARK 921   NORMALIZED FREE ENERGY PREDICTED BY IDOCK:   -5.70 KCAL/MOL
REMARK 922        TOTAL FREE ENERGY PREDICTED BY IDOCK:   -9.39 KCAL/MOL
REMARK 923 INTER-LIGAND FREE ENERGY PREDICTED BY IDOCK:   -8.89 KCAL/MOL
REMARK 924 INTRA-LIGAND FREE ENERGY PREDICTED BY IDOCK:   -0.49 KCAL/MOL
REMARK 927      BINDING AFFINITY PREDICTED BY RF-SCORE:    0.00 PKD
ROOT
HETATM    1  C   UNL     1      -9.852  18.655  68.684  1.00  0.00    -0.427 C  
HETATM    2  C   UNL     1      -9.933  17.258  69.283  1.00  0.00    -0.136 C  
ENDROOT
BRANCH   2   3
HETATM    3  C   UNL     1     -11.100  16.457  68.701  1.00  0.00    -0.352 C  
BRANCH   3   4
HETATM    4  C   UNL     1     -11.670  15.482  69.676  1.00  0.00    -0.357 A  
HETATM    5  N   UNL     1     -12.335  15.956  70.745  1.00  0.00    -0.374 NA 
HETATM    6  N   UNL     1     -12.748  14.850  71.404  1.00  0.00    -0.311 NA 
HETATM    7  C   UNL     1     -12.380  13.696  70.787  1.00  0.00    -0.371 A  
HETATM    8  C   UNL     1     -13.528  14.995  72.610  1.00  0.00    -0.460 C  
HETATM    9  C   UNL     1     -11.670  14.067  69.685  1.00  0.00    -0.311 A  
HETATM   10  N   UNL     1     -11.170  13.120  68.875  1.00  0.00    -0.265 NA 
HETATM   11  C   UNL     1     -11.414  11.795  69.240  1.00  0.00    -0.306 C  
HETATM   12  N   UNL     1     -12.102  11.417  70.285  1.00  0.00    -0.358 N  
HETATM   13  O   UNL     1     -13.264  12.030  72.166  1.00  0.00    -0.495 OA 
HETATM   14  H   UNL     1     -12.249  10.421  70.454  1.00  0.00     0.000 HD 
HETATM   15  C   UNL     1     -12.635  12.339  71.165  1.00  0.00    -0.253 C  
BRANCH  11  16
HETATM   16  C   UNL     1     -10.877  10.682  68.357  1.00  0.00    -0.282 A  
HETATM   17  C   UNL     1     -10.194   9.785  66.206  1.00  0.00    -0.282 A  
HETATM   18  C   UNL     1     -10.684  10.851  66.973  1.00  0.00    -0.271 A  
HETATM   19  C   UNL     1     -10.609   9.428  68.944  1.00  0.00    -0.231 A  
HETATM   20  C   UNL     1     -10.002   8.527  66.779  1.00  0.00    -0.351 A  
HETATM   21  C   UNL     1     -10.255   8.337  68.140  1.00  0.00    -0.210 A  
BRANCH  18  22
HETATM   22  O   UNL     1     -10.942  12.088  66.443  1.00  0.00    -0.269 OA 
BRANCH  22  23
HETATM   23  C   UNL     1     -11.596  12.122  65.174  1.00  0.00    -0.317 C  
HETATM   24  C   UNL     1     -10.813  13.087  64.303  1.00  0.00    -0.430 C  
ENDBRANCH  22  23
ENDBRANCH  18  22
BRANCH  21  25
HETATM   25  S   UNL     1     -10.016   6.710  68.836  1.00  0.00    -0.158 S  
HETATM   26  O   UNL     1     -11.327   6.131  69.042  1.00  0.00    -0.390 OA 
HETATM   27  O   UNL     1      -9.094   6.868  69.943  1.00  0.00    -0.144 OA 
BRANCH  25  28
HETATM   28  N   UNL     1      -9.212   5.802  67.656  1.00  0.00    -0.106 N  
HETATM   29  C   UNL     1      -7.741   5.681  67.699  1.00  0.00    -0.097 C  
HETATM   30  C   UNL     1      -7.324   4.449  68.511  1.00  0.00    -0.060 C  
HETATM   31  N   UNL     1      -7.913   3.176  68.048  1.00  0.00    -0.066 NA 
HETATM   32  C   UNL     1      -9.357   3.301  67.752  1.00  0.00    -0.197 C  
HETATM   33  C   UNL     1      -7.151   2.640  66.925  1.00  0.00    -0.049 C  
HETATM   34  C   UNL     1      -9.844   4.599  67.063  1.00  0.00    -0.205 C  
ENDBRANCH  25  28
ENDBRANCH  21  25
ENDBRANCH  11  16
ENDBRANCH   3   4
ENDBRANCH   2   3
TORSDOF 7
ENDMDL
MODEL       87
REMARK 921   NORMALIZED FREE ENERGY PREDICTED BY IDOCK:   -5.66 KCAL/MOL
REMARK 922        TOTAL FREE ENERGY PREDICTED BY IDOCK:   -9.33 KCAL/MOL
REMARK 923 INTER-LIGAND FREE ENERGY PREDICTED BY IDOCK:   -7.80 KCAL/MOL
REMARK 924 INTRA-LIGAND FREE ENERGY PREDICTED BY IDOCK:   -1.53 KCAL/MOL
REMARK 927      BINDING AFFINITY PREDICTED BY RF-SCORE:    0.00 PKD
ROOT
HETATM    1  C   UNL     1     -13.202  10.762  71.662  1.00  0.00    -0.487 C  
HETATM    2  C   UNL     1     -13.389   9.441  72.396  1.00  0.00    -0.503 C  
ENDROOT
BRANCH   2   3
HETATM    3  C   UNL     1     -13.518   8.265  71.425  1.00  0.00    -0.247 C  
BRANCH   3   4
HETATM    4  C   UNL     1     -12.216   7.579  71.179  1.00  0.00    -0.301 A  
HETATM    5  N   UNL     1     -12.022   6.359  71.711  1.00  0.00    -0.333 NA 
HETATM    6  N   UNL     1     -10.788   5.998  71.290  1.00  0.00    -0.262 NA 
HETATM    7  C   UNL     1     -10.201   6.938  70.502  1.00  0.00    -0.192 A  
HETATM    8  C   UNL     1     -10.262   4.708  71.664  1.00  0.00    -0.163 C  
HETATM    9  C   UNL     1     -11.083   7.974  70.429  1.00  0.00    -0.238 A  
HETATM   10  N   UNL     1     -10.762   9.061  69.708  1.00  0.00    -0.228 NA 
HETATM   11  C   UNL     1      -9.513   9.050  69.085  1.00  0.00    -0.153 C  
HETATM   12  N   UNL     1      -8.657   8.063  69.134  1.00  0.00    -0.136 N  
HETATM   13  O   UNL     1      -8.138   5.985  69.956  1.00  0.00    -0.109 OA 
HETATM   14  H   UNL     1      -7.777   8.138  68.622  1.00  0.00     0.000 HD 
HETATM   15  C   UNL     1      -8.920   6.921  69.864  1.00  0.00    -0.142 C  
BRANCH  11  16
HETATM   16  C   UNL     1      -9.100  10.251  68.253  1.00  0.00    -0.139 A  
HETATM   17  C   UNL     1      -7.468  11.885  67.498  1.00  0.00    -0.136 A  
HETATM   18  C   UNL     1      -7.790  10.767  68.282  1.00  0.00    -0.115 A  
HETATM   19  C   UNL     1     -10.077  10.891  67.463  1.00  0.00    -0.214 A  
HETATM   20  C   UNL     1      -8.458  12.555  66.778  1.00  0.00    -0.073 A  
HETATM   21  C   UNL     1      -9.773  12.085  66.798  1.00  0.00    -0.207 A  
BRANCH  18  22
HETATM   22  O   UNL     1      -6.866  10.110  69.050  1.00  0.00    -0.052 OA 
BRANCH  22  23
HETATM   23  C   UNL     1      -6.330  10.824  70.165  1.00  0.00    -0.147 C  
HETATM   24  C   UNL     1      -5.719   9.791  71.094  1.00  0.00    -0.077 C  
ENDBRANCH  22  23
ENDBRANCH  18  22
BRANCH  21  25
HETATM   25  S   UNL     1     -11.016  12.979  65.879  1.00  0.00    -0.274 S  
HETATM   26  O   UNL     1     -12.136  12.082  65.682  1.00  0.00    -0.508 OA 
HETATM   27  O   UNL     1     -10.339  13.576  64.746  1.00  0.00    -0.388 OA 
BRANCH  25  28
HETATM   28  N   UNL     1     -11.521  14.249  66.875  1.00  0.00    -0.346 N  
HETATM   29  C   UNL     1     -12.155  13.955  68.176  1.00  0.00    -0.282 C  
HETATM   30  C   UNL     1     -11.101  13.891  69.289  1.00  0.00    -0.218 C  
HETATM   31  N   UNL     1     -10.257  15.097  69.410  1.00  0.00    -0.237 NA 
HETATM   32  C   UNL     1      -9.786  15.587  68.096  1.00  0.00    -0.216 C  
HETATM   33  C   UNL     1     -10.947  16.126  70.182  1.00  0.00    -0.358 C  
HETATM   34  C   UNL     1     -10.776  15.531  66.907  1.00  0.00    -0.317 C  
ENDBRANCH  25  28
ENDBRANCH  21  25
ENDBRANCH  11  16
ENDBRANCH   3   4
ENDBRANCH   2   3
TORSDOF 7
ENDMDL
MODEL       88
REMARK 921   NORMALIZED FREE ENERGY PREDICTED BY IDOCK:   -5.65 KCAL/MOL
REMARK 922        TOTAL FREE ENERGY PREDICTED BY IDOCK:   -9.31 KCAL/MOL
REMARK 923 INTER-LIGAND FREE ENERGY PREDICTED BY IDOCK:   -8.04 KCAL/MOL
REMARK 924 INTRA-LIGAND FREE ENERGY PREDICTED BY IDOCK:   -1.27 KCAL/MOL
REMARK 927      BINDING AFFINITY PREDICTED BY RF-SCORE:    0.00 PKD
ROOT
HETATM    1  C   UNL     1     -12.749  12.012  63.516  1.00  0.00    -0.567 C  
HETATM    2  C   UNL     1     -11.464  12.827  63.548  1.00  0.00    -0.521 C  
ENDROOT
BRANCH   2   3
HETATM    3  C   UNL     1     -10.228  11.934  63.664  1.00  0.00    -0.466 C  
BRANCH   3   4
HETATM    4  C   UNL     1     -10.043  11.386  65.040  1.00  0.00    -0.274 A  
HETATM    5  N   UNL     1     -10.345  10.094  65.262  1.00  0.00    -0.195 NA 
HETATM    6  N   UNL     1     -10.046   9.896  66.566  1.00  0.00    -0.227 NA 
HETATM    7  C   UNL     1      -9.555  11.009  67.172  1.00  0.00    -0.169 A  
HETATM    8  C   UNL     1     -10.229   8.586  67.144  1.00  0.00    -0.284 C  
HETATM    9  C   UNL     1      -9.559  11.988  66.225  1.00  0.00    -0.231 A  
HETATM   10  N   UNL     1      -9.124  13.217  66.547  1.00  0.00    -0.174 NA 
HETATM   11  C   UNL     1      -8.701  13.404  67.864  1.00  0.00    -0.187 C  
HETATM   12  N   UNL     1      -8.677  12.476  68.785  1.00  0.00    -0.380 N  
HETATM   13  O   UNL     1      -9.138  10.304  69.361  1.00  0.00    -0.196 OA 
HETATM   14  H   UNL     1      -8.324  12.704  69.715  1.00  0.00     0.000 HD 
HETATM   15  C   UNL     1      -9.120  11.194  68.523  1.00  0.00    -0.175 C  
BRANCH  11  16
HETATM   16  C   UNL     1      -8.192  14.772  68.282  1.00  0.00    -0.142 A  
HETATM   17  C   UNL     1      -6.601  16.223  69.407  1.00  0.00    -0.202 A  
HETATM   18  C   UNL     1      -7.017  14.935  69.042  1.00  0.00    -0.120 A  
HETATM   19  C   UNL     1      -8.951  15.908  67.933  1.00  0.00    -0.181 A  
HETATM   20  C   UNL     1      -7.397  17.334  69.121  1.00  0.00    -0.157 A  
HETATM   21  C   UNL     1      -8.597  17.170  68.424  1.00  0.00    -0.246 A  
BRANCH  18  22
HETATM   22  O   UNL     1      -6.300  13.809  69.349  1.00  0.00    -0.101 OA 
BRANCH  22  23
HETATM   23  C   UNL     1      -5.797  13.709  70.682  1.00  0.00    -0.179 C  
HETATM   24  C   UNL     1      -5.424  12.255  70.902  1.00  0.00    -0.139 C  
ENDBRANCH  22  23
ENDBRANCH  18  22
BRANCH  21  25
HETATM   25  S   UNL     1      -9.597  18.611  68.092  1.00  0.00    -0.349 S  
HETATM   26  O   UNL     1      -9.674  19.376  69.320  1.00  0.00    -0.379 OA 
HETATM   27  O   UNL     1     -10.800  18.134  67.441  1.00  0.00    -0.374 OA 
BRANCH  25  28
HETATM   28  N   UNL     1      -8.749  19.524  66.949  1.00  0.00    -0.297 N  
HETATM   29  C   UNL     1      -8.141  20.812  67.342  1.00  0.00    -0.173 C  
HETATM   30  C   UNL     1      -6.697  20.605  67.815  1.00  0.00    -0.328 C  
HETATM   31  N   UNL     1      -5.821  19.920  66.843  1.00  0.00    -0.172 NA 
HETATM   32  C   UNL     1      -6.478  18.746  66.226  1.00  0.00    -0.201 C  
HETATM   33  C   UNL     1      -5.316  20.867  65.855  1.00  0.00    -0.204 C  
HETATM   34  C   UNL     1      -7.979  18.863  65.868  1.00  0.00    -0.044 C  
ENDBRANCH  25  28
ENDBRANCH  21  25
ENDBRANCH  11  16
ENDBRANCH   3   4
ENDBRANCH   2   3
TORSDOF 7
ENDMDL
MODEL       89
REMARK 921   NORMALIZED FREE ENERGY PREDICTED BY IDOCK:   -5.63 KCAL/MOL
REMARK 922        TOTAL FREE ENERGY PREDICTED BY IDOCK:   -9.28 KCAL/MOL
REMARK 923 INTER-LIGAND FREE ENERGY PREDICTED BY IDOCK:   -8.45 KCAL/MOL
REMARK 924 INTRA-LIGAND FREE ENERGY PREDICTED BY IDOCK:   -0.84 KCAL/MOL
REMARK 927      BINDING AFFINITY PREDICTED BY RF-SCORE:    0.00 PKD
ROOT
HETATM    1  C   UNL     1      -5.653  20.533  69.651  1.00  0.00    -0.382 C  
HETATM    2  C   UNL     1      -6.748  20.312  68.617  1.00  0.00    -0.294 C  
ENDROOT
BRANCH   2   3
HETATM    3  C   UNL     1      -7.756  19.257  69.075  1.00  0.00    -0.337 C  
BRANCH   3   4
HETATM    4  C   UNL     1      -8.623  18.770  67.961  1.00  0.00    -0.297 A  
HETATM    5  N   UNL     1      -9.210  19.678  67.161  1.00  0.00    -0.319 NA 
HETATM    6  N   UNL     1      -9.886  18.940  66.251  1.00  0.00    -0.380 NA 
HETATM    7  C   UNL     1      -9.738  17.602  66.439  1.00  0.00    -0.294 A  
HETATM    8  C   UNL     1     -10.624  19.608  65.206  1.00  0.00     0.192 C  
HETATM    9  C   UNL     1      -8.950  17.460  67.540  1.00  0.00    -0.231 A  
HETATM   10  N   UNL     1      -8.635  16.227  67.969  1.00  0.00    -0.174 NA 
HETATM   11  C   UNL     1      -9.164  15.159  67.241  1.00  0.00    -0.198 C  
HETATM   12  N   UNL     1      -9.912  15.273  66.176  1.00  0.00    -0.281 N  
HETATM   13  O   UNL     1     -10.998  16.663  64.709  1.00  0.00    -0.705 OA 
HETATM   14  H   UNL     1     -10.230  14.431  65.695  1.00  0.00     0.000 HD 
HETATM   15  C   UNL     1     -10.281  16.511  65.688  1.00  0.00    -0.292 C  
BRANCH  11  16
HETATM   16  C   UNL     1      -8.836  13.742  67.678  1.00  0.00    -0.189 A  
HETATM   17  C   UNL     1      -7.285  11.907  68.036  1.00  0.00    -0.090 A  
HETATM   18  C   UNL     1      -7.527  13.227  67.629  1.00  0.00    -0.171 A  
HETATM   19  C   UNL     1      -9.891  12.908  68.103  1.00  0.00    -0.227 A  
HETATM   20  C   UNL     1      -8.344  11.067  68.384  1.00  0.00    -0.139 A  
HETATM   21  C   UNL     1      -9.653  11.555  68.371  1.00  0.00    -0.195 A  
BRANCH  18  22
HETATM   22  O   UNL     1      -6.528  14.073  67.225  1.00  0.00    -0.286 OA 
BRANCH  22  23
HETATM   23  C   UNL     1      -5.350  14.111  68.031  1.00  0.00    -0.109 C  
HETATM   24  C   UNL     1      -5.227  15.528  68.560  1.00  0.00    -0.095 C  
ENDBRANCH  22  23
ENDBRANCH  18  22
BRANCH  21  25
HETATM   25  S   UNL     1     -10.984  10.445  68.804  1.00  0.00    -0.252 S  
HETATM   26  O   UNL     1     -10.805   9.234  68.032  1.00  0.00    -0.203 OA 
HETATM   27  O   UNL     1     -12.208  11.214  68.703  1.00  0.00    -0.582 OA 
BRANCH  25  28
HETATM   28  N   UNL     1     -10.775  10.070  70.440  1.00  0.00    -0.303 N  
HETATM   29  C   UNL     1     -11.936   9.647  71.250  1.00  0.00    -0.380 C  
HETATM   30  C   UNL     1     -12.089   8.122  71.222  1.00  0.00    -0.288 C  
HETATM   31  N   UNL     1     -10.889   7.373  71.647  1.00  0.00    -0.219 NA 
HETATM   32  C   UNL     1      -9.649   7.914  71.049  1.00  0.00    -0.159 C  
HETATM   33  C   UNL     1     -10.826   7.297  73.103  1.00  0.00    -0.357 C  
HETATM   34  C   UNL     1      -9.517   9.451  70.923  1.00  0.00    -0.209 C  
ENDBRANCH  25  28
ENDBRANCH  21  25
ENDBRANCH  11  16
ENDBRANCH   3   4
ENDBRANCH   2   3
TORSDOF 7
ENDMDL
MODEL       90
REMARK 921   NORMALIZED FREE ENERGY PREDICTED BY IDOCK:   -5.61 KCAL/MOL
REMARK 922        TOTAL FREE ENERGY PREDICTED BY IDOCK:   -9.25 KCAL/MOL
REMARK 923 INTER-LIGAND FREE ENERGY PREDICTED BY IDOCK:   -8.11 KCAL/MOL
REMARK 924 INTRA-LIGAND FREE ENERGY PREDICTED BY IDOCK:   -1.14 KCAL/MOL
REMARK 927      BINDING AFFINITY PREDICTED BY RF-SCORE:    0.00 PKD
ROOT
HETATM    1  C   UNL     1      -5.246  18.985  64.106  1.00  0.00    -0.265 C  
HETATM    2  C   UNL     1      -6.316  19.001  65.188  1.00  0.00    -0.309 C  
ENDROOT
BRANCH   2   3
HETATM    3  C   UNL     1      -6.603  17.597  65.724  1.00  0.00    -0.164 C  
BRANCH   3   4
HETATM    4  C   UNL     1      -7.865  17.533  66.519  1.00  0.00    -0.276 A  
HETATM    5  N   UNL     1      -8.329  18.665  67.079  1.00  0.00    -0.263 NA 
HETATM    6  N   UNL     1      -9.477  18.294  67.690  1.00  0.00    -0.269 NA 
HETATM    7  C   UNL     1      -9.762  16.975  67.527  1.00  0.00    -0.251 A  
HETATM    8  C   UNL     1     -10.263  19.287  68.383  1.00  0.00    -0.411 C  
HETATM    9  C   UNL     1      -8.736  16.455  66.797  1.00  0.00    -0.226 A  
HETATM   10  N   UNL     1      -8.749  15.149  66.482  1.00  0.00    -0.277 NA 
HETATM   11  C   UNL     1      -9.834  14.405  66.950  1.00  0.00    -0.261 C  
HETATM   12  N   UNL     1     -10.834  14.887  67.641  1.00  0.00    -0.278 N  
HETATM   13  O   UNL     1     -11.781  16.704  68.673  1.00  0.00    -0.097 OA 
HETATM   14  H   UNL     1     -11.597  14.267  67.915  1.00  0.00     0.000 HD 
HETATM   15  C   UNL     1     -10.878  16.218  68.007  1.00  0.00    -0.339 C  
BRANCH  11  16
HETATM   16  C   UNL     1      -9.904  12.925  66.619  1.00  0.00    -0.250 A  
HETATM   17  C   UNL     1     -10.299  11.080  65.088  1.00  0.00    -0.346 A  
HETATM   18  C   UNL     1     -10.241  12.460  65.333  1.00  0.00    -0.278 A  
HETATM   19  C   UNL     1      -9.666  11.993  67.650  1.00  0.00    -0.187 A  
HETATM   20  C   UNL     1     -10.135  10.167  66.131  1.00  0.00    -0.314 A  
HETATM   21  C   UNL     1      -9.865  10.626  67.422  1.00  0.00    -0.170 A  
BRANCH  18  22
HETATM   22  O   UNL     1     -10.452  13.396  64.355  1.00  0.00    -0.426 OA 
BRANCH  22  23
HETATM   23  C   UNL     1     -11.802  13.595  63.933  1.00  0.00    -0.374 C  
HETATM   24  C   UNL     1     -12.157  15.032  64.266  1.00  0.00    -0.323 C  
ENDBRANCH  22  23
ENDBRANCH  18  22
BRANCH  21  25
HETATM   25  S   UNL     1      -9.679   9.429  68.734  1.00  0.00    -0.160 S  
HETATM   26  O   UNL     1     -10.892   9.461  69.523  1.00  0.00    -0.235 OA 
HETATM   27  O   UNL     1      -8.391   9.688  69.346  1.00  0.00    -0.121 OA 
BRANCH  25  28
HETATM   28  N   UNL     1      -9.570   7.916  67.985  1.00  0.00    -0.149 N  
HETATM   29  C   UNL     1      -8.326   7.128  68.099  1.00  0.00    -0.124 C  
HETATM   30  C   UNL     1      -8.388   6.194  69.314  1.00  0.00    -0.116 C  
HETATM   31  N   UNL     1      -9.553   5.287  69.338  1.00  0.00    -0.143 NA 
HETATM   32  C   UNL     1     -10.812   5.982  68.987  1.00  0.00    -0.342 C  
HETATM   33  C   UNL     1      -9.305   4.116  68.504  1.00  0.00    -0.156 C  
HETATM   34  C   UNL     1     -10.762   7.043  67.861  1.00  0.00    -0.210 C  
ENDBRANCH  25  28
ENDBRANCH  21  25
ENDBRANCH  11  16
ENDBRANCH   3   4
ENDBRANCH   2   3
TORSDOF 7
ENDMDL
MODEL       91
REMARK 921   NORMALIZED FREE ENERGY PREDICTED BY IDOCK:   -5.60 KCAL/MOL
REMARK 922        TOTAL FREE ENERGY PREDICTED BY IDOCK:   -9.24 KCAL/MOL
REMARK 923 INTER-LIGAND FREE ENERGY PREDICTED BY IDOCK:   -7.63 KCAL/MOL
REMARK 924 INTRA-LIGAND FREE ENERGY PREDICTED BY IDOCK:   -1.61 KCAL/MOL
REMARK 927      BINDING AFFINITY PREDICTED BY RF-SCORE:    0.00 PKD
ROOT
HETATM    1  C   UNL     1     -13.453   7.315  71.173  1.00  0.00    -0.243 C  
HETATM    2  C   UNL     1     -13.095   8.323  72.256  1.00  0.00    -0.263 C  
ENDROOT
BRANCH   2   3
HETATM    3  C   UNL     1     -12.505   9.605  71.665  1.00  0.00    -0.494 C  
BRANCH   3   4
HETATM    4  C   UNL     1     -11.069   9.455  71.287  1.00  0.00    -0.376 A  
HETATM    5  N   UNL     1     -10.294   8.635  72.020  1.00  0.00    -0.329 NA 
HETATM    6  N   UNL     1      -9.084   8.687  71.419  1.00  0.00    -0.207 NA 
HETATM    7  C   UNL     1      -9.068   9.498  70.328  1.00  0.00    -0.253 A  
HETATM    8  C   UNL     1      -7.999   7.891  71.942  1.00  0.00    -0.106 C  
HETATM    9  C   UNL     1     -10.321  10.021  70.228  1.00  0.00    -0.242 A  
HETATM   10  N   UNL     1     -10.600  10.874  69.228  1.00  0.00    -0.222 NA 
HETATM   11  C   UNL     1      -9.554  11.174  68.355  1.00  0.00    -0.192 C  
HETATM   12  N   UNL     1      -8.348  10.674  68.425  1.00  0.00    -0.121 N  
HETATM   13  O   UNL     1      -6.870   9.329  69.552  1.00  0.00    -0.046 OA 
HETATM   14  H   UNL     1      -7.656  10.935  67.722  1.00  0.00     0.000 HD 
HETATM   15  C   UNL     1      -7.992   9.801  69.434  1.00  0.00    -0.125 C  
BRANCH  11  16
HETATM   16  C   UNL     1      -9.814  12.128  67.202  1.00  0.00    -0.205 A  
HETATM   17  C   UNL     1     -10.047  12.628  64.836  1.00  0.00    -0.244 A  
HETATM   18  C   UNL     1      -9.810  11.700  65.860  1.00  0.00    -0.233 A  
HETATM   19  C   UNL     1     -10.021  13.492  67.491  1.00  0.00    -0.230 A  
HETATM   20  C   UNL     1     -10.177  13.987  65.126  1.00  0.00    -0.396 A  
HETATM   21  C   UNL     1     -10.117  14.425  66.452  1.00  0.00    -0.286 A  
BRANCH  18  22
HETATM   22  O   UNL     1      -9.619  10.365  65.621  1.00  0.00    -0.196 OA 
BRANCH  22  23
HETATM   23  C   UNL     1      -8.686  10.020  64.597  1.00  0.00    -0.191 C  
HETATM   24  C   UNL     1      -7.340   9.839  65.273  1.00  0.00    -0.120 C  
ENDBRANCH  22  23
ENDBRANCH  18  22
BRANCH  21  25
HETATM   25  S   UNL     1     -10.269  16.173  66.783  1.00  0.00    -0.286 S  
HETATM   26  O   UNL     1     -11.198  16.325  67.883  1.00  0.00    -0.309 OA 
HETATM   27  O   UNL     1     -10.521  16.812  65.508  1.00  0.00    -0.538 OA 
BRANCH  25  28
HETATM   28  N   UNL     1      -8.744  16.693  67.299  1.00  0.00    -0.188 N  
HETATM   29  C   UNL     1      -8.546  17.107  68.703  1.00  0.00    -0.260 C  
HETATM   30  C   UNL     1      -8.105  15.915  69.561  1.00  0.00    -0.083 C  
HETATM   31  N   UNL     1      -6.898  15.217  69.075  1.00  0.00    -0.121 NA 
HETATM   32  C   UNL     1      -6.932  14.990  67.613  1.00  0.00    -0.182 C  
HETATM   33  C   UNL     1      -5.694  15.919  69.509  1.00  0.00    -0.129 C  
HETATM   34  C   UNL     1      -7.508  16.114  66.720  1.00  0.00    -0.211 C  
ENDBRANCH  25  28
ENDBRANCH  21  25
ENDBRANCH  11  16
ENDBRANCH   3   4
ENDBRANCH   2   3
TORSDOF 7
ENDMDL
MODEL       92
REMARK 921   NORMALIZED FREE ENERGY PREDICTED BY IDOCK:   -5.60 KCAL/MOL
REMARK 922        TOTAL FREE ENERGY PREDICTED BY IDOCK:   -9.24 KCAL/MOL
REMARK 923 INTER-LIGAND FREE ENERGY PREDICTED BY IDOCK:   -8.04 KCAL/MOL
REMARK 924 INTRA-LIGAND FREE ENERGY PREDICTED BY IDOCK:   -1.20 KCAL/MOL
REMARK 927      BINDING AFFINITY PREDICTED BY RF-SCORE:    0.00 PKD
ROOT
HETATM    1  C   UNL     1      -5.534  19.172  70.524  1.00  0.00    -0.244 C  
HETATM    2  C   UNL     1      -6.524  19.252  69.370  1.00  0.00    -0.346 C  
ENDROOT
BRANCH   2   3
HETATM    3  C   UNL     1      -7.263  17.928  69.163  1.00  0.00    -0.153 C  
BRANCH   3   4
HETATM    4  C   UNL     1      -8.251  17.990  68.046  1.00  0.00    -0.259 A  
HETATM    5  N   UNL     1      -8.451  19.170  67.431  1.00  0.00    -0.279 NA 
HETATM    6  N   UNL     1      -9.357  18.898  66.465  1.00  0.00    -0.327 NA 
HETATM    7  C   UNL     1      -9.727  17.590  66.438  1.00  0.00    -0.288 A  
HETATM    8  C   UNL     1      -9.789  19.955  65.582  1.00  0.00    -0.090 C  
HETATM    9  C   UNL     1      -9.050  16.985  67.454  1.00  0.00    -0.222 A  
HETATM   10  N   UNL     1      -9.226  15.671  67.670  1.00  0.00    -0.193 NA 
HETATM   11  C   UNL     1     -10.120  15.014  66.824  1.00  0.00    -0.254 C  
HETATM   12  N   UNL     1     -10.771  15.572  65.837  1.00  0.00    -0.331 N  
HETATM   13  O   UNL     1     -11.252  17.488  64.670  1.00  0.00    -0.934 OA 
HETATM   14  H   UNL     1     -11.385  15.000  65.256  1.00  0.00     0.000 HD 
HETATM   15  C   UNL     1     -10.644  16.921  65.567  1.00  0.00    -0.202 C  
BRANCH  11  16
HETATM   16  C   UNL     1     -10.354  13.526  67.019  1.00  0.00    -0.252 A  
HETATM   17  C   UNL     1     -11.491  11.646  68.055  1.00  0.00    -0.385 A  
HETATM   18  C   UNL     1     -11.326  13.031  67.909  1.00  0.00    -0.288 A  
HETATM   19  C   UNL     1      -9.535  12.618  66.316  1.00  0.00    -0.207 A  
HETATM   20  C   UNL     1     -10.628  10.757  67.413  1.00  0.00    -0.287 A  
HETATM   21  C   UNL     1      -9.618  11.246  66.579  1.00  0.00    -0.191 A  
BRANCH  18  22
HETATM   22  O   UNL     1     -12.111  13.943  68.562  1.00  0.00    -0.362 OA 
BRANCH  22  23
HETATM   23  C   UNL     1     -12.029  13.961  69.988  1.00  0.00    -0.336 C  
HETATM   24  C   UNL     1     -12.322  15.384  70.426  1.00  0.00    -0.443 C  
ENDBRANCH  22  23
ENDBRANCH  18  22
BRANCH  21  25
HETATM   25  S   UNL     1      -8.521  10.080  65.789  1.00  0.00    -0.144 S  
HETATM   26  O   UNL     1      -7.182  10.623  65.870  1.00  0.00    -0.137 OA 
HETATM   27  O   UNL     1      -9.115   9.763  64.505  1.00  0.00    -0.224 OA 
BRANCH  25  28
HETATM   28  N   UNL     1      -8.580   8.668  66.718  1.00  0.00    -0.118 N  
HETATM   29  C   UNL     1      -9.160   7.436  66.146  1.00  0.00    -0.126 C  
HETATM   30  C   UNL     1      -8.076   6.592  65.465  1.00  0.00    -0.124 C  
HETATM   31  N   UNL     1      -6.930   6.245  66.330  1.00  0.00    -0.065 NA 
HETATM   32  C   UNL     1      -6.455   7.401  67.123  1.00  0.00    -0.060 C  
HETATM   33  C   UNL     1      -7.250   5.087  67.159  1.00  0.00    -0.077 C  
HETATM   34  C   UNL     1      -7.517   8.364  67.706  1.00  0.00    -0.098 C  
ENDBRANCH  25  28
ENDBRANCH  21  25
ENDBRANCH  11  16
ENDBRANCH   3   4
ENDBRANCH   2   3
TORSDOF 7
ENDMDL
MODEL       93
REMARK 921   NORMALIZED FREE ENERGY PREDICTED BY IDOCK:   -5.60 KCAL/MOL
REMARK 922        TOTAL FREE ENERGY PREDICTED BY IDOCK:   -9.24 KCAL/MOL
REMARK 923 INTER-LIGAND FREE ENERGY PREDICTED BY IDOCK:   -7.84 KCAL/MOL
REMARK 924 INTRA-LIGAND FREE ENERGY PREDICTED BY IDOCK:   -1.40 KCAL/MOL
REMARK 927      BINDING AFFINITY PREDICTED BY RF-SCORE:    0.00 PKD
ROOT
HETATM    1  C   UNL     1      -9.654   3.959  66.382  1.00  0.00    -0.204 C  
HETATM    2  C   UNL     1      -9.580   5.478  66.441  1.00  0.00    -0.174 C  
ENDROOT
BRANCH   2   3
HETATM    3  C   UNL     1     -10.923   6.096  66.837  1.00  0.00    -0.384 C  
BRANCH   3   4
HETATM    4  C   UNL     1     -10.893   6.710  68.197  1.00  0.00    -0.263 A  
HETATM    5  N   UNL     1     -11.300   5.969  69.244  1.00  0.00    -0.324 NA 
HETATM    6  N   UNL     1     -11.127   6.776  70.316  1.00  0.00    -0.288 NA 
HETATM    7  C   UNL     1     -10.615   7.992  69.988  1.00  0.00    -0.242 A  
HETATM    8  C   UNL     1     -11.448   6.281  71.633  1.00  0.00    -0.296 C  
HETATM    9  C   UNL     1     -10.473   7.988  68.633  1.00  0.00    -0.167 A  
HETATM   10  N   UNL     1      -9.984   9.079  68.020  1.00  0.00    -0.168 NA 
HETATM   11  C   UNL     1      -9.663  10.163  68.839  1.00  0.00    -0.187 C  
HETATM   12  N   UNL     1      -9.781  10.184  70.140  1.00  0.00    -0.407 N  
HETATM   13  O   UNL     1     -10.435   9.085  72.045  1.00  0.00    -0.346 OA 
HETATM   14  H   UNL     1      -9.494  11.016  70.656  1.00  0.00     0.000 HD 
HETATM   15  C   UNL     1     -10.286   9.100  70.832  1.00  0.00    -0.280 C  
BRANCH  11  16
HETATM   16  C   UNL     1      -9.101  11.421  68.200  1.00  0.00    -0.174 A  
HETATM   17  C   UNL     1      -7.276  12.939  67.686  1.00  0.00    -0.147 A  
HETATM   18  C   UNL     1      -7.737  11.760  68.288  1.00  0.00    -0.130 A  
HETATM   19  C   UNL     1      -9.988  12.294  67.538  1.00  0.00    -0.201 A  
HETATM   20  C   UNL     1      -8.172  13.833  67.098  1.00  0.00    -0.125 A  
HETATM   21  C   UNL     1      -9.536  13.532  67.066  1.00  0.00    -0.251 A  
BRANCH  18  22
HETATM   22  O   UNL     1      -6.904  10.879  68.926  1.00  0.00    -0.063 OA 
BRANCH  22  23
HETATM   23  C   UNL     1      -6.242  11.353  70.099  1.00  0.00    -0.138 C  
HETATM   24  C   UNL     1      -5.872  10.130  70.918  1.00  0.00    -0.083 C  
ENDBRANCH  22  23
ENDBRANCH  18  22
BRANCH  21  25
HETATM   25  S   UNL     1     -10.655  14.708  66.322  1.00  0.00    -0.316 S  
HETATM   26  O   UNL     1     -11.710  13.953  65.680  1.00  0.00    -0.332 OA 
HETATM   27  O   UNL     1      -9.835  15.629  65.561  1.00  0.00    -0.328 OA 
BRANCH  25  28
HETATM   28  N   UNL     1     -11.331  15.591  67.596  1.00  0.00    -0.301 N  
HETATM   29  C   UNL     1     -12.260  14.930  68.535  1.00  0.00    -0.049 C  
HETATM   30  C   UNL     1     -11.497  14.349  69.732  1.00  0.00    -0.276 C  
HETATM   31  N   UNL     1     -10.663  15.323  70.464  1.00  0.00    -0.263 NA 
HETATM   32  C   UNL     1      -9.882  16.190  69.552  1.00  0.00    -0.198 C  
HETATM   33  C   UNL     1     -11.476  16.084  71.407  1.00  0.00    -0.398 C  
HETATM   34  C   UNL     1     -10.570  16.679  68.255  1.00  0.00    -0.338 C  
ENDBRANCH  25  28
ENDBRANCH  21  25
ENDBRANCH  11  16
ENDBRANCH   3   4
ENDBRANCH   2   3
TORSDOF 7
ENDMDL
MODEL       94
REMARK 921   NORMALIZED FREE ENERGY PREDICTED BY IDOCK:   -5.57 KCAL/MOL
REMARK 922        TOTAL FREE ENERGY PREDICTED BY IDOCK:   -9.20 KCAL/MOL
REMARK 923 INTER-LIGAND FREE ENERGY PREDICTED BY IDOCK:   -8.38 KCAL/MOL
REMARK 924 INTRA-LIGAND FREE ENERGY PREDICTED BY IDOCK:   -0.81 KCAL/MOL
REMARK 927      BINDING AFFINITY PREDICTED BY RF-SCORE:    0.00 PKD
ROOT
HETATM    1  C   UNL     1     -10.286  19.634  68.501  1.00  0.00    -0.529 C  
HETATM    2  C   UNL     1     -10.529  19.952  67.032  1.00  0.00    -0.570 C  
ENDROOT
BRANCH   2   3
HETATM    3  C   UNL     1     -10.562  18.686  66.174  1.00  0.00    -0.409 C  
BRANCH   3   4
HETATM    4  C   UNL     1      -9.342  17.844  66.347  1.00  0.00    -0.255 A  
HETATM    5  N   UNL     1      -8.160  18.335  65.933  1.00  0.00    -0.516 NA 
HETATM    6  N   UNL     1      -7.264  17.372  66.249  1.00  0.00    -0.293 NA 
HETATM    7  C   UNL     1      -7.834  16.298  66.858  1.00  0.00    -0.243 A  
HETATM    8  C   UNL     1      -5.866  17.584  65.962  1.00  0.00    -0.138 C  
HETATM    9  C   UNL     1      -9.169  16.561  66.916  1.00  0.00    -0.226 A  
HETATM   10  N   UNL     1      -9.993  15.658  67.472  1.00  0.00    -0.229 NA 
HETATM   11  C   UNL     1      -9.405  14.485  67.948  1.00  0.00    -0.201 C  
HETATM   12  N   UNL     1      -8.126  14.217  67.912  1.00  0.00    -0.137 N  
HETATM   13  O   UNL     1      -6.024  14.877  67.269  1.00  0.00    -0.312 OA 
HETATM   14  H   UNL     1      -7.786  13.341  68.310  1.00  0.00     0.000 HD 
HETATM   15  C   UNL     1      -7.224  15.098  67.345  1.00  0.00    -0.199 C  
BRANCH  11  16
HETATM   16  C   UNL     1     -10.288  13.431  68.591  1.00  0.00    -0.213 A  
HETATM   17  C   UNL     1     -12.123  12.751  70.030  1.00  0.00    -0.355 A  
HETATM   18  C   UNL     1     -11.346  13.768  69.457  1.00  0.00    -0.224 A  
HETATM   19  C   UNL     1     -10.005  12.072  68.343  1.00  0.00    -0.209 A  
HETATM   20  C   UNL     1     -11.790  11.409  69.839  1.00  0.00    -0.435 A  
HETATM   21  C   UNL     1     -10.700  11.071  69.032  1.00  0.00    -0.219 A  
BRANCH  18  22
HETATM   22  O   UNL     1     -11.599  15.098  69.662  1.00  0.00    -0.272 OA 
BRANCH  22  23
HETATM   23  C   UNL     1     -12.558  15.425  70.668  1.00  0.00    -0.439 C  
HETATM   24  C   UNL     1     -11.801  16.117  71.787  1.00  0.00    -0.581 C  
ENDBRANCH  22  23
ENDBRANCH  18  22
BRANCH  21  25
HETATM   25  S   UNL     1     -10.292   9.345  68.824  1.00  0.00    -0.213 S  
HETATM   26  O   UNL     1     -11.016   8.866  67.666  1.00  0.00    -0.129 OA 
HETATM   27  O   UNL     1     -10.474   8.722  70.120  1.00  0.00    -0.202 OA 
BRANCH  25  28
HETATM   28  N   UNL     1      -8.638   9.287  68.479  1.00  0.00    -0.127 N  
HETATM   29  C   UNL     1      -7.713   8.629  69.425  1.00  0.00    -0.091 C  
HETATM   30  C   UNL     1      -7.540   7.148  69.070  1.00  0.00    -0.100 C  
HETATM   31  N   UNL     1      -7.096   6.892  67.685  1.00  0.00    -0.083 NA 
HETATM   32  C   UNL     1      -7.831   7.717  66.699  1.00  0.00    -0.106 C  
HETATM   33  C   UNL     1      -5.648   7.043  67.577  1.00  0.00    -0.024 C  
HETATM   34  C   UNL     1      -8.156   9.181  67.081  1.00  0.00    -0.109 C  
ENDBRANCH  25  28
ENDBRANCH  21  25
ENDBRANCH  11  16
ENDBRANCH   3   4
ENDBRANCH   2   3
TORSDOF 7
ENDMDL
MODEL       95
REMARK 921   NORMALIZED FREE ENERGY PREDICTED BY IDOCK:   -5.52 KCAL/MOL
REMARK 922        TOTAL FREE ENERGY PREDICTED BY IDOCK:   -9.12 KCAL/MOL
REMARK 923 INTER-LIGAND FREE ENERGY PREDICTED BY IDOCK:   -7.81 KCAL/MOL
REMARK 924 INTRA-LIGAND FREE ENERGY PREDICTED BY IDOCK:   -1.32 KCAL/MOL
REMARK 927      BINDING AFFINITY PREDICTED BY RF-SCORE:    0.00 PKD
ROOT
HETATM    1  C   UNL     1     -12.321   6.790  71.818  1.00  0.00    -0.400 C  
HETATM    2  C   UNL     1     -11.737   8.181  72.019  1.00  0.00    -0.389 C  
ENDROOT
BRANCH   2   3
HETATM    3  C   UNL     1     -10.213   8.143  72.153  1.00  0.00    -0.330 C  
BRANCH   3   4
HETATM    4  C   UNL     1      -9.523   8.071  70.831  1.00  0.00    -0.161 A  
HETATM    5  N   UNL     1      -8.699   7.035  70.593  1.00  0.00    -0.148 NA 
HETATM    6  N   UNL     1      -8.264   7.233  69.328  1.00  0.00    -0.130 NA 
HETATM    7  C   UNL     1      -8.791   8.346  68.754  1.00  0.00    -0.140 A  
HETATM    8  C   UNL     1      -7.364   6.275  68.731  1.00  0.00    -0.086 C  
HETATM    9  C   UNL     1      -9.588   8.917  69.700  1.00  0.00    -0.169 A  
HETATM   10  N   UNL     1     -10.245  10.052  69.408  1.00  0.00    -0.207 NA 
HETATM   11  C   UNL     1     -10.047  10.577  68.131  1.00  0.00    -0.158 C  
HETATM   12  N   UNL     1      -9.297  10.040  67.205  1.00  0.00    -0.148 N  
HETATM   13  O   UNL     1      -7.854   8.356  66.613  1.00  0.00    -0.092 OA 
HETATM   14  H   UNL     1      -9.235  10.486  66.289  1.00  0.00     0.000 HD 
HETATM   15  C   UNL     1      -8.586   8.880  67.442  1.00  0.00    -0.119 C  
BRANCH  11  16
HETATM   16  C   UNL     1     -10.770  11.856  67.744  1.00  0.00    -0.243 A  
HETATM   17  C   UNL     1     -11.900  13.284  66.138  1.00  0.00    -0.437 A  
HETATM   18  C   UNL     1     -11.248  12.080  66.439  1.00  0.00    -0.337 A  
HETATM   19  C   UNL     1     -10.923  12.863  68.719  1.00  0.00    -0.292 A  
HETATM   20  C   UNL     1     -11.982  14.305  67.087  1.00  0.00    -0.449 A  
HETATM   21  C   UNL     1     -11.450  14.111  68.365  1.00  0.00    -0.302 A  
BRANCH  18  22
HETATM   22  O   UNL     1     -11.093  11.072  65.525  1.00  0.00    -0.091 OA 
BRANCH  22  23
HETATM   23  C   UNL     1     -11.049  11.452  64.148  1.00  0.00    -0.308 C  
HETATM   24  C   UNL     1      -9.762  10.885  63.579  1.00  0.00    -0.384 C  
ENDBRANCH  22  23
ENDBRANCH  18  22
BRANCH  21  25
HETATM   25  S   UNL     1     -11.556  15.444  69.547  1.00  0.00    -0.356 S  
HETATM   26  O   UNL     1     -11.205  14.902  70.843  1.00  0.00    -0.249 OA 
HETATM   27  O   UNL     1     -12.840  16.081  69.334  1.00  0.00     0.195 OA 
BRANCH  25  28
HETATM   28  N   UNL     1     -10.372  16.568  69.103  1.00  0.00    -0.296 N  
HETATM   29  C   UNL     1      -8.964  16.140  68.978  1.00  0.00    -0.247 C  
HETATM   30  C   UNL     1      -8.660  15.693  67.543  1.00  0.00    -0.172 C  
HETATM   31  N   UNL     1      -8.966  16.698  66.505  1.00  0.00    -0.255 NA 
HETATM   32  C   UNL     1     -10.280  17.344  66.721  1.00  0.00    -0.318 C  
HETATM   33  C   UNL     1      -7.876  17.661  66.390  1.00  0.00    -0.283 C  
HETATM   34  C   UNL     1     -10.690  17.680  68.175  1.00  0.00    -0.307 C  
ENDBRANCH  25  28
ENDBRANCH  21  25
ENDBRANCH  11  16
ENDBRANCH   3   4
ENDBRANCH   2   3
TORSDOF 7
ENDMDL
MODEL       96
REMARK 921   NORMALIZED FREE ENERGY PREDICTED BY IDOCK:   -5.50 KCAL/MOL
REMARK 922        TOTAL FREE ENERGY PREDICTED BY IDOCK:   -9.09 KCAL/MOL
REMARK 923 INTER-LIGAND FREE ENERGY PREDICTED BY IDOCK:   -8.06 KCAL/MOL
REMARK 924 INTRA-LIGAND FREE ENERGY PREDICTED BY IDOCK:   -1.03 KCAL/MOL
REMARK 927      BINDING AFFINITY PREDICTED BY RF-SCORE:    0.00 PKD
ROOT
HETATM    1  C   UNL     1     -10.321  13.633  66.079  1.00  0.00    -0.305 C  
HETATM    2  C   UNL     1     -11.557  14.360  66.589  1.00  0.00    -0.396 C  
ENDROOT
BRANCH   2   3
HETATM    3  C   UNL     1     -11.238  15.245  67.796  1.00  0.00    -0.327 C  
BRANCH   3   4
HETATM    4  C   UNL     1     -11.922  14.786  69.040  1.00  0.00    -0.273 A  
HETATM    5  N   UNL     1     -12.643  15.679  69.743  1.00  0.00    -0.137 NA 
HETATM    6  N   UNL     1     -13.153  14.966  70.773  1.00  0.00    -0.364 NA 
HETATM    7  C   UNL     1     -12.792  13.656  70.741  1.00  0.00    -0.202 A  
HETATM    8  C   UNL     1     -14.014  15.620  71.729  1.00  0.00    -0.352 C  
HETATM    9  C   UNL     1     -11.986  13.513  69.652  1.00  0.00    -0.337 A  
HETATM   10  N   UNL     1     -11.470  12.305  69.370  1.00  0.00    -0.282 NA 
HETATM   11  C   UNL     1     -11.799  11.267  70.243  1.00  0.00    -0.357 C  
HETATM   12  N   UNL     1     -12.579  11.379  71.286  1.00  0.00    -0.394 N  
HETATM   13  O   UNL     1     -13.850  12.749  72.617  1.00  0.00    -0.515 OA 
HETATM   14  H   UNL     1     -12.783  10.554  71.850  1.00  0.00     0.000 HD 
HETATM   15  C   UNL     1     -13.134  12.594  71.638  1.00  0.00    -0.323 C  
BRANCH  11  16
HETATM   16  C   UNL     1     -11.248   9.878  69.970  1.00  0.00    -0.327 A  
HETATM   17  C   UNL     1     -10.865   7.559  70.580  1.00  0.00    -0.251 A  
HETATM   18  C   UNL     1     -11.404   8.817  70.882  1.00  0.00    -0.275 A  
HETATM   19  C   UNL     1     -10.520   9.665  68.781  1.00  0.00    -0.238 A  
HETATM   20  C   UNL     1     -10.084   7.376  69.438  1.00  0.00    -0.185 A  
HETATM   21  C   UNL     1      -9.872   8.444  68.562  1.00  0.00    -0.173 A  
BRANCH  18  22
HETATM   22  O   UNL     1     -12.129   9.060  72.019  1.00  0.00    -0.354 OA 
BRANCH  22  23
HETATM   23  C   UNL     1     -13.012   8.025  72.453  1.00  0.00    -0.067 C  
HETATM   24  C   UNL     1     -14.340   8.262  71.758  1.00  0.00    -0.574 C  
ENDBRANCH  22  23
ENDBRANCH  18  22
BRANCH  21  25
HETATM   25  S   UNL     1      -8.852   8.178  67.120  1.00  0.00    -0.133 S  
HETATM   26  O   UNL     1      -7.617   8.903  67.326  1.00  0.00    -0.088 OA 
HETATM   27  O   UNL     1      -9.689   8.452  65.969  1.00  0.00    -0.195 OA 
BRANCH  25  28
HETATM   28  N   UNL     1      -8.500   6.524  67.087  1.00  0.00    -0.112 N  
HETATM   29  C   UNL     1      -9.192   5.645  66.122  1.00  0.00    -0.159 C  
HETATM   30  C   UNL     1      -8.396   5.542  64.816  1.00  0.00    -0.136 C  
HETATM   31  N   UNL     1      -6.998   5.095  64.978  1.00  0.00    -0.059 NA 
HETATM   32  C   UNL     1      -6.318   5.776  66.103  1.00  0.00    -0.039 C  
HETATM   33  C   UNL     1      -6.937   3.640  65.080  1.00  0.00    -0.057 C  
HETATM   34  C   UNL     1      -7.135   6.032  67.393  1.00  0.00    -0.074 C  
ENDBRANCH  25  28
ENDBRANCH  21  25
ENDBRANCH  11  16
ENDBRANCH   3   4
ENDBRANCH   2   3
TORSDOF 7
ENDMDL
MODEL       97
REMARK 921   NORMALIZED FREE ENERGY PREDICTED BY IDOCK:   -5.49 KCAL/MOL
REMARK 922        TOTAL FREE ENERGY PREDICTED BY IDOCK:   -9.09 KCAL/MOL
REMARK 923 INTER-LIGAND FREE ENERGY PREDICTED BY IDOCK:   -7.70 KCAL/MOL
REMARK 924 INTRA-LIGAND FREE ENERGY PREDICTED BY IDOCK:   -1.39 KCAL/MOL
REMARK 927      BINDING AFFINITY PREDICTED BY RF-SCORE:    0.00 PKD
ROOT
HETATM    1  C   UNL     1      -7.740   8.596  65.942  1.00  0.00    -0.101 C  
HETATM    2  C   UNL     1      -7.958   9.741  64.962  1.00  0.00    -0.131 C  
ENDROOT
BRANCH   2   3
HETATM    3  C   UNL     1      -9.439   9.923  64.623  1.00  0.00    -0.343 C  
BRANCH   3   4
HETATM    4  C   UNL     1     -10.098  10.961  65.469  1.00  0.00    -0.267 A  
HETATM    5  N   UNL     1     -10.600  12.055  64.868  1.00  0.00    -0.279 NA 
HETATM    6  N   UNL     1     -11.148  12.773  65.875  1.00  0.00    -0.280 NA 
HETATM    7  C   UNL     1     -11.023  12.168  67.086  1.00  0.00    -0.268 A  
HETATM    8  C   UNL     1     -11.810  14.020  65.577  1.00  0.00    -0.365 C  
HETATM    9  C   UNL     1     -10.336  11.013  66.862  1.00  0.00    -0.235 A  
HETATM   10  N   UNL     1     -10.059  10.202  67.896  1.00  0.00    -0.169 NA 
HETATM   11  C   UNL     1     -10.498  10.621  69.153  1.00  0.00    -0.222 C  
HETATM   12  N   UNL     1     -11.168  11.719  69.389  1.00  0.00    -0.367 N  
HETATM   13  O   UNL     1     -12.080  13.650  68.551  1.00  0.00    -0.364 OA 
HETATM   14  H   UNL     1     -11.469  11.927  70.341  1.00  0.00     0.000 HD 
HETATM   15  C   UNL     1     -11.477  12.602  68.372  1.00  0.00    -0.310 C  
BRANCH  11  16
HETATM   16  C   UNL     1     -10.217   9.740  70.358  1.00  0.00    -0.343 A  
HETATM   17  C   UNL     1     -10.923   8.489  72.317  1.00  0.00    -0.426 A  
HETATM   18  C   UNL     1     -11.242   9.293  71.214  1.00  0.00    -0.355 A  
HETATM   19  C   UNL     1      -8.879   9.400  70.646  1.00  0.00    -0.275 A  
HETATM   20  C   UNL     1      -9.591   8.219  72.637  1.00  0.00    -0.352 A  
HETATM   21  C   UNL     1      -8.566   8.716  71.827  1.00  0.00    -0.173 A  
BRANCH  18  22
HETATM   22  O   UNL     1     -12.530   9.632  70.892  1.00  0.00    -0.293 OA 
BRANCH  22  23
HETATM   23  C   UNL     1     -13.333  10.181  71.938  1.00  0.00    -0.402 C  
HETATM   24  C   UNL     1     -13.104  11.681  71.926  1.00  0.00    -0.490 C  
ENDBRANCH  22  23
ENDBRANCH  18  22
BRANCH  21  25
HETATM   25  S   UNL     1      -6.874   8.366  72.277  1.00  0.00    -0.075 S  
HETATM   26  O   UNL     1      -6.765   8.535  73.711  1.00  0.00    -0.169 OA 
HETATM   27  O   UNL     1      -6.042   9.137  71.375  1.00  0.00    -0.063 OA 
BRANCH  25  28
HETATM   28  N   UNL     1      -6.613   6.735  71.912  1.00  0.00    -0.053 N  
HETATM   29  C   UNL     1      -6.537   5.742  73.003  1.00  0.00    -0.069 C  
HETATM   30  C   UNL     1      -7.921   5.151  73.294  1.00  0.00    -0.107 C  
HETATM   31  N   UNL     1      -8.595   4.552  72.124  1.00  0.00    -0.112 NA 
HETATM   32  C   UNL     1      -8.492   5.405  70.919  1.00  0.00    -0.119 C  
HETATM   33  C   UNL     1      -8.111   3.194  71.897  1.00  0.00    -0.059 C  
HETATM   34  C   UNL     1      -7.153   6.140  70.666  1.00  0.00    -0.068 C  
ENDBRANCH  25  28
ENDBRANCH  21  25
ENDBRANCH  11  16
ENDBRANCH   3   4
ENDBRANCH   2   3
TORSDOF 7
ENDMDL
MODEL       98
REMARK 921   NORMALIZED FREE ENERGY PREDICTED BY IDOCK:   -5.49 KCAL/MOL
REMARK 922        TOTAL FREE ENERGY PREDICTED BY IDOCK:   -9.09 KCAL/MOL
REMARK 923 INTER-LIGAND FREE ENERGY PREDICTED BY IDOCK:   -7.96 KCAL/MOL
REMARK 924 INTRA-LIGAND FREE ENERGY PREDICTED BY IDOCK:   -1.12 KCAL/MOL
REMARK 927      BINDING AFFINITY PREDICTED BY RF-SCORE:    0.00 PKD
ROOT
HETATM    1  C   UNL     1      -5.315  19.108  70.329  1.00  0.00    -0.233 C  
HETATM    2  C   UNL     1      -6.590  19.231  69.507  1.00  0.00    -0.323 C  
ENDROOT
BRANCH   2   3
HETATM    3  C   UNL     1      -7.202  17.863  69.199  1.00  0.00    -0.153 C  
BRANCH   3   4
HETATM    4  C   UNL     1      -8.186  17.914  68.079  1.00  0.00    -0.257 A  
HETATM    5  N   UNL     1      -8.317  19.063  67.391  1.00  0.00    -0.274 NA 
HETATM    6  N   UNL     1      -9.241  18.785  66.442  1.00  0.00    -0.361 NA 
HETATM    7  C   UNL     1      -9.688  17.503  66.497  1.00  0.00    -0.295 A  
HETATM    8  C   UNL     1      -9.610  19.808  65.494  1.00  0.00     0.319 C  
HETATM    9  C   UNL     1      -9.046  16.923  67.549  1.00  0.00    -0.222 A  
HETATM   10  N   UNL     1      -9.299  15.638  67.848  1.00  0.00    -0.195 NA 
HETATM   11  C   UNL     1     -10.233  14.984  67.043  1.00  0.00    -0.257 C  
HETATM   12  N   UNL     1     -10.852  15.517  66.023  1.00  0.00    -0.319 N  
HETATM   13  O   UNL     1     -11.220  17.381  64.736  1.00  0.00    -0.895 OA 
HETATM   14  H   UNL     1     -11.500  14.947  65.477  1.00  0.00     0.000 HD 
HETATM   15  C   UNL     1     -10.645  16.836  65.668  1.00  0.00    -0.246 C  
BRANCH  11  16
HETATM   16  C   UNL     1     -10.554  13.528  67.331  1.00  0.00    -0.254 A  
HETATM   17  C   UNL     1     -11.731  11.786  68.549  1.00  0.00    -0.390 A  
HETATM   18  C   UNL     1     -11.482  13.146  68.320  1.00  0.00    -0.314 A  
HETATM   19  C   UNL     1      -9.863  12.531  66.611  1.00  0.00    -0.245 A  
HETATM   20  C   UNL     1     -10.990  10.807  67.885  1.00  0.00    -0.344 A  
HETATM   21  C   UNL     1     -10.022  11.182  66.949  1.00  0.00    -0.198 A  
BRANCH  18  22
HETATM   22  O   UNL     1     -12.142  14.144  68.988  1.00  0.00    -0.343 OA 
BRANCH  22  23
HETATM   23  C   UNL     1     -12.434  13.913  70.367  1.00  0.00    -0.334 C  
HETATM   24  C   UNL     1     -13.289  15.076  70.834  1.00  0.00    -0.432 C  
ENDBRANCH  22  23
ENDBRANCH  18  22
BRANCH  21  25
HETATM   25  S   UNL     1      -9.081   9.903  66.132  1.00  0.00    -0.166 S  
HETATM   26  O   UNL     1      -8.351  10.528  65.050  1.00  0.00    -0.164 OA 
HETATM   27  O   UNL     1     -10.004   8.816  65.873  1.00  0.00    -0.213 OA 
BRANCH  25  28
HETATM   28  N   UNL     1      -7.964   9.336  67.269  1.00  0.00    -0.105 N  
HETATM   29  C   UNL     1      -7.060  10.288  67.947  1.00  0.00    -0.084 C  
HETATM   30  C   UNL     1      -7.687  10.794  69.252  1.00  0.00    -0.129 C  
HETATM   31  N   UNL     1      -8.088   9.732  70.197  1.00  0.00    -0.182 NA 
HETATM   32  C   UNL     1      -8.795   8.619  69.523  1.00  0.00    -0.144 C  
HETATM   33  C   UNL     1      -6.939   9.281  70.975  1.00  0.00    -0.084 C  
HETATM   34  C   UNL     1      -8.282   8.173  68.133  1.00  0.00    -0.129 C  
ENDBRANCH  25  28
ENDBRANCH  21  25
ENDBRANCH  11  16
ENDBRANCH   3   4
ENDBRANCH   2   3
TORSDOF 7
ENDMDL
MODEL       99
REMARK 921   NORMALIZED FREE ENERGY PREDICTED BY IDOCK:   -5.47 KCAL/MOL
REMARK 922        TOTAL FREE ENERGY PREDICTED BY IDOCK:   -9.06 KCAL/MOL
REMARK 923 INTER-LIGAND FREE ENERGY PREDICTED BY IDOCK:   -7.99 KCAL/MOL
REMARK 924 INTRA-LIGAND FREE ENERGY PREDICTED BY IDOCK:   -1.07 KCAL/MOL
REMARK 927      BINDING AFFINITY PREDICTED BY RF-SCORE:    0.00 PKD
ROOT
HETATM    1  C   UNL     1     -13.396  11.327  72.050  1.00  0.00    -0.386 C  
HETATM    2  C   UNL     1     -13.521   9.903  71.527  1.00  0.00    -0.393 C  
ENDROOT
BRANCH   2   3
HETATM    3  C   UNL     1     -12.910   8.887  72.494  1.00  0.00    -0.401 C  
BRANCH   3   4
HETATM    4  C   UNL     1     -11.490   8.565  72.167  1.00  0.00    -0.376 A  
HETATM    5  N   UNL     1     -10.880   7.583  72.855  1.00  0.00    -0.341 NA 
HETATM    6  N   UNL     1      -9.642   7.511  72.315  1.00  0.00    -0.150 NA 
HETATM    7  C   UNL     1      -9.451   8.401  71.305  1.00  0.00    -0.186 A  
HETATM    8  C   UNL     1      -8.710   6.526  72.809  1.00  0.00    -0.124 C  
HETATM    9  C   UNL     1     -10.612   9.105  71.198  1.00  0.00    -0.309 A  
HETATM   10  N   UNL     1     -10.713  10.071  70.270  1.00  0.00    -0.294 NA 
HETATM   11  C   UNL     1      -9.587  10.291  69.474  1.00  0.00    -0.202 C  
HETATM   12  N   UNL     1      -8.469   9.619  69.551  1.00  0.00    -0.144 N  
HETATM   13  O   UNL     1      -7.258   7.984  70.613  1.00  0.00    -0.051 OA 
HETATM   14  H   UNL     1      -7.709   9.836  68.906  1.00  0.00     0.000 HD 
HETATM   15  C   UNL     1      -8.295   8.620  70.490  1.00  0.00    -0.140 C  
BRANCH  11  16
HETATM   16  C   UNL     1      -9.646  11.367  68.404  1.00  0.00    -0.197 A  
HETATM   17  C   UNL     1      -9.300  12.164  66.136  1.00  0.00    -0.198 A  
HETATM   18  C   UNL     1      -9.232  11.129  67.080  1.00  0.00    -0.163 A  
HETATM   19  C   UNL     1     -10.091  12.655  68.769  1.00  0.00    -0.057 A  
HETATM   20  C   UNL     1      -9.670  13.453  66.522  1.00  0.00    -0.284 A  
HETATM   21  C   UNL     1     -10.020  13.709  67.850  1.00  0.00    -0.244 A  
BRANCH  18  22
HETATM   22  O   UNL     1      -8.820   9.862  66.762  1.00  0.00    -0.133 OA 
BRANCH  22  23
HETATM   23  C   UNL     1      -9.719   9.068  65.985  1.00  0.00    -0.269 C  
HETATM   24  C   UNL     1      -9.125   7.674  65.918  1.00  0.00    -0.101 C  
ENDBRANCH  22  23
ENDBRANCH  18  22
BRANCH  21  25
HETATM   25  S   UNL     1     -10.470  15.374  68.311  1.00  0.00    -0.247 S  
HETATM   26  O   UNL     1     -10.006  15.588  69.666  1.00  0.00    -0.262 OA 
HETATM   27  O   UNL     1     -11.872  15.528  67.977  1.00  0.00    -0.277 OA 
BRANCH  25  28
HETATM   28  N   UNL     1      -9.605  16.402  67.283  1.00  0.00    -0.232 N  
HETATM   29  C   UNL     1     -10.323  17.421  66.490  1.00  0.00    -0.312 C  
HETATM   30  C   UNL     1     -10.407  18.744  67.259  1.00  0.00    -0.416 C  
HETATM   31  N   UNL     1      -9.107  19.286  67.701  1.00  0.00    -0.296 NA 
HETATM   32  C   UNL     1      -8.236  18.244  68.292  1.00  0.00    -0.298 C  
HETATM   33  C   UNL     1      -8.459  20.010  66.612  1.00  0.00    -0.317 C  
HETATM   34  C   UNL     1      -8.233  16.845  67.630  1.00  0.00    -0.186 C  
ENDBRANCH  25  28
ENDBRANCH  21  25
ENDBRANCH  11  16
ENDBRANCH   3   4
ENDBRANCH   2   3
TORSDOF 7
ENDMDL
MODEL      100
REMARK 921   NORMALIZED FREE ENERGY PREDICTED BY IDOCK:   -5.46 KCAL/MOL
REMARK 922        TOTAL FREE ENERGY PREDICTED BY IDOCK:   -9.04 KCAL/MOL
REMARK 923 INTER-LIGAND FREE ENERGY PREDICTED BY IDOCK:   -7.60 KCAL/MOL
REMARK 924 INTRA-LIGAND FREE ENERGY PREDICTED BY IDOCK:   -1.44 KCAL/MOL
REMARK 927      BINDING AFFINITY PREDICTED BY RF-SCORE:    0.00 PKD
ROOT
HETATM    1  C   UNL     1     -10.300   7.520  70.817  1.00  0.00    -0.205 C  
HETATM    2  C   UNL     1      -9.464   8.793  70.797  1.00  0.00    -0.253 C  
ENDROOT
BRANCH   2   3
HETATM    3  C   UNL     1      -8.082   8.555  70.187  1.00  0.00    -0.111 C  
BRANCH   3   4
HETATM    4  C   UNL     1      -8.091   8.635  68.697  1.00  0.00    -0.117 A  
HETATM    5  N   UNL     1      -7.582   7.606  67.995  1.00  0.00    -0.107 NA 
HETATM    6  N   UNL     1      -7.762   7.957  66.701  1.00  0.00    -0.096 NA 
HETATM    7  C   UNL     1      -8.376   9.162  66.559  1.00  0.00    -0.118 A  
HETATM    8  C   UNL     1      -7.345   7.052  65.658  1.00  0.00    -0.079 C  
HETATM    9  C   UNL     1      -8.581   9.632  67.821  1.00  0.00    -0.125 A  
HETATM   10  N   UNL     1      -9.176  10.824  67.990  1.00  0.00    -0.147 NA 
HETATM   11  C   UNL     1      -9.535  11.512  66.829  1.00  0.00    -0.189 C  
HETATM   12  N   UNL     1      -9.358  11.074  65.610  1.00  0.00    -0.207 N  
HETATM   13  O   UNL     1      -8.536   9.425  64.243  1.00  0.00    -0.176 OA 
HETATM   14  H   UNL     1      -9.680  11.640  64.824  1.00  0.00     0.000 HD 
HETATM   15  C   UNL     1      -8.744   9.862  65.366  1.00  0.00    -0.155 C  
BRANCH  11  16
HETATM   16  C   UNL     1     -10.217  12.863  66.960  1.00  0.00    -0.243 A  
HETATM   17  C   UNL     1     -12.036  14.406  66.503  1.00  0.00    -0.395 A  
HETATM   18  C   UNL     1     -11.459  13.137  66.356  1.00  0.00    -0.334 A  
HETATM   19  C   UNL     1      -9.556  13.883  67.675  1.00  0.00    -0.215 A  
HETATM   20  C   UNL     1     -11.342  15.431  67.148  1.00  0.00    -0.203 A  
HETATM   21  C   UNL     1     -10.080  15.181  67.693  1.00  0.00    -0.231 A  
BRANCH  18  22
HETATM   22  O   UNL     1     -12.075  12.116  65.683  1.00  0.00    -0.545 OA 
BRANCH  22  23
HETATM   23  C   UNL     1     -12.646  12.433  64.413  1.00  0.00    -0.399 C  
HETATM   24  C   UNL     1     -11.504  12.466  63.415  1.00  0.00    -0.526 C  
ENDBRANCH  22  23
ENDBRANCH  18  22
BRANCH  21  25
HETATM   25  S   UNL     1      -9.213  16.522  68.495  1.00  0.00    -0.238 S  
HETATM   26  O   UNL     1      -7.967  15.988  69.003  1.00  0.00    -0.199 OA 
HETATM   27  O   UNL     1     -10.167  17.152  69.386  1.00  0.00    -0.262 OA 
BRANCH  25  28
HETATM   28  N   UNL     1      -8.856  17.647  67.284  1.00  0.00    -0.233 N  
HETATM   29  C   UNL     1      -9.216  19.067  67.473  1.00  0.00    -0.287 C  
HETATM   30  C   UNL     1      -8.059  19.837  68.120  1.00  0.00    -0.294 C  
HETATM   31  N   UNL     1      -6.774  19.743  67.399  1.00  0.00    -0.207 NA 
HETATM   32  C   UNL     1      -6.474  18.360  66.965  1.00  0.00    -0.182 C  
HETATM   33  C   UNL     1      -6.736  20.700  66.298  1.00  0.00    -0.228 C  
HETATM   34  C   UNL     1      -7.646  17.497  66.440  1.00  0.00    -0.294 C  
ENDBRANCH  25  28
ENDBRANCH  21  25
ENDBRANCH  11  16
ENDBRANCH   3   4
ENDBRANCH   2   3
TORSDOF 7
ENDMDL
MODEL      101
REMARK 921   NORMALIZED FREE ENERGY PREDICTED BY IDOCK:   -5.44 KCAL/MOL
REMARK 922        TOTAL FREE ENERGY PREDICTED BY IDOCK:   -9.02 KCAL/MOL
REMARK 923 INTER-LIGAND FREE ENERGY PREDICTED BY IDOCK:   -7.85 KCAL/MOL
REMARK 924 INTRA-LIGAND FREE ENERGY PREDICTED BY IDOCK:   -1.17 KCAL/MOL
REMARK 927      BINDING AFFINITY PREDICTED BY RF-SCORE:    0.00 PKD
ROOT
HETATM    1  C   UNL     1      -6.535   7.253  67.650  1.00  0.00    -0.052 C  
HETATM    2  C   UNL     1      -6.468   8.222  66.478  1.00  0.00    -0.055 C  
ENDROOT
BRANCH   2   3
HETATM    3  C   UNL     1      -7.140   9.557  66.805  1.00  0.00    -0.086 C  
BRANCH   3   4
HETATM    4  C   UNL     1      -8.014  10.046  65.699  1.00  0.00    -0.140 A  
HETATM    5  N   UNL     1      -8.037   9.354  64.545  1.00  0.00    -0.127 NA 
HETATM    6  N   UNL     1      -8.929  10.015  63.772  1.00  0.00    -0.228 NA 
HETATM    7  C   UNL     1      -9.479  11.089  64.398  1.00  0.00    -0.238 A  
HETATM    8  C   UNL     1      -9.222   9.520  62.449  1.00  0.00    -0.160 C  
HETATM    9  C   UNL     1      -8.898  11.148  65.629  1.00  0.00    -0.157 A  
HETATM   10  N   UNL     1      -9.252  12.127  66.477  1.00  0.00    -0.216 NA 
HETATM   11  C   UNL     1     -10.204  13.038  66.016  1.00  0.00    -0.287 C  
HETATM   12  N   UNL     1     -10.782  12.994  64.844  1.00  0.00    -0.315 N  
HETATM   13  O   UNL     1     -10.954  11.955  62.806  1.00  0.00     0.074 OA 
HETATM   14  H   UNL     1     -11.487  13.692  64.607  1.00  0.00     0.000 HD 
HETATM   15  C   UNL     1     -10.456  12.020  63.920  1.00  0.00    -0.402 C  
BRANCH  11  16
HETATM   16  C   UNL     1     -10.646  14.163  66.935  1.00  0.00    -0.280 A  
HETATM   17  C   UNL     1     -11.857  15.015  68.861  1.00  0.00    -0.337 A  
HETATM   18  C   UNL     1     -11.472  13.936  68.053  1.00  0.00    -0.307 A  
HETATM   19  C   UNL     1     -10.249  15.480  66.626  1.00  0.00    -0.280 A  
HETATM   20  C   UNL     1     -11.521  16.322  68.507  1.00  0.00    -0.272 A  
HETATM   21  C   UNL     1     -10.756  16.559  67.362  1.00  0.00    -0.260 A  
BRANCH  18  22
HETATM   22  O   UNL     1     -11.825  12.641  68.327  1.00  0.00    -0.318 OA 
BRANCH  22  23
HETATM   23  C   UNL     1     -11.179  12.019  69.439  1.00  0.00    -0.196 C  
HETATM   24  C   UNL     1     -12.275  11.573  70.389  1.00  0.00    -0.442 C  
ENDBRANCH  22  23
ENDBRANCH  18  22
BRANCH  21  25
HETATM   25  S   UNL     1     -10.361  18.246  66.929  1.00  0.00    -0.382 S  
HETATM   26  O   UNL     1     -11.158  19.107  67.777  1.00  0.00    -0.301 OA 
HETATM   27  O   UNL     1     -10.457  18.332  65.486  1.00  0.00    -0.616 OA 
BRANCH  25  28
HETATM   28  N   UNL     1      -8.732  18.468  67.326  1.00  0.00    -0.263 N  
HETATM   29  C   UNL     1      -8.278  18.250  68.714  1.00  0.00    -0.234 C  
HETATM   30  C   UNL     1      -7.823  16.799  68.912  1.00  0.00    -0.244 C  
HETATM   31  N   UNL     1      -6.779  16.345  67.973  1.00  0.00    -0.129 NA 
HETATM   32  C   UNL     1      -7.063  16.753  66.579  1.00  0.00    -0.219 C  
HETATM   33  C   UNL     1      -5.461  16.774  68.429  1.00  0.00    -0.121 C  
HETATM   34  C   UNL     1      -7.662  18.161  66.346  1.00  0.00    -0.261 C  
ENDBRANCH  25  28
ENDBRANCH  21  25
ENDBRANCH  11  16
ENDBRANCH   3   4
ENDBRANCH   2   3
TORSDOF 7
ENDMDL
MODEL      102
REMARK 921   NORMALIZED FREE ENERGY PREDICTED BY IDOCK:   -5.43 KCAL/MOL
REMARK 922        TOTAL FREE ENERGY PREDICTED BY IDOCK:   -9.01 KCAL/MOL
REMARK 923 INTER-LIGAND FREE ENERGY PREDICTED BY IDOCK:   -8.59 KCAL/MOL
REMARK 924 INTRA-LIGAND FREE ENERGY PREDICTED BY IDOCK:   -0.41 KCAL/MOL
REMARK 927      BINDING AFFINITY PREDICTED BY RF-SCORE:    0.00 PKD
ROOT
HETATM    1  C   UNL     1      -9.735   3.706  65.471  1.00  0.00    -0.117 C  
HETATM    2  C   UNL     1      -9.811   4.445  66.799  1.00  0.00    -0.241 C  
ENDROOT
BRANCH   2   3
HETATM    3  C   UNL     1     -10.661   5.714  66.695  1.00  0.00    -0.361 C  
BRANCH   3   4
HETATM    4  C   UNL     1     -10.767   6.442  67.993  1.00  0.00    -0.291 A  
HETATM    5  N   UNL     1     -10.865   5.722  69.126  1.00  0.00    -0.309 NA 
HETATM    6  N   UNL     1     -10.911   6.648  70.111  1.00  0.00    -0.279 NA 
HETATM    7  C   UNL     1     -10.834   7.922  69.645  1.00  0.00    -0.176 A  
HETATM    8  C   UNL     1     -10.994   6.215  71.485  1.00  0.00    -0.273 C  
HETATM    9  C   UNL     1     -10.761   7.825  68.288  1.00  0.00    -0.036 A  
HETATM   10  N   UNL     1     -10.678   8.945  67.552  1.00  0.00    -0.222 NA 
HETATM   11  C   UNL     1     -10.685  10.153  68.251  1.00  0.00    -0.238 C  
HETATM   12  N   UNL     1     -10.742  10.269  69.552  1.00  0.00    -0.232 N  
HETATM   13  O   UNL     1     -10.920   9.222  71.586  1.00  0.00    -0.355 OA 
HETATM   14  H   UNL     1     -10.715  11.198  69.973  1.00  0.00     0.000 HD 
HETATM   15  C   UNL     1     -10.840   9.158  70.367  1.00  0.00    -0.242 C  
BRANCH  11  16
HETATM   16  C   UNL     1     -10.588  11.451  67.469  1.00  0.00    -0.252 A  
HETATM   17  C   UNL     1     -10.270  12.704  65.412  1.00  0.00    -0.301 A  
HETATM   18  C   UNL     1     -10.360  11.474  66.080  1.00  0.00    -0.246 A  
HETATM   19  C   UNL     1     -10.685  12.670  68.173  1.00  0.00    -0.242 A  
HETATM   20  C   UNL     1     -10.293  13.903  66.127  1.00  0.00    -0.303 A  
HETATM   21  C   UNL     1     -10.454  13.883  67.515  1.00  0.00    -0.248 A  
BRANCH  18  22
HETATM   22  O   UNL     1     -10.285  10.271  65.430  1.00  0.00    -0.297 OA 
BRANCH  22  23
HETATM   23  C   UNL     1      -9.134  10.049  64.615  1.00  0.00    -0.237 C  
HETATM   24  C   UNL     1      -7.951   9.907  65.555  1.00  0.00    -0.128 C  
ENDBRANCH  22  23
ENDBRANCH  18  22
BRANCH  21  25
HETATM   25  S   UNL     1     -10.461  15.435  68.397  1.00  0.00    -0.245 S  
HETATM   26  O   UNL     1      -9.648  15.262  69.583  1.00  0.00    -0.242 OA 
HETATM   27  O   UNL     1     -11.848  15.841  68.503  1.00  0.00    -0.363 OA 
BRANCH  25  28
HETATM   28  N   UNL     1      -9.697  16.558  67.389  1.00  0.00    -0.243 N  
HETATM   29  C   UNL     1     -10.484  17.648  66.776  1.00  0.00    -0.289 C  
HETATM   30  C   UNL     1     -10.476  18.891  67.674  1.00  0.00    -0.443 C  
HETATM   31  N   UNL     1      -9.132  19.389  68.029  1.00  0.00    -0.318 NA 
HETATM   32  C   UNL     1      -8.215  18.296  68.423  1.00  0.00    -0.311 C  
HETATM   33  C   UNL     1      -8.594  20.216  66.953  1.00  0.00    -0.324 C  
HETATM   34  C   UNL     1      -8.293  16.967  67.633  1.00  0.00    -0.190 C  
ENDBRANCH  25  28
ENDBRANCH  21  25
ENDBRANCH  11  16
ENDBRANCH   3   4
ENDBRANCH   2   3
TORSDOF 7
ENDMDL
MODEL      103
REMARK 921   NORMALIZED FREE ENERGY PREDICTED BY IDOCK:   -5.43 KCAL/MOL
REMARK 922        TOTAL FREE ENERGY PREDICTED BY IDOCK:   -9.00 KCAL/MOL
REMARK 923 INTER-LIGAND FREE ENERGY PREDICTED BY IDOCK:   -8.20 KCAL/MOL
REMARK 924 INTRA-LIGAND FREE ENERGY PREDICTED BY IDOCK:   -0.81 KCAL/MOL
REMARK 927      BINDING AFFINITY PREDICTED BY RF-SCORE:    0.00 PKD
ROOT
HETATM    1  C   UNL     1     -10.153  18.421  68.561  1.00  0.00    -0.413 C  
HETATM    2  C   UNL     1     -10.245  17.002  69.103  1.00  0.00    -0.288 C  
ENDROOT
BRANCH   2   3
HETATM    3  C   UNL     1     -11.409  16.230  68.480  1.00  0.00    -0.330 C  
BRANCH   3   4
HETATM    4  C   UNL     1     -11.809  15.042  69.289  1.00  0.00    -0.315 A  
HETATM    5  N   UNL     1     -12.543  15.239  70.400  1.00  0.00    -0.380 NA 
HETATM    6  N   UNL     1     -12.767  13.995  70.882  1.00  0.00    -0.345 NA 
HETATM    7  C   UNL     1     -12.214  13.021  70.112  1.00  0.00    -0.272 A  
HETATM    8  C   UNL     1     -13.559  13.832  72.077  1.00  0.00    -0.479 C  
HETATM    9  C   UNL     1     -11.576  13.661  69.093  1.00  0.00    -0.309 A  
HETATM   10  N   UNL     1     -10.927  12.937  68.166  1.00  0.00    -0.237 NA 
HETATM   11  C   UNL     1     -10.948  11.551  68.329  1.00  0.00    -0.224 C  
HETATM   12  N   UNL     1     -11.564  10.916  69.292  1.00  0.00    -0.292 N  
HETATM   13  O   UNL     1     -12.810  11.048  71.214  1.00  0.00    -0.388 OA 
HETATM   14  H   UNL     1     -11.544   9.896  69.312  1.00  0.00     0.000 HD 
HETATM   15  C   UNL     1     -12.241  11.600  70.283  1.00  0.00    -0.318 C  
BRANCH  11  16
HETATM   16  C   UNL     1     -10.236  10.683  67.307  1.00  0.00    -0.250 A  
HETATM   17  C   UNL     1      -9.742  10.016  65.024  1.00  0.00    -0.386 A  
HETATM   18  C   UNL     1     -10.419  10.854  65.921  1.00  0.00    -0.221 A  
HETATM   19  C   UNL     1      -9.402   9.645  67.770  1.00  0.00    -0.142 A  
HETATM   20  C   UNL     1      -8.977   8.946  65.491  1.00  0.00    -0.246 A  
HETATM   21  C   UNL     1      -8.846   8.732  66.866  1.00  0.00    -0.127 A  
BRANCH  18  22
HETATM   22  O   UNL     1     -11.226  11.882  65.511  1.00  0.00    -0.317 OA 
BRANCH  22  23
HETATM   23  C   UNL     1     -10.832  12.577  64.327  1.00  0.00    -0.364 C  
HETATM   24  C   UNL     1     -12.063  13.303  63.815  1.00  0.00    -0.546 C  
ENDBRANCH  22  23
ENDBRANCH  18  22
BRANCH  21  25
HETATM   25  S   UNL     1      -7.875   7.342  67.427  1.00  0.00    -0.113 S  
HETATM   26  O   UNL     1      -8.193   7.129  68.823  1.00  0.00    -0.120 OA 
HETATM   27  O   UNL     1      -6.511   7.599  67.009  1.00  0.00    -0.051 OA 
BRANCH  25  28
HETATM   28  N   UNL     1      -8.413   6.001  66.548  1.00  0.00    -0.112 N  
HETATM   29  C   UNL     1      -7.446   5.191  65.780  1.00  0.00    -0.082 C  
HETATM   30  C   UNL     1      -6.904   4.041  66.637  1.00  0.00    -0.058 C  
HETATM   31  N   UNL     1      -7.938   3.161  67.216  1.00  0.00    -0.077 NA 
HETATM   32  C   UNL     1      -9.067   3.926  67.792  1.00  0.00    -0.150 C  
HETATM   33  C   UNL     1      -8.371   2.169  66.237  1.00  0.00    -0.095 C  
HETATM   34  C   UNL     1      -9.551   5.183  67.031  1.00  0.00    -0.147 C  
ENDBRANCH  25  28
ENDBRANCH  21  25
ENDBRANCH  11  16
ENDBRANCH   3   4
ENDBRANCH   2   3
TORSDOF 7
ENDMDL
MODEL      104
REMARK 921   NORMALIZED FREE ENERGY PREDICTED BY IDOCK:   -5.43 KCAL/MOL
REMARK 922        TOTAL FREE ENERGY PREDICTED BY IDOCK:   -9.00 KCAL/MOL
REMARK 923 INTER-LIGAND FREE ENERGY PREDICTED BY IDOCK:   -8.42 KCAL/MOL
REMARK 924 INTRA-LIGAND FREE ENERGY PREDICTED BY IDOCK:   -0.58 KCAL/MOL
REMARK 927      BINDING AFFINITY PREDICTED BY RF-SCORE:    0.00 PKD
ROOT
HETATM    1  C   UNL     1     -10.263  20.127  67.420  1.00  0.00    -0.534 C  
HETATM    2  C   UNL     1     -10.760  18.692  67.308  1.00  0.00    -0.449 C  
ENDROOT
BRANCH   2   3
HETATM    3  C   UNL     1     -10.204  17.994  66.066  1.00  0.00    -0.304 C  
BRANCH   3   4
HETATM    4  C   UNL     1      -8.956  17.227  66.349  1.00  0.00    -0.252 A  
HETATM    5  N   UNL     1      -7.772  17.844  66.184  1.00  0.00    -0.432 NA 
HETATM    6  N   UNL     1      -6.855  16.917  66.544  1.00  0.00    -0.234 NA 
HETATM    7  C   UNL     1      -7.415  15.744  66.942  1.00  0.00    -0.169 A  
HETATM    8  C   UNL     1      -5.453  17.258  66.510  1.00  0.00    -0.181 C  
HETATM    9  C   UNL     1      -8.761  15.904  66.809  1.00  0.00    -0.269 A  
HETATM   10  N   UNL     1      -9.579  14.888  67.131  1.00  0.00    -0.221 NA 
HETATM   11  C   UNL     1      -8.969  13.714  67.576  1.00  0.00    -0.209 C  
HETATM   12  N   UNL     1      -7.682  13.543  67.722  1.00  0.00    -0.146 N  
HETATM   13  O   UNL     1      -5.572  14.418  67.498  1.00  0.00    -0.341 OA 
HETATM   14  H   UNL     1      -7.332  12.654  68.081  1.00  0.00     0.000 HD 
HETATM   15  C   UNL     1      -6.785  14.543  67.400  1.00  0.00     0.009 C  
BRANCH  11  16
HETATM   16  C   UNL     1      -9.846  12.534  67.960  1.00  0.00    -0.214 A  
HETATM   17  C   UNL     1     -11.968  11.352  67.989  1.00  0.00    -0.162 A  
HETATM   18  C   UNL     1     -11.205  12.462  67.599  1.00  0.00    -0.288 A  
HETATM   19  C   UNL     1      -9.283  11.504  68.741  1.00  0.00    -0.076 A  
HETATM   20  C   UNL     1     -11.424  10.375  68.823  1.00  0.00    -0.240 A  
HETATM   21  C   UNL     1     -10.093  10.476  69.238  1.00  0.00    -0.224 A  
BRANCH  18  22
HETATM   22  O   UNL     1     -11.710  13.475  66.828  1.00  0.00    -0.350 OA 
BRANCH  22  23
HETATM   23  C   UNL     1     -12.475  13.094  65.683  1.00  0.00    -0.425 C  
HETATM   24  C   UNL     1     -11.501  12.975  64.526  1.00  0.00    -0.389 C  
ENDBRANCH  22  23
ENDBRANCH  18  22
BRANCH  21  25
HETATM   25  S   UNL     1      -9.436   9.216  70.320  1.00  0.00    -0.237 S  
HETATM   26  O   UNL     1     -10.467   8.895  71.285  1.00  0.00    -0.236 OA 
HETATM   27  O   UNL     1      -8.137   9.686  70.755  1.00  0.00    -0.279 OA 
BRANCH  25  28
HETATM   28  N   UNL     1      -9.167   7.854  69.355  1.00  0.00    -0.146 N  
HETATM   29  C   UNL     1      -9.901   6.602  69.632  1.00  0.00    -0.157 C  
HETATM   30  C   UNL     1     -11.205   6.550  68.828  1.00  0.00    -0.236 C  
HETATM   31  N   UNL     1     -11.040   6.715  67.370  1.00  0.00    -0.353 NA 
HETATM   32  C   UNL     1     -10.110   7.816  67.032  1.00  0.00    -0.273 C  
HETATM   33  C   UNL     1     -10.660   5.448  66.753  1.00  0.00    -0.271 C  
HETATM   34  C   UNL     1      -8.850   7.995  67.913  1.00  0.00    -0.130 C  
ENDBRANCH  25  28
ENDBRANCH  21  25
ENDBRANCH  11  16
ENDBRANCH   3   4
ENDBRANCH   2   3
TORSDOF 7
ENDMDL
MODEL      105
REMARK 921   NORMALIZED FREE ENERGY PREDICTED BY IDOCK:   -5.41 KCAL/MOL
REMARK 922        TOTAL FREE ENERGY PREDICTED BY IDOCK:   -8.97 KCAL/MOL
REMARK 923 INTER-LIGAND FREE ENERGY PREDICTED BY IDOCK:   -8.40 KCAL/MOL
REMARK 924 INTRA-LIGAND FREE ENERGY PREDICTED BY IDOCK:   -0.57 KCAL/MOL
REMARK 927      BINDING AFFINITY PREDICTED BY RF-SCORE:    0.00 PKD
ROOT
HETATM    1  C   UNL     1     -11.961  12.571  63.252  1.00  0.00    -0.516 C  
HETATM    2  C   UNL     1     -12.867  12.662  64.471  1.00  0.00    -0.356 C  
ENDROOT
BRANCH   2   3
HETATM    3  C   UNL     1     -12.760  14.025  65.158  1.00  0.00    -0.419 C  
BRANCH   3   4
HETATM    4  C   UNL     1     -11.479  14.192  65.905  1.00  0.00    -0.338 A  
HETATM    5  N   UNL     1     -10.721  15.273  65.644  1.00  0.00    -0.344 NA 
HETATM    6  N   UNL     1      -9.668  15.158  66.485  1.00  0.00    -0.255 NA 
HETATM    7  C   UNL     1      -9.739  14.054  67.276  1.00  0.00    -0.237 A  
HETATM    8  C   UNL     1      -8.650  16.181  66.489  1.00  0.00    -0.306 C  
HETATM    9  C   UNL     1     -10.879  13.403  66.913  1.00  0.00    -0.277 A  
HETATM   10  N   UNL     1     -11.209  12.258  67.534  1.00  0.00    -0.278 NA 
HETATM   11  C   UNL     1     -10.328  11.807  68.519  1.00  0.00    -0.217 C  
HETATM   12  N   UNL     1      -9.236  12.422  68.890  1.00  0.00    -0.373 N  
HETATM   13  O   UNL     1      -7.808  14.192  68.585  1.00  0.00    -0.135 OA 
HETATM   14  H   UNL     1      -8.669  12.026  69.641  1.00  0.00     0.000 HD 
HETATM   15  C   UNL     1      -8.834  13.597  68.286  1.00  0.00    -0.179 C  
BRANCH  11  16
HETATM   16  C   UNL     1     -10.654  10.521  69.259  1.00  0.00    -0.265 A  
HETATM   17  C   UNL     1     -11.841   9.264  70.964  1.00  0.00    -0.376 A  
HETATM   18  C   UNL     1     -11.588  10.478  70.311  1.00  0.00    -0.332 A  
HETATM   19  C   UNL     1      -9.961   9.346  68.902  1.00  0.00    -0.188 A  
HETATM   20  C   UNL     1     -11.098   8.123  70.655  1.00  0.00    -0.264 A  
HETATM   21  C   UNL     1     -10.124   8.177  69.655  1.00  0.00    -0.199 A  
BRANCH  18  22
HETATM   22  O   UNL     1     -12.250  11.637  70.619  1.00  0.00    -0.369 OA 
BRANCH  22  23
HETATM   23  C   UNL     1     -13.224  11.566  71.661  1.00  0.00    -0.286 C  
HETATM   24  C   UNL     1     -13.464  12.988  72.134  1.00  0.00    -0.638 C  
ENDBRANCH  22  23
ENDBRANCH  18  22
BRANCH  21  25
HETATM   25  S   UNL     1      -9.180   6.704  69.299  1.00  0.00    -0.139 S  
HETATM   26  O   UNL     1      -7.825   6.938  69.754  1.00  0.00    -0.110 OA 
HETATM   27  O   UNL     1      -9.448   6.369  67.915  1.00  0.00    -0.118 OA 
BRANCH  25  28
HETATM   28  N   UNL     1      -9.852   5.470  70.241  1.00  0.00    -0.184 N  
HETATM   29  C   UNL     1      -9.687   4.061  69.832  1.00  0.00    -0.193 C  
HETATM   30  C   UNL     1      -8.428   3.457  70.465  1.00  0.00    -0.061 C  
HETATM   31  N   UNL     1      -8.370   3.555  71.937  1.00  0.00    -0.073 NA 
HETATM   32  C   UNL     1      -8.766   4.894  72.427  1.00  0.00    -0.123 C  
HETATM   33  C   UNL     1      -9.142   2.480  72.551  1.00  0.00    -0.082 C  
HETATM   34  C   UNL     1      -9.943   5.605  71.715  1.00  0.00    -0.176 C  
ENDBRANCH  25  28
ENDBRANCH  21  25
ENDBRANCH  11  16
ENDBRANCH   3   4
ENDBRANCH   2   3
TORSDOF 7
ENDMDL
MODEL      106
REMARK 921   NORMALIZED FREE ENERGY PREDICTED BY IDOCK:   -5.40 KCAL/MOL
REMARK 922        TOTAL FREE ENERGY PREDICTED BY IDOCK:   -8.96 KCAL/MOL
REMARK 923 INTER-LIGAND FREE ENERGY PREDICTED BY IDOCK:   -8.32 KCAL/MOL
REMARK 924 INTRA-LIGAND FREE ENERGY PREDICTED BY IDOCK:   -0.64 KCAL/MOL
REMARK 927      BINDING AFFINITY PREDICTED BY RF-SCORE:    0.00 PKD
ROOT
HETATM    1  C   UNL     1     -14.087  13.725  72.446  1.00  0.00    -0.593 C  
HETATM    2  C   UNL     1     -13.617  14.550  71.256  1.00  0.00    -0.423 C  
ENDROOT
BRANCH   2   3
HETATM    3  C   UNL     1     -12.148  14.283  70.925  1.00  0.00    -0.417 C  
BRANCH   3   4
HETATM    4  C   UNL     1     -11.956  13.772  69.536  1.00  0.00    -0.345 A  
HETATM    5  N   UNL     1     -12.093  14.632  68.510  1.00  0.00    -0.247 NA 
HETATM    6  N   UNL     1     -11.832  13.890  67.410  1.00  0.00    -0.382 NA 
HETATM    7  C   UNL     1     -11.524  12.599  67.701  1.00  0.00    -0.334 A  
HETATM    8  C   UNL     1     -11.866  14.517  66.110  1.00  0.00    -0.336 C  
HETATM    9  C   UNL     1     -11.615  12.486  69.056  1.00  0.00    -0.314 A  
HETATM   10  N   UNL     1     -11.363  11.300  69.635  1.00  0.00    -0.278 NA 
HETATM   11  C   UNL     1     -11.032  10.247  68.782  1.00  0.00    -0.243 C  
HETATM   12  N   UNL     1     -10.927  10.336  67.482  1.00  0.00    -0.301 N  
HETATM   13  O   UNL     1     -11.120  11.645  65.607  1.00  0.00    -0.300 OA 
HETATM   14  H   UNL     1     -10.653   9.514  66.944  1.00  0.00     0.000 HD 
HETATM   15  C   UNL     1     -11.182  11.523  66.822  1.00  0.00    -0.285 C  
BRANCH  11  16
HETATM   16  C   UNL     1     -10.732   8.885  69.382  1.00  0.00    -0.192 A  
HETATM   17  C   UNL     1     -11.011   7.179  71.089  1.00  0.00    -0.272 A  
HETATM   18  C   UNL     1     -11.334   8.444  70.576  1.00  0.00    -0.216 A  
HETATM   19  C   UNL     1      -9.784   8.060  68.741  1.00  0.00    -0.157 A  
HETATM   20  C   UNL     1     -10.019   6.402  70.489  1.00  0.00    -0.214 A  
HETATM   21  C   UNL     1      -9.372   6.865  69.341  1.00  0.00    -0.146 A  
BRANCH  18  22
HETATM   22  O   UNL     1     -12.259   9.267  71.161  1.00  0.00    -0.297 OA 
BRANCH  22  23
HETATM   23  C   UNL     1     -12.965   8.745  72.288  1.00  0.00    -0.408 C  
HETATM   24  C   UNL     1     -14.377   8.447  71.821  1.00  0.00    -0.558 C  
ENDBRANCH  22  23
ENDBRANCH  18  22
BRANCH  21  25
HETATM   25  S   UNL     1      -8.095   5.851  68.611  1.00  0.00    -0.103 S  
HETATM   26  O   UNL     1      -8.279   4.503  69.105  1.00  0.00    -0.078 OA 
HETATM   27  O   UNL     1      -6.844   6.553  68.822  1.00  0.00    -0.064 OA 
BRANCH  25  28
HETATM   28  N   UNL     1      -8.383   5.852  66.944  1.00  0.00    -0.109 N  
HETATM   29  C   UNL     1      -7.287   5.523  66.010  1.00  0.00    -0.078 C  
HETATM   30  C   UNL     1      -7.267   4.019  65.709  1.00  0.00    -0.072 C  
HETATM   31  N   UNL     1      -8.539   3.476  65.192  1.00  0.00    -0.109 NA 
HETATM   32  C   UNL     1      -9.710   3.973  65.949  1.00  0.00    -0.188 C  
HETATM   33  C   UNL     1      -8.652   3.718  63.757  1.00  0.00    -0.093 C  
HETATM   34  C   UNL     1      -9.703   5.453  66.401  1.00  0.00    -0.166 C  
ENDBRANCH  25  28
ENDBRANCH  21  25
ENDBRANCH  11  16
ENDBRANCH   3   4
ENDBRANCH   2   3
TORSDOF 7
ENDMDL
MODEL      107
REMARK 921   NORMALIZED FREE ENERGY PREDICTED BY IDOCK:   -5.39 KCAL/MOL
REMARK 922        TOTAL FREE ENERGY PREDICTED BY IDOCK:   -8.94 KCAL/MOL
REMARK 923 INTER-LIGAND FREE ENERGY PREDICTED BY IDOCK:   -7.40 KCAL/MOL
REMARK 924 INTRA-LIGAND FREE ENERGY PREDICTED BY IDOCK:   -1.53 KCAL/MOL
REMARK 927      BINDING AFFINITY PREDICTED BY RF-SCORE:    0.00 PKD
ROOT
HETATM    1  C   UNL     1      -9.866   9.264  70.897  1.00  0.00    -0.363 C  
HETATM    2  C   UNL     1      -8.498   8.652  70.630  1.00  0.00    -0.174 C  
ENDROOT
BRANCH   2   3
HETATM    3  C   UNL     1      -7.594   9.603  69.843  1.00  0.00    -0.138 C  
BRANCH   3   4
HETATM    4  C   UNL     1      -8.147   9.939  68.498  1.00  0.00    -0.101 A  
HETATM    5  N   UNL     1      -8.175   8.976  67.558  1.00  0.00    -0.108 NA 
HETATM    6  N   UNL     1      -8.749   9.568  66.486  1.00  0.00    -0.133 NA 
HETATM    7  C   UNL     1      -9.095  10.862  66.717  1.00  0.00    -0.152 A  
HETATM    8  C   UNL     1      -8.962   8.800  65.283  1.00  0.00    -0.133 C  
HETATM    9  C   UNL     1      -8.704  11.136  67.992  1.00  0.00    -0.141 A  
HETATM   10  N   UNL     1      -8.919  12.362  68.498  1.00  0.00    -0.115 NA 
HETATM   11  C   UNL     1      -9.532  13.287  67.651  1.00  0.00    -0.211 C  
HETATM   12  N   UNL     1      -9.926  13.042  66.429  1.00  0.00    -0.271 N  
HETATM   13  O   UNL     1     -10.057  11.542  64.698  1.00  0.00    -0.245 OA 
HETATM   14  H   UNL     1     -10.390  13.778  65.896  1.00  0.00     0.000 HD 
HETATM   15  C   UNL     1      -9.726  11.806  65.845  1.00  0.00    -0.237 C  
BRANCH  11  16
HETATM   16  C   UNL     1      -9.805  14.687  68.171  1.00  0.00    -0.224 A  
HETATM   17  C   UNL     1     -11.267  16.384  69.112  1.00  0.00    -0.275 A  
HETATM   18  C   UNL     1     -11.071  15.074  68.652  1.00  0.00    -0.264 A  
HETATM   19  C   UNL     1      -8.764  15.637  68.127  1.00  0.00    -0.168 A  
HETATM   20  C   UNL     1     -10.254  17.336  68.995  1.00  0.00    -0.318 A  
HETATM   21  C   UNL     1      -9.016  16.973  68.459  1.00  0.00    -0.263 A  
BRANCH  18  22
HETATM   22  O   UNL     1     -12.052  14.119  68.692  1.00  0.00    -0.343 OA 
BRANCH  22  23
HETATM   23  C   UNL     1     -12.508  13.717  69.985  1.00  0.00    -0.204 C  
HETATM   24  C   UNL     1     -11.978  12.314  70.219  1.00  0.00    -0.373 C  
ENDBRANCH  22  23
ENDBRANCH  18  22
BRANCH  21  25
HETATM   25  S   UNL     1      -7.749  18.223  68.308  1.00  0.00    -0.299 S  
HETATM   26  O   UNL     1      -6.504  17.632  68.754  1.00  0.00    -0.194 OA 
HETATM   27  O   UNL     1      -8.271  19.416  68.944  1.00  0.00    -0.363 OA 
BRANCH  25  28
HETATM   28  N   UNL     1      -7.614  18.566  66.657  1.00  0.00    -0.229 N  
HETATM   29  C   UNL     1      -7.992  19.901  66.152  1.00  0.00    -0.328 C  
HETATM   30  C   UNL     1      -6.779  20.840  66.145  1.00  0.00    -0.180 C  
HETATM   31  N   UNL     1      -5.613  20.337  65.392  1.00  0.00    -0.168 NA 
HETATM   32  C   UNL     1      -5.332  18.912  65.679  1.00  0.00    -0.154 C  
HETATM   33  C   UNL     1      -5.773  20.604  63.967  1.00  0.00    -0.264 C  
HETATM   34  C   UNL     1      -6.538  17.956  65.840  1.00  0.00    -0.269 C  
ENDBRANCH  25  28
ENDBRANCH  21  25
ENDBRANCH  11  16
ENDBRANCH   3   4
ENDBRANCH   2   3
TORSDOF 7
ENDMDL
MODEL      108
REMARK 921   NORMALIZED FREE ENERGY PREDICTED BY IDOCK:   -5.37 KCAL/MOL
REMARK 922        TOTAL FREE ENERGY PREDICTED BY IDOCK:   -8.91 KCAL/MOL
REMARK 923 INTER-LIGAND FREE ENERGY PREDICTED BY IDOCK:   -7.63 KCAL/MOL
REMARK 924 INTRA-LIGAND FREE ENERGY PREDICTED BY IDOCK:   -1.29 KCAL/MOL
REMARK 927      BINDING AFFINITY PREDICTED BY RF-SCORE:    0.00 PKD
ROOT
HETATM    1  C   UNL     1     -13.150  10.140  71.764  1.00  0.00    -0.568 C  
HETATM    2  C   UNL     1     -13.572   8.776  72.293  1.00  0.00    -0.478 C  
ENDROOT
BRANCH   2   3
HETATM    3  C   UNL     1     -13.444   7.689  71.224  1.00  0.00    -0.283 C  
BRANCH   3   4
HETATM    4  C   UNL     1     -12.228   6.844  71.408  1.00  0.00    -0.372 A  
HETATM    5  N   UNL     1     -12.082   6.173  72.565  1.00  0.00    -0.149 NA 
HETATM    6  N   UNL     1     -10.924   5.489  72.415  1.00  0.00    -0.247 NA 
HETATM    7  C   UNL     1     -10.341   5.692  71.204  1.00  0.00    -0.232 A  
HETATM    8  C   UNL     1     -10.468   4.628  73.480  1.00  0.00    -0.216 C  
HETATM    9  C   UNL     1     -11.143   6.572  70.542  1.00  0.00    -0.319 A  
HETATM   10  N   UNL     1     -10.806   6.964  69.302  1.00  0.00    -0.241 NA 
HETATM   11  C   UNL     1      -9.625   6.435  68.780  1.00  0.00    -0.125 C  
HETATM   12  N   UNL     1      -8.848   5.581  69.392  1.00  0.00    -0.106 N  
HETATM   13  O   UNL     1      -8.419   4.366  71.291  1.00  0.00    -0.094 OA 
HETATM   14  H   UNL     1      -8.017   5.230  68.916  1.00  0.00     0.000 HD 
HETATM   15  C   UNL     1      -9.130   5.145  70.673  1.00  0.00    -0.141 C  
BRANCH  11  16
HETATM   16  C   UNL     1      -9.199   6.839  67.379  1.00  0.00    -0.130 A  
HETATM   17  C   UNL     1      -8.303   6.340  65.177  1.00  0.00    -0.119 A  
HETATM   18  C   UNL     1      -8.690   5.908  66.454  1.00  0.00    -0.131 A  
HETATM   19  C   UNL     1      -9.276   8.200  67.019  1.00  0.00    -0.187 A  
HETATM   20  C   UNL     1      -8.314   7.698  64.854  1.00  0.00    -0.054 A  
HETATM   21  C   UNL     1      -8.756   8.633  65.793  1.00  0.00    -0.181 A  
BRANCH  18  22
HETATM   22  O   UNL     1      -8.644   4.593  66.837  1.00  0.00    -0.106 OA 
BRANCH  22  23
HETATM   23  C   UNL     1      -9.607   3.717  66.250  1.00  0.00    -0.130 C  
HETATM   24  C   UNL     1      -8.830   2.632  65.528  1.00  0.00    -0.133 C  
ENDBRANCH  22  23
ENDBRANCH  18  22
BRANCH  21  25
HETATM   25  S   UNL     1      -8.738  10.364  65.352  1.00  0.00    -0.186 S  
HETATM   26  O   UNL     1      -8.225  10.459  64.001  1.00  0.00    -0.162 OA 
HETATM   27  O   UNL     1      -8.085  11.059  66.442  1.00  0.00    -0.159 OA 
BRANCH  25  28
HETATM   28  N   UNL     1     -10.352  10.869  65.345  1.00  0.00    -0.272 N  
HETATM   29  C   UNL     1     -10.923  11.521  66.541  1.00  0.00    -0.293 C  
HETATM   30  C   UNL     1     -10.754  13.043  66.460  1.00  0.00    -0.278 C  
HETATM   31  N   UNL     1     -11.315  13.662  65.242  1.00  0.00    -0.292 NA 
HETATM   32  C   UNL     1     -10.975  12.903  64.018  1.00  0.00    -0.411 C  
HETATM   33  C   UNL     1     -12.751  13.874  65.394  1.00  0.00    -0.490 C  
HETATM   34  C   UNL     1     -10.990  11.357  64.098  1.00  0.00    -0.341 C  
ENDBRANCH  25  28
ENDBRANCH  21  25
ENDBRANCH  11  16
ENDBRANCH   3   4
ENDBRANCH   2   3
TORSDOF 7
ENDMDL
MODEL      109
REMARK 921   NORMALIZED FREE ENERGY PREDICTED BY IDOCK:   -5.34 KCAL/MOL
REMARK 922        TOTAL FREE ENERGY PREDICTED BY IDOCK:   -8.88 KCAL/MOL
REMARK 923 INTER-LIGAND FREE ENERGY PREDICTED BY IDOCK:   -7.75 KCAL/MOL
REMARK 924 INTRA-LIGAND FREE ENERGY PREDICTED BY IDOCK:   -1.13 KCAL/MOL
REMARK 927      BINDING AFFINITY PREDICTED BY RF-SCORE:    0.00 PKD
ROOT
HETATM    1  C   UNL     1     -11.116  11.360  63.354  1.00  0.00    -0.308 C  
HETATM    2  C   UNL     1     -12.015  12.586  63.429  1.00  0.00    -0.602 C  
ENDROOT
BRANCH   2   3
HETATM    3  C   UNL     1     -12.600  12.776  64.830  1.00  0.00    -0.541 C  
BRANCH   3   4
HETATM    4  C   UNL     1     -11.645  13.440  65.766  1.00  0.00    -0.332 A  
HETATM    5  N   UNL     1     -11.567  14.783  65.757  1.00  0.00    -0.327 NA 
HETATM    6  N   UNL     1     -10.659  15.075  66.716  1.00  0.00    -0.295 NA 
HETATM    7  C   UNL     1     -10.171  13.969  67.339  1.00  0.00    -0.248 A  
HETATM    8  C   UNL     1     -10.345  16.455  66.996  1.00  0.00    -0.293 C  
HETATM    9  C   UNL     1     -10.769  12.903  66.738  1.00  0.00    -0.261 A  
HETATM   10  N   UNL     1     -10.469  11.661  67.153  1.00  0.00    -0.213 NA 
HETATM   11  C   UNL     1      -9.536  11.557  68.185  1.00  0.00    -0.184 C  
HETATM   12  N   UNL     1      -8.959  12.566  68.783  1.00  0.00    -0.390 N  
HETATM   13  O   UNL     1      -8.680  14.840  68.914  1.00  0.00    -0.175 OA 
HETATM   14  H   UNL     1      -8.308  12.389  69.548  1.00  0.00     0.000 HD 
HETATM   15  C   UNL     1      -9.215  13.868  68.399  1.00  0.00    -0.194 C  
BRANCH  11  16
HETATM   16  C   UNL     1      -9.163  10.177  68.699  1.00  0.00    -0.157 A  
HETATM   17  C   UNL     1      -7.653   8.282  68.867  1.00  0.00    -0.093 A  
HETATM   18  C   UNL     1      -7.939   9.562  68.372  1.00  0.00    -0.093 A  
HETATM   19  C   UNL     1     -10.098   9.479  69.491  1.00  0.00    -0.218 A  
HETATM   20  C   UNL     1      -8.613   7.568  69.588  1.00  0.00    -0.136 A  
HETATM   21  C   UNL     1      -9.854   8.150  69.859  1.00  0.00    -0.186 A  
BRANCH  18  22
HETATM   22  O   UNL     1      -7.053  10.278  67.612  1.00  0.00    -0.084 OA 
BRANCH  22  23
HETATM   23  C   UNL     1      -6.724   9.743  66.329  1.00  0.00    -0.087 C  
HETATM   24  C   UNL     1      -7.628  10.430  65.323  1.00  0.00    -0.118 C  
ENDBRANCH  22  23
ENDBRANCH  18  22
BRANCH  21  25
HETATM   25  S   UNL     1     -11.064   7.201  70.768  1.00  0.00    -0.279 S  
HETATM   26  O   UNL     1     -11.626   6.230  69.853  1.00  0.00    -0.435 OA 
HETATM   27  O   UNL     1     -11.914   8.160  71.444  1.00  0.00    -0.287 OA 
BRANCH  25  28
HETATM   28  N   UNL     1     -10.211   6.370  71.968  1.00  0.00    -0.193 N  
HETATM   29  C   UNL     1     -10.845   6.118  73.278  1.00  0.00    -0.244 C  
HETATM   30  C   UNL     1     -11.574   4.769  73.275  1.00  0.00    -0.194 C  
HETATM   31  N   UNL     1     -10.733   3.613  72.901  1.00  0.00    -0.140 NA 
HETATM   32  C   UNL     1      -9.883   3.897  71.723  1.00  0.00    -0.179 C  
HETATM   33  C   UNL     1      -9.966   3.147  74.051  1.00  0.00    -0.114 C  
HETATM   34  C   UNL     1      -9.245   5.303  71.614  1.00  0.00    -0.146 C  
ENDBRANCH  25  28
ENDBRANCH  21  25
ENDBRANCH  11  16
ENDBRANCH   3   4
ENDBRANCH   2   3
TORSDOF 7
ENDMDL
MODEL      110
REMARK 921   NORMALIZED FREE ENERGY PREDICTED BY IDOCK:   -5.30 KCAL/MOL
REMARK 922        TOTAL FREE ENERGY PREDICTED BY IDOCK:   -8.81 KCAL/MOL
REMARK 923 INTER-LIGAND FREE ENERGY PREDICTED BY IDOCK:   -8.20 KCAL/MOL
REMARK 924 INTRA-LIGAND FREE ENERGY PREDICTED BY IDOCK:   -0.61 KCAL/MOL
REMARK 927      BINDING AFFINITY PREDICTED BY RF-SCORE:    0.00 PKD
ROOT
HETATM    1  C   UNL     1      -5.332   6.355  71.290  1.00  0.00    -0.026 C  
HETATM    2  C   UNL     1      -6.500   6.789  72.165  1.00  0.00    -0.053 C  
ENDROOT
BRANCH   2   3
HETATM    3  C   UNL     1      -7.328   7.890  71.501  1.00  0.00    -0.068 C  
BRANCH   3   4
HETATM    4  C   UNL     1      -8.793   7.609  71.541  1.00  0.00    -0.124 A  
HETATM    5  N   UNL     1      -9.215   6.485  72.148  1.00  0.00    -0.140 NA 
HETATM    6  N   UNL     1     -10.563   6.532  72.048  1.00  0.00    -0.213 NA 
HETATM    7  C   UNL     1     -11.009   7.649  71.414  1.00  0.00    -0.231 A  
HETATM    8  C   UNL     1     -11.353   5.473  72.628  1.00  0.00    -0.291 C  
HETATM    9  C   UNL     1      -9.897   8.350  71.058  1.00  0.00    -0.187 A  
HETATM   10  N   UNL     1     -10.035   9.514  70.402  1.00  0.00    -0.251 NA 
HETATM   11  C   UNL     1     -11.341   9.919  70.119  1.00  0.00    -0.275 C  
HETATM   12  N   UNL     1     -12.421   9.268  70.461  1.00  0.00    -0.474 N  
HETATM   13  O   UNL     1     -13.333   7.406  71.445  1.00  0.00    -0.370 OA 
HETATM   14  H   UNL     1     -13.335   9.659  70.231  1.00  0.00     0.000 HD 
HETATM   15  C   UNL     1     -12.350   8.060  71.127  1.00  0.00    -0.218 C  
BRANCH  11  16
HETATM   16  C   UNL     1     -11.557  11.231  69.384  1.00  0.00    -0.390 A  
HETATM   17  C   UNL     1     -11.783  12.546  67.355  1.00  0.00    -0.432 A  
HETATM   18  C   UNL     1     -11.589  11.305  67.979  1.00  0.00    -0.272 A  
HETATM   19  C   UNL     1     -11.686  12.413  70.142  1.00  0.00    -0.266 A  
HETATM   20  C   UNL     1     -11.835  13.719  68.109  1.00  0.00    -0.411 A  
HETATM   21  C   UNL     1     -11.739  13.657  69.501  1.00  0.00    -0.322 A  
BRANCH  18  22
HETATM   22  O   UNL     1     -11.475  10.133  67.279  1.00  0.00    -0.164 OA 
BRANCH  22  23
HETATM   23  C   UNL     1     -10.167   9.774  66.832  1.00  0.00    -0.245 C  
HETATM   24  C   UNL     1     -10.104  10.102  65.352  1.00  0.00    -0.342 C  
ENDBRANCH  22  23
ENDBRANCH  18  22
BRANCH  21  25
HETATM   25  S   UNL     1     -11.790  15.180  70.432  1.00  0.00    -0.337 S  
HETATM   26  O   UNL     1     -11.609  14.839  71.828  1.00  0.00    -0.335 OA 
HETATM   27  O   UNL     1     -12.973  15.890  69.991  1.00  0.00    -0.158 OA 
BRANCH  25  28
HETATM   28  N   UNL     1     -10.456  16.089  69.929  1.00  0.00    -0.298 N  
HETATM   29  C   UNL     1      -9.159  15.422  69.695  1.00  0.00    -0.170 C  
HETATM   30  C   UNL     1      -9.035  14.976  68.233  1.00  0.00    -0.174 C  
HETATM   31  N   UNL     1      -9.224  16.054  67.241  1.00  0.00    -0.203 NA 
HETATM   32  C   UNL     1     -10.383  16.916  67.563  1.00  0.00    -0.318 C  
HETATM   33  C   UNL     1      -7.989  16.811  67.069  1.00  0.00    -0.197 C  
HETATM   34  C   UNL     1     -10.630  17.270  69.049  1.00  0.00    -0.247 C  
ENDBRANCH  25  28
ENDBRANCH  21  25
ENDBRANCH  11  16
ENDBRANCH   3   4
ENDBRANCH   2   3
TORSDOF 7
ENDMDL
MODEL      111
REMARK 921   NORMALIZED FREE ENERGY PREDICTED BY IDOCK:   -5.30 KCAL/MOL
REMARK 922        TOTAL FREE ENERGY PREDICTED BY IDOCK:   -8.81 KCAL/MOL
REMARK 923 INTER-LIGAND FREE ENERGY PREDICTED BY IDOCK:   -7.30 KCAL/MOL
REMARK 924 INTRA-LIGAND FREE ENERGY PREDICTED BY IDOCK:   -1.51 KCAL/MOL
REMARK 927      BINDING AFFINITY PREDICTED BY RF-SCORE:    0.00 PKD
ROOT
HETATM    1  C   UNL     1     -10.642  11.325  63.579  1.00  0.00    -0.436 C  
HETATM    2  C   UNL     1     -11.941  12.097  63.392  1.00  0.00    -0.578 C  
ENDROOT
BRANCH   2   3
HETATM    3  C   UNL     1     -12.473  12.643  64.718  1.00  0.00    -0.555 C  
BRANCH   3   4
HETATM    4  C   UNL     1     -11.538  13.616  65.356  1.00  0.00    -0.321 A  
HETATM    5  N   UNL     1     -11.592  14.904  64.971  1.00  0.00    -0.368 NA 
HETATM    6  N   UNL     1     -10.666  15.524  65.737  1.00  0.00    -0.339 NA 
HETATM    7  C   UNL     1     -10.039  14.681  66.599  1.00  0.00    -0.273 A  
HETATM    8  C   UNL     1     -10.473  16.948  65.600  1.00  0.00    -0.238 C  
HETATM    9  C   UNL     1     -10.563  13.445  66.365  1.00  0.00    -0.285 A  
HETATM   10  N   UNL     1     -10.121  12.398  67.081  1.00  0.00    -0.212 NA 
HETATM   11  C   UNL     1      -9.127  12.662  68.024  1.00  0.00    -0.207 C  
HETATM   12  N   UNL     1      -8.620  13.840  68.273  1.00  0.00    -0.171 N  
HETATM   13  O   UNL     1      -8.557  16.074  67.750  1.00  0.00    -0.161 OA 
HETATM   14  H   UNL     1      -7.913  13.938  69.003  1.00  0.00     0.000 HD 
HETATM   15  C   UNL     1      -9.021  14.957  67.567  1.00  0.00    -0.185 C  
BRANCH  11  16
HETATM   16  C   UNL     1      -8.594  11.516  68.867  1.00  0.00     0.024 A  
HETATM   17  C   UNL     1      -6.787  10.142  69.730  1.00  0.00    -0.105 A  
HETATM   18  C   UNL     1      -7.220  11.218  68.943  1.00  0.00    -0.112 A  
HETATM   19  C   UNL     1      -9.516  10.701  69.555  1.00  0.00    -0.038 A  
HETATM   20  C   UNL     1      -7.710   9.297  70.347  1.00  0.00    -0.150 A  
HETATM   21  C   UNL     1      -9.078   9.550  70.221  1.00  0.00    -0.253 A  
BRANCH  18  22
HETATM   22  O   UNL     1      -6.355  12.041  68.272  1.00  0.00    -0.049 OA 
BRANCH  22  23
HETATM   23  C   UNL     1      -5.463  11.421  67.345  1.00  0.00    -0.059 C  
HETATM   24  C   UNL     1      -6.278  11.090  66.108  1.00  0.00    -0.104 C  
ENDBRANCH  22  23
ENDBRANCH  18  22
BRANCH  21  25
HETATM   25  S   UNL     1     -10.231   8.437  71.009  1.00  0.00    -0.208 S  
HETATM   26  O   UNL     1     -11.347   9.232  71.479  1.00  0.00    -0.334 OA 
HETATM   27  O   UNL     1      -9.458   7.630  71.930  1.00  0.00    -0.142 OA 
BRANCH  25  28
HETATM   28  N   UNL     1     -10.792   7.398  69.798  1.00  0.00    -0.247 N  
HETATM   29  C   UNL     1     -10.293   7.545  68.415  1.00  0.00    -0.195 C  
HETATM   30  C   UNL     1      -9.057   6.666  68.189  1.00  0.00    -0.119 C  
HETATM   31  N   UNL     1      -9.254   5.234  68.495  1.00  0.00    -0.110 NA 
HETATM   32  C   UNL     1      -9.976   5.027  69.770  1.00  0.00    -0.249 C  
HETATM   33  C   UNL     1      -9.889   4.556  67.370  1.00  0.00    -0.157 C  
HETATM   34  C   UNL     1     -11.141   5.990  70.106  1.00  0.00    -0.361 C  
ENDBRANCH  25  28
ENDBRANCH  21  25
ENDBRANCH  11  16
ENDBRANCH   3   4
ENDBRANCH   2   3
TORSDOF 7
ENDMDL
MODEL      112
REMARK 921   NORMALIZED FREE ENERGY PREDICTED BY IDOCK:   -5.29 KCAL/MOL
REMARK 922        TOTAL FREE ENERGY PREDICTED BY IDOCK:   -8.80 KCAL/MOL
REMARK 923 INTER-LIGAND FREE ENERGY PREDICTED BY IDOCK:   -7.64 KCAL/MOL
REMARK 924 INTRA-LIGAND FREE ENERGY PREDICTED BY IDOCK:   -1.16 KCAL/MOL
REMARK 927      BINDING AFFINITY PREDICTED BY RF-SCORE:    0.00 PKD
ROOT
HETATM    1  C   UNL     1     -10.281  13.925  65.912  1.00  0.00    -0.326 C  
HETATM    2  C   UNL     1     -11.528  14.269  66.714  1.00  0.00    -0.380 C  
ENDROOT
BRANCH   2   3
HETATM    3  C   UNL     1     -11.180  14.904  68.062  1.00  0.00    -0.318 C  
BRANCH   3   4
HETATM    4  C   UNL     1     -11.817  14.196  69.211  1.00  0.00    -0.338 A  
HETATM    5  N   UNL     1     -12.660  14.886  70.001  1.00  0.00    -0.262 NA 
HETATM    6  N   UNL     1     -13.089  13.981  70.910  1.00  0.00    -0.275 NA 
HETATM    7  C   UNL     1     -12.559  12.744  70.716  1.00  0.00    -0.225 A  
HETATM    8  C   UNL     1     -14.043  14.384  71.915  1.00  0.00    -0.508 C  
HETATM    9  C   UNL     1     -11.723  12.854  69.646  1.00  0.00    -0.299 A  
HETATM   10  N   UNL     1     -11.049  11.772  69.224  1.00  0.00    -0.238 NA 
HETATM   11  C   UNL     1     -11.253  10.591  69.940  1.00  0.00    -0.307 C  
HETATM   12  N   UNL     1     -12.058  10.460  70.961  1.00  0.00    -0.357 N  
HETATM   13  O   UNL     1     -13.519  11.463  72.420  1.00  0.00    -0.236 OA 
HETATM   14  H   UNL     1     -12.161   9.547  71.404  1.00  0.00     0.000 HD 
HETATM   15  C   UNL     1     -12.773  11.535  71.453  1.00  0.00    -0.364 C  
BRANCH  11  16
HETATM   16  C   UNL     1     -10.521   9.334  69.503  1.00  0.00    -0.229 A  
HETATM   17  C   UNL     1     -10.126   6.939  69.583  1.00  0.00    -0.195 A  
HETATM   18  C   UNL     1     -10.843   8.063  70.016  1.00  0.00    -0.235 A  
HETATM   19  C   UNL     1      -9.457   9.460  68.587  1.00  0.00    -0.147 A  
HETATM   20  C   UNL     1      -9.028   7.081  68.734  1.00  0.00    -0.131 A  
HETATM   21  C   UNL     1      -8.664   8.349  68.273  1.00  0.00    -0.143 A  
BRANCH  18  22
HETATM   22  O   UNL     1     -11.893   7.981  70.893  1.00  0.00    -0.288 OA 
BRANCH  22  23
HETATM   23  C   UNL     1     -11.822   6.960  71.889  1.00  0.00    -0.315 C  
HETATM   24  C   UNL     1     -10.956   7.502  73.011  1.00  0.00    -0.443 C  
ENDBRANCH  22  23
ENDBRANCH  18  22
BRANCH  21  25
HETATM   25  S   UNL     1      -7.242   8.495  67.203  1.00  0.00    -0.080 S  
HETATM   26  O   UNL     1      -6.332   7.422  67.544  1.00  0.00    -0.048 OA 
HETATM   27  O   UNL     1      -6.815   9.878  67.275  1.00  0.00    -0.080 OA 
BRANCH  25  28
HETATM   28  N   UNL     1      -7.804   8.237  65.629  1.00  0.00    -0.098 N  
HETATM   29  C   UNL     1      -9.236   8.426  65.320  1.00  0.00     0.185 C  
HETATM   30  C   UNL     1      -9.505   9.865  64.866  1.00  0.00    -0.291 C  
HETATM   31  N   UNL     1      -8.688  10.314  63.720  1.00  0.00    -0.189 NA 
HETATM   32  C   UNL     1      -7.266   9.932  63.862  1.00  0.00    -0.126 C  
HETATM   33  C   UNL     1      -9.273   9.854  62.465  1.00  0.00    -0.283 C  
HETATM   34  C   UNL     1      -6.947   8.540  64.457  1.00  0.00    -0.073 C  
ENDBRANCH  25  28
ENDBRANCH  21  25
ENDBRANCH  11  16
ENDBRANCH   3   4
ENDBRANCH   2   3
TORSDOF 7
ENDMDL
MODEL      113
REMARK 921   NORMALIZED FREE ENERGY PREDICTED BY IDOCK:   -5.27 KCAL/MOL
REMARK 922        TOTAL FREE ENERGY PREDICTED BY IDOCK:   -8.77 KCAL/MOL
REMARK 923 INTER-LIGAND FREE ENERGY PREDICTED BY IDOCK:   -7.42 KCAL/MOL
REMARK 924 INTRA-LIGAND FREE ENERGY PREDICTED BY IDOCK:   -1.35 KCAL/MOL
REMARK 927      BINDING AFFINITY PREDICTED BY RF-SCORE:    0.00 PKD
ROOT
HETATM    1  C   UNL     1      -7.576  15.152  67.324  1.00  0.00    -0.236 C  
HETATM    2  C   UNL     1      -8.360  14.557  68.485  1.00  0.00    -0.160 C  
ENDROOT
BRANCH   2   3
HETATM    3  C   UNL     1      -9.857  14.852  68.371  1.00  0.00    -0.216 C  
BRANCH   3   4
HETATM    4  C   UNL     1     -10.453  14.316  67.112  1.00  0.00    -0.266 A  
HETATM    5  N   UNL     1     -11.216  15.134  66.363  1.00  0.00    -0.317 NA 
HETATM    6  N   UNL     1     -11.573  14.381  65.298  1.00  0.00    -0.342 NA 
HETATM    7  C   UNL     1     -11.055  13.125  65.338  1.00  0.00    -0.278 A  
HETATM    8  C   UNL     1     -12.389  14.965  64.261  1.00  0.00    -0.277 C  
HETATM    9  C   UNL     1     -10.349  13.045  66.500  1.00  0.00    -0.274 A  
HETATM   10  N   UNL     1      -9.722  11.898  66.811  1.00  0.00    -0.200 NA 
HETATM   11  C   UNL     1      -9.857  10.848  65.903  1.00  0.00    -0.236 C  
HETATM   12  N   UNL     1     -10.520  10.906  64.777  1.00  0.00    -0.325 N  
HETATM   13  O   UNL     1     -11.847  12.142  63.371  1.00  0.00    -0.463 OA 
HETATM   14  H   UNL     1     -10.539  10.091  64.164  1.00  0.00     0.000 HD 
HETATM   15  C   UNL     1     -11.195  12.051  64.402  1.00  0.00    -0.344 C  
BRANCH  11  16
HETATM   16  C   UNL     1      -9.165   9.529  66.200  1.00  0.00    -0.226 A  
HETATM   17  C   UNL     1      -7.433   7.873  65.804  1.00  0.00    -0.078 A  
HETATM   18  C   UNL     1      -8.024   9.105  65.491  1.00  0.00    -0.104 A  
HETATM   19  C   UNL     1      -9.715   8.688  67.190  1.00  0.00    -0.248 A  
HETATM   20  C   UNL     1      -8.026   7.015  66.732  1.00  0.00    -0.108 A  
HETATM   21  C   UNL     1      -9.195   7.404  67.391  1.00  0.00    -0.132 A  
BRANCH  18  22
HETATM   22  O   UNL     1      -7.512   9.956  64.548  1.00  0.00    -0.130 OA 
BRANCH  22  23
HETATM   23  C   UNL     1      -7.670   9.573  63.181  1.00  0.00    -0.125 C  
HETATM   24  C   UNL     1      -8.126  10.810  62.430  1.00  0.00    -0.238 C  
ENDBRANCH  22  23
ENDBRANCH  18  22
BRANCH  21  25
HETATM   25  S   UNL     1      -9.936   6.274  68.558  1.00  0.00    -0.154 S  
HETATM   26  O   UNL     1      -9.152   5.057  68.538  1.00  0.00    -0.105 OA 
HETATM   27  O   UNL     1     -11.353   6.246  68.259  1.00  0.00    -0.289 OA 
BRANCH  25  28
HETATM   28  N   UNL     1      -9.770   6.989  70.082  1.00  0.00    -0.175 N  
HETATM   29  C   UNL     1     -10.967   7.473  70.799  1.00  0.00    -0.252 C  
HETATM   30  C   UNL     1     -11.538   6.373  71.703  1.00  0.00    -0.310 C  
HETATM   31  N   UNL     1     -10.576   5.807  72.669  1.00  0.00    -0.210 NA 
HETATM   32  C   UNL     1      -9.260   5.525  72.052  1.00  0.00    -0.140 C  
HETATM   33  C   UNL     1     -10.474   6.662  73.848  1.00  0.00    -0.326 C  
HETATM   34  C   UNL     1      -8.713   6.541  71.021  1.00  0.00    -0.138 C  
ENDBRANCH  25  28
ENDBRANCH  21  25
ENDBRANCH  11  16
ENDBRANCH   3   4
ENDBRANCH   2   3
TORSDOF 7
ENDMDL
MODEL      114
REMARK 921   NORMALIZED FREE ENERGY PREDICTED BY IDOCK:   -5.26 KCAL/MOL
REMARK 922        TOTAL FREE ENERGY PREDICTED BY IDOCK:   -8.76 KCAL/MOL
REMARK 923 INTER-LIGAND FREE ENERGY PREDICTED BY IDOCK:   -8.09 KCAL/MOL
REMARK 924 INTRA-LIGAND FREE ENERGY PREDICTED BY IDOCK:   -0.66 KCAL/MOL
REMARK 927      BINDING AFFINITY PREDICTED BY RF-SCORE:    0.00 PKD
ROOT
HETATM    1  C   UNL     1      -5.769  11.840  67.019  1.00  0.00    -0.134 C  
HETATM    2  C   UNL     1      -5.896  11.597  68.517  1.00  0.00    -0.049 C  
ENDROOT
BRANCH   2   3
HETATM    3  C   UNL     1      -5.855  10.105  68.855  1.00  0.00    -0.037 C  
BRANCH   3   4
HETATM    4  C   UNL     1      -7.027   9.361  68.309  1.00  0.00    -0.071 A  
HETATM    5  N   UNL     1      -6.802   8.345  67.456  1.00  0.00    -0.069 NA 
HETATM    6  N   UNL     1      -8.034   7.862  67.173  1.00  0.00    -0.115 NA 
HETATM    7  C   UNL     1      -9.026   8.525  67.823  1.00  0.00    -0.136 A  
HETATM    8  C   UNL     1      -8.163   6.729  66.289  1.00  0.00    -0.120 C  
HETATM    9  C   UNL     1      -8.414   9.506  68.545  1.00  0.00    -0.119 A  
HETATM   10  N   UNL     1      -9.161  10.333  69.294  1.00  0.00    -0.192 NA 
HETATM   11  C   UNL     1     -10.541  10.126  69.266  1.00  0.00    -0.230 C  
HETATM   12  N   UNL     1     -11.147   9.185  68.591  1.00  0.00    -0.450 N  
HETATM   13  O   UNL     1     -10.968   7.428  67.126  1.00  0.00    -0.312 OA 
HETATM   14  H   UNL     1     -12.162   9.097  68.655  1.00  0.00     0.000 HD 
HETATM   15  C   UNL     1     -10.440   8.307  67.792  1.00  0.00    -0.215 C  
BRANCH  11  16
HETATM   16  C   UNL     1     -11.434  11.029  70.100  1.00  0.00    -0.383 A  
HETATM   17  C   UNL     1     -13.219  11.398  71.705  1.00  0.00    -0.472 A  
HETATM   18  C   UNL     1     -12.417  10.515  70.967  1.00  0.00    -0.400 A  
HETATM   19  C   UNL     1     -11.297  12.426  69.961  1.00  0.00     0.024 A  
HETATM   20  C   UNL     1     -13.127  12.776  71.506  1.00  0.00    -0.380 A  
HETATM   21  C   UNL     1     -12.197  13.288  70.598  1.00  0.00    -0.338 A  
BRANCH  18  22
HETATM   22  O   UNL     1     -12.509   9.154  71.086  1.00  0.00    -0.305 OA 
BRANCH  22  23
HETATM   23  C   UNL     1     -12.883   8.642  72.366  1.00  0.00    -0.355 C  
HETATM   24  C   UNL     1     -14.296   8.104  72.227  1.00  0.00    -0.398 C  
ENDBRANCH  22  23
ENDBRANCH  18  22
BRANCH  21  25
HETATM   25  S   UNL     1     -12.120  15.055  70.356  1.00  0.00    -0.362 S  
HETATM   26  O   UNL     1     -10.843  15.506  70.866  1.00  0.00    -0.325 OA 
HETATM   27  O   UNL     1     -13.359  15.595  70.879  1.00  0.00    -0.556 OA 
BRANCH  25  28
HETATM   28  N   UNL     1     -12.144  15.307  68.683  1.00  0.00    -0.211 N  
HETATM   29  C   UNL     1     -11.590  16.555  68.121  1.00  0.00     0.098 C  
HETATM   30  C   UNL     1     -10.106  16.383  67.778  1.00  0.00    -0.262 C  
HETATM   31  N   UNL     1      -9.808  15.256  66.870  1.00  0.00    -0.231 NA 
HETATM   32  C   UNL     1     -10.537  14.024  67.248  1.00  0.00    -0.273 C  
HETATM   33  C   UNL     1     -10.039  15.645  65.483  1.00  0.00    -0.362 C  
HETATM   34  C   UNL     1     -11.996  14.170  67.742  1.00  0.00    -0.354 C  
ENDBRANCH  25  28
ENDBRANCH  21  25
ENDBRANCH  11  16
ENDBRANCH   3   4
ENDBRANCH   2   3
TORSDOF 7
ENDMDL
MODEL      115
REMARK 921   NORMALIZED FREE ENERGY PREDICTED BY IDOCK:   -5.24 KCAL/MOL
REMARK 922        TOTAL FREE ENERGY PREDICTED BY IDOCK:   -8.72 KCAL/MOL
REMARK 923 INTER-LIGAND FREE ENERGY PREDICTED BY IDOCK:   -7.37 KCAL/MOL
REMARK 924 INTRA-LIGAND FREE ENERGY PREDICTED BY IDOCK:   -1.35 KCAL/MOL
REMARK 927      BINDING AFFINITY PREDICTED BY RF-SCORE:    0.00 PKD
ROOT
HETATM    1  C   UNL     1     -11.030  11.815  63.457  1.00  0.00    -0.499 C  
HETATM    2  C   UNL     1      -9.598  11.496  63.049  1.00  0.00    -0.371 C  
ENDROOT
BRANCH   2   3
HETATM    3  C   UNL     1      -9.428  10.020  62.684  1.00  0.00    -0.232 C  
BRANCH   3   4
HETATM    4  C   UNL     1      -8.594   9.277  63.674  1.00  0.00    -0.196 A  
HETATM    5  N   UNL     1      -7.569   8.533  63.219  1.00  0.00    -0.113 NA 
HETATM    6  N   UNL     1      -7.000   8.023  64.336  1.00  0.00    -0.070 NA 
HETATM    7  C   UNL     1      -7.618   8.427  65.477  1.00  0.00    -0.090 A  
HETATM    8  C   UNL     1      -5.834   7.181  64.214  1.00  0.00    -0.037 C  
HETATM    9  C   UNL     1      -8.657   9.216  65.085  1.00  0.00    -0.176 A  
HETATM   10  N   UNL     1      -9.457   9.760  66.017  1.00  0.00    -0.193 NA 
HETATM   11  C   UNL     1      -9.162   9.457  67.347  1.00  0.00    -0.126 C  
HETATM   12  N   UNL     1      -8.164   8.712  67.745  1.00  0.00    -0.117 N  
HETATM   13  O   UNL     1      -6.379   7.392  67.167  1.00  0.00    -0.051 OA 
HETATM   14  H   UNL     1      -8.013   8.570  68.745  1.00  0.00     0.000 HD 
HETATM   15  C   UNL     1      -7.309   8.114  66.839  1.00  0.00    -0.087 C  
BRANCH  11  16
HETATM   16  C   UNL     1     -10.030  10.049  68.443  1.00  0.00    -0.178 A  
HETATM   17  C   UNL     1     -11.337   9.871  70.483  1.00  0.00    -0.399 A  
HETATM   18  C   UNL     1     -10.532   9.271  69.504  1.00  0.00    -0.220 A  
HETATM   19  C   UNL     1     -10.376  11.414  68.364  1.00  0.00    -0.209 A  
HETATM   20  C   UNL     1     -11.735  11.203  70.356  1.00  0.00    -0.415 A  
HETATM   21  C   UNL     1     -11.292  11.962  69.270  1.00  0.00    -0.277 A  
BRANCH  18  22
HETATM   22  O   UNL     1     -10.162   7.953  69.554  1.00  0.00    -0.198 OA 
BRANCH  22  23
HETATM   23  C   UNL     1     -11.205   6.986  69.422  1.00  0.00    -0.100 C  
HETATM   24  C   UNL     1     -11.130   6.451  68.004  1.00  0.00    -0.365 C  
ENDBRANCH  22  23
ENDBRANCH  18  22
BRANCH  21  25
HETATM   25  S   UNL     1     -11.836  13.657  69.131  1.00  0.00    -0.355 S  
HETATM   26  O   UNL     1     -12.710  13.923  70.254  1.00  0.00    -0.296 OA 
HETATM   27  O   UNL     1     -12.305  13.827  67.771  1.00  0.00    -0.251 OA 
BRANCH  25  28
HETATM   28  N   UNL     1     -10.451  14.615  69.296  1.00  0.00    -0.235 N  
HETATM   29  C   UNL     1      -9.418  14.599  68.240  1.00  0.00    -0.211 C  
HETATM   30  C   UNL     1      -9.692  15.691  67.199  1.00  0.00    -0.223 C  
HETATM   31  N   UNL     1      -9.814  17.055  67.752  1.00  0.00    -0.264 NA 
HETATM   32  C   UNL     1     -10.653  17.092  68.971  1.00  0.00    -0.282 C  
HETATM   33  C   UNL     1      -8.494  17.642  67.957  1.00  0.00    -0.244 C  
HETATM   34  C   UNL     1     -10.513  15.928  69.981  1.00  0.00    -0.291 C  
ENDBRANCH  25  28
ENDBRANCH  21  25
ENDBRANCH  11  16
ENDBRANCH   3   4
ENDBRANCH   2   3
TORSDOF 7
ENDMDL
MODEL      116
REMARK 921   NORMALIZED FREE ENERGY PREDICTED BY IDOCK:   -5.17 KCAL/MOL
REMARK 922        TOTAL FREE ENERGY PREDICTED BY IDOCK:   -8.64 KCAL/MOL
REMARK 923 INTER-LIGAND FREE ENERGY PREDICTED BY IDOCK:   -7.87 KCAL/MOL
REMARK 924 INTRA-LIGAND FREE ENERGY PREDICTED BY IDOCK:   -0.77 KCAL/MOL
REMARK 927      BINDING AFFINITY PREDICTED BY RF-SCORE:    0.00 PKD
ROOT
HETATM    1  C   UNL     1     -10.556   6.608  72.772  1.00  0.00    -0.260 C  
HETATM    2  C   UNL     1     -10.012   7.921  73.318  1.00  0.00    -0.331 C  
ENDROOT
BRANCH   2   3
HETATM    3  C   UNL     1      -8.521   8.088  73.017  1.00  0.00    -0.252 C  
BRANCH   3   4
HETATM    4  C   UNL     1      -8.207   7.920  71.567  1.00  0.00    -0.109 A  
HETATM    5  N   UNL     1      -7.442   6.879  71.193  1.00  0.00    -0.081 NA 
HETATM    6  N   UNL     1      -7.366   6.982  69.846  1.00  0.00    -0.083 NA 
HETATM    7  C   UNL     1      -8.065   8.040  69.356  1.00  0.00    -0.118 A  
HETATM    8  C   UNL     1      -6.627   5.991  69.101  1.00  0.00    -0.051 C  
HETATM    9  C   UNL     1      -8.598   8.674  70.437  1.00  0.00    -0.153 A  
HETATM   10  N   UNL     1      -9.347   9.774  70.251  1.00  0.00    -0.234 NA 
HETATM   11  C   UNL     1      -9.513  10.199  68.932  1.00  0.00    -0.182 C  
HETATM   12  N   UNL     1      -9.020   9.600  67.880  1.00  0.00    -0.119 N  
HETATM   13  O   UNL     1      -7.733   7.893  67.047  1.00  0.00    -0.097 OA 
HETATM   14  H   UNL     1      -9.220   9.974  66.952  1.00  0.00     0.000 HD 
HETATM   15  C   UNL     1      -8.234   8.471  68.001  1.00  0.00    -0.120 C  
BRANCH  11  16
HETATM   16  C   UNL     1     -10.354  11.435  68.662  1.00  0.00    -0.219 A  
HETATM   17  C   UNL     1     -12.153  12.973  69.210  1.00  0.00    -0.251 A  
HETATM   18  C   UNL     1     -11.403  11.828  69.515  1.00  0.00    -0.248 A  
HETATM   19  C   UNL     1     -10.099  12.181  67.493  1.00  0.00    -0.204 A  
HETATM   20  C   UNL     1     -11.942  13.662  68.015  1.00  0.00    -0.385 A  
HETATM   21  C   UNL     1     -10.945  13.236  67.133  1.00  0.00    -0.272 A  
BRANCH  18  22
HETATM   22  O   UNL     1     -11.611  11.086  70.648  1.00  0.00    -0.312 OA 
BRANCH  22  23
HETATM   23  C   UNL     1     -12.892  11.201  71.268  1.00  0.00    -0.412 C  
HETATM   24  C   UNL     1     -13.359   9.790  71.575  1.00  0.00    -0.468 C  
ENDBRANCH  22  23
ENDBRANCH  18  22
BRANCH  21  25
HETATM   25  S   UNL     1     -10.716  14.131  65.605  1.00  0.00    -0.329 S  
HETATM   26  O   UNL     1     -11.997  14.699  65.240  1.00  0.00    -0.354 OA 
HETATM   27  O   UNL     1     -10.021  13.234  64.704  1.00  0.00    -0.251 OA 
BRANCH  25  28
HETATM   28  N   UNL     1      -9.652  15.399  65.952  1.00  0.00    -0.343 N  
HETATM   29  C   UNL     1     -10.167  16.779  66.067  1.00  0.00    -0.346 C  
HETATM   30  C   UNL     1     -10.549  17.094  67.518  1.00  0.00    -0.323 C  
HETATM   31  N   UNL     1      -9.467  16.884  68.502  1.00  0.00    -0.257 NA 
HETATM   32  C   UNL     1      -8.746  15.611  68.280  1.00  0.00    -0.174 C  
HETATM   33  C   UNL     1      -8.576  18.039  68.532  1.00  0.00    -0.297 C  
HETATM   34  C   UNL     1      -8.469  15.182  66.819  1.00  0.00    -0.237 C  
ENDBRANCH  25  28
ENDBRANCH  21  25
ENDBRANCH  11  16
ENDBRANCH   3   4
ENDBRANCH   2   3
TORSDOF 7
ENDMDL
MODEL      117
REMARK 921   NORMALIZED FREE ENERGY PREDICTED BY IDOCK:   -5.14 KCAL/MOL
REMARK 922        TOTAL FREE ENERGY PREDICTED BY IDOCK:   -8.59 KCAL/MOL
REMARK 923 INTER-LIGAND FREE ENERGY PREDICTED BY IDOCK:   -7.43 KCAL/MOL
REMARK 924 INTRA-LIGAND FREE ENERGY PREDICTED BY IDOCK:   -1.15 KCAL/MOL
REMARK 927      BINDING AFFINITY PREDICTED BY RF-SCORE:    0.00 PKD
ROOT
HETATM    1  C   UNL     1     -12.335  12.471  64.727  1.00  0.00    -0.544 C  
HETATM    2  C   UNL     1     -12.729  13.832  65.283  1.00  0.00    -0.481 C  
ENDROOT
BRANCH   2   3
HETATM    3  C   UNL     1     -12.337  13.979  66.754  1.00  0.00    -0.368 C  
BRANCH   3   4
HETATM    4  C   UNL     1     -10.865  14.141  66.942  1.00  0.00    -0.296 A  
HETATM    5  N   UNL     1     -10.316  15.346  66.705  1.00  0.00    -0.272 NA 
HETATM    6  N   UNL     1      -9.004  15.183  66.990  1.00  0.00    -0.218 NA 
HETATM    7  C   UNL     1      -8.706  13.925  67.410  1.00  0.00    -0.203 A  
HETATM    8  C   UNL     1      -8.107  16.307  66.866  1.00  0.00    -0.235 C  
HETATM    9  C   UNL     1      -9.875  13.226  67.371  1.00  0.00    -0.227 A  
HETATM   10  N   UNL     1      -9.881  11.933  67.734  1.00  0.00    -0.180 NA 
HETATM   11  C   UNL     1      -8.656  11.389  68.122  1.00  0.00    -0.153 C  
HETATM   12  N   UNL     1      -7.526  12.043  68.178  1.00  0.00    -0.103 N  
HETATM   13  O   UNL     1      -6.408  14.015  67.823  1.00  0.00    -0.156 OA 
HETATM   14  H   UNL     1      -6.685  11.563  68.501  1.00  0.00     0.000 HD 
HETATM   15  C   UNL     1      -7.448  13.372  67.809  1.00  0.00    -0.160 C  
BRANCH  11  16
HETATM   16  C   UNL     1      -8.605   9.932  68.550  1.00  0.00    -0.117 A  
HETATM   17  C   UNL     1      -8.653   7.550  68.076  1.00  0.00    -0.122 A  
HETATM   18  C   UNL     1      -8.696   8.876  67.623  1.00  0.00    -0.124 A  
HETATM   19  C   UNL     1      -8.507   9.637  69.925  1.00  0.00    -0.211 A  
HETATM   20  C   UNL     1      -8.631   7.268  69.443  1.00  0.00    -0.134 A  
HETATM   21  C   UNL     1      -8.606   8.313  70.369  1.00  0.00    -0.134 A  
BRANCH  18  22
HETATM   22  O   UNL     1      -8.775   9.203  66.295  1.00  0.00    -0.130 OA 
BRANCH  22  23
HETATM   23  C   UNL     1      -7.890   8.518  65.408  1.00  0.00    -0.107 C  
HETATM   24  C   UNL     1      -6.605   9.323  65.362  1.00  0.00    -0.069 C  
ENDBRANCH  22  23
ENDBRANCH  18  22
BRANCH  21  25
HETATM   25  S   UNL     1      -8.597   7.914  72.110  1.00  0.00    -0.155 S  
HETATM   26  O   UNL     1      -7.768   8.898  72.774  1.00  0.00    -0.366 OA 
HETATM   27  O   UNL     1      -8.290   6.501  72.205  1.00  0.00    -0.107 OA 
BRANCH  25  28
HETATM   28  N   UNL     1     -10.189   8.107  72.649  1.00  0.00    -0.307 N  
HETATM   29  C   UNL     1     -11.109   8.999  71.914  1.00  0.00    -0.363 C  
HETATM   30  C   UNL     1     -11.879   8.217  70.843  1.00  0.00    -0.218 C  
HETATM   31  N   UNL     1     -12.621   7.044  71.348  1.00  0.00    -0.384 NA 
HETATM   32  C   UNL     1     -11.819   6.236  72.293  1.00  0.00    -0.278 C  
HETATM   33  C   UNL     1     -13.905   7.456  71.908  1.00  0.00    -0.245 C  
HETATM   34  C   UNL     1     -10.912   6.988  73.298  1.00  0.00    -0.262 C  
ENDBRANCH  25  28
ENDBRANCH  21  25
ENDBRANCH  11  16
ENDBRANCH   3   4
ENDBRANCH   2   3
TORSDOF 7
ENDMDL
MODEL      118
REMARK 921   NORMALIZED FREE ENERGY PREDICTED BY IDOCK:   -5.13 KCAL/MOL
REMARK 922        TOTAL FREE ENERGY PREDICTED BY IDOCK:   -8.58 KCAL/MOL
REMARK 923 INTER-LIGAND FREE ENERGY PREDICTED BY IDOCK:   -7.41 KCAL/MOL
REMARK 924 INTRA-LIGAND FREE ENERGY PREDICTED BY IDOCK:   -1.16 KCAL/MOL
REMARK 927      BINDING AFFINITY PREDICTED BY RF-SCORE:    0.00 PKD
ROOT
HETATM    1  C   UNL     1     -12.192  14.208  64.335  1.00  0.00    -0.466 C  
HETATM    2  C   UNL     1     -12.180  12.950  65.191  1.00  0.00    -0.519 C  
ENDROOT
BRANCH   2   3
HETATM    3  C   UNL     1     -10.990  12.929  66.152  1.00  0.00    -0.304 C  
BRANCH   3   4
HETATM    4  C   UNL     1     -11.405  12.752  67.575  1.00  0.00    -0.312 A  
HETATM    5  N   UNL     1     -11.980  13.790  68.209  1.00  0.00    -0.370 NA 
HETATM    6  N   UNL     1     -12.264  13.316  69.444  1.00  0.00    -0.222 NA 
HETATM    7  C   UNL     1     -11.902  12.016  69.609  1.00  0.00    -0.333 A  
HETATM    8  C   UNL     1     -12.923  14.176  70.397  1.00  0.00    -0.093 C  
HETATM    9  C   UNL     1     -11.329  11.632  68.434  1.00  0.00    -0.279 A  
HETATM   10  N   UNL     1     -10.867  10.377  68.308  1.00  0.00    -0.235 NA 
HETATM   11  C   UNL     1     -11.002   9.547  69.422  1.00  0.00    -0.170 C  
HETATM   12  N   UNL     1     -11.558   9.892  70.554  1.00  0.00    -0.290 N  
HETATM   13  O   UNL     1     -12.551  11.541  71.803  1.00  0.00    -0.260 OA 
HETATM   14  H   UNL     1     -11.635   9.204  71.304  1.00  0.00     0.000 HD 
HETATM   15  C   UNL     1     -12.045  11.169  70.754  1.00  0.00    -0.357 C  
BRANCH  11  16
HETATM   16  C   UNL     1     -10.502   8.116  69.334  1.00  0.00    -0.223 A  
HETATM   17  C   UNL     1     -10.662   5.747  69.848  1.00  0.00    -0.412 A  
HETATM   18  C   UNL     1     -11.176   7.047  69.955  1.00  0.00    -0.269 A  
HETATM   19  C   UNL     1      -9.298   7.865  68.643  1.00  0.00    -0.145 A  
HETATM   20  C   UNL     1      -9.433   5.519  69.226  1.00  0.00    -0.171 A  
HETATM   21  C   UNL     1      -8.728   6.587  68.665  1.00  0.00    -0.123 A  
BRANCH  18  22
HETATM   22  O   UNL     1     -12.348   7.329  70.605  1.00  0.00    -0.226 OA 
BRANCH  22  23
HETATM   23  C   UNL     1     -12.525   6.750  71.898  1.00  0.00    -0.312 C  
HETATM   24  C   UNL     1     -11.487   7.382  72.807  1.00  0.00    -0.312 C  
ENDBRANCH  22  23
ENDBRANCH  18  22
BRANCH  21  25
HETATM   25  S   UNL     1      -7.151   6.260  67.894  1.00  0.00    -0.087 S  
HETATM   26  O   UNL     1      -6.484   5.248  68.686  1.00  0.00    -0.037 OA 
HETATM   27  O   UNL     1      -6.531   7.549  67.666  1.00  0.00    -0.053 OA 
BRANCH  25  28
HETATM   28  N   UNL     1      -7.493   5.604  66.373  1.00  0.00    -0.085 N  
HETATM   29  C   UNL     1      -7.154   4.195  66.088  1.00  0.00    -0.067 C  
HETATM   30  C   UNL     1      -8.335   3.276  66.423  1.00  0.00    -0.099 C  
HETATM   31  N   UNL     1      -9.601   3.627  65.750  1.00  0.00    -0.166 NA 
HETATM   32  C   UNL     1      -9.875   5.081  65.792  1.00  0.00    -0.129 C  
HETATM   33  C   UNL     1      -9.624   3.089  64.394  1.00  0.00    -0.150 C  
HETATM   34  C   UNL     1      -8.681   6.047  65.604  1.00  0.00    -0.137 C  
ENDBRANCH  25  28
ENDBRANCH  21  25
ENDBRANCH  11  16
ENDBRANCH   3   4
ENDBRANCH   2   3
TORSDOF 7
ENDMDL
MODEL      119
REMARK 921   NORMALIZED FREE ENERGY PREDICTED BY IDOCK:   -5.12 KCAL/MOL
REMARK 922        TOTAL FREE ENERGY PREDICTED BY IDOCK:   -8.56 KCAL/MOL
REMARK 923 INTER-LIGAND FREE ENERGY PREDICTED BY IDOCK:   -7.27 KCAL/MOL
REMARK 924 INTRA-LIGAND FREE ENERGY PREDICTED BY IDOCK:   -1.29 KCAL/MOL
REMARK 927      BINDING AFFINITY PREDICTED BY RF-SCORE:    0.00 PKD
ROOT
HETATM    1  C   UNL     1     -11.909  11.851  63.476  1.00  0.00    -0.560 C  
HETATM    2  C   UNL     1     -10.407  12.092  63.438  1.00  0.00    -0.468 C  
ENDROOT
BRANCH   2   3
HETATM    3  C   UNL     1      -9.637  10.821  63.071  1.00  0.00    -0.381 C  
BRANCH   3   4
HETATM    4  C   UNL     1      -9.071  10.129  64.266  1.00  0.00    -0.250 A  
HETATM    5  N   UNL     1      -8.838   8.806  64.191  1.00  0.00     0.012 NA 
HETATM    6  N   UNL     1      -8.307   8.487  65.393  1.00  0.00    -0.148 NA 
HETATM    7  C   UNL     1      -8.182   9.560  66.219  1.00  0.00    -0.115 A  
HETATM    8  C   UNL     1      -7.909   7.124  65.652  1.00  0.00    -0.112 C  
HETATM    9  C   UNL     1      -8.683  10.625  65.532  1.00  0.00    -0.188 A  
HETATM   10  N   UNL     1      -8.692  11.836  66.113  1.00  0.00    -0.117 NA 
HETATM   11  C   UNL     1      -8.187  11.908  67.412  1.00  0.00    -0.164 C  
HETATM   12  N   UNL     1      -7.692  10.902  68.084  1.00  0.00    -0.100 N  
HETATM   13  O   UNL     1      -7.230   8.656  68.152  1.00  0.00    -0.083 OA 
HETATM   14  H   UNL     1      -7.321  11.061  69.022  1.00  0.00     0.000 HD 
HETATM   15  C   UNL     1      -7.662   9.629  67.550  1.00  0.00    -0.095 C  
BRANCH  11  16
HETATM   16  C   UNL     1      -8.168  13.254  68.116  1.00  0.00    -0.160 A  
HETATM   17  C   UNL     1      -7.082  14.963  69.457  1.00  0.00    -0.184 A  
HETATM   18  C   UNL     1      -7.038  13.716  68.819  1.00  0.00    -0.103 A  
HETATM   19  C   UNL     1      -9.339  14.040  68.098  1.00  0.00    -0.201 A  
HETATM   20  C   UNL     1      -8.267  15.700  69.497  1.00  0.00    -0.175 A  
HETATM   21  C   UNL     1      -9.409  15.215  68.856  1.00  0.00    -0.207 A  
BRANCH  18  22
HETATM   22  O   UNL     1      -5.916  12.930  68.801  1.00  0.00    -0.066 OA 
BRANCH  22  23
HETATM   23  C   UNL     1      -5.171  12.844  70.017  1.00  0.00    -0.095 C  
HETATM   24  C   UNL     1      -5.513  11.506  70.646  1.00  0.00    -0.142 C  
ENDBRANCH  22  23
ENDBRANCH  18  22
BRANCH  21  25
HETATM   25  S   UNL     1     -10.912  16.175  68.943  1.00  0.00    -0.345 S  
HETATM   26  O   UNL     1     -11.006  16.710  70.285  1.00  0.00    -0.300 OA 
HETATM   27  O   UNL     1     -11.966  15.339  68.404  1.00  0.00    -0.303 OA 
BRANCH  25  28
HETATM   28  N   UNL     1     -10.713  17.466  67.868  1.00  0.00    -0.384 N  
HETATM   29  C   UNL     1     -10.275  18.783  68.375  1.00  0.00    -0.361 C  
HETATM   30  C   UNL     1      -8.747  18.897  68.334  1.00  0.00    -0.345 C  
HETATM   31  N   UNL     1      -8.144  18.651  67.009  1.00  0.00    -0.246 NA 
HETATM   32  C   UNL     1      -8.727  17.467  66.338  1.00  0.00    -0.242 C  
HETATM   33  C   UNL     1      -8.213  19.855  66.186  1.00  0.00    -0.322 C  
HETATM   34  C   UNL     1     -10.250  17.234  66.478  1.00  0.00    -0.325 C  
ENDBRANCH  25  28
ENDBRANCH  21  25
ENDBRANCH  11  16
ENDBRANCH   3   4
ENDBRANCH   2   3
TORSDOF 7
ENDMDL
MODEL      120
REMARK 921   NORMALIZED FREE ENERGY PREDICTED BY IDOCK:   -5.12 KCAL/MOL
REMARK 922        TOTAL FREE ENERGY PREDICTED BY IDOCK:   -8.56 KCAL/MOL
REMARK 923 INTER-LIGAND FREE ENERGY PREDICTED BY IDOCK:   -7.54 KCAL/MOL
REMARK 924 INTRA-LIGAND FREE ENERGY PREDICTED BY IDOCK:   -1.02 KCAL/MOL
REMARK 927      BINDING AFFINITY PREDICTED BY RF-SCORE:    0.00 PKD
ROOT
HETATM    1  C   UNL     1      -5.573   4.706  71.746  1.00  0.00    -0.008 C  
HETATM    2  C   UNL     1      -5.777   5.925  72.635  1.00  0.00    -0.035 C  
ENDROOT
BRANCH   2   3
HETATM    3  C   UNL     1      -6.503   7.051  71.896  1.00  0.00    -0.048 C  
BRANCH   3   4
HETATM    4  C   UNL     1      -7.988   6.917  71.963  1.00  0.00    -0.095 A  
HETATM    5  N   UNL     1      -8.524   6.213  72.977  1.00  0.00    -0.119 NA 
HETATM    6  N   UNL     1      -9.859   6.302  72.781  1.00  0.00    -0.166 NA 
HETATM    7  C   UNL     1     -10.187   7.045  71.691  1.00  0.00    -0.194 A  
HETATM    8  C   UNL     1     -10.756   5.669  73.718  1.00  0.00    -0.242 C  
HETATM    9  C   UNL     1      -9.008   7.437  71.133  1.00  0.00    -0.143 A  
HETATM   10  N   UNL     1      -9.025   8.192  70.022  1.00  0.00    -0.142 NA 
HETATM   11  C   UNL     1     -10.282   8.515  69.506  1.00  0.00    -0.206 C  
HETATM   12  N   UNL     1     -11.424   8.160  70.032  1.00  0.00    -0.465 N  
HETATM   13  O   UNL     1     -12.524   7.000  71.679  1.00  0.00    -0.341 OA 
HETATM   14  H   UNL     1     -12.294   8.468  69.595  1.00  0.00     0.000 HD 
HETATM   15  C   UNL     1     -11.478   7.375  71.168  1.00  0.00    -0.279 C  
BRANCH  11  16
HETATM   16  C   UNL     1     -10.361   9.372  68.255  1.00  0.00    -0.251 A  
HETATM   17  C   UNL     1     -10.159   9.697  65.856  1.00  0.00    -0.304 A  
HETATM   18  C   UNL     1     -10.078   8.857  66.975  1.00  0.00    -0.261 A  
HETATM   19  C   UNL     1     -10.687  10.737  68.393  1.00  0.00    -0.255 A  
HETATM   20  C   UNL     1     -10.409  11.062  66.010  1.00  0.00    -0.311 A  
HETATM   21  C   UNL     1     -10.627  11.590  67.285  1.00  0.00    -0.228 A  
BRANCH  18  22
HETATM   22  O   UNL     1      -9.780   7.523  66.881  1.00  0.00    -0.180 OA 
BRANCH  22  23
HETATM   23  C   UNL     1      -8.445   7.187  66.498  1.00  0.00    -0.125 C  
HETATM   24  C   UNL     1      -8.547   6.020  65.533  1.00  0.00    -0.145 C  
ENDBRANCH  22  23
ENDBRANCH  18  22
BRANCH  21  25
HETATM   25  S   UNL     1     -10.925  13.344  67.446  1.00  0.00    -0.277 S  
HETATM   26  O   UNL     1     -12.280  13.594  66.999  1.00  0.00    -0.389 OA 
HETATM   27  O   UNL     1      -9.803  14.010  66.816  1.00  0.00    -0.257 OA 
BRANCH  25  28
HETATM   28  N   UNL     1     -10.837  13.691  69.099  1.00  0.00    -0.199 N  
HETATM   29  C   UNL     1     -10.089  14.878  69.561  1.00  0.00    -0.108 C  
HETATM   30  C   UNL     1     -11.014  16.097  69.654  1.00  0.00    -0.346 C  
HETATM   31  N   UNL     1     -12.208  15.903  70.501  1.00  0.00    -0.350 NA 
HETATM   32  C   UNL     1     -12.869  14.603  70.250  1.00  0.00    -0.206 C  
HETATM   33  C   UNL     1     -11.874  16.104  71.907  1.00  0.00    -0.525 C  
HETATM   34  C   UNL     1     -11.967  13.369  70.004  1.00  0.00    -0.337 C  
ENDBRANCH  25  28
ENDBRANCH  21  25
ENDBRANCH  11  16
ENDBRANCH   3   4
ENDBRANCH   2   3
TORSDOF 7
ENDMDL
MODEL      121
REMARK 921   NORMALIZED FREE ENERGY PREDICTED BY IDOCK:   -5.11 KCAL/MOL
REMARK 922        TOTAL FREE ENERGY PREDICTED BY IDOCK:   -8.54 KCAL/MOL
REMARK 923 INTER-LIGAND FREE ENERGY PREDICTED BY IDOCK:   -7.37 KCAL/MOL
REMARK 924 INTRA-LIGAND FREE ENERGY PREDICTED BY IDOCK:   -1.17 KCAL/MOL
REMARK 927      BINDING AFFINITY PREDICTED BY RF-SCORE:    0.00 PKD
ROOT
HETATM    1  C   UNL     1     -10.360   4.023  72.975  1.00  0.00    -0.240 C  
HETATM    2  C   UNL     1      -9.761   3.708  71.612  1.00  0.00    -0.236 C  
ENDROOT
BRANCH   2   3
HETATM    3  C   UNL     1      -9.900   4.885  70.645  1.00  0.00    -0.289 C  
BRANCH   3   4
HETATM    4  C   UNL     1      -9.619   4.502  69.230  1.00  0.00    -0.188 A  
HETATM    5  N   UNL     1      -9.511   3.195  68.928  1.00  0.00    -0.158 NA 
HETATM    6  N   UNL     1      -9.293   3.174  67.593  1.00  0.00    -0.203 NA 
HETATM    7  C   UNL     1      -9.270   4.415  67.039  1.00  0.00    -0.141 A  
HETATM    8  C   UNL     1      -9.152   1.905  66.919  1.00  0.00    -0.070 C  
HETATM    9  C   UNL     1      -9.457   5.290  68.067  1.00  0.00    -0.122 A  
HETATM   10  N   UNL     1      -9.476   6.609  67.812  1.00  0.00    -0.121 NA 
HETATM   11  C   UNL     1      -9.288   6.990  66.483  1.00  0.00    -0.159 C  
HETATM   12  N   UNL     1      -9.120   6.168  65.481  1.00  0.00    -0.365 N  
HETATM   13  O   UNL     1      -8.900   3.997  64.770  1.00  0.00    -0.121 OA 
HETATM   14  H   UNL     1      -9.017   6.543  64.537  1.00  0.00     0.000 HD 
HETATM   15  C   UNL     1      -9.079   4.801  65.675  1.00  0.00    -0.145 C  
BRANCH  11  16
HETATM   16  C   UNL     1      -9.307   8.469  66.135  1.00  0.00    -0.279 A  
HETATM   17  C   UNL     1      -8.381  10.434  65.049  1.00  0.00    -0.166 A  
HETATM   18  C   UNL     1      -8.317   9.061  65.328  1.00  0.00    -0.149 A  
HETATM   19  C   UNL     1     -10.328   9.275  66.680  1.00  0.00    -0.292 A  
HETATM   20  C   UNL     1      -9.351  11.237  65.651  1.00  0.00    -0.245 A  
HETATM   21  C   UNL     1     -10.297  10.663  66.505  1.00  0.00    -0.241 A  
BRANCH  18  22
HETATM   22  O   UNL     1      -7.351   8.243  64.807  1.00  0.00    -0.082 OA 
BRANCH  22  23
HETATM   23  C   UNL     1      -5.993   8.600  65.070  1.00  0.00    -0.055 C  
HETATM   24  C   UNL     1      -5.622   7.965  66.397  1.00  0.00    -0.032 C  
ENDBRANCH  22  23
ENDBRANCH  18  22
BRANCH  21  25
HETATM   25  S   UNL     1     -11.512  11.724  67.272  1.00  0.00    -0.273 S  
HETATM   26  O   UNL     1     -12.189  10.943  68.286  1.00  0.00    -0.526 OA 
HETATM   27  O   UNL     1     -12.256  12.342  66.194  1.00  0.00    -0.635 OA 
BRANCH  25  28
HETATM   28  N   UNL     1     -10.647  12.958  68.041  1.00  0.00    -0.221 N  
HETATM   29  C   UNL     1     -10.156  14.109  67.256  1.00  0.00    -0.256 C  
HETATM   30  C   UNL     1     -11.192  15.240  67.251  1.00  0.00    -0.306 C  
HETATM   31  N   UNL     1     -11.614  15.697  68.590  1.00  0.00    -0.373 NA 
HETATM   32  C   UNL     1     -11.888  14.568  69.507  1.00  0.00    -0.329 C  
HETATM   33  C   UNL     1     -10.646  16.644  69.134  1.00  0.00    -0.340 C  
HETATM   34  C   UNL     1     -10.949  13.339  69.441  1.00  0.00    -0.012 C  
ENDBRANCH  25  28
ENDBRANCH  21  25
ENDBRANCH  11  16
ENDBRANCH   3   4
ENDBRANCH   2   3
TORSDOF 7
ENDMDL
MODEL      122
REMARK 921   NORMALIZED FREE ENERGY PREDICTED BY IDOCK:   -5.10 KCAL/MOL
REMARK 922        TOTAL FREE ENERGY PREDICTED BY IDOCK:   -8.53 KCAL/MOL
REMARK 923 INTER-LIGAND FREE ENERGY PREDICTED BY IDOCK:   -7.40 KCAL/MOL
REMARK 924 INTRA-LIGAND FREE ENERGY PREDICTED BY IDOCK:   -1.14 KCAL/MOL
REMARK 927      BINDING AFFINITY PREDICTED BY RF-SCORE:    0.00 PKD
ROOT
HETATM    1  C   UNL     1      -7.406   7.313  65.512  1.00  0.00    -0.075 C  
HETATM    2  C   UNL     1      -7.493   8.756  65.035  1.00  0.00    -0.097 C  
ENDROOT
BRANCH   2   3
HETATM    3  C   UNL     1      -8.744   9.001  64.190  1.00  0.00    -0.126 C  
BRANCH   3   4
HETATM    4  C   UNL     1      -9.571  10.133  64.702  1.00  0.00    -0.315 A  
HETATM    5  N   UNL     1      -9.922  11.109  63.846  1.00  0.00    -0.296 NA 
HETATM    6  N   UNL     1     -10.678  11.952  64.587  1.00  0.00    -0.292 NA 
HETATM    7  C   UNL     1     -10.827  11.539  65.873  1.00  0.00    -0.260 A  
HETATM    8  C   UNL     1     -11.252  13.121  63.964  1.00  0.00    -0.379 C  
HETATM    9  C   UNL     1     -10.112  10.385  65.984  1.00  0.00    -0.243 A  
HETATM   10  N   UNL     1     -10.074   9.745  67.165  1.00  0.00    -0.198 NA 
HETATM   11  C   UNL     1     -10.780  10.334  68.216  1.00  0.00    -0.237 C  
HETATM   12  N   UNL     1     -11.481  11.434  68.128  1.00  0.00    -0.292 N  
HETATM   13  O   UNL     1     -12.177  13.191  66.827  1.00  0.00    -0.354 OA 
HETATM   14  H   UNL     1     -11.985  11.773  68.948  1.00  0.00     0.000 HD 
HETATM   15  C   UNL     1     -11.553  12.146  66.947  1.00  0.00    -0.341 C  
BRANCH  11  16
HETATM   16  C   UNL     1     -10.777   9.651  69.572  1.00  0.00    -0.252 A  
HETATM   17  C   UNL     1     -11.636   9.338  71.823  1.00  0.00    -0.458 A  
HETATM   18  C   UNL     1     -11.692   9.996  70.586  1.00  0.00    -0.337 A  
HETATM   19  C   UNL     1      -9.796   8.673  69.831  1.00  0.00    -0.185 A  
HETATM   20  C   UNL     1     -10.616   8.425  72.096  1.00  0.00    -0.400 A  
HETATM   21  C   UNL     1      -9.667   8.127  71.114  1.00  0.00    -0.163 A  
BRANCH  18  22
HETATM   22  O   UNL     1     -12.638  10.941  70.291  1.00  0.00    -0.312 OA 
BRANCH  22  23
HETATM   23  C   UNL     1     -13.003  11.838  71.341  1.00  0.00    -0.306 C  
HETATM   24  C   UNL     1     -12.394  13.185  70.998  1.00  0.00    -0.355 C  
ENDBRANCH  22  23
ENDBRANCH  18  22
BRANCH  21  25
HETATM   25  S   UNL     1      -8.366   6.968  71.505  1.00  0.00    -0.112 S  
HETATM   26  O   UNL     1      -8.106   7.074  72.925  1.00  0.00    -0.105 OA 
HETATM   27  O   UNL     1      -7.310   7.196  70.540  1.00  0.00    -0.072 OA 
BRANCH  25  28
HETATM   28  N   UNL     1      -8.993   5.429  71.193  1.00  0.00    -0.139 N  
HETATM   29  C   UNL     1      -9.943   5.235  70.078  1.00  0.00    -0.245 C  
HETATM   30  C   UNL     1      -9.197   4.872  68.789  1.00  0.00    -0.119 C  
HETATM   31  N   UNL     1      -8.314   3.693  68.897  1.00  0.00    -0.071 NA 
HETATM   32  C   UNL     1      -7.503   3.712  70.135  1.00  0.00    -0.041 C  
HETATM   33  C   UNL     1      -9.084   2.463  68.747  1.00  0.00    -0.141 C  
HETATM   34  C   UNL     1      -8.178   4.213  71.434  1.00  0.00    -0.078 C  
ENDBRANCH  25  28
ENDBRANCH  21  25
ENDBRANCH  11  16
ENDBRANCH   3   4
ENDBRANCH   2   3
TORSDOF 7
ENDMDL
MODEL      123
REMARK 921   NORMALIZED FREE ENERGY PREDICTED BY IDOCK:   -5.09 KCAL/MOL
REMARK 922        TOTAL FREE ENERGY PREDICTED BY IDOCK:   -8.52 KCAL/MOL
REMARK 923 INTER-LIGAND FREE ENERGY PREDICTED BY IDOCK:   -8.00 KCAL/MOL
REMARK 924 INTRA-LIGAND FREE ENERGY PREDICTED BY IDOCK:   -0.52 KCAL/MOL
REMARK 927      BINDING AFFINITY PREDICTED BY RF-SCORE:    0.00 PKD
ROOT
HETATM    1  C   UNL     1     -10.277  19.849  68.583  1.00  0.00    -0.494 C  
HETATM    2  C   UNL     1     -10.481  18.493  67.922  1.00  0.00    -0.419 C  
ENDROOT
BRANCH   2   3
HETATM    3  C   UNL     1      -9.633  17.406  68.584  1.00  0.00    -0.295 C  
BRANCH   3   4
HETATM    4  C   UNL     1     -10.450  16.450  69.388  1.00  0.00    -0.309 A  
HETATM    5  N   UNL     1     -11.049  16.899  70.506  1.00  0.00     0.153 NA 
HETATM    6  N   UNL     1     -11.726  15.829  70.980  1.00  0.00    -0.385 NA 
HETATM    7  C   UNL     1     -11.588  14.725  70.199  1.00  0.00    -0.290 A  
HETATM    8  C   UNL     1     -12.516  15.966  72.180  1.00  0.00    -0.466 C  
HETATM    9  C   UNL     1     -10.759  15.085  69.180  1.00  0.00    -0.249 A  
HETATM   10  N   UNL     1     -10.437  14.179  68.242  1.00  0.00    -0.243 NA 
HETATM   11  C   UNL     1     -10.982  12.903  68.395  1.00  0.00    -0.258 C  
HETATM   12  N   UNL     1     -11.788  12.540  69.358  1.00  0.00    -0.316 N  
HETATM   13  O   UNL     1     -12.882  13.115  71.291  1.00  0.00    -0.353 OA 
HETATM   14  H   UNL     1     -12.157  11.588  69.370  1.00  0.00     0.000 HD 
HETATM   15  C   UNL     1     -12.151  13.419  70.360  1.00  0.00    -0.333 C  
BRANCH  11  16
HETATM   16  C   UNL     1     -10.657  11.840  67.361  1.00  0.00    -0.258 A  
HETATM   17  C   UNL     1     -10.536  11.032  65.073  1.00  0.00    -0.344 A  
HETATM   18  C   UNL     1     -10.845  12.054  65.982  1.00  0.00    -0.289 A  
HETATM   19  C   UNL     1     -10.195  10.585  67.808  1.00  0.00    -0.223 A  
HETATM   20  C   UNL     1     -10.150   9.770  65.529  1.00  0.00    -0.242 A  
HETATM   21  C   UNL     1     -10.026   9.533  66.900  1.00  0.00    -0.216 A  
BRANCH  18  22
HETATM   22  O   UNL     1     -11.281  13.290  65.586  1.00  0.00    -0.285 OA 
BRANCH  22  23
HETATM   23  C   UNL     1     -10.481  13.980  64.625  1.00  0.00    -0.373 C  
HETATM   24  C   UNL     1     -10.184  15.351  65.203  1.00  0.00    -0.360 C  
ENDBRANCH  22  23
ENDBRANCH  18  22
BRANCH  21  25
HETATM   25  S   UNL     1      -9.548   7.901  67.446  1.00  0.00    -0.163 S  
HETATM   26  O   UNL     1      -9.194   7.137  66.269  1.00  0.00    -0.167 OA 
HETATM   27  O   UNL     1     -10.596   7.444  68.337  1.00  0.00    -0.198 OA 
BRANCH  25  28
HETATM   28  N   UNL     1      -8.158   8.104  68.388  1.00  0.00    -0.126 N  
HETATM   29  C   UNL     1      -6.892   8.516  67.748  1.00  0.00    -0.067 C  
HETATM   30  C   UNL     1      -6.758  10.043  67.747  1.00  0.00    -0.071 C  
HETATM   31  N   UNL     1      -6.868  10.673  69.079  1.00  0.00    -0.064 NA 
HETATM   32  C   UNL     1      -7.988  10.118  69.871  1.00  0.00    -0.135 C  
HETATM   33  C   UNL     1      -5.591  10.604  69.782  1.00  0.00    -0.043 C  
HETATM   34  C   UNL     1      -8.250   8.595  69.784  1.00  0.00    -0.121 C  
ENDBRANCH  25  28
ENDBRANCH  21  25
ENDBRANCH  11  16
ENDBRANCH   3   4
ENDBRANCH   2   3
TORSDOF 7
ENDMDL
MODEL      124
REMARK 921   NORMALIZED FREE ENERGY PREDICTED BY IDOCK:   -5.09 KCAL/MOL
REMARK 922        TOTAL FREE ENERGY PREDICTED BY IDOCK:   -8.52 KCAL/MOL
REMARK 923 INTER-LIGAND FREE ENERGY PREDICTED BY IDOCK:   -7.44 KCAL/MOL
REMARK 924 INTRA-LIGAND FREE ENERGY PREDICTED BY IDOCK:   -1.08 KCAL/MOL
REMARK 927      BINDING AFFINITY PREDICTED BY RF-SCORE:    0.00 PKD
ROOT
HETATM    1  C   UNL     1      -5.494  19.374  64.445  1.00  0.00    -0.272 C  
HETATM    2  C   UNL     1      -6.551  19.204  65.527  1.00  0.00    -0.308 C  
ENDROOT
BRANCH   2   3
HETATM    3  C   UNL     1      -6.775  17.732  65.876  1.00  0.00    -0.286 C  
BRANCH   3   4
HETATM    4  C   UNL     1      -8.009  17.516  66.687  1.00  0.00    -0.253 A  
HETATM    5  N   UNL     1      -8.495  18.546  67.403  1.00  0.00    -0.255 NA 
HETATM    6  N   UNL     1      -9.610  18.054  67.989  1.00  0.00    -0.285 NA 
HETATM    7  C   UNL     1      -9.854  16.758  67.661  1.00  0.00    -0.261 A  
HETATM    8  C   UNL     1     -10.409  18.917  68.826  1.00  0.00    -0.138 C  
HETATM    9  C   UNL     1      -8.833  16.377  66.843  1.00  0.00    -0.205 A  
HETATM   10  N   UNL     1      -8.810  15.124  66.361  1.00  0.00    -0.279 NA 
HETATM   11  C   UNL     1      -9.853  14.284  66.754  1.00  0.00    -0.270 C  
HETATM   12  N   UNL     1     -10.848  14.632  67.528  1.00  0.00    -0.279 N  
HETATM   13  O   UNL     1     -11.826  16.262  68.813  1.00  0.00    -0.278 OA 
HETATM   14  H   UNL     1     -11.580  13.953  67.738  1.00  0.00     0.000 HD 
HETATM   15  C   UNL     1     -10.927  15.902  68.066  1.00  0.00    -0.336 C  
BRANCH  11  16
HETATM   16  C   UNL     1      -9.881  12.858  66.234  1.00  0.00    -0.273 A  
HETATM   17  C   UNL     1     -10.306  11.210  64.501  1.00  0.00    -0.400 A  
HETATM   18  C   UNL     1     -10.292  12.546  64.923  1.00  0.00    -0.300 A  
HETATM   19  C   UNL     1      -9.524  11.814  67.112  1.00  0.00    -0.180 A  
HETATM   20  C   UNL     1     -10.023  10.178  65.398  1.00  0.00    -0.377 A  
HETATM   21  C   UNL     1      -9.677  10.479  66.718  1.00  0.00    -0.179 A  
BRANCH  18  22
HETATM   22  O   UNL     1     -10.616  13.589  64.096  1.00  0.00    -0.365 OA 
BRANCH  22  23
HETATM   23  C   UNL     1     -11.985  13.997  64.081  1.00  0.00    -0.408 C  
HETATM   24  C   UNL     1     -11.997  15.499  64.300  1.00  0.00    -0.161 C  
ENDBRANCH  22  23
ENDBRANCH  18  22
BRANCH  21  25
HETATM   25  S   UNL     1      -9.340   9.134  67.843  1.00  0.00    -0.137 S  
HETATM   26  O   UNL     1      -8.574   8.144  67.115  1.00  0.00    -0.121 OA 
HETATM   27  O   UNL     1     -10.605   8.786  68.457  1.00  0.00    -0.200 OA 
BRANCH  25  28
HETATM   28  N   UNL     1      -8.361   9.771  69.065  1.00  0.00    -0.120 N  
HETATM   29  C   UNL     1      -8.628   9.425  70.476  1.00  0.00    -0.223 C  
HETATM   30  C   UNL     1      -7.829   8.183  70.889  1.00  0.00    -0.091 C  
HETATM   31  N   UNL     1      -6.372   8.286  70.672  1.00  0.00    -0.036 NA 
HETATM   32  C   UNL     1      -6.041   8.863  69.350  1.00  0.00    -0.040 C  
HETATM   33  C   UNL     1      -5.742   9.004  71.774  1.00  0.00    -0.063 C  
HETATM   34  C   UNL     1      -6.919  10.026  68.829  1.00  0.00    -0.062 C  
ENDBRANCH  25  28
ENDBRANCH  21  25
ENDBRANCH  11  16
ENDBRANCH   3   4
ENDBRANCH   2   3
TORSDOF 7
ENDMDL
MODEL      125
REMARK 921   NORMALIZED FREE ENERGY PREDICTED BY IDOCK:   -5.06 KCAL/MOL
REMARK 922        TOTAL FREE ENERGY PREDICTED BY IDOCK:   -8.47 KCAL/MOL
REMARK 923 INTER-LIGAND FREE ENERGY PREDICTED BY IDOCK:   -7.02 KCAL/MOL
REMARK 924 INTRA-LIGAND FREE ENERGY PREDICTED BY IDOCK:   -1.45 KCAL/MOL
REMARK 927      BINDING AFFINITY PREDICTED BY RF-SCORE:    0.00 PKD
ROOT
HETATM    1  C   UNL     1     -11.380  15.078  70.450  1.00  0.00    -0.309 C  
HETATM    2  C   UNL     1     -12.408  14.003  70.128  1.00  0.00    -0.409 C  
ENDROOT
BRANCH   2   3
HETATM    3  C   UNL     1     -12.939  13.327  71.393  1.00  0.00    -0.398 C  
BRANCH   3   4
HETATM    4  C   UNL     1     -12.762  11.845  71.371  1.00  0.00    -0.290 A  
HETATM    5  N   UNL     1     -13.369  11.112  72.321  1.00  0.00    -0.229 NA 
HETATM    6  N   UNL     1     -13.052   9.833  72.016  1.00  0.00    -0.440 NA 
HETATM    7  C   UNL     1     -12.279   9.730  70.902  1.00  0.00    -0.302 A  
HETATM    8  C   UNL     1     -13.568   8.761  72.833  1.00  0.00    -0.009 C  
HETATM    9  C   UNL     1     -12.059  11.005  70.476  1.00  0.00    -0.377 A  
HETATM   10  N   UNL     1     -11.311  11.213  69.380  1.00  0.00    -0.257 NA 
HETATM   11  C   UNL     1     -10.795  10.077  68.753  1.00  0.00    -0.219 C  
HETATM   12  N   UNL     1     -11.003   8.845  69.138  1.00  0.00    -0.428 N  
HETATM   13  O   UNL     1     -11.953   7.428  70.671  1.00  0.00    -0.266 OA 
HETATM   14  H   UNL     1     -10.603   8.078  68.597  1.00  0.00     0.000 HD 
HETATM   15  C   UNL     1     -11.753   8.563  70.263  1.00  0.00     0.093 C  
BRANCH  11  16
HETATM   16  C   UNL     1      -9.947  10.252  67.506  1.00  0.00    -0.226 A  
HETATM   17  C   UNL     1      -7.844  10.106  66.298  1.00  0.00    -0.113 A  
HETATM   18  C   UNL     1      -8.580   9.915  67.476  1.00  0.00    -0.122 A  
HETATM   19  C   UNL     1     -10.545  10.811  66.358  1.00  0.00    -0.266 A  
HETATM   20  C   UNL     1      -8.425  10.729  65.191  1.00  0.00    -0.102 A  
HETATM   21  C   UNL     1      -9.764  11.124  65.239  1.00  0.00    -0.241 A  
BRANCH  18  22
HETATM   22  O   UNL     1      -8.039   9.361  68.606  1.00  0.00    -0.101 OA 
BRANCH  22  23
HETATM   23  C   UNL     1      -6.676   8.941  68.529  1.00  0.00    -0.060 C  
HETATM   24  C   UNL     1      -6.348   8.272  69.851  1.00  0.00    -0.032 C  
ENDBRANCH  22  23
ENDBRANCH  18  22
BRANCH  21  25
HETATM   25  S   UNL     1     -10.468  11.934  63.811  1.00  0.00    -0.470 S  
HETATM   26  O   UNL     1     -11.791  11.381  63.610  1.00  0.00    -0.254 OA 
HETATM   27  O   UNL     1      -9.469  11.863  62.765  1.00  0.00    -0.315 OA 
BRANCH  25  28
HETATM   28  N   UNL     1     -10.631  13.566  64.224  1.00  0.00    -0.371 N  
HETATM   29  C   UNL     1     -11.977  14.145  64.412  1.00  0.00    -0.457 C  
HETATM   30  C   UNL     1     -12.412  14.035  65.878  1.00  0.00    -0.481 C  
HETATM   31  N   UNL     1     -11.474  14.636  66.848  1.00  0.00    -0.357 NA 
HETATM   32  C   UNL     1     -10.066  14.283  66.559  1.00  0.00    -0.278 C  
HETATM   33  C   UNL     1     -11.687  16.077  66.938  1.00  0.00     0.662 C  
HETATM   34  C   UNL     1      -9.621  14.238  65.077  1.00  0.00     0.405 C  
ENDBRANCH  25  28
ENDBRANCH  21  25
ENDBRANCH  11  16
ENDBRANCH   3   4
ENDBRANCH   2   3
TORSDOF 7
ENDMDL
MODEL      126
REMARK 921   NORMALIZED FREE ENERGY PREDICTED BY IDOCK:   -5.05 KCAL/MOL
REMARK 922        TOTAL FREE ENERGY PREDICTED BY IDOCK:   -8.47 KCAL/MOL
REMARK 923 INTER-LIGAND FREE ENERGY PREDICTED BY IDOCK:   -7.79 KCAL/MOL
REMARK 924 INTRA-LIGAND FREE ENERGY PREDICTED BY IDOCK:   -0.68 KCAL/MOL
REMARK 927      BINDING AFFINITY PREDICTED BY RF-SCORE:    0.00 PKD
ROOT
HETATM    1  C   UNL     1     -11.440  16.066  71.784  1.00  0.00    -0.425 C  
HETATM    2  C   UNL     1     -12.026  16.146  70.381  1.00  0.00    -0.106 C  
ENDROOT
BRANCH   2   3
HETATM    3  C   UNL     1     -10.935  16.268  69.316  1.00  0.00    -0.317 C  
BRANCH   3   4
HETATM    4  C   UNL     1     -11.095  15.275  68.213  1.00  0.00    -0.300 A  
HETATM    5  N   UNL     1     -11.190  15.728  66.950  1.00  0.00    -0.136 NA 
HETATM    6  N   UNL     1     -11.292  14.610  66.196  1.00  0.00    -0.349 NA 
HETATM    7  C   UNL     1     -11.251  13.468  66.933  1.00  0.00    -0.311 A  
HETATM    8  C   UNL     1     -11.387  14.730  64.761  1.00  0.00    -0.397 C  
HETATM    9  C   UNL     1     -11.146  13.862  68.233  1.00  0.00    -0.258 A  
HETATM   10  N   UNL     1     -11.089  12.930  69.199  1.00  0.00    -0.224 NA 
HETATM   11  C   UNL     1     -11.156  11.598  68.786  1.00  0.00    -0.230 C  
HETATM   12  N   UNL     1     -11.245  11.199  67.545  1.00  0.00    -0.298 N  
HETATM   13  O   UNL     1     -11.426  11.775  65.331  1.00  0.00    -0.277 OA 
HETATM   14  H   UNL     1     -11.261  10.199  67.341  1.00  0.00     0.000 HD 
HETATM   15  C   UNL     1     -11.318  12.105  66.504  1.00  0.00    -0.350 C  
BRANCH  11  16
HETATM   16  C   UNL     1     -11.090  10.503  69.836  1.00  0.00    -0.371 A  
HETATM   17  C   UNL     1     -11.913   9.380  71.826  1.00  0.00    -0.452 A  
HETATM   18  C   UNL     1     -12.030  10.408  70.880  1.00  0.00    -0.377 A  
HETATM   19  C   UNL     1     -10.024   9.581  69.781  1.00  0.00    -0.234 A  
HETATM   20  C   UNL     1     -10.815   8.519  71.807  1.00  0.00    -0.374 A  
HETATM   21  C   UNL     1      -9.845   8.650  70.811  1.00  0.00    -0.192 A  
BRANCH  18  22
HETATM   22  O   UNL     1     -13.058  11.313  70.891  1.00  0.00    -0.211 OA 
BRANCH  22  23
HETATM   23  C   UNL     1     -13.522  11.747  72.170  1.00  0.00    -0.168 C  
HETATM   24  C   UNL     1     -13.589  13.262  72.122  1.00  0.00    -0.655 C  
ENDBRANCH  22  23
ENDBRANCH  18  22
BRANCH  21  25
HETATM   25  S   UNL     1      -8.444   7.542  70.829  1.00  0.00    -0.127 S  
HETATM   26  O   UNL     1      -8.934   6.222  70.494  1.00  0.00    -0.148 OA 
HETATM   27  O   UNL     1      -7.750   7.780  72.078  1.00  0.00    -0.079 OA 
BRANCH  25  28
HETATM   28  N   UNL     1      -7.415   8.058  69.589  1.00  0.00    -0.088 N  
HETATM   29  C   UNL     1      -5.988   7.677  69.614  1.00  0.00    -0.027 C  
HETATM   30  C   UNL     1      -5.766   6.365  68.852  1.00  0.00    -0.020 C  
HETATM   31  N   UNL     1      -6.254   6.369  67.458  1.00  0.00    -0.030 NA 
HETATM   32  C   UNL     1      -7.600   6.972  67.337  1.00  0.00    -0.109 C  
HETATM   33  C   UNL     1      -5.274   6.996  66.577  1.00  0.00    -0.022 C  
HETATM   34  C   UNL     1      -7.916   8.216  68.203  1.00  0.00    -0.127 C  
ENDBRANCH  25  28
ENDBRANCH  21  25
ENDBRANCH  11  16
ENDBRANCH   3   4
ENDBRANCH   2   3
TORSDOF 7
ENDMDL
MODEL      127
REMARK 921   NORMALIZED FREE ENERGY PREDICTED BY IDOCK:   -5.05 KCAL/MOL
REMARK 922        TOTAL FREE ENERGY PREDICTED BY IDOCK:   -8.46 KCAL/MOL
REMARK 923 INTER-LIGAND FREE ENERGY PREDICTED BY IDOCK:   -7.29 KCAL/MOL
REMARK 924 INTRA-LIGAND FREE ENERGY PREDICTED BY IDOCK:   -1.17 KCAL/MOL
REMARK 927      BINDING AFFINITY PREDICTED BY RF-SCORE:    0.00 PKD
ROOT
HETATM    1  C   UNL     1     -13.049  12.777  71.905  1.00  0.00    -0.474 C  
HETATM    2  C   UNL     1     -12.903  11.479  71.125  1.00  0.00    -0.414 C  
ENDROOT
BRANCH   2   3
HETATM    3  C   UNL     1     -13.297  10.263  71.967  1.00  0.00    -0.466 C  
BRANCH   3   4
HETATM    4  C   UNL     1     -12.425   9.080  71.710  1.00  0.00    -0.368 A  
HETATM    5  N   UNL     1     -12.616   7.970  72.447  1.00  0.00    -0.232 NA 
HETATM    6  N   UNL     1     -11.714   7.085  71.964  1.00  0.00    -0.285 NA 
HETATM    7  C   UNL     1     -10.970   7.589  70.944  1.00  0.00    -0.253 A  
HETATM    8  C   UNL     1     -11.660   5.755  72.521  1.00  0.00    -0.267 C  
HETATM    9  C   UNL     1     -11.389   8.874  70.770  1.00  0.00    -0.278 A  
HETATM   10  N   UNL     1     -10.817   9.628  69.817  1.00  0.00    -0.240 NA 
HETATM   11  C   UNL     1      -9.805   9.026  69.068  1.00  0.00    -0.175 C  
HETATM   12  N   UNL     1      -9.397   7.792  69.209  1.00  0.00    -0.149 N  
HETATM   13  O   UNL     1      -9.567   5.814  70.360  1.00  0.00    -0.161 OA 
HETATM   14  H   UNL     1      -8.667   7.433  68.594  1.00  0.00     0.000 HD 
HETATM   15  C   UNL     1      -9.935   6.966  70.177  1.00  0.00    -0.178 C  
BRANCH  11  16
HETATM   16  C   UNL     1      -9.128   9.831  67.972  1.00  0.00    -0.127 A  
HETATM   17  C   UNL     1      -8.339  10.122  65.693  1.00  0.00    -0.153 A  
HETATM   18  C   UNL     1      -8.982   9.337  66.662  1.00  0.00    -0.140 A  
HETATM   19  C   UNL     1      -8.592  11.093  68.299  1.00  0.00    -0.146 A  
HETATM   20  C   UNL     1      -7.747  11.336  66.043  1.00  0.00     0.070 A  
HETATM   21  C   UNL     1      -7.833  11.800  67.358  1.00  0.00    -0.155 A  
BRANCH  18  22
HETATM   22  O   UNL     1      -9.529   8.113  66.381  1.00  0.00    -0.204 OA 
BRANCH  22  23
HETATM   23  C   UNL     1      -8.632   7.091  65.945  1.00  0.00    -0.145 C  
HETATM   24  C   UNL     1      -9.344   5.767  66.150  1.00  0.00    -0.160 C  
ENDBRANCH  22  23
ENDBRANCH  18  22
BRANCH  21  25
HETATM   25  S   UNL     1      -7.047  13.349  67.772  1.00  0.00    -0.169 S  
HETATM   26  O   UNL     1      -5.771  13.383  67.088  1.00  0.00    -0.302 OA 
HETATM   27  O   UNL     1      -7.117  13.472  69.214  1.00  0.00    -0.069 OA 
BRANCH  25  28
HETATM   28  N   UNL     1      -8.029  14.566  67.128  1.00  0.00    -0.184 N  
HETATM   29  C   UNL     1      -9.498  14.410  67.144  1.00  0.00    -0.222 C  
HETATM   30  C   UNL     1     -10.092  15.013  68.422  1.00  0.00    -0.225 C  
HETATM   31  N   UNL     1      -9.742  16.429  68.657  1.00  0.00    -0.230 NA 
HETATM   32  C   UNL     1      -8.307  16.699  68.416  1.00  0.00    -0.208 C  
HETATM   33  C   UNL     1     -10.618  17.305  67.887  1.00  0.00    -0.384 C  
HETATM   34  C   UNL     1      -7.630  15.992  67.218  1.00  0.00    -0.194 C  
ENDBRANCH  25  28
ENDBRANCH  21  25
ENDBRANCH  11  16
ENDBRANCH   3   4
ENDBRANCH   2   3
TORSDOF 7
ENDMDL
MODEL      128
REMARK 921   NORMALIZED FREE ENERGY PREDICTED BY IDOCK:   -5.02 KCAL/MOL
REMARK 922        TOTAL FREE ENERGY PREDICTED BY IDOCK:   -8.42 KCAL/MOL
REMARK 923 INTER-LIGAND FREE ENERGY PREDICTED BY IDOCK:   -6.87 KCAL/MOL
REMARK 924 INTRA-LIGAND FREE ENERGY PREDICTED BY IDOCK:   -1.55 KCAL/MOL
REMARK 927      BINDING AFFINITY PREDICTED BY RF-SCORE:    0.00 PKD
ROOT
HETATM    1  C   UNL     1      -7.738  16.089  69.454  1.00  0.00    -0.173 C  
HETATM    2  C   UNL     1      -7.612  16.603  68.027  1.00  0.00    -0.171 C  
ENDROOT
BRANCH   2   3
HETATM    3  C   UNL     1      -7.520  15.459  67.016  1.00  0.00    -0.166 C  
BRANCH   3   4
HETATM    4  C   UNL     1      -8.858  14.913  66.643  1.00  0.00    -0.254 A  
HETATM    5  N   UNL     1      -9.540  15.511  65.649  1.00  0.00    -0.325 NA 
HETATM    6  N   UNL     1     -10.672  14.781  65.530  1.00  0.00    -0.333 NA 
HETATM    7  C   UNL     1     -10.725  13.738  66.401  1.00  0.00    -0.281 A  
HETATM    8  C   UNL     1     -11.640  15.136  64.520  1.00  0.00    -0.329 C  
HETATM    9  C   UNL     1      -9.585  13.808  67.142  1.00  0.00    -0.244 A  
HETATM   10  N   UNL     1      -9.367  12.891  68.100  1.00  0.00    -0.211 NA 
HETATM   11  C   UNL     1     -10.356  11.922  68.273  1.00  0.00    -0.201 C  
HETATM   12  N   UNL     1     -11.451  11.830  67.565  1.00  0.00    -0.305 N  
HETATM   13  O   UNL     1     -12.765  12.710  65.903  1.00  0.00    -0.411 OA 
HETATM   14  H   UNL     1     -12.103  11.067  67.749  1.00  0.00     0.000 HD 
HETATM   15  C   UNL     1     -11.742  12.745  66.572  1.00  0.00    -0.400 C  
BRANCH  11  16
HETATM   16  C   UNL     1     -10.159  10.857  69.338  1.00  0.00    -0.116 A  
HETATM   17  C   UNL     1     -10.933   9.527  71.217  1.00  0.00    -0.440 A  
HETATM   18  C   UNL     1     -11.175  10.512  70.249  1.00  0.00    -0.313 A  
HETATM   19  C   UNL     1      -8.899  10.230  69.437  1.00  0.00    -0.177 A  
HETATM   20  C   UNL     1      -9.662   8.966  71.357  1.00  0.00    -0.370 A  
HETATM   21  C   UNL     1      -8.632   9.353  70.495  1.00  0.00    -0.223 A  
BRANCH  18  22
HETATM   22  O   UNL     1     -12.388  11.133  70.111  1.00  0.00    -0.304 OA 
BRANCH  22  23
HETATM   23  C   UNL     1     -13.080  11.472  71.313  1.00  0.00    -0.184 C  
HETATM   24  C   UNL     1     -12.918  12.969  71.505  1.00  0.00    -0.398 C  
ENDBRANCH  22  23
ENDBRANCH  18  22
BRANCH  21  25
HETATM   25  S   UNL     1      -7.015   8.627  70.715  1.00  0.00    -0.067 S  
HETATM   26  O   UNL     1      -6.757   8.570  72.138  1.00  0.00    -0.080 OA 
HETATM   27  O   UNL     1      -6.121   9.343  69.828  1.00  0.00    -0.038 OA 
BRANCH  25  28
HETATM   28  N   UNL     1      -7.123   7.044  70.129  1.00  0.00    -0.065 N  
HETATM   29  C   UNL     1      -7.928   6.760  68.924  1.00  0.00    -0.116 C  
HETATM   30  C   UNL     1      -7.063   6.855  67.661  1.00  0.00    -0.085 C  
HETATM   31  N   UNL     1      -5.862   5.996  67.669  1.00  0.00    -0.016 NA 
HETATM   32  C   UNL     1      -5.139   6.053  68.959  1.00  0.00    -0.004 C  
HETATM   33  C   UNL     1      -6.207   4.633  67.277  1.00  0.00    -0.039 C  
HETATM   34  C   UNL     1      -5.980   6.107  70.257  1.00  0.00    -0.029 C  
ENDBRANCH  25  28
ENDBRANCH  21  25
ENDBRANCH  11  16
ENDBRANCH   3   4
ENDBRANCH   2   3
TORSDOF 7
ENDMDL
MODEL      129
REMARK 921   NORMALIZED FREE ENERGY PREDICTED BY IDOCK:   -5.02 KCAL/MOL
REMARK 922        TOTAL FREE ENERGY PREDICTED BY IDOCK:   -8.42 KCAL/MOL
REMARK 923 INTER-LIGAND FREE ENERGY PREDICTED BY IDOCK:   -7.13 KCAL/MOL
REMARK 924 INTRA-LIGAND FREE ENERGY PREDICTED BY IDOCK:   -1.29 KCAL/MOL
REMARK 927      BINDING AFFINITY PREDICTED BY RF-SCORE:    0.00 PKD
ROOT
HETATM    1  C   UNL     1      -8.829   7.141  68.242  1.00  0.00    -0.127 C  
HETATM    2  C   UNL     1      -7.739   8.182  68.031  1.00  0.00    -0.114 C  
ENDROOT
BRANCH   2   3
HETATM    3  C   UNL     1      -7.123   8.083  66.633  1.00  0.00    -0.076 C  
BRANCH   3   4
HETATM    4  C   UNL     1      -7.843   8.920  65.629  1.00  0.00    -0.096 A  
HETATM    5  N   UNL     1      -8.083   8.398  64.412  1.00  0.00    -0.158 NA 
HETATM    6  N   UNL     1      -8.763   9.366  63.757  1.00  0.00    -0.216 NA 
HETATM    7  C   UNL     1      -8.974  10.473  64.517  1.00  0.00    -0.209 A  
HETATM    8  C   UNL     1      -9.210   9.126  62.406  1.00  0.00     0.137 C  
HETATM    9  C   UNL     1      -8.377  10.226  65.717  1.00  0.00    -0.152 A  
HETATM   10  N   UNL     1      -8.422  11.163  66.678  1.00  0.00    -0.159 NA 
HETATM   11  C   UNL     1      -9.083  12.351  66.362  1.00  0.00    -0.149 C  
HETATM   12  N   UNL     1      -9.672  12.604  65.222  1.00  0.00    -0.464 N  
HETATM   13  O   UNL     1     -10.170  11.893  63.098  1.00  0.00    -0.415 OA 
HETATM   14  H   UNL     1     -10.153  13.494  65.094  1.00  0.00     0.000 HD 
HETATM   15  C   UNL     1      -9.654  11.689  64.188  1.00  0.00    -0.115 C  
BRANCH  11  16
HETATM   16  C   UNL     1      -9.170  13.443  67.413  1.00  0.00    -0.213 A  
HETATM   17  C   UNL     1     -10.320  14.621  69.199  1.00  0.00    -0.222 A  
HETATM   18  C   UNL     1     -10.292  13.588  68.252  1.00  0.00    -0.252 A  
HETATM   19  C   UNL     1      -8.107  14.365  67.516  1.00  0.00    -0.204 A  
HETATM   20  C   UNL     1      -9.299  15.572  69.243  1.00  0.00    -0.266 A  
HETATM   21  C   UNL     1      -8.215  15.470  68.369  1.00  0.00    -0.145 A  
BRANCH  18  22
HETATM   22  O   UNL     1     -11.297  12.665  68.131  1.00  0.00    -0.249 OA 
BRANCH  22  23
HETATM   23  C   UNL     1     -11.762  12.058  69.337  1.00  0.00    -0.340 C  
HETATM   24  C   UNL     1     -10.915  10.819  69.560  1.00  0.00    -0.317 C  
ENDBRANCH  22  23
ENDBRANCH  18  22
BRANCH  21  25
HETATM   25  S   UNL     1      -6.936  16.715  68.442  1.00  0.00    -0.168 S  
HETATM   26  O   UNL     1      -5.884  16.307  67.535  1.00  0.00    -0.135 OA 
HETATM   27  O   UNL     1      -6.658  16.935  69.846  1.00  0.00    -0.137 OA 
BRANCH  25  28
HETATM   28  N   UNL     1      -7.627  18.140  67.848  1.00  0.00    -0.228 N  
HETATM   29  C   UNL     1      -7.984  18.243  66.419  1.00  0.00    -0.261 C  
HETATM   30  C   UNL     1      -9.432  17.794  66.189  1.00  0.00    -0.159 C  
HETATM   31  N   UNL     1     -10.436  18.507  67.003  1.00  0.00    -0.395 NA 
HETATM   32  C   UNL     1     -10.015  18.650  68.415  1.00  0.00    -0.387 C  
HETATM   33  C   UNL     1     -10.780  19.783  66.385  1.00  0.00    -0.391 C  
HETATM   34  C   UNL     1      -8.525  18.959  68.697  1.00  0.00    -0.346 C  
ENDBRANCH  25  28
ENDBRANCH  21  25
ENDBRANCH  11  16
ENDBRANCH   3   4
ENDBRANCH   2   3
TORSDOF 7
ENDMDL
MODEL      130
REMARK 921   NORMALIZED FREE ENERGY PREDICTED BY IDOCK:   -4.98 KCAL/MOL
REMARK 922        TOTAL FREE ENERGY PREDICTED BY IDOCK:   -8.36 KCAL/MOL
REMARK 923 INTER-LIGAND FREE ENERGY PREDICTED BY IDOCK:   -7.01 KCAL/MOL
REMARK 924 INTRA-LIGAND FREE ENERGY PREDICTED BY IDOCK:   -1.35 KCAL/MOL
REMARK 927      BINDING AFFINITY PREDICTED BY RF-SCORE:    0.00 PKD
ROOT
HETATM    1  C   UNL     1     -11.446   7.787  72.299  1.00  0.00    -0.384 C  
HETATM    2  C   UNL     1     -10.646   7.115  71.192  1.00  0.00    -0.240 C  
ENDROOT
BRANCH   2   3
HETATM    3  C   UNL     1     -11.508   6.832  69.960  1.00  0.00    -0.390 C  
BRANCH   3   4
HETATM    4  C   UNL     1     -10.701   6.710  68.710  1.00  0.00    -0.258 A  
HETATM    5  N   UNL     1     -10.664   5.520  68.083  1.00  0.00    -0.144 NA 
HETATM    6  N   UNL     1      -9.895   5.737  66.992  1.00  0.00    -0.139 NA 
HETATM    7  C   UNL     1      -9.456   7.021  66.899  1.00  0.00    -0.160 A  
HETATM    8  C   UNL     1      -9.662   4.656  66.064  1.00  0.00    -0.202 C  
HETATM    9  C   UNL     1      -9.940   7.665  67.997  1.00  0.00    -0.175 A  
HETATM   10  N   UNL     1      -9.656   8.966  68.174  1.00  0.00    -0.143 NA 
HETATM   11  C   UNL     1      -8.858   9.569  67.200  1.00  0.00    -0.131 C  
HETATM   12  N   UNL     1      -8.394   8.972  66.133  1.00  0.00    -0.118 N  
HETATM   13  O   UNL     1      -8.206   7.031  64.925  1.00  0.00    -0.132 OA 
HETATM   14  H   UNL     1      -7.840   9.506  65.462  1.00  0.00     0.000 HD 
HETATM   15  C   UNL     1      -8.640   7.634  65.896  1.00  0.00    -0.148 C  
BRANCH  11  16
HETATM   16  C   UNL     1      -8.511  11.040  67.345  1.00  0.00    -0.132 A  
HETATM   17  C   UNL     1      -7.198  12.856  68.281  1.00  0.00    -0.112 A  
HETATM   18  C   UNL     1      -7.467  11.484  68.179  1.00  0.00    -0.101 A  
HETATM   19  C   UNL     1      -9.294  11.988  66.653  1.00  0.00    -0.221 A  
HETATM   20  C   UNL     1      -8.023  13.790  67.652  1.00  0.00    -0.179 A  
HETATM   21  C   UNL     1      -9.100  13.356  66.876  1.00  0.00    -0.231 A  
BRANCH  18  22
HETATM   22  O   UNL     1      -6.721  10.533  68.822  1.00  0.00    -0.052 OA 
BRANCH  22  23
HETATM   23  C   UNL     1      -6.784  10.520  70.249  1.00  0.00    -0.123 C  
HETATM   24  C   UNL     1      -5.376  10.781  70.752  1.00  0.00    -0.105 C  
ENDBRANCH  22  23
ENDBRANCH  18  22
BRANCH  21  25
HETATM   25  S   UNL     1     -10.146  14.580  66.102  1.00  0.00    -0.319 S  
HETATM   26  O   UNL     1     -10.804  13.940  64.983  1.00  0.00    -0.337 OA 
HETATM   27  O   UNL     1      -9.322  15.755  65.902  1.00  0.00    -0.333 OA 
BRANCH  25  28
HETATM   28  N   UNL     1     -11.321  14.993  67.246  1.00  0.00    -0.344 N  
HETATM   29  C   UNL     1     -12.158  13.938  67.852  1.00  0.00    -0.283 C  
HETATM   30  C   UNL     1     -11.514  13.408  69.138  1.00  0.00    -0.300 C  
HETATM   31  N   UNL     1     -11.211  14.441  70.149  1.00  0.00    -0.160 NA 
HETATM   32  C   UNL     1     -10.583  15.642  69.553  1.00  0.00    -0.266 C  
HETATM   33  C   UNL     1     -12.404  14.757  70.928  1.00  0.00    -0.319 C  
HETATM   34  C   UNL     1     -11.108  16.125  68.179  1.00  0.00    -0.332 C  
ENDBRANCH  25  28
ENDBRANCH  21  25
ENDBRANCH  11  16
ENDBRANCH   3   4
ENDBRANCH   2   3
TORSDOF 7
ENDMDL
MODEL      131
REMARK 921   NORMALIZED FREE ENERGY PREDICTED BY IDOCK:   -4.94 KCAL/MOL
REMARK 922        TOTAL FREE ENERGY PREDICTED BY IDOCK:   -8.30 KCAL/MOL
REMARK 923 INTER-LIGAND FREE ENERGY PREDICTED BY IDOCK:   -7.43 KCAL/MOL
REMARK 924 INTRA-LIGAND FREE ENERGY PREDICTED BY IDOCK:   -0.87 KCAL/MOL
REMARK 927      BINDING AFFINITY PREDICTED BY RF-SCORE:    0.00 PKD
ROOT
HETATM    1  C   UNL     1      -6.156  20.044  70.524  1.00  0.00    -0.372 C  
HETATM    2  C   UNL     1      -7.093  19.283  69.598  1.00  0.00    -0.120 C  
ENDROOT
BRANCH   2   3
HETATM    3  C   UNL     1      -6.999  19.786  68.156  1.00  0.00    -0.324 C  
BRANCH   3   4
HETATM    4  C   UNL     1      -8.129  19.307  67.306  1.00  0.00    -0.265 A  
HETATM    5  N   UNL     1      -8.856  20.216  66.633  1.00  0.00    -0.312 NA 
HETATM    6  N   UNL     1      -9.761  19.483  65.945  1.00  0.00    -0.420 NA 
HETATM    7  C   UNL     1      -9.625  18.146  66.148  1.00  0.00    -0.170 A  
HETATM    8  C   UNL     1     -10.704  20.152  65.081  1.00  0.00     0.339 C  
HETATM    9  C   UNL     1      -8.599  18.001  67.032  1.00  0.00    -0.245 A  
HETATM   10  N   UNL     1      -8.238  16.768  67.425  1.00  0.00    -0.173 NA 
HETATM   11  C   UNL     1      -8.969  15.705  66.892  1.00  0.00    -0.241 C  
HETATM   12  N   UNL     1      -9.949  15.821  66.034  1.00  0.00    -0.306 N  
HETATM   13  O   UNL     1     -11.303  17.215  64.814  1.00  0.00    -0.745 OA 
HETATM   14  H   UNL     1     -10.406  14.980  65.680  1.00  0.00     0.000 HD 
HETATM   15  C   UNL     1     -10.377  17.060  65.597  1.00  0.00    -0.209 C  
BRANCH  11  16
HETATM   16  C   UNL     1      -8.601  14.288  67.296  1.00  0.00    -0.229 A  
HETATM   17  C   UNL     1      -6.985  12.562  67.849  1.00  0.00    -0.105 A  
HETATM   18  C   UNL     1      -7.265  13.886  67.484  1.00  0.00    -0.161 A  
HETATM   19  C   UNL     1      -9.635  13.340  67.443  1.00  0.00    -0.223 A  
HETATM   20  C   UNL     1      -8.006  11.613  67.919  1.00  0.00    -0.132 A  
HETATM   21  C   UNL     1      -9.327  11.994  67.669  1.00  0.00    -0.185 A  
BRANCH  18  22
HETATM   22  O   UNL     1      -6.291  14.839  67.347  1.00  0.00    -0.320 OA 
BRANCH  22  23
HETATM   23  C   UNL     1      -5.151  14.724  68.199  1.00  0.00    -0.117 C  
HETATM   24  C   UNL     1      -5.420  15.596  69.411  1.00  0.00    -0.108 C  
ENDBRANCH  22  23
ENDBRANCH  18  22
BRANCH  21  25
HETATM   25  S   UNL     1     -10.606  10.749  67.750  1.00  0.00    -0.248 S  
HETATM   26  O   UNL     1     -11.878  11.439  67.785  1.00  0.00    -0.595 OA 
HETATM   27  O   UNL     1     -10.227   9.840  68.812  1.00  0.00    -0.179 OA 
BRANCH  25  28
HETATM   28  N   UNL     1     -10.513   9.879  66.303  1.00  0.00    -0.154 N  
HETATM   29  C   UNL     1     -10.405  10.599  65.018  1.00  0.00    -0.271 C  
HETATM   30  C   UNL     1      -8.934  10.815  64.641  1.00  0.00    -0.175 C  
HETATM   31  N   UNL     1      -8.124   9.581  64.586  1.00  0.00    -0.127 NA 
HETATM   32  C   UNL     1      -8.376   8.693  65.743  1.00  0.00    -0.144 C  
HETATM   33  C   UNL     1      -8.308   8.906  63.306  1.00  0.00    -0.180 C  
HETATM   34  C   UNL     1      -9.832   8.562  66.250  1.00  0.00    -0.215 C  
ENDBRANCH  25  28
ENDBRANCH  21  25
ENDBRANCH  11  16
ENDBRANCH   3   4
ENDBRANCH   2   3
TORSDOF 7
ENDMDL
MODEL      132
REMARK 921   NORMALIZED FREE ENERGY PREDICTED BY IDOCK:   -4.93 KCAL/MOL
REMARK 922        TOTAL FREE ENERGY PREDICTED BY IDOCK:   -8.29 KCAL/MOL
REMARK 923 INTER-LIGAND FREE ENERGY PREDICTED BY IDOCK:   -7.30 KCAL/MOL
REMARK 924 INTRA-LIGAND FREE ENERGY PREDICTED BY IDOCK:   -1.00 KCAL/MOL
REMARK 927      BINDING AFFINITY PREDICTED BY RF-SCORE:    0.00 PKD
ROOT
HETATM    1  C   UNL     1      -5.674  13.646  68.568  1.00  0.00    -0.090 C  
HETATM    2  C   UNL     1      -5.959  12.362  69.333  1.00  0.00    -0.100 C  
ENDROOT
BRANCH   2   3
HETATM    3  C   UNL     1      -5.784  11.124  68.450  1.00  0.00    -0.042 C  
BRANCH   3   4
HETATM    4  C   UNL     1      -6.883  10.971  67.452  1.00  0.00    -0.082 A  
HETATM    5  N   UNL     1      -6.555  10.768  66.163  1.00  0.00    -0.129 NA 
HETATM    6  N   UNL     1      -7.743  10.639  65.528  1.00  0.00    -0.124 NA 
HETATM    7  C   UNL     1      -8.807  10.740  66.369  1.00  0.00    -0.165 A  
HETATM    8  C   UNL     1      -7.762  10.381  64.109  1.00  0.00    -0.035 C  
HETATM    9  C   UNL     1      -8.289  10.974  67.607  1.00  0.00    -0.117 A  
HETATM   10  N   UNL     1      -9.121  11.124  68.650  1.00  0.00    -0.174 NA 
HETATM   11  C   UNL     1     -10.487  11.038  68.376  1.00  0.00    -0.180 C  
HETATM   12  N   UNL     1     -11.005  10.803  67.199  1.00  0.00    -0.280 N  
HETATM   13  O   UNL     1     -10.649  10.452  64.959  1.00  0.00    -0.190 OA 
HETATM   14  H   UNL     1     -12.018  10.732  67.102  1.00  0.00     0.000 HD 
HETATM   15  C   UNL     1     -10.206  10.650  66.082  1.00  0.00    -0.248 C  
BRANCH  11  16
HETATM   16  C   UNL     1     -11.475  11.193  69.519  1.00  0.00    -0.374 A  
HETATM   17  C   UNL     1     -12.691  12.530  71.142  1.00  0.00    -0.340 A  
HETATM   18  C   UNL     1     -11.778  12.448  70.081  1.00  0.00    -0.185 A  
HETATM   19  C   UNL     1     -12.069  10.033  70.058  1.00  0.00    -0.090 A  
HETATM   20  C   UNL     1     -13.217  11.372  71.717  1.00  0.00    -0.472 A  
HETATM   21  C   UNL     1     -12.868  10.120  71.204  1.00  0.00    -0.399 A  
BRANCH  18  22
HETATM   22  O   UNL     1     -11.192  13.552  69.521  1.00  0.00    -0.222 OA 
BRANCH  22  23
HETATM   23  C   UNL     1     -11.973  14.290  68.580  1.00  0.00    -0.317 C  
HETATM   24  C   UNL     1     -11.006  14.866  67.563  1.00  0.00    -0.302 C  
ENDBRANCH  22  23
ENDBRANCH  18  22
BRANCH  21  25
HETATM   25  S   UNL     1     -13.546   8.659  71.977  1.00  0.00    -0.423 S  
HETATM   26  O   UNL     1     -14.395   8.009  71.001  1.00  0.00    -0.217 OA 
HETATM   27  O   UNL     1     -14.077   9.082  73.257  1.00  0.00    -0.261 OA 
BRANCH  25  28
HETATM   28  N   UNL     1     -12.234   7.643  72.302  1.00  0.00    -0.259 N  
HETATM   29  C   UNL     1     -12.032   6.423  71.493  1.00  0.00    -0.273 C  
HETATM   30  C   UNL     1     -11.129   6.716  70.289  1.00  0.00    -0.326 C  
HETATM   31  N   UNL     1      -9.819   7.307  70.629  1.00  0.00    -0.180 NA 
HETATM   32  C   UNL     1      -9.935   8.388  71.634  1.00  0.00    -0.234 C  
HETATM   33  C   UNL     1      -8.877   6.266  71.027  1.00  0.00    -0.136 C  
HETATM   34  C   UNL     1     -10.947   8.195  72.789  1.00  0.00    -0.330 C  
ENDBRANCH  25  28
ENDBRANCH  21  25
ENDBRANCH  11  16
ENDBRANCH   3   4
ENDBRANCH   2   3
TORSDOF 7
ENDMDL
MODEL      133
REMARK 921   NORMALIZED FREE ENERGY PREDICTED BY IDOCK:   -4.91 KCAL/MOL
REMARK 922        TOTAL FREE ENERGY PREDICTED BY IDOCK:   -8.26 KCAL/MOL
REMARK 923 INTER-LIGAND FREE ENERGY PREDICTED BY IDOCK:   -7.08 KCAL/MOL
REMARK 924 INTRA-LIGAND FREE ENERGY PREDICTED BY IDOCK:   -1.18 KCAL/MOL
REMARK 927      BINDING AFFINITY PREDICTED BY RF-SCORE:    0.00 PKD
ROOT
HETATM    1  C   UNL     1      -7.832   9.782  65.180  1.00  0.00    -0.126 C  
HETATM    2  C   UNL     1      -8.337   8.349  65.104  1.00  0.00    -0.177 C  
ENDROOT
BRANCH   2   3
HETATM    3  C   UNL     1      -7.210   7.337  65.318  1.00  0.00    -0.069 C  
BRANCH   3   4
HETATM    4  C   UNL     1      -7.108   6.882  66.735  1.00  0.00    -0.075 A  
HETATM    5  N   UNL     1      -6.245   5.893  67.032  1.00  0.00    -0.029 NA 
HETATM    6  N   UNL     1      -6.358   5.735  68.370  1.00  0.00    -0.039 NA 
HETATM    7  C   UNL     1      -7.250   6.594  68.932  1.00  0.00    -0.091 A  
HETATM    8  C   UNL     1      -5.539   4.753  69.039  1.00  0.00    -0.012 C  
HETATM    9  C   UNL     1      -7.763   7.329  67.906  1.00  0.00    -0.113 A  
HETATM   10  N   UNL     1      -8.686   8.270  68.169  1.00  0.00    -0.136 NA 
HETATM   11  C   UNL     1      -9.065   8.416  69.504  1.00  0.00    -0.153 C  
HETATM   12  N   UNL     1      -8.577   7.729  70.504  1.00  0.00    -0.131 N  
HETATM   13  O   UNL     1      -7.169   6.059  71.205  1.00  0.00    -0.075 OA 
HETATM   14  H   UNL     1      -8.900   7.928  71.451  1.00  0.00     0.000 HD 
HETATM   15  C   UNL     1      -7.634   6.741  70.302  1.00  0.00    -0.096 C  
BRANCH  11  16
HETATM   16  C   UNL     1     -10.101   9.468  69.860  1.00  0.00    -0.262 A  
HETATM   17  C   UNL     1     -12.096  10.212  71.029  1.00  0.00    -0.476 A  
HETATM   18  C   UNL     1     -11.163   9.204  70.745  1.00  0.00    -0.277 A  
HETATM   19  C   UNL     1     -10.013  10.734  69.244  1.00  0.00    -0.182 A  
HETATM   20  C   UNL     1     -12.044  11.436  70.360  1.00  0.00    -0.473 A  
HETATM   21  C   UNL     1     -11.028  11.679  69.431  1.00  0.00    -0.152 A  
BRANCH  18  22
HETATM   22  O   UNL     1     -11.206   7.967  71.333  1.00  0.00    -0.243 OA 
BRANCH  22  23
HETATM   23  C   UNL     1     -11.179   7.931  72.760  1.00  0.00    -0.405 C  
HETATM   24  C   UNL     1     -10.609   6.581  73.154  1.00  0.00    -0.290 C  
ENDBRANCH  22  23
ENDBRANCH  18  22
BRANCH  21  25
HETATM   25  S   UNL     1     -11.004  13.249  68.581  1.00  0.00    -0.271 S  
HETATM   26  O   UNL     1      -9.639  13.496  68.168  1.00  0.00    -0.205 OA 
HETATM   27  O   UNL     1     -11.700  14.189  69.436  1.00  0.00    -0.271 OA 
BRANCH  25  28
HETATM   28  N   UNL     1     -11.953  13.053  67.195  1.00  0.00    -0.360 N  
HETATM   29  C   UNL     1     -12.401  14.239  66.438  1.00  0.00    -0.350 C  
HETATM   30  C   UNL     1     -11.392  14.593  65.339  1.00  0.00    -0.344 C  
HETATM   31  N   UNL     1     -11.088  13.493  64.402  1.00  0.00    -0.382 NA 
HETATM   32  C   UNL     1     -10.867  12.207  65.099  1.00  0.00    -0.300 C  
HETATM   33  C   UNL     1     -12.115  13.405  63.369  1.00  0.00    -0.372 C  
HETATM   34  C   UNL     1     -11.772  11.876  66.311  1.00  0.00    -0.147 C  
ENDBRANCH  25  28
ENDBRANCH  21  25
ENDBRANCH  11  16
ENDBRANCH   3   4
ENDBRANCH   2   3
TORSDOF 7
ENDMDL
MODEL      134
REMARK 921   NORMALIZED FREE ENERGY PREDICTED BY IDOCK:   -4.85 KCAL/MOL
REMARK 922        TOTAL FREE ENERGY PREDICTED BY IDOCK:   -8.19 KCAL/MOL
REMARK 923 INTER-LIGAND FREE ENERGY PREDICTED BY IDOCK:   -7.67 KCAL/MOL
REMARK 924 INTRA-LIGAND FREE ENERGY PREDICTED BY IDOCK:   -0.51 KCAL/MOL
REMARK 927      BINDING AFFINITY PREDICTED BY RF-SCORE:    0.00 PKD
ROOT
HETATM    1  C   UNL     1     -10.243  20.045  67.817  1.00  0.00    -0.549 C  
HETATM    2  C   UNL     1     -10.339  19.334  66.474  1.00  0.00    -0.538 C  
ENDROOT
BRANCH   2   3
HETATM    3  C   UNL     1     -10.525  17.824  66.643  1.00  0.00    -0.300 C  
BRANCH   3   4
HETATM    4  C   UNL     1      -9.233  17.108  66.858  1.00  0.00    -0.241 A  
HETATM    5  N   UNL     1      -8.086  17.767  66.617  1.00  0.00    -0.245 NA 
HETATM    6  N   UNL     1      -7.114  16.880  66.930  1.00  0.00    -0.193 NA 
HETATM    7  C   UNL     1      -7.604  15.691  67.372  1.00  0.00    -0.198 A  
HETATM    8  C   UNL     1      -5.731  17.274  66.809  1.00  0.00    -0.191 C  
HETATM    9  C   UNL     1      -8.961  15.799  67.318  1.00  0.00    -0.196 A  
HETATM   10  N   UNL     1      -9.718  14.756  67.698  1.00  0.00    -0.212 NA 
HETATM   11  C   UNL     1      -9.039  13.612  68.117  1.00  0.00    -0.195 C  
HETATM   12  N   UNL     1      -7.739  13.491  68.187  1.00  0.00    -0.126 N  
HETATM   13  O   UNL     1      -5.682  14.443  67.829  1.00  0.00    -0.245 OA 
HETATM   14  H   UNL     1      -7.335  12.620  68.533  1.00  0.00     0.000 HD 
HETATM   15  C   UNL     1      -6.902  14.521  67.802  1.00  0.00    -0.177 C  
BRANCH  11  16
HETATM   16  C   UNL     1      -9.845  12.404  68.564  1.00  0.00    -0.156 A  
HETATM   17  C   UNL     1     -11.846  11.374  69.477  1.00  0.00    -0.426 A  
HETATM   18  C   UNL     1     -11.153  12.523  69.071  1.00  0.00    -0.234 A  
HETATM   19  C   UNL     1      -9.239  11.132  68.507  1.00  0.00    -0.183 A  
HETATM   20  C   UNL     1     -11.214  10.130  69.487  1.00  0.00    -0.288 A  
HETATM   21  C   UNL     1      -9.893  10.017  69.045  1.00  0.00    -0.199 A  
BRANCH  18  22
HETATM   22  O   UNL     1     -11.712  13.774  69.097  1.00  0.00    -0.286 OA 
BRANCH  22  23
HETATM   23  C   UNL     1     -12.221  14.227  70.352  1.00  0.00    -0.342 C  
HETATM   24  C   UNL     1     -11.876  15.701  70.459  1.00  0.00    -0.402 C  
ENDBRANCH  22  23
ENDBRANCH  18  22
BRANCH  21  25
HETATM   25  S   UNL     1      -9.110   8.413  69.089  1.00  0.00    -0.147 S  
HETATM   26  O   UNL     1      -9.730   7.659  70.158  1.00  0.00    -0.178 OA 
HETATM   27  O   UNL     1      -7.681   8.654  69.086  1.00  0.00    -0.093 OA 
BRANCH  25  28
HETATM   28  N   UNL     1      -9.484   7.662  67.621  1.00  0.00    -0.141 N  
HETATM   29  C   UNL     1      -8.447   6.891  66.905  1.00  0.00    -0.115 C  
HETATM   30  C   UNL     1      -8.478   5.418  67.329  1.00  0.00    -0.106 C  
HETATM   31  N   UNL     1      -9.788   4.756  67.166  1.00  0.00    -0.184 NA 
HETATM   32  C   UNL     1     -10.906   5.597  67.650  1.00  0.00    -0.089 C  
HETATM   33  C   UNL     1      -9.969   4.318  65.786  1.00  0.00    -0.222 C  
HETATM   34  C   UNL     1     -10.840   7.117  67.370  1.00  0.00    -0.276 C  
ENDBRANCH  25  28
ENDBRANCH  21  25
ENDBRANCH  11  16
ENDBRANCH   3   4
ENDBRANCH   2   3
TORSDOF 7
ENDMDL
MODEL      135
REMARK 921   NORMALIZED FREE ENERGY PREDICTED BY IDOCK:   -4.84 KCAL/MOL
REMARK 922        TOTAL FREE ENERGY PREDICTED BY IDOCK:   -8.17 KCAL/MOL
REMARK 923 INTER-LIGAND FREE ENERGY PREDICTED BY IDOCK:   -7.06 KCAL/MOL
REMARK 924 INTRA-LIGAND FREE ENERGY PREDICTED BY IDOCK:   -1.10 KCAL/MOL
REMARK 927      BINDING AFFINITY PREDICTED BY RF-SCORE:    0.00 PKD
ROOT
HETATM    1  C   UNL     1      -6.681   3.247  69.638  1.00  0.00    -0.034 C  
HETATM    2  C   UNL     1      -6.112   2.627  68.370  1.00  0.00    -0.025 C  
ENDROOT
BRANCH   2   3
HETATM    3  C   UNL     1      -6.106   3.621  67.206  1.00  0.00    -0.028 C  
BRANCH   3   4
HETATM    4  C   UNL     1      -7.416   3.678  66.494  1.00  0.00    -0.077 A  
HETATM    5  N   UNL     1      -7.697   2.722  65.589  1.00  0.00    -0.076 NA 
HETATM    6  N   UNL     1      -8.941   3.026  65.152  1.00  0.00    -0.138 NA 
HETATM    7  C   UNL     1      -9.460   4.129  65.755  1.00  0.00    -0.177 A  
HETATM    8  C   UNL     1      -9.575   2.175  64.174  1.00  0.00    -0.133 C  
HETATM    9  C   UNL     1      -8.498   4.582  66.606  1.00  0.00    -0.105 A  
HETATM   10  N   UNL     1      -8.736   5.679  67.344  1.00  0.00    -0.109 NA 
HETATM   11  C   UNL     1      -9.978   6.292  67.167  1.00  0.00    -0.151 C  
HETATM   12  N   UNL     1     -10.919   5.867  66.365  1.00  0.00    -0.734 N  
HETATM   13  O   UNL     1     -11.579   4.334  64.791  1.00  0.00    -0.093 OA 
HETATM   14  H   UNL     1     -11.806   6.370  66.325  1.00  0.00     0.000 HD 
HETATM   15  C   UNL     1     -10.735   4.752  65.571  1.00  0.00    -0.096 C  
BRANCH  11  16
HETATM   16  C   UNL     1     -10.304   7.533  67.979  1.00  0.00    -0.254 A  
HETATM   17  C   UNL     1     -11.000   8.641  70.025  1.00  0.00    -0.208 A  
HETATM   18  C   UNL     1     -10.703   7.462  69.328  1.00  0.00    -0.185 A  
HETATM   19  C   UNL     1     -10.245   8.789  67.341  1.00  0.00    -0.318 A  
HETATM   20  C   UNL     1     -11.012   9.872  69.367  1.00  0.00    -0.263 A  
HETATM   21  C   UNL     1     -10.679   9.939  68.012  1.00  0.00    -0.248 A  
BRANCH  18  22
HETATM   22  O   UNL     1     -10.733   6.225  69.916  1.00  0.00    -0.235 OA 
BRANCH  22  23
HETATM   23  C   UNL     1     -11.392   6.128  71.179  1.00  0.00    -0.275 C  
HETATM   24  C   UNL     1     -10.445   5.397  72.112  1.00  0.00    -0.273 C  
ENDBRANCH  22  23
ENDBRANCH  18  22
BRANCH  21  25
HETATM   25  S   UNL     1     -10.722  11.528  67.198  1.00  0.00    -0.268 S  
HETATM   26  O   UNL     1     -12.084  11.753  66.761  1.00  0.00    -0.547 OA 
HETATM   27  O   UNL     1      -9.630  11.532  66.246  1.00  0.00    -0.205 OA 
BRANCH  25  28
HETATM   28  N   UNL     1     -10.346  12.678  68.380  1.00  0.00    -0.233 N  
HETATM   29  C   UNL     1      -9.173  13.557  68.202  1.00  0.00    -0.208 C  
HETATM   30  C   UNL     1      -9.572  14.854  67.488  1.00  0.00    -0.204 C  
HETATM   31  N   UNL     1     -10.662  15.608  68.140  1.00  0.00    -0.277 NA 
HETATM   32  C   UNL     1     -11.774  14.729  68.566  1.00  0.00    -0.317 C  
HETATM   33  C   UNL     1     -10.136  16.421  69.232  1.00  0.00    -0.271 C  
HETATM   34  C   UNL     1     -11.417  13.345  69.159  1.00  0.00    -0.300 C  
ENDBRANCH  25  28
ENDBRANCH  21  25
ENDBRANCH  11  16
ENDBRANCH   3   4
ENDBRANCH   2   3
TORSDOF 7
ENDMDL
MODEL      136
REMARK 921   NORMALIZED FREE ENERGY PREDICTED BY IDOCK:   -4.81 KCAL/MOL
REMARK 922        TOTAL FREE ENERGY PREDICTED BY IDOCK:   -8.13 KCAL/MOL
REMARK 923 INTER-LIGAND FREE ENERGY PREDICTED BY IDOCK:   -6.83 KCAL/MOL
REMARK 924 INTRA-LIGAND FREE ENERGY PREDICTED BY IDOCK:   -1.30 KCAL/MOL
REMARK 927      BINDING AFFINITY PREDICTED BY RF-SCORE:    0.00 PKD
ROOT
HETATM    1  C   UNL     1      -5.962  10.053  64.111  1.00  0.00    -0.130 C  
HETATM    2  C   UNL     1      -6.040   9.215  65.379  1.00  0.00    -0.063 C  
ENDROOT
BRANCH   2   3
HETATM    3  C   UNL     1      -5.703   7.747  65.111  1.00  0.00    -0.037 C  
BRANCH   3   4
HETATM    4  C   UNL     1      -6.878   6.845  65.296  1.00  0.00    -0.051 A  
HETATM    5  N   UNL     1      -6.851   5.629  64.719  1.00  0.00    -0.050 NA 
HETATM    6  N   UNL     1      -8.017   5.054  65.090  1.00  0.00    -0.100 NA 
HETATM    7  C   UNL     1      -8.773   5.853  65.888  1.00  0.00    -0.150 A  
HETATM    8  C   UNL     1      -8.310   3.708  64.659  1.00  0.00    -0.093 C  
HETATM    9  C   UNL     1      -8.079   7.017  66.022  1.00  0.00    -0.122 A  
HETATM   10  N   UNL     1      -8.595   8.009  66.767  1.00  0.00    -0.126 NA 
HETATM   11  C   UNL     1      -9.840   7.768  67.350  1.00  0.00    -0.175 C  
HETATM   12  N   UNL     1     -10.518   6.655  67.244  1.00  0.00    -0.235 N  
HETATM   13  O   UNL     1     -10.660   4.551  66.340  1.00  0.00    -0.193 OA 
HETATM   14  H   UNL     1     -11.410   6.564  67.730  1.00  0.00     0.000 HD 
HETATM   15  C   UNL     1     -10.049   5.600  66.486  1.00  0.00    -0.185 C  
BRANCH  11  16
HETATM   16  C   UNL     1     -10.470   8.852  68.207  1.00  0.00    -0.243 A  
HETATM   17  C   UNL     1     -11.549   9.630  70.239  1.00  0.00    -0.255 A  
HETATM   18  C   UNL     1     -10.970   8.591  69.497  1.00  0.00    -0.046 A  
HETATM   19  C   UNL     1     -10.593  10.149  67.668  1.00  0.00    -0.316 A  
HETATM   20  C   UNL     1     -11.734  10.891  69.670  1.00  0.00    -0.403 A  
HETATM   21  C   UNL     1     -11.298  11.137  68.366  1.00  0.00    -0.288 A  
BRANCH  18  22
HETATM   22  O   UNL     1     -10.819   7.322  69.991  1.00  0.00    -0.244 OA 
BRANCH  22  23
HETATM   23  C   UNL     1      -9.743   7.111  70.906  1.00  0.00    -0.170 C  
HETATM   24  C   UNL     1      -9.298   5.671  70.734  1.00  0.00    -0.194 C  
ENDBRANCH  22  23
ENDBRANCH  18  22
BRANCH  21  25
HETATM   25  S   UNL     1     -11.567  12.757  67.664  1.00  0.00    -0.370 S  
HETATM   26  O   UNL     1     -12.103  13.599  68.713  1.00  0.00    -0.355 OA 
HETATM   27  O   UNL     1     -12.302  12.553  66.432  1.00  0.00    -0.537 OA 
BRANCH  25  28
HETATM   28  N   UNL     1     -10.042  13.348  67.234  1.00  0.00    -0.236 N  
HETATM   29  C   UNL     1      -9.860  14.040  65.942  1.00  0.00    -0.281 C  
HETATM   30  C   UNL     1     -10.075  15.550  66.102  1.00  0.00    -0.309 C  
HETATM   31  N   UNL     1      -9.228  16.189  67.129  1.00  0.00    -0.204 NA 
HETATM   32  C   UNL     1      -9.177  15.402  68.382  1.00  0.00    -0.192 C  
HETATM   33  C   UNL     1      -7.904  16.478  66.590  1.00  0.00    -0.285 C  
HETATM   34  C   UNL     1      -9.107  13.860  68.265  1.00  0.00    -0.191 C  
ENDBRANCH  25  28
ENDBRANCH  21  25
ENDBRANCH  11  16
ENDBRANCH   3   4
ENDBRANCH   2   3
TORSDOF 7
ENDMDL
MODEL      137
REMARK 921   NORMALIZED FREE ENERGY PREDICTED BY IDOCK:   -4.80 KCAL/MOL
REMARK 922        TOTAL FREE ENERGY PREDICTED BY IDOCK:   -8.12 KCAL/MOL
REMARK 923 INTER-LIGAND FREE ENERGY PREDICTED BY IDOCK:   -7.69 KCAL/MOL
REMARK 924 INTRA-LIGAND FREE ENERGY PREDICTED BY IDOCK:   -0.43 KCAL/MOL
REMARK 927      BINDING AFFINITY PREDICTED BY RF-SCORE:    0.00 PKD
ROOT
HETATM    1  C   UNL     1      -5.861  20.102  71.208  1.00  0.00    -0.346 C  
HETATM    2  C   UNL     1      -6.160  20.111  69.715  1.00  0.00    -0.392 C  
ENDROOT
BRANCH   2   3
HETATM    3  C   UNL     1      -6.197  18.696  69.135  1.00  0.00    -0.268 C  
BRANCH   3   4
HETATM    4  C   UNL     1      -7.336  18.493  68.192  1.00  0.00    -0.261 A  
HETATM    5  N   UNL     1      -8.004  19.573  67.749  1.00  0.00    -0.287 NA 
HETATM    6  N   UNL     1      -8.935  19.073  66.905  1.00  0.00    -0.291 NA 
HETATM    7  C   UNL     1      -8.871  17.720  66.788  1.00  0.00    -0.260 A  
HETATM    8  C   UNL     1      -9.827  19.976  66.220  1.00  0.00    -0.462 C  
HETATM    9  C   UNL     1      -7.869  17.316  67.616  1.00  0.00    -0.182 A  
HETATM   10  N   UNL     1      -7.579  16.007  67.709  1.00  0.00    -0.134 NA 
HETATM   11  C   UNL     1      -8.355  15.141  66.937  1.00  0.00    -0.232 C  
HETATM   12  N   UNL     1      -9.313  15.508  66.127  1.00  0.00    -0.322 N  
HETATM   13  O   UNL     1     -10.573  17.221  65.266  1.00  0.00    -0.667 OA 
HETATM   14  H   UNL     1      -9.808  14.800  65.584  1.00  0.00     0.000 HD 
HETATM   15  C   UNL     1      -9.669  16.836  65.993  1.00  0.00    -0.259 C  
BRANCH  11  16
HETATM   16  C   UNL     1      -8.068  13.651  66.998  1.00  0.00    -0.004 A  
HETATM   17  C   UNL     1      -6.595  11.760  67.391  1.00  0.00    -0.118 A  
HETATM   18  C   UNL     1      -6.805  13.145  67.362  1.00  0.00    -0.102 A  
HETATM   19  C   UNL     1      -9.092  12.752  66.633  1.00  0.00    -0.188 A  
HETATM   20  C   UNL     1      -7.589  10.882  66.957  1.00  0.00    -0.122 A  
HETATM   21  C   UNL     1      -8.823  11.382  66.533  1.00  0.00    -0.187 A  
BRANCH  18  22
HETATM   22  O   UNL     1      -5.841  14.049  67.723  1.00  0.00    -0.210 OA 
BRANCH  22  23
HETATM   23  C   UNL     1      -5.195  13.835  68.979  1.00  0.00    -0.070 C  
HETATM   24  C   UNL     1      -5.829  14.796  69.967  1.00  0.00    -0.131 C  
ENDBRANCH  22  23
ENDBRANCH  18  22
BRANCH  21  25
HETATM   25  S   UNL     1     -10.065  10.230  65.968  1.00  0.00    -0.227 S  
HETATM   26  O   UNL     1      -9.373   9.096  65.393  1.00  0.00    -0.234 OA 
HETATM   27  O   UNL     1     -11.009  10.998  65.181  1.00  0.00    -0.169 OA 
BRANCH  25  28
HETATM   28  N   UNL     1     -10.890   9.707  67.349  1.00  0.00    -0.240 N  
HETATM   29  C   UNL     1     -10.385   8.546  68.110  1.00  0.00    -0.206 C  
HETATM   30  C   UNL     1      -9.424   9.000  69.215  1.00  0.00    -0.157 C  
HETATM   31  N   UNL     1      -9.984   9.999  70.148  1.00  0.00    -0.235 NA 
HETATM   32  C   UNL     1     -10.722  11.072  69.445  1.00  0.00    -0.205 C  
HETATM   33  C   UNL     1     -10.787   9.342  71.175  1.00  0.00    -0.357 C  
HETATM   34  C   UNL     1     -11.591  10.674  68.228  1.00  0.00    -0.167 C  
ENDBRANCH  25  28
ENDBRANCH  21  25
ENDBRANCH  11  16
ENDBRANCH   3   4
ENDBRANCH   2   3
TORSDOF 7
ENDMDL
MODEL      138
REMARK 921   NORMALIZED FREE ENERGY PREDICTED BY IDOCK:   -4.80 KCAL/MOL
REMARK 922        TOTAL FREE ENERGY PREDICTED BY IDOCK:   -8.11 KCAL/MOL
REMARK 923 INTER-LIGAND FREE ENERGY PREDICTED BY IDOCK:   -6.87 KCAL/MOL
REMARK 924 INTRA-LIGAND FREE ENERGY PREDICTED BY IDOCK:   -1.24 KCAL/MOL
REMARK 927      BINDING AFFINITY PREDICTED BY RF-SCORE:    0.00 PKD
ROOT
HETATM    1  C   UNL     1      -7.338   2.771  70.329  1.00  0.00    -0.040 C  
HETATM    2  C   UNL     1      -6.592   2.174  69.144  1.00  0.00    -0.029 C  
ENDROOT
BRANCH   2   3
HETATM    3  C   UNL     1      -6.354   3.209  68.043  1.00  0.00    -0.033 C  
BRANCH   3   4
HETATM    4  C   UNL     1      -7.552   3.410  67.175  1.00  0.00    -0.078 A  
HETATM    5  N   UNL     1      -7.800   2.511  66.205  1.00  0.00    -0.079 NA 
HETATM    6  N   UNL     1      -8.945   2.942  65.629  1.00  0.00    -0.140 NA 
HETATM    7  C   UNL     1      -9.436   4.071  66.206  1.00  0.00    -0.190 A  
HETATM    8  C   UNL     1      -9.522   2.183  64.546  1.00  0.00    -0.112 C  
HETATM    9  C   UNL     1      -8.554   4.407  67.189  1.00  0.00    -0.104 A  
HETATM   10  N   UNL     1      -8.786   5.500  67.934  1.00  0.00    -0.107 NA 
HETATM   11  C   UNL     1      -9.935   6.232  67.629  1.00  0.00    -0.131 C  
HETATM   12  N   UNL     1     -10.800   5.921  66.700  1.00  0.00    -0.612 N  
HETATM   13  O   UNL     1     -11.387   4.502  64.995  1.00  0.00    -0.201 OA 
HETATM   14  H   UNL     1     -11.626   6.505  66.569  1.00  0.00     0.000 HD 
HETATM   15  C   UNL     1     -10.617   4.816  65.891  1.00  0.00    -0.244 C  
BRANCH  11  16
HETATM   16  C   UNL     1     -10.250   7.474  68.444  1.00  0.00    -0.211 A  
HETATM   17  C   UNL     1     -11.165   8.588  70.399  1.00  0.00    -0.224 A  
HETATM   18  C   UNL     1     -10.892   7.406  69.695  1.00  0.00    -0.210 A  
HETATM   19  C   UNL     1      -9.925   8.735  67.901  1.00  0.00    -0.231 A  
HETATM   20  C   UNL     1     -10.908   9.833  69.822  1.00  0.00    -0.285 A  
HETATM   21  C   UNL     1     -10.331   9.906  68.552  1.00  0.00    -0.196 A  
BRANCH  18  22
HETATM   22  O   UNL     1     -11.178   6.163  70.194  1.00  0.00    -0.351 OA 
BRANCH  22  23
HETATM   23  C   UNL     1     -10.512   5.784  71.400  1.00  0.00    -0.238 C  
HETATM   24  C   UNL     1     -11.569   5.738  72.488  1.00  0.00    -0.321 C  
ENDBRANCH  22  23
ENDBRANCH  18  22
BRANCH  21  25
HETATM   25  S   UNL     1     -10.033  11.516  67.839  1.00  0.00    -0.188 S  
HETATM   26  O   UNL     1      -8.700  11.498  67.274  1.00  0.00    -0.143 OA 
HETATM   27  O   UNL     1     -10.396  12.487  68.851  1.00  0.00    -0.161 OA 
BRANCH  25  28
HETATM   28  N   UNL     1     -11.144  11.687  66.575  1.00  0.00    -0.300 N  
HETATM   29  C   UNL     1     -12.049  12.854  66.547  1.00  0.00    -0.305 C  
HETATM   30  C   UNL     1     -11.420  14.008  65.758  1.00  0.00    -0.318 C  
HETATM   31  N   UNL     1     -11.011  13.665  64.381  1.00  0.00    -0.387 NA 
HETATM   32  C   UNL     1     -10.303  12.367  64.313  1.00  0.00    -0.362 C  
HETATM   33  C   UNL     1     -12.156  13.730  63.478  1.00  0.00    -0.189 C  
HETATM   34  C   UNL     1     -10.819  11.214  65.208  1.00  0.00    -0.152 C  
ENDBRANCH  25  28
ENDBRANCH  21  25
ENDBRANCH  11  16
ENDBRANCH   3   4
ENDBRANCH   2   3
TORSDOF 7
ENDMDL
MODEL      139
REMARK 921   NORMALIZED FREE ENERGY PREDICTED BY IDOCK:   -4.80 KCAL/MOL
REMARK 922        TOTAL FREE ENERGY PREDICTED BY IDOCK:   -8.11 KCAL/MOL
REMARK 923 INTER-LIGAND FREE ENERGY PREDICTED BY IDOCK:   -6.93 KCAL/MOL
REMARK 924 INTRA-LIGAND FREE ENERGY PREDICTED BY IDOCK:   -1.18 KCAL/MOL
REMARK 927      BINDING AFFINITY PREDICTED BY RF-SCORE:    0.00 PKD
ROOT
HETATM    1  C   UNL     1     -13.419   9.313  72.305  1.00  0.00    -0.548 C  
HETATM    2  C   UNL     1     -12.791   8.040  71.757  1.00  0.00    -0.353 C  
ENDROOT
BRANCH   2   3
HETATM    3  C   UNL     1     -11.814   7.413  72.753  1.00  0.00    -0.107 C  
BRANCH   3   4
HETATM    4  C   UNL     1     -10.408   7.865  72.540  1.00  0.00    -0.285 A  
HETATM    5  N   UNL     1      -9.468   7.475  73.420  1.00  0.00    -0.228 NA 
HETATM    6  N   UNL     1      -8.319   8.007  72.945  1.00  0.00    -0.156 NA 
HETATM    7  C   UNL     1      -8.495   8.706  71.792  1.00  0.00    -0.155 A  
HETATM    8  C   UNL     1      -7.082   7.761  73.646  1.00  0.00    -0.103 C  
HETATM    9  C   UNL     1      -9.828   8.650  71.517  1.00  0.00    -0.272 A  
HETATM   10  N   UNL     1     -10.299   9.268  70.421  1.00  0.00    -0.221 NA 
HETATM   11  C   UNL     1      -9.364   9.945  69.636  1.00  0.00    -0.228 C  
HETATM   12  N   UNL     1      -8.081  10.001  69.875  1.00  0.00    -0.232 N  
HETATM   13  O   UNL     1      -6.341   9.444  71.264  1.00  0.00    -0.091 OA 
HETATM   14  H   UNL     1      -7.472  10.500  69.226  1.00  0.00     0.000 HD 
HETATM   15  C   UNL     1      -7.532   9.397  70.990  1.00  0.00    -0.010 C  
BRANCH  11  16
HETATM   16  C   UNL     1      -9.840  10.656  68.381  1.00  0.00    -0.170 A  
HETATM   17  C   UNL     1     -10.318  10.726  66.001  1.00  0.00    -0.300 A  
HETATM   18  C   UNL     1      -9.878  10.017  67.127  1.00  0.00    -0.185 A  
HETATM   19  C   UNL     1     -10.212  12.013  68.477  1.00  0.00    -0.218 A  
HETATM   20  C   UNL     1     -10.613  12.088  66.090  1.00  0.00    -0.298 A  
HETATM   21  C   UNL     1     -10.515  12.742  67.321  1.00  0.00    -0.232 A  
BRANCH  18  22
HETATM   22  O   UNL     1      -9.523   8.695  67.078  1.00  0.00    -0.153 OA 
BRANCH  22  23
HETATM   23  C   UNL     1     -10.582   7.748  66.932  1.00  0.00    -0.277 C  
HETATM   24  C   UNL     1     -10.392   6.707  68.020  1.00  0.00    -0.226 C  
ENDBRANCH  22  23
ENDBRANCH  18  22
BRANCH  21  25
HETATM   25  S   UNL     1     -10.882  14.488  67.393  1.00  0.00    -0.298 S  
HETATM   26  O   UNL     1     -11.581  14.731  68.638  1.00  0.00    -0.289 OA 
HETATM   27  O   UNL     1     -11.490  14.833  66.124  1.00  0.00    -0.347 OA 
BRANCH  25  28
HETATM   28  N   UNL     1      -9.392  15.285  67.456  1.00  0.00    -0.202 N  
HETATM   29  C   UNL     1      -9.111  16.232  68.554  1.00  0.00    -0.216 C  
HETATM   30  C   UNL     1      -8.443  15.512  69.732  1.00  0.00     0.020 C  
HETATM   31  N   UNL     1      -7.211  14.774  69.387  1.00  0.00    -0.164 NA 
HETATM   32  C   UNL     1      -7.358  13.988  68.142  1.00  0.00    -0.128 C  
HETATM   33  C   UNL     1      -6.068  15.681  69.349  1.00  0.00    -0.131 C  
HETATM   34  C   UNL     1      -8.155  14.622  66.976  1.00  0.00    -0.120 C  
ENDBRANCH  25  28
ENDBRANCH  21  25
ENDBRANCH  11  16
ENDBRANCH   3   4
ENDBRANCH   2   3
TORSDOF 7
ENDMDL
MODEL      140
REMARK 921   NORMALIZED FREE ENERGY PREDICTED BY IDOCK:   -4.77 KCAL/MOL
REMARK 922        TOTAL FREE ENERGY PREDICTED BY IDOCK:   -8.08 KCAL/MOL
REMARK 923 INTER-LIGAND FREE ENERGY PREDICTED BY IDOCK:   -6.61 KCAL/MOL
REMARK 924 INTRA-LIGAND FREE ENERGY PREDICTED BY IDOCK:   -1.47 KCAL/MOL
REMARK 927      BINDING AFFINITY PREDICTED BY RF-SCORE:    0.00 PKD
ROOT
HETATM    1  C   UNL     1      -5.736  15.350  67.752  1.00  0.00    -0.138 C  
HETATM    2  C   UNL     1      -6.294  14.895  69.093  1.00  0.00    -0.108 C  
ENDROOT
BRANCH   2   3
HETATM    3  C   UNL     1      -7.643  15.549  69.399  1.00  0.00    -0.225 C  
BRANCH   3   4
HETATM    4  C   UNL     1      -8.681  15.229  68.376  1.00  0.00    -0.170 A  
HETATM    5  N   UNL     1      -9.154  16.227  67.607  1.00  0.00    -0.193 NA 
HETATM    6  N   UNL     1     -10.036  15.624  66.776  1.00  0.00    -0.243 NA 
HETATM    7  C   UNL     1     -10.128  14.284  66.983  1.00  0.00    -0.260 A  
HETATM    8  C   UNL     1     -10.723  16.413  65.782  1.00  0.00    -0.238 C  
HETATM    9  C   UNL     1      -9.287  14.002  68.016  1.00  0.00    -0.205 A  
HETATM   10  N   UNL     1      -9.175  12.735  68.447  1.00  0.00    -0.176 NA 
HETATM   11  C   UNL     1      -9.959  11.783  67.793  1.00  0.00    -0.190 C  
HETATM   12  N   UNL     1     -10.763  12.029  66.792  1.00  0.00    -0.234 N  
HETATM   13  O   UNL     1     -11.692  13.591  65.391  1.00  0.00    -0.315 OA 
HETATM   14  H   UNL     1     -11.276  11.260  66.361  1.00  0.00     0.000 HD 
HETATM   15  C   UNL     1     -10.933  13.312  66.308  1.00  0.00    -0.284 C  
BRANCH  11  16
HETATM   16  C   UNL     1      -9.869  10.332  68.234  1.00  0.00    -0.161 A  
HETATM   17  C   UNL     1      -9.029   8.064  68.006  1.00  0.00    -0.130 A  
HETATM   18  C   UNL     1      -9.066   9.393  67.559  1.00  0.00    -0.124 A  
HETATM   19  C   UNL     1     -10.652   9.912  69.329  1.00  0.00    -0.245 A  
HETATM   20  C   UNL     1      -9.863   7.641  69.042  1.00  0.00    -0.168 A  
HETATM   21  C   UNL     1     -10.709   8.556  69.673  1.00  0.00    -0.197 A  
BRANCH  18  22
HETATM   22  O   UNL     1      -8.309   9.843  66.509  1.00  0.00    -0.123 OA 
BRANCH  22  23
HETATM   23  C   UNL     1      -8.383   9.096  65.294  1.00  0.00    -0.146 C  
HETATM   24  C   UNL     1      -9.156   9.947  64.303  1.00  0.00    -0.297 C  
ENDBRANCH  22  23
ENDBRANCH  18  22
BRANCH  21  25
HETATM   25  S   UNL     1     -11.775   7.975  70.982  1.00  0.00    -0.249 S  
HETATM   26  O   UNL     1     -12.358   6.725  70.542  1.00  0.00    -0.326 OA 
HETATM   27  O   UNL     1     -12.617   9.094  71.354  1.00  0.00    -0.312 OA 
BRANCH  25  28
HETATM   28  N   UNL     1     -10.771   7.656  72.305  1.00  0.00    -0.242 N  
HETATM   29  C   UNL     1     -10.458   6.259  72.670  1.00  0.00    -0.211 C  
HETATM   30  C   UNL     1      -9.182   5.788  71.963  1.00  0.00    -0.147 C  
HETATM   31  N   UNL     1      -7.997   6.638  72.196  1.00  0.00    -0.098 NA 
HETATM   32  C   UNL     1      -8.310   8.080  72.082  1.00  0.00    -0.143 C  
HETATM   33  C   UNL     1      -7.367   6.297  73.467  1.00  0.00    -0.087 C  
HETATM   34  C   UNL     1      -9.660   8.574  72.655  1.00  0.00    -0.223 C  
ENDBRANCH  25  28
ENDBRANCH  21  25
ENDBRANCH  11  16
ENDBRANCH   3   4
ENDBRANCH   2   3
TORSDOF 7
ENDMDL
MODEL      141
REMARK 921   NORMALIZED FREE ENERGY PREDICTED BY IDOCK:   -4.75 KCAL/MOL
REMARK 922        TOTAL FREE ENERGY PREDICTED BY IDOCK:   -8.05 KCAL/MOL
REMARK 923 INTER-LIGAND FREE ENERGY PREDICTED BY IDOCK:   -7.40 KCAL/MOL
REMARK 924 INTRA-LIGAND FREE ENERGY PREDICTED BY IDOCK:   -0.64 KCAL/MOL
REMARK 927      BINDING AFFINITY PREDICTED BY RF-SCORE:    0.00 PKD
ROOT
HETATM    1  C   UNL     1      -9.600  14.817  67.893  1.00  0.00    -0.210 C  
HETATM    2  C   UNL     1     -10.551  14.115  68.853  1.00  0.00    -0.249 C  
ENDROOT
BRANCH   2   3
HETATM    3  C   UNL     1     -11.875  13.753  68.176  1.00  0.00    -0.411 C  
BRANCH   3   4
HETATM    4  C   UNL     1     -11.683  13.169  66.816  1.00  0.00    -0.385 A  
HETATM    5  N   UNL     1     -12.282  13.768  65.771  1.00  0.00    -0.431 NA 
HETATM    6  N   UNL     1     -11.898  13.039  64.698  1.00  0.00    -0.352 NA 
HETATM    7  C   UNL     1     -11.071  12.011  65.025  1.00  0.00    -0.316 A  
HETATM    8  C   UNL     1     -12.347  13.426  63.382  1.00  0.00    -0.269 C  
HETATM    9  C   UNL     1     -10.930  12.055  66.379  1.00  0.00    -0.296 A  
HETATM   10  N   UNL     1     -10.158  11.141  66.990  1.00  0.00    -0.195 NA 
HETATM   11  C   UNL     1      -9.555  10.186  66.170  1.00  0.00    -0.203 C  
HETATM   12  N   UNL     1      -9.667  10.133  64.869  1.00  0.00    -0.309 N  
HETATM   13  O   UNL     1     -10.605  11.007  62.966  1.00  0.00    -0.181 OA 
HETATM   14  H   UNL     1      -9.164   9.410  64.352  1.00  0.00     0.000 HD 
HETATM   15  C   UNL     1     -10.453  11.035  64.179  1.00  0.00    -0.366 C  
BRANCH  11  16
HETATM   16  C   UNL     1      -8.666   9.132  66.806  1.00  0.00    -0.138 A  
HETATM   17  C   UNL     1      -6.672   7.745  66.855  1.00  0.00    -0.067 A  
HETATM   18  C   UNL     1      -7.447   8.731  66.227  1.00  0.00    -0.087 A  
HETATM   19  C   UNL     1      -9.105   8.508  67.993  1.00  0.00    -0.144 A  
HETATM   20  C   UNL     1      -7.149   7.082  67.987  1.00  0.00    -0.086 A  
HETATM   21  C   UNL     1      -8.388   7.432  68.528  1.00  0.00    -0.126 A  
BRANCH  18  22
HETATM   22  O   UNL     1      -7.048   9.370  65.083  1.00  0.00    -0.094 OA 
BRANCH  22  23
HETATM   23  C   UNL     1      -5.647   9.601  64.929  1.00  0.00    -0.063 C  
HETATM   24  C   UNL     1      -5.335  10.898  65.651  1.00  0.00    -0.138 C  
ENDBRANCH  22  23
ENDBRANCH  18  22
BRANCH  21  25
HETATM   25  S   UNL     1      -8.974   6.549  69.965  1.00  0.00    -0.143 S  
HETATM   26  O   UNL     1      -8.218   7.026  71.104  1.00  0.00    -0.111 OA 
HETATM   27  O   UNL     1      -8.973   5.143  69.612  1.00  0.00    -0.103 OA 
BRANCH  25  28
HETATM   28  N   UNL     1     -10.591   7.000  70.173  1.00  0.00    -0.221 N  
HETATM   29  C   UNL     1     -11.433   6.283  71.152  1.00  0.00    -0.299 C  
HETATM   30  C   UNL     1     -11.372   6.968  72.523  1.00  0.00    -0.263 C  
HETATM   31  N   UNL     1     -11.733   8.400  72.514  1.00  0.00    -0.385 NA 
HETATM   32  C   UNL     1     -11.101   9.131  71.392  1.00  0.00    -0.345 C  
HETATM   33  C   UNL     1     -13.183   8.561  72.546  1.00  0.00    -0.223 C  
HETATM   34  C   UNL     1     -11.010   8.415  70.023  1.00  0.00    -0.194 C  
ENDBRANCH  25  28
ENDBRANCH  21  25
ENDBRANCH  11  16
ENDBRANCH   3   4
ENDBRANCH   2   3
TORSDOF 7
ENDMDL
MODEL      142
REMARK 921   NORMALIZED FREE ENERGY PREDICTED BY IDOCK:   -4.74 KCAL/MOL
REMARK 922        TOTAL FREE ENERGY PREDICTED BY IDOCK:   -8.03 KCAL/MOL
REMARK 923 INTER-LIGAND FREE ENERGY PREDICTED BY IDOCK:   -7.09 KCAL/MOL
REMARK 924 INTRA-LIGAND FREE ENERGY PREDICTED BY IDOCK:   -0.94 KCAL/MOL
REMARK 927      BINDING AFFINITY PREDICTED BY RF-SCORE:    0.00 PKD
ROOT
HETATM    1  C   UNL     1      -9.039   3.139  68.882  1.00  0.00    -0.208 C  
HETATM    2  C   UNL     1      -9.597   4.512  68.534  1.00  0.00    -0.212 C  
ENDROOT
BRANCH   2   3
HETATM    3  C   UNL     1     -10.180   5.216  69.760  1.00  0.00    -0.357 C  
BRANCH   3   4
HETATM    4  C   UNL     1      -9.320   6.337  70.241  1.00  0.00    -0.161 A  
HETATM    5  N   UNL     1      -8.555   6.138  71.330  1.00  0.00    -0.128 NA 
HETATM    6  N   UNL     1      -7.884   7.301  71.489  1.00  0.00    -0.091 NA 
HETATM    7  C   UNL     1      -8.186   8.222  70.536  1.00  0.00    -0.114 A  
HETATM    8  C   UNL     1      -6.937   7.430  72.571  1.00  0.00    -0.068 C  
HETATM    9  C   UNL     1      -9.119   7.641  69.732  1.00  0.00    -0.147 A  
HETATM   10  N   UNL     1      -9.612   8.332  68.691  1.00  0.00    -0.148 NA 
HETATM   11  C   UNL     1      -9.125   9.629  68.516  1.00  0.00    -0.131 C  
HETATM   12  N   UNL     1      -8.222  10.201  69.268  1.00  0.00    -0.143 N  
HETATM   13  O   UNL     1      -6.853  10.056  71.104  1.00  0.00    -0.336 OA 
HETATM   14  H   UNL     1      -7.910  11.146  69.044  1.00  0.00     0.000 HD 
HETATM   15  C   UNL     1      -7.682   9.550  70.361  1.00  0.00    -0.163 C  
BRANCH  11  16
HETATM   16  C   UNL     1      -9.643  10.454  67.351  1.00  0.00    -0.178 A  
HETATM   17  C   UNL     1      -9.815  10.955  64.980  1.00  0.00    -0.336 A  
HETATM   18  C   UNL     1      -9.316  10.151  66.015  1.00  0.00    -0.169 A  
HETATM   19  C   UNL     1     -10.439  11.584  67.628  1.00  0.00    -0.218 A  
HETATM   20  C   UNL     1     -10.540  12.113  65.267  1.00  0.00    -0.319 A  
HETATM   21  C   UNL     1     -10.812  12.453  66.595  1.00  0.00    -0.246 A  
BRANCH  18  22
HETATM   22  O   UNL     1      -8.552   9.038  65.786  1.00  0.00    -0.141 OA 
BRANCH  22  23
HETATM   23  C   UNL     1      -8.452   8.592  64.433  1.00  0.00    -0.095 C  
HETATM   24  C   UNL     1      -7.057   8.952  63.955  1.00  0.00    -0.094 C  
ENDBRANCH  22  23
ENDBRANCH  18  22
BRANCH  21  25
HETATM   25  S   UNL     1     -11.726  13.951  66.925  1.00  0.00    -0.422 S  
HETATM   26  O   UNL     1     -12.021  13.973  68.342  1.00  0.00    -0.349 OA 
HETATM   27  O   UNL     1     -12.792  14.005  65.946  1.00  0.00    -0.484 OA 
BRANCH  25  28
HETATM   28  N   UNL     1     -10.677  15.232  66.580  1.00  0.00    -0.308 N  
HETATM   29  C   UNL     1     -10.876  16.541  67.236  1.00  0.00    -0.173 C  
HETATM   30  C   UNL     1     -10.072  16.620  68.539  1.00  0.00    -0.266 C  
HETATM   31  N   UNL     1      -8.626  16.356  68.389  1.00  0.00    -0.200 NA 
HETATM   32  C   UNL     1      -8.357  15.182  67.528  1.00  0.00    -0.172 C  
HETATM   33  C   UNL     1      -7.932  17.557  67.937  1.00  0.00    -0.227 C  
HETATM   34  C   UNL     1      -9.247  14.984  66.277  1.00  0.00    -0.289 C  
ENDBRANCH  25  28
ENDBRANCH  21  25
ENDBRANCH  11  16
ENDBRANCH   3   4
ENDBRANCH   2   3
TORSDOF 7
ENDMDL
MODEL      143
REMARK 921   NORMALIZED FREE ENERGY PREDICTED BY IDOCK:   -4.74 KCAL/MOL
REMARK 922        TOTAL FREE ENERGY PREDICTED BY IDOCK:   -8.03 KCAL/MOL
REMARK 923 INTER-LIGAND FREE ENERGY PREDICTED BY IDOCK:   -6.90 KCAL/MOL
REMARK 924 INTRA-LIGAND FREE ENERGY PREDICTED BY IDOCK:   -1.13 KCAL/MOL
REMARK 927      BINDING AFFINITY PREDICTED BY RF-SCORE:    0.00 PKD
ROOT
HETATM    1  C   UNL     1      -5.355   7.427  67.254  1.00  0.00    -0.029 C  
HETATM    2  C   UNL     1      -6.116   8.633  66.719  1.00  0.00    -0.058 C  
ENDROOT
BRANCH   2   3
HETATM    3  C   UNL     1      -6.829   8.316  65.403  1.00  0.00    -0.062 C  
BRANCH   3   4
HETATM    4  C   UNL     1      -7.837   9.352  65.033  1.00  0.00    -0.115 A  
HETATM    5  N   UNL     1      -7.800   9.869  63.791  1.00  0.00    -0.141 NA 
HETATM    6  N   UNL     1      -8.838  10.736  63.755  1.00  0.00    -0.159 NA 
HETATM    7  C   UNL     1      -9.536  10.776  64.921  1.00  0.00    -0.242 A  
HETATM    8  C   UNL     1      -9.110  11.463  62.538  1.00  0.00    -0.118 C  
HETATM    9  C   UNL     1      -8.907   9.914  65.767  1.00  0.00    -0.147 A  
HETATM   10  N   UNL     1      -9.383   9.751  67.013  1.00  0.00    -0.145 NA 
HETATM   11  C   UNL     1     -10.507  10.505  67.355  1.00  0.00    -0.244 C  
HETATM   12  N   UNL     1     -11.132  11.328  66.555  1.00  0.00    -0.261 N  
HETATM   13  O   UNL     1     -11.229  12.329  64.492  1.00  0.00    -0.302 OA 
HETATM   14  H   UNL     1     -11.964  11.816  66.889  1.00  0.00     0.000 HD 
HETATM   15  C   UNL     1     -10.689  11.551  65.265  1.00  0.00    -0.279 C  
BRANCH  11  16
HETATM   16  C   UNL     1     -11.092  10.356  68.748  1.00  0.00    -0.298 A  
HETATM   17  C   UNL     1     -12.281  11.216  70.684  1.00  0.00    -0.492 A  
HETATM   18  C   UNL     1     -11.769  11.409  69.393  1.00  0.00    -0.338 A  
HETATM   19  C   UNL     1     -10.907   9.134  69.428  1.00  0.00    -0.165 A  
HETATM   20  C   UNL     1     -12.029  10.031  71.378  1.00  0.00    -0.470 A  
HETATM   21  C   UNL     1     -11.301   9.007  70.766  1.00  0.00    -0.277 A  
BRANCH  18  22
HETATM   22  O   UNL     1     -11.941  12.574  68.694  1.00  0.00    -0.308 OA 
BRANCH  22  23
HETATM   23  C   UNL     1     -11.467  13.772  69.311  1.00  0.00    -0.293 C  
HETATM   24  C   UNL     1     -10.551  14.449  68.309  1.00  0.00    -0.243 C  
ENDBRANCH  22  23
ENDBRANCH  18  22
BRANCH  21  25
HETATM   25  S   UNL     1     -10.983   7.513  71.690  1.00  0.00    -0.236 S  
HETATM   26  O   UNL     1     -11.927   6.514  71.234  1.00  0.00    -0.336 OA 
HETATM   27  O   UNL     1     -10.930   7.897  73.086  1.00  0.00    -0.383 OA 
BRANCH  25  28
HETATM   28  N   UNL     1      -9.427   7.011  71.260  1.00  0.00    -0.164 N  
HETATM   29  C   UNL     1      -8.325   7.993  71.215  1.00  0.00    -0.117 C  
HETATM   30  C   UNL     1      -7.609   8.065  72.569  1.00  0.00    -0.114 C  
HETATM   31  N   UNL     1      -7.099   6.772  73.067  1.00  0.00    -0.075 NA 
HETATM   32  C   UNL     1      -8.088   5.681  72.911  1.00  0.00    -0.111 C  
HETATM   33  C   UNL     1      -5.813   6.459  72.453  1.00  0.00    -0.038 C  
HETATM   34  C   UNL     1      -8.938   5.657  71.618  1.00  0.00    -0.136 C  
ENDBRANCH  25  28
ENDBRANCH  21  25
ENDBRANCH  11  16
ENDBRANCH   3   4
ENDBRANCH   2   3
TORSDOF 7
ENDMDL
MODEL      144
REMARK 921   NORMALIZED FREE ENERGY PREDICTED BY IDOCK:   -4.71 KCAL/MOL
REMARK 922        TOTAL FREE ENERGY PREDICTED BY IDOCK:   -7.98 KCAL/MOL
REMARK 923 INTER-LIGAND FREE ENERGY PREDICTED BY IDOCK:   -6.76 KCAL/MOL
REMARK 924 INTRA-LIGAND FREE ENERGY PREDICTED BY IDOCK:   -1.22 KCAL/MOL
REMARK 927      BINDING AFFINITY PREDICTED BY RF-SCORE:    0.00 PKD
ROOT
HETATM    1  C   UNL     1      -6.858  15.413  69.555  1.00  0.00    -0.181 C  
HETATM    2  C   UNL     1      -6.942  16.304  68.324  1.00  0.00    -0.130 C  
ENDROOT
BRANCH   2   3
HETATM    3  C   UNL     1      -8.299  17.002  68.219  1.00  0.00    -0.228 C  
BRANCH   3   4
HETATM    4  C   UNL     1      -9.413  16.177  68.773  1.00  0.00    -0.230 A  
HETATM    5  N   UNL     1     -10.115  16.661  69.813  1.00  0.00    -0.053 NA 
HETATM    6  N   UNL     1     -11.053  15.718  70.057  1.00  0.00    -0.312 NA 
HETATM    7  C   UNL     1     -10.978  14.663  69.202  1.00  0.00    -0.262 A  
HETATM    8  C   UNL     1     -12.012  15.930  71.114  1.00  0.00    -0.427 C  
HETATM    9  C   UNL     1      -9.923  14.918  68.379  1.00  0.00    -0.222 A  
HETATM   10  N   UNL     1      -9.606  14.030  67.423  1.00  0.00    -0.222 NA 
HETATM   11  C   UNL     1     -10.395  12.880  67.352  1.00  0.00    -0.233 C  
HETATM   12  N   UNL     1     -11.418  12.622  68.124  1.00  0.00    -0.290 N  
HETATM   13  O   UNL     1     -12.726  13.273  69.893  1.00  0.00    -0.017 OA 
HETATM   14  H   UNL     1     -11.951  11.764  67.977  1.00  0.00     0.000 HD 
HETATM   15  C   UNL     1     -11.791  13.487  69.134  1.00  0.00    -0.340 C  
BRANCH  11  16
HETATM   16  C   UNL     1     -10.086  11.845  66.286  1.00  0.00    -0.249 A  
HETATM   17  C   UNL     1     -10.534  10.736  64.172  1.00  0.00    -0.309 A  
HETATM   18  C   UNL     1     -10.862  11.717  65.118  1.00  0.00    -0.297 A  
HETATM   19  C   UNL     1      -9.011  10.957  66.501  1.00  0.00    -0.178 A  
HETATM   20  C   UNL     1      -9.517   9.815  64.427  1.00  0.00    -0.233 A  
HETATM   21  C   UNL     1      -8.786   9.896  65.615  1.00  0.00    -0.158 A  
BRANCH  18  22
HETATM   22  O   UNL     1     -11.887  12.607  64.938  1.00  0.00    -0.347 OA 
BRANCH  22  23
HETATM   23  C   UNL     1     -11.814  13.452  63.788  1.00  0.00    -0.431 C  
HETATM   24  C   UNL     1     -12.347  14.809  64.207  1.00  0.00    -0.345 C  
ENDBRANCH  22  23
ENDBRANCH  18  22
BRANCH  21  25
HETATM   25  S   UNL     1      -7.505   8.690  65.917  1.00  0.00    -0.086 S  
HETATM   26  O   UNL     1      -6.403   9.379  66.554  1.00  0.00    -0.064 OA 
HETATM   27  O   UNL     1      -7.310   7.978  64.670  1.00  0.00    -0.075 OA 
BRANCH  25  28
HETATM   28  N   UNL     1      -8.148   7.580  67.019  1.00  0.00    -0.115 N  
HETATM   29  C   UNL     1      -9.424   6.900  66.717  1.00  0.00    -0.165 C  
HETATM   30  C   UNL     1      -9.172   5.578  65.983  1.00  0.00    -0.158 C  
HETATM   31  N   UNL     1      -8.268   4.645  66.684  1.00  0.00    -0.107 NA 
HETATM   32  C   UNL     1      -7.072   5.325  67.229  1.00  0.00    -0.070 C  
HETATM   33  C   UNL     1      -8.999   3.892  67.699  1.00  0.00    -0.133 C  
HETATM   34  C   UNL     1      -7.259   6.731  67.849  1.00  0.00    -0.091 C  
ENDBRANCH  25  28
ENDBRANCH  21  25
ENDBRANCH  11  16
ENDBRANCH   3   4
ENDBRANCH   2   3
TORSDOF 7
ENDMDL
MODEL      145
REMARK 921   NORMALIZED FREE ENERGY PREDICTED BY IDOCK:   -4.69 KCAL/MOL
REMARK 922        TOTAL FREE ENERGY PREDICTED BY IDOCK:   -7.96 KCAL/MOL
REMARK 923 INTER-LIGAND FREE ENERGY PREDICTED BY IDOCK:   -6.10 KCAL/MOL
REMARK 924 INTRA-LIGAND FREE ENERGY PREDICTED BY IDOCK:   -1.86 KCAL/MOL
REMARK 927      BINDING AFFINITY PREDICTED BY RF-SCORE:    0.00 PKD
ROOT
HETATM    1  C   UNL     1     -12.416  10.286  71.247  1.00  0.00    -0.514 C  
HETATM    2  C   UNL     1     -12.952   9.215  72.186  1.00  0.00    -0.498 C  
ENDROOT
BRANCH   2   3
HETATM    3  C   UNL     1     -13.133   7.874  71.472  1.00  0.00    -0.343 C  
BRANCH   3   4
HETATM    4  C   UNL     1     -11.993   6.940  71.706  1.00  0.00    -0.333 A  
HETATM    5  N   UNL     1     -12.183   5.887  72.522  1.00  0.00    -0.104 NA 
HETATM    6  N   UNL     1     -11.001   5.229  72.504  1.00  0.00    -0.244 NA 
HETATM    7  C   UNL     1     -10.078   5.818  71.699  1.00  0.00    -0.194 A  
HETATM    8  C   UNL     1     -10.858   4.012  73.266  1.00  0.00    -0.210 C  
HETATM    9  C   UNL     1     -10.677   6.930  71.188  1.00  0.00    -0.225 A  
HETATM   10  N   UNL     1      -9.988   7.721  70.349  1.00  0.00    -0.188 NA 
HETATM   11  C   UNL     1      -8.675   7.340  70.068  1.00  0.00    -0.141 C  
HETATM   12  N   UNL     1      -8.086   6.272  70.537  1.00  0.00    -0.111 N  
HETATM   13  O   UNL     1      -8.212   4.425  71.894  1.00  0.00    -0.098 OA 
HETATM   14  H   UNL     1      -7.128   6.062  70.252  1.00  0.00     0.000 HD 
HETATM   15  C   UNL     1      -8.733   5.421  71.412  1.00  0.00    -0.131 C  
BRANCH  11  16
HETATM   16  C   UNL     1      -7.852   8.194  69.121  1.00  0.00    -0.107 A  
HETATM   17  C   UNL     1      -5.842   9.427  68.534  1.00  0.00    -0.041 A  
HETATM   18  C   UNL     1      -6.553   8.632  69.445  1.00  0.00    -0.045 A  
HETATM   19  C   UNL     1      -8.431   8.596  67.900  1.00  0.00    -0.129 A  
HETATM   20  C   UNL     1      -6.450   9.880  67.363  1.00  0.00    -0.068 A  
HETATM   21  C   UNL     1      -7.763   9.502  67.068  1.00  0.00    -0.091 A  
BRANCH  18  22
HETATM   22  O   UNL     1      -6.019   8.209  70.633  1.00  0.00    -0.032 OA 
BRANCH  22  23
HETATM   23  C   UNL     1      -5.936   9.175  71.682  1.00  0.00    -0.072 C  
HETATM   24  C   UNL     1      -5.785   8.402  72.979  1.00  0.00    -0.067 C  
ENDBRANCH  22  23
ENDBRANCH  18  22
BRANCH  21  25
HETATM   25  S   UNL     1      -8.515  10.116  65.569  1.00  0.00    -0.160 S  
HETATM   26  O   UNL     1      -9.437   9.102  65.102  1.00  0.00    -0.191 OA 
HETATM   27  O   UNL     1      -7.431  10.576  64.725  1.00  0.00    -0.091 OA 
BRANCH  25  28
HETATM   28  N   UNL     1      -9.406  11.484  66.011  1.00  0.00    -0.220 N  
HETATM   29  C   UNL     1     -10.871  11.383  66.176  1.00  0.00    -0.255 C  
HETATM   30  C   UNL     1     -11.230  11.043  67.627  1.00  0.00    -0.305 C  
HETATM   31  N   UNL     1     -10.680  11.974  68.634  1.00  0.00    -0.230 NA 
HETATM   32  C   UNL     1      -9.262  12.307  68.375  1.00  0.00    -0.145 C  
HETATM   33  C   UNL     1     -11.525  13.158  68.748  1.00  0.00    -0.307 C  
HETATM   34  C   UNL     1      -8.824  12.514  66.905  1.00  0.00    -0.203 C  
ENDBRANCH  25  28
ENDBRANCH  21  25
ENDBRANCH  11  16
ENDBRANCH   3   4
ENDBRANCH   2   3
TORSDOF 7
ENDMDL
MODEL      146
REMARK 921   NORMALIZED FREE ENERGY PREDICTED BY IDOCK:   -4.67 KCAL/MOL
REMARK 922        TOTAL FREE ENERGY PREDICTED BY IDOCK:   -7.93 KCAL/MOL
REMARK 923 INTER-LIGAND FREE ENERGY PREDICTED BY IDOCK:   -6.50 KCAL/MOL
REMARK 924 INTRA-LIGAND FREE ENERGY PREDICTED BY IDOCK:   -1.43 KCAL/MOL
REMARK 927      BINDING AFFINITY PREDICTED BY RF-SCORE:    0.00 PKD
ROOT
HETATM    1  C   UNL     1     -12.273  12.400  64.156  1.00  0.00    -0.558 C  
HETATM    2  C   UNL     1     -12.390  13.862  64.564  1.00  0.00    -0.408 C  
ENDROOT
BRANCH   2   3
HETATM    3  C   UNL     1     -12.588  14.017  66.073  1.00  0.00    -0.452 C  
BRANCH   3   4
HETATM    4  C   UNL     1     -11.301  14.204  66.805  1.00  0.00    -0.343 A  
HETATM    5  N   UNL     1     -10.811  15.451  66.933  1.00  0.00    -0.316 NA 
HETATM    6  N   UNL     1      -9.679  15.297  67.656  1.00  0.00    -0.208 NA 
HETATM    7  C   UNL     1      -9.441  14.003  68.000  1.00  0.00    -0.206 A  
HETATM    8  C   UNL     1      -8.899  16.459  68.006  1.00  0.00    -0.184 C  
HETATM    9  C   UNL     1     -10.453  13.275  67.451  1.00  0.00    -0.243 A  
HETATM   10  N   UNL     1     -10.476  11.943  67.627  1.00  0.00    -0.204 NA 
HETATM   11  C   UNL     1      -9.427  11.394  68.367  1.00  0.00    -0.194 C  
HETATM   12  N   UNL     1      -8.454  12.075  68.912  1.00  0.00    -0.365 N  
HETATM   13  O   UNL     1      -7.459  14.118  69.233  1.00  0.00    -0.087 OA 
HETATM   14  H   UNL     1      -7.745  11.585  69.459  1.00  0.00     0.000 HD 
HETATM   15  C   UNL     1      -8.365  13.445  68.761  1.00  0.00     0.086 C  
BRANCH  11  16
HETATM   16  C   UNL     1      -9.405   9.894  68.603  1.00  0.00    -0.149 A  
HETATM   17  C   UNL     1      -9.797   7.927  69.973  1.00  0.00    -0.181 A  
HETATM   18  C   UNL     1      -9.850   9.318  69.808  1.00  0.00    -0.188 A  
HETATM   19  C   UNL     1      -8.878   9.062  67.593  1.00  0.00    -0.127 A  
HETATM   20  C   UNL     1      -9.207   7.119  69.000  1.00  0.00    -0.135 A  
HETATM   21  C   UNL     1      -8.704   7.693  67.829  1.00  0.00    -0.127 A  
BRANCH  18  22
HETATM   22  O   UNL     1     -10.368  10.158  70.758  1.00  0.00    -0.133 OA 
BRANCH  22  23
HETATM   23  C   UNL     1     -11.684   9.865  71.230  1.00  0.00    -0.392 C  
HETATM   24  C   UNL     1     -12.652  10.519  70.262  1.00  0.00    -0.306 C  
ENDBRANCH  22  23
ENDBRANCH  18  22
BRANCH  21  25
HETATM   25  S   UNL     1      -7.939   6.631  66.615  1.00  0.00    -0.107 S  
HETATM   26  O   UNL     1      -6.507   6.711  66.811  1.00  0.00    -0.040 OA 
HETATM   27  O   UNL     1      -8.532   6.974  65.338  1.00  0.00    -0.140 OA 
BRANCH  25  28
HETATM   28  N   UNL     1      -8.439   5.056  66.980  1.00  0.00    -0.107 N  
HETATM   29  C   UNL     1      -9.717   4.549  66.441  1.00  0.00    -0.208 C  
HETATM   30  C   UNL     1      -9.497   3.852  65.093  1.00  0.00    -0.170 C  
HETATM   31  N   UNL     1      -8.501   2.761  65.117  1.00  0.00    -0.094 NA 
HETATM   32  C   UNL     1      -7.279   3.134  65.864  1.00  0.00    -0.071 C  
HETATM   33  C   UNL     1      -9.108   1.528  65.607  1.00  0.00    -0.073 C  
HETATM   34  C   UNL     1      -7.449   3.967  67.157  1.00  0.00    -0.072 C  
ENDBRANCH  25  28
ENDBRANCH  21  25
ENDBRANCH  11  16
ENDBRANCH   3   4
ENDBRANCH   2   3
TORSDOF 7
ENDMDL
MODEL      147
REMARK 921   NORMALIZED FREE ENERGY PREDICTED BY IDOCK:   -4.63 KCAL/MOL
REMARK 922        TOTAL FREE ENERGY PREDICTED BY IDOCK:   -7.87 KCAL/MOL
REMARK 923 INTER-LIGAND FREE ENERGY PREDICTED BY IDOCK:   -6.47 KCAL/MOL
REMARK 924 INTRA-LIGAND FREE ENERGY PREDICTED BY IDOCK:   -1.40 KCAL/MOL
REMARK 927      BINDING AFFINITY PREDICTED BY RF-SCORE:    0.00 PKD
ROOT
HETATM    1  C   UNL     1     -11.218   7.624  73.091  1.00  0.00    -0.311 C  
HETATM    2  C   UNL     1     -10.539   7.600  71.728  1.00  0.00    -0.250 C  
ENDROOT
BRANCH   2   3
HETATM    3  C   UNL     1     -11.523   7.251  70.610  1.00  0.00    -0.322 C  
BRANCH   3   4
HETATM    4  C   UNL     1     -10.846   7.029  69.298  1.00  0.00    -0.214 A  
HETATM    5  N   UNL     1     -10.909   5.805  68.743  1.00  0.00    -0.255 NA 
HETATM    6  N   UNL     1     -10.244   5.932  67.572  1.00  0.00    -0.168 NA 
HETATM    7  C   UNL     1      -9.775   7.190  67.361  1.00  0.00    -0.148 A  
HETATM    8  C   UNL     1     -10.137   4.793  66.692  1.00  0.00    -0.245 C  
HETATM    9  C   UNL     1     -10.128   7.913  68.460  1.00  0.00    -0.197 A  
HETATM   10  N   UNL     1      -9.787   9.211  68.531  1.00  0.00    -0.159 NA 
HETATM   11  C   UNL     1      -9.069   9.727  67.451  1.00  0.00    -0.134 C  
HETATM   12  N   UNL     1      -8.731   9.055  66.382  1.00  0.00    -0.127 N  
HETATM   13  O   UNL     1      -8.723   7.043  65.279  1.00  0.00    -0.054 OA 
HETATM   14  H   UNL     1      -8.228   9.528  65.631  1.00  0.00     0.000 HD 
HETATM   15  C   UNL     1      -9.041   7.715  66.250  1.00  0.00    -0.162 C  
BRANCH  11  16
HETATM   16  C   UNL     1      -8.662  11.190  67.475  1.00  0.00    -0.129 A  
HETATM   17  C   UNL     1      -6.998  12.957  67.554  1.00  0.00    -0.151 A  
HETATM   18  C   UNL     1      -7.314  11.592  67.524  1.00  0.00    -0.112 A  
HETATM   19  C   UNL     1      -9.676  12.170  67.493  1.00  0.00    -0.185 A  
HETATM   20  C   UNL     1      -8.007  13.917  67.646  1.00  0.00    -0.181 A  
HETATM   21  C   UNL     1      -9.346  13.520  67.664  1.00  0.00    -0.216 A  
BRANCH  18  22
HETATM   22  O   UNL     1      -6.359  10.611  67.490  1.00  0.00    -0.056 OA 
BRANCH  22  23
HETATM   23  C   UNL     1      -5.332  10.744  66.506  1.00  0.00    -0.075 C  
HETATM   24  C   UNL     1      -5.255   9.419  65.771  1.00  0.00    -0.039 C  
ENDBRANCH  22  23
ENDBRANCH  18  22
BRANCH  21  25
HETATM   25  S   UNL     1     -10.610  14.775  67.801  1.00  0.00    -0.261 S  
HETATM   26  O   UNL     1      -9.941  16.036  68.044  1.00  0.00    -0.225 OA 
HETATM   27  O   UNL     1     -11.593  14.266  68.736  1.00  0.00    -0.283 OA 
BRANCH  25  28
HETATM   28  N   UNL     1     -11.365  14.855  66.290  1.00  0.00    -0.334 N  
HETATM   29  C   UNL     1     -10.547  14.960  65.065  1.00  0.00    -0.422 C  
HETATM   30  C   UNL     1     -10.232  13.568  64.505  1.00  0.00    -0.269 C  
HETATM   31  N   UNL     1     -11.415  12.726  64.240  1.00  0.00    -0.349 NA 
HETATM   32  C   UNL     1     -12.398  12.775  65.345  1.00  0.00    -0.470 C  
HETATM   33  C   UNL     1     -12.003  13.065  62.948  1.00  0.00     0.410 C  
HETATM   34  C   UNL     1     -12.639  14.138  66.038  1.00  0.00    -0.375 C  
ENDBRANCH  25  28
ENDBRANCH  21  25
ENDBRANCH  11  16
ENDBRANCH   3   4
ENDBRANCH   2   3
TORSDOF 7
ENDMDL
MODEL      148
REMARK 921   NORMALIZED FREE ENERGY PREDICTED BY IDOCK:   -4.60 KCAL/MOL
REMARK 922        TOTAL FREE ENERGY PREDICTED BY IDOCK:   -7.83 KCAL/MOL
REMARK 923 INTER-LIGAND FREE ENERGY PREDICTED BY IDOCK:   -6.87 KCAL/MOL
REMARK 924 INTRA-LIGAND FREE ENERGY PREDICTED BY IDOCK:   -0.96 KCAL/MOL
REMARK 927      BINDING AFFINITY PREDICTED BY RF-SCORE:    0.00 PKD
ROOT
HETATM    1  C   UNL     1     -11.728   6.525  70.198  1.00  0.00    -0.419 C  
HETATM    2  C   UNL     1     -10.243   6.194  70.258  1.00  0.00    -0.254 C  
ENDROOT
BRANCH   2   3
HETATM    3  C   UNL     1      -9.967   4.746  69.849  1.00  0.00    -0.306 C  
BRANCH   3   4
HETATM    4  C   UNL     1      -9.602   4.617  68.408  1.00  0.00    -0.151 A  
HETATM    5  N   UNL     1      -9.628   3.394  67.847  1.00  0.00    -0.161 NA 
HETATM    6  N   UNL     1      -9.288   3.608  66.555  1.00  0.00    -0.183 NA 
HETATM    7  C   UNL     1      -9.061   4.919  66.277  1.00  0.00    -0.127 A  
HETATM    8  C   UNL     1      -9.241   2.491  65.642  1.00  0.00    -0.068 C  
HETATM    9  C   UNL     1      -9.235   5.589  67.449  1.00  0.00    -0.110 A  
HETATM   10  N   UNL     1      -9.068   6.922  67.476  1.00  0.00    -0.118 NA 
HETATM   11  C   UNL     1      -8.710   7.530  66.271  1.00  0.00    -0.149 C  
HETATM   12  N   UNL     1      -8.550   6.907  65.133  1.00  0.00    -0.343 N  
HETATM   13  O   UNL     1      -8.532   4.912  64.000  1.00  0.00    -0.129 OA 
HETATM   14  H   UNL     1      -8.313   7.444  64.298  1.00  0.00     0.000 HD 
HETATM   15  C   UNL     1      -8.696   5.537  65.039  1.00  0.00    -0.094 C  
BRANCH  11  16
HETATM   16  C   UNL     1      -8.514   9.035  66.241  1.00  0.00    -0.132 A  
HETATM   17  C   UNL     1      -7.296  11.057  66.815  1.00  0.00    -0.139 A  
HETATM   18  C   UNL     1      -7.420   9.661  66.868  1.00  0.00    -0.091 A  
HETATM   19  C   UNL     1      -9.488   9.828  65.599  1.00  0.00    -0.307 A  
HETATM   20  C   UNL     1      -8.302  11.838  66.243  1.00  0.00     0.024 A  
HETATM   21  C   UNL     1      -9.422  11.224  65.676  1.00  0.00    -0.229 A  
BRANCH  18  22
HETATM   22  O   UNL     1      -6.488   8.856  67.468  1.00  0.00    -0.059 OA 
BRANCH  22  23
HETATM   23  C   UNL     1      -6.058   9.233  68.777  1.00  0.00    -0.044 C  
HETATM   24  C   UNL     1      -7.201   8.913  69.722  1.00  0.00    -0.055 C  
ENDBRANCH  22  23
ENDBRANCH  18  22
BRANCH  21  25
HETATM   25  S   UNL     1     -10.697  12.256  64.970  1.00  0.00    -0.311 S  
HETATM   26  O   UNL     1     -11.360  11.480  63.943  1.00  0.00    -0.386 OA 
HETATM   27  O   UNL     1     -10.071  13.523  64.652  1.00  0.00    -0.344 OA 
BRANCH  25  28
HETATM   28  N   UNL     1     -11.807  12.555  66.211  1.00  0.00    -0.406 N  
HETATM   29  C   UNL     1     -11.668  11.855  67.504  1.00  0.00    -0.265 C  
HETATM   30  C   UNL     1     -10.809  12.675  68.474  1.00  0.00    -0.252 C  
HETATM   31  N   UNL     1     -11.284  14.053  68.706  1.00  0.00    -0.256 NA 
HETATM   32  C   UNL     1     -11.674  14.731  67.449  1.00  0.00    -0.350 C  
HETATM   33  C   UNL     1     -12.347  14.065  69.706  1.00  0.00    -0.291 C  
HETATM   34  C   UNL     1     -12.417  13.896  66.378  1.00  0.00    -0.370 C  
ENDBRANCH  25  28
ENDBRANCH  21  25
ENDBRANCH  11  16
ENDBRANCH   3   4
ENDBRANCH   2   3
TORSDOF 7
ENDMDL
MODEL      149
REMARK 921   NORMALIZED FREE ENERGY PREDICTED BY IDOCK:   -4.60 KCAL/MOL
REMARK 922        TOTAL FREE ENERGY PREDICTED BY IDOCK:   -7.83 KCAL/MOL
REMARK 923 INTER-LIGAND FREE ENERGY PREDICTED BY IDOCK:   -7.70 KCAL/MOL
REMARK 924 INTRA-LIGAND FREE ENERGY PREDICTED BY IDOCK:   -0.13 KCAL/MOL
REMARK 927      BINDING AFFINITY PREDICTED BY RF-SCORE:    0.00 PKD
ROOT
HETATM    1  C   UNL     1     -11.078  11.444  63.223  1.00  0.00    -0.204 C  
HETATM    2  C   UNL     1     -12.354  12.246  63.439  1.00  0.00    -0.624 C  
ENDROOT
BRANCH   2   3
HETATM    3  C   UNL     1     -12.522  12.663  64.901  1.00  0.00    -0.564 C  
BRANCH   3   4
HETATM    4  C   UNL     1     -11.286  13.275  65.470  1.00  0.00    -0.287 A  
HETATM    5  N   UNL     1     -11.101  14.600  65.326  1.00  0.00    -0.340 NA 
HETATM    6  N   UNL     1      -9.933  14.849  65.962  1.00  0.00    -0.294 NA 
HETATM    7  C   UNL     1      -9.381  13.735  66.512  1.00  0.00    -0.233 A  
HETATM    8  C   UNL     1      -9.437  16.202  66.026  1.00  0.00    -0.339 C  
HETATM    9  C   UNL     1     -10.214  12.705  66.196  1.00  0.00    -0.258 A  
HETATM   10  N   UNL     1      -9.912  11.464  66.612  1.00  0.00    -0.203 NA 
HETATM   11  C   UNL     1      -8.732  11.321  67.343  1.00  0.00    -0.139 C  
HETATM   12  N   UNL     1      -7.925  12.296  67.667  1.00  0.00    -0.149 N  
HETATM   13  O   UNL     1      -7.431  14.532  67.523  1.00  0.00    -0.171 OA 
HETATM   14  H   UNL     1      -7.097  12.095  68.229  1.00  0.00     0.000 HD 
HETATM   15  C   UNL     1      -8.171  13.594  67.263  1.00  0.00    -0.152 C  
BRANCH  11  16
HETATM   16  C   UNL     1      -8.345   9.940  67.844  1.00  0.00    -0.114 A  
HETATM   17  C   UNL     1      -6.865   8.015  67.910  1.00  0.00    -0.073 A  
HETATM   18  C   UNL     1      -7.167   9.294  67.421  1.00  0.00    -0.080 A  
HETATM   19  C   UNL     1      -9.220   9.274  68.726  1.00  0.00    -0.136 A  
HETATM   20  C   UNL     1      -7.772   7.333  68.723  1.00  0.00    -0.119 A  
HETATM   21  C   UNL     1      -8.972   7.945  69.092  1.00  0.00    -0.145 A  
BRANCH  18  22
HETATM   22  O   UNL     1      -6.336   9.980  66.576  1.00  0.00    -0.067 OA 
BRANCH  22  23
HETATM   23  C   UNL     1      -6.254   9.509  65.230  1.00  0.00    -0.068 C  
HETATM   24  C   UNL     1      -7.416  10.130  64.477  1.00  0.00    -0.127 C  
ENDBRANCH  22  23
ENDBRANCH  18  22
BRANCH  21  25
HETATM   25  S   UNL     1     -10.117   7.036  70.118  1.00  0.00    -0.189 S  
HETATM   26  O   UNL     1      -9.361   6.005  70.799  1.00  0.00    -0.152 OA 
HETATM   27  O   UNL     1     -11.242   6.692  69.273  1.00  0.00    -0.289 OA 
BRANCH  25  28
HETATM   28  N   UNL     1     -10.688   8.129  71.276  1.00  0.00    -0.223 N  
HETATM   29  C   UNL     1     -10.541   9.581  71.049  1.00  0.00    -0.322 C  
HETATM   30  C   UNL     1     -11.775  10.145  70.335  1.00  0.00    -0.308 C  
HETATM   31  N   UNL     1     -13.058   9.878  71.015  1.00  0.00    -0.358 NA 
HETATM   32  C   UNL     1     -13.162   8.478  71.487  1.00  0.00    -0.297 C  
HETATM   33  C   UNL     1     -13.284  10.850  72.080  1.00  0.00    -0.351 C  
HETATM   34  C   UNL     1     -11.894   7.821  72.082  1.00  0.00    -0.324 C  
ENDBRANCH  25  28
ENDBRANCH  21  25
ENDBRANCH  11  16
ENDBRANCH   3   4
ENDBRANCH   2   3
TORSDOF 7
ENDMDL
MODEL      150
REMARK 921   NORMALIZED FREE ENERGY PREDICTED BY IDOCK:   -4.59 KCAL/MOL
REMARK 922        TOTAL FREE ENERGY PREDICTED BY IDOCK:   -7.81 KCAL/MOL
REMARK 923 INTER-LIGAND FREE ENERGY PREDICTED BY IDOCK:   -6.91 KCAL/MOL
REMARK 924 INTRA-LIGAND FREE ENERGY PREDICTED BY IDOCK:   -0.91 KCAL/MOL
REMARK 927      BINDING AFFINITY PREDICTED BY RF-SCORE:    0.00 PKD
ROOT
HETATM    1  C   UNL     1      -5.529   5.709  71.240  1.00  0.00    -0.013 C  
HETATM    2  C   UNL     1      -5.915   7.101  71.719  1.00  0.00    -0.037 C  
ENDROOT
BRANCH   2   3
HETATM    3  C   UNL     1      -6.634   7.898  70.628  1.00  0.00    -0.037 C  
BRANCH   3   4
HETATM    4  C   UNL     1      -8.048   8.214  70.986  1.00  0.00    -0.100 A  
HETATM    5  N   UNL     1      -8.639   7.498  71.959  1.00  0.00    -0.106 NA 
HETATM    6  N   UNL     1      -9.876   8.034  72.069  1.00  0.00    -0.194 NA 
HETATM    7  C   UNL     1     -10.084   9.069  71.211  1.00  0.00    -0.314 A  
HETATM    8  C   UNL     1     -10.789   7.512  73.057  1.00  0.00    -0.392 C  
HETATM    9  C   UNL     1      -8.936   9.196  70.488  1.00  0.00    -0.232 A  
HETATM   10  N   UNL     1      -8.854  10.151  69.547  1.00  0.00    -0.193 NA 
HETATM   11  C   UNL     1      -9.984  10.951  69.370  1.00  0.00    -0.057 C  
HETATM   12  N   UNL     1     -11.090  10.854  70.060  1.00  0.00    -0.426 N  
HETATM   13  O   UNL     1     -12.269   9.746  71.687  1.00  0.00    -0.371 OA 
HETATM   14  H   UNL     1     -11.854  11.504  69.875  1.00  0.00     0.000 HD 
HETATM   15  C   UNL     1     -11.244   9.887  71.035  1.00  0.00    -0.364 C  
BRANCH  11  16
HETATM   16  C   UNL     1      -9.946  12.051  68.324  1.00  0.00    -0.203 A  
HETATM   17  C   UNL     1      -9.541  12.859  66.069  1.00  0.00    -0.172 A  
HETATM   18  C   UNL     1      -9.567  11.803  66.990  1.00  0.00    -0.187 A  
HETATM   19  C   UNL     1     -10.258  13.368  68.719  1.00  0.00    -0.128 A  
HETATM   20  C   UNL     1      -9.779  14.170  66.486  1.00  0.00    -0.307 A  
HETATM   21  C   UNL     1     -10.091  14.430  67.823  1.00  0.00    -0.226 A  
BRANCH  18  22
HETATM   22  O   UNL     1      -9.286  10.508  66.641  1.00  0.00    -0.154 OA 
BRANCH  22  23
HETATM   23  C   UNL     1      -8.519  10.313  65.452  1.00  0.00    -0.161 C  
HETATM   24  C   UNL     1      -9.236   9.254  64.637  1.00  0.00    -0.112 C  
ENDBRANCH  22  23
ENDBRANCH  18  22
BRANCH  21  25
HETATM   25  S   UNL     1     -10.371  16.121  68.324  1.00  0.00    -0.278 S  
HETATM   26  O   UNL     1     -10.120  16.197  69.747  1.00  0.00    -0.245 OA 
HETATM   27  O   UNL     1     -11.658  16.503  67.777  1.00  0.00     0.010 OA 
BRANCH  25  28
HETATM   28  N   UNL     1      -9.205  17.051  67.527  1.00  0.00    -0.230 N  
HETATM   29  C   UNL     1      -9.590  18.331  66.898  1.00  0.00    -0.296 C  
HETATM   30  C   UNL     1      -9.418  19.492  67.884  1.00  0.00    -0.336 C  
HETATM   31  N   UNL     1      -8.066  19.613  68.465  1.00  0.00    -0.330 NA 
HETATM   32  C   UNL     1      -7.521  18.306  68.897  1.00  0.00    -0.239 C  
HETATM   33  C   UNL     1      -7.177  20.318  67.547  1.00  0.00    -0.298 C  
HETATM   34  C   UNL     1      -7.800  17.076  68.000  1.00  0.00    -0.182 C  
ENDBRANCH  25  28
ENDBRANCH  21  25
ENDBRANCH  11  16
ENDBRANCH   3   4
ENDBRANCH   2   3
TORSDOF 7
ENDMDL
MODEL      151
REMARK 921   NORMALIZED FREE ENERGY PREDICTED BY IDOCK:   -4.58 KCAL/MOL
REMARK 922        TOTAL FREE ENERGY PREDICTED BY IDOCK:   -7.81 KCAL/MOL
REMARK 923 INTER-LIGAND FREE ENERGY PREDICTED BY IDOCK:   -6.58 KCAL/MOL
REMARK 924 INTRA-LIGAND FREE ENERGY PREDICTED BY IDOCK:   -1.23 KCAL/MOL
REMARK 927      BINDING AFFINITY PREDICTED BY RF-SCORE:    0.00 PKD
ROOT
HETATM    1  C   UNL     1      -6.191   4.139  74.075  1.00  0.00    -0.036 C  
HETATM    2  C   UNL     1      -6.466   5.410  73.285  1.00  0.00    -0.066 C  
ENDROOT
BRANCH   2   3
HETATM    3  C   UNL     1      -7.061   5.107  71.909  1.00  0.00    -0.075 C  
BRANCH   3   4
HETATM    4  C   UNL     1      -8.525   5.392  71.841  1.00  0.00    -0.127 A  
HETATM    5  N   UNL     1      -9.335   4.805  72.740  1.00  0.00    -0.128 NA 
HETATM    6  N   UNL     1     -10.567   5.278  72.444  1.00  0.00    -0.218 NA 
HETATM    7  C   UNL     1     -10.564   6.150  71.401  1.00  0.00    -0.243 A  
HETATM    8  C   UNL     1     -11.695   4.865  73.244  1.00  0.00    -0.079 C  
HETATM    9  C   UNL     1      -9.271   6.229  70.979  1.00  0.00    -0.154 A  
HETATM   10  N   UNL     1      -8.965   7.026  69.943  1.00  0.00    -0.142 NA 
HETATM   11  C   UNL     1     -10.024   7.721  69.356  1.00  0.00    -0.188 C  
HETATM   12  N   UNL     1     -11.269   7.669  69.752  1.00  0.00    -0.448 N  
HETATM   13  O   UNL     1     -12.809   6.764  71.192  1.00  0.00    -0.312 OA 
HETATM   14  H   UNL     1     -11.970   8.236  69.274  1.00  0.00     0.000 HD 
HETATM   15  C   UNL     1     -11.653   6.861  70.805  1.00  0.00    -0.349 C  
BRANCH  11  16
HETATM   16  C   UNL     1      -9.736   8.642  68.184  1.00  0.00    -0.178 A  
HETATM   17  C   UNL     1      -9.627   9.126  65.806  1.00  0.00    -0.323 A  
HETATM   18  C   UNL     1      -9.919   8.235  66.848  1.00  0.00    -0.273 A  
HETATM   19  C   UNL     1      -9.225   9.930  68.449  1.00  0.00    -0.130 A  
HETATM   20  C   UNL     1      -9.053  10.370  66.075  1.00  0.00    -0.187 A  
HETATM   21  C   UNL     1      -8.808  10.752  67.396  1.00  0.00    -0.129 A  
BRANCH  18  22
HETATM   22  O   UNL     1     -10.430   6.983  66.632  1.00  0.00    -0.228 OA 
BRANCH  22  23
HETATM   23  C   UNL     1      -9.499   5.959  66.279  1.00  0.00    -0.139 C  
HETATM   24  C   UNL     1     -10.260   4.646  66.308  1.00  0.00    -0.306 C  
ENDBRANCH  22  23
ENDBRANCH  18  22
BRANCH  21  25
HETATM   25  S   UNL     1      -8.056  12.343  67.701  1.00  0.00    -0.182 S  
HETATM   26  O   UNL     1      -7.021  12.529  66.706  1.00  0.00     0.074 OA 
HETATM   27  O   UNL     1      -7.739  12.383  69.114  1.00  0.00     0.095 OA 
BRANCH  25  28
HETATM   28  N   UNL     1      -9.263  13.498  67.437  1.00  0.00    -0.213 N  
HETATM   29  C   UNL     1      -9.416  14.107  66.100  1.00  0.00    -0.203 C  
HETATM   30  C   UNL     1     -10.407  13.305  65.249  1.00  0.00    -0.312 C  
HETATM   31  N   UNL     1     -11.737  13.118  65.863  1.00  0.00    -0.364 NA 
HETATM   32  C   UNL     1     -11.648  12.738  67.291  1.00  0.00    -0.360 C  
HETATM   33  C   UNL     1     -12.570  14.296  65.644  1.00  0.00    -0.410 C  
HETATM   34  C   UNL     1     -10.559  13.420  68.153  1.00  0.00    -0.245 C  
ENDBRANCH  25  28
ENDBRANCH  21  25
ENDBRANCH  11  16
ENDBRANCH   3   4
ENDBRANCH   2   3
TORSDOF 7
ENDMDL
MODEL      152
REMARK 921   NORMALIZED FREE ENERGY PREDICTED BY IDOCK:   -4.56 KCAL/MOL
REMARK 922        TOTAL FREE ENERGY PREDICTED BY IDOCK:   -7.77 KCAL/MOL
REMARK 923 INTER-LIGAND FREE ENERGY PREDICTED BY IDOCK:   -6.61 KCAL/MOL
REMARK 924 INTRA-LIGAND FREE ENERGY PREDICTED BY IDOCK:   -1.16 KCAL/MOL
REMARK 927      BINDING AFFINITY PREDICTED BY RF-SCORE:    0.00 PKD
ROOT
HETATM    1  C   UNL     1      -9.217   2.895  68.515  1.00  0.00    -0.239 C  
HETATM    2  C   UNL     1      -9.745   4.255  68.083  1.00  0.00    -0.165 C  
ENDROOT
BRANCH   2   3
HETATM    3  C   UNL     1      -9.780   5.247  69.248  1.00  0.00    -0.235 C  
BRANCH   3   4
HETATM    4  C   UNL     1      -8.596   6.156  69.263  1.00  0.00    -0.119 A  
HETATM    5  N   UNL     1      -7.596   5.892  70.125  1.00  0.00    -0.088 NA 
HETATM    6  N   UNL     1      -6.677   6.853  69.879  1.00  0.00    -0.048 NA 
HETATM    7  C   UNL     1      -7.052   7.705  68.888  1.00  0.00    -0.079 A  
HETATM    8  C   UNL     1      -5.440   6.857  70.623  1.00  0.00    -0.023 C  
HETATM    9  C   UNL     1      -8.287   7.296  68.486  1.00  0.00    -0.125 A  
HETATM   10  N   UNL     1      -8.915   7.966  67.505  1.00  0.00    -0.127 NA 
HETATM   11  C   UNL     1      -8.241   9.064  66.969  1.00  0.00    -0.109 C  
HETATM   12  N   UNL     1      -7.051   9.466  67.331  1.00  0.00    -0.085 N  
HETATM   13  O   UNL     1      -5.251   9.185  68.726  1.00  0.00    -0.033 OA 
HETATM   14  H   UNL     1      -6.628  10.266  66.860  1.00  0.00     0.000 HD 
HETATM   15  C   UNL     1      -6.355   8.828  68.340  1.00  0.00    -0.055 C  
BRANCH  11  16
HETATM   16  C   UNL     1      -8.901   9.855  65.853  1.00  0.00    -0.171 A  
HETATM   17  C   UNL     1      -9.421  10.247  63.513  1.00  0.00    -0.345 A  
HETATM   18  C   UNL     1      -8.798   9.473  64.502  1.00  0.00    -0.213 A  
HETATM   19  C   UNL     1      -9.600  11.033  66.186  1.00  0.00    -0.240 A  
HETATM   20  C   UNL     1     -10.047  11.450  63.844  1.00  0.00    -0.393 A  
HETATM   21  C   UNL     1     -10.095  11.866  65.176  1.00  0.00    -0.261 A  
BRANCH  18  22
HETATM   22  O   UNL     1      -8.122   8.315  64.220  1.00  0.00    -0.156 OA 
BRANCH  22  23
HETATM   23  C   UNL     1      -7.600   8.178  62.898  1.00  0.00    -0.123 C  
HETATM   24  C   UNL     1      -6.706   6.952  62.904  1.00  0.00    -0.047 C  
ENDBRANCH  22  23
ENDBRANCH  18  22
BRANCH  21  25
HETATM   25  S   UNL     1     -10.889  13.420  65.560  1.00  0.00    -0.296 S  
HETATM   26  O   UNL     1     -12.309  13.163  65.672  1.00  0.00    -0.443 OA 
HETATM   27  O   UNL     1     -10.384  14.385  64.604  1.00  0.00    -0.397 OA 
BRANCH  25  28
HETATM   28  N   UNL     1     -10.311  13.886  67.079  1.00  0.00    -0.265 N  
HETATM   29  C   UNL     1      -9.659  15.201  67.245  1.00  0.00    -0.209 C  
HETATM   30  C   UNL     1     -10.687  16.269  67.635  1.00  0.00    -0.311 C  
HETATM   31  N   UNL     1     -11.479  15.953  68.841  1.00  0.00    -0.371 NA 
HETATM   32  C   UNL     1     -11.960  14.553  68.845  1.00  0.00    -0.290 C  
HETATM   33  C   UNL     1     -10.731  16.295  70.046  1.00  0.00    -0.290 C  
HETATM   34  C   UNL     1     -11.002  13.458  68.319  1.00  0.00    -0.259 C  
ENDBRANCH  25  28
ENDBRANCH  21  25
ENDBRANCH  11  16
ENDBRANCH   3   4
ENDBRANCH   2   3
TORSDOF 7
ENDMDL
MODEL      153
REMARK 921   NORMALIZED FREE ENERGY PREDICTED BY IDOCK:   -4.54 KCAL/MOL
REMARK 922        TOTAL FREE ENERGY PREDICTED BY IDOCK:   -7.75 KCAL/MOL
REMARK 923 INTER-LIGAND FREE ENERGY PREDICTED BY IDOCK:   -7.04 KCAL/MOL
REMARK 924 INTRA-LIGAND FREE ENERGY PREDICTED BY IDOCK:   -0.71 KCAL/MOL
REMARK 927      BINDING AFFINITY PREDICTED BY RF-SCORE:    0.00 PKD
ROOT
HETATM    1  C   UNL     1     -13.067  12.759  71.942  1.00  0.00    -0.474 C  
HETATM    2  C   UNL     1     -12.786  11.467  71.188  1.00  0.00    -0.440 C  
ENDROOT
BRANCH   2   3
HETATM    3  C   UNL     1     -13.115  10.234  72.033  1.00  0.00    -0.529 C  
BRANCH   3   4
HETATM    4  C   UNL     1     -12.090   9.158  71.900  1.00  0.00    -0.378 A  
HETATM    5  N   UNL     1     -12.265   8.016  72.590  1.00  0.00    -0.246 NA 
HETATM    6  N   UNL     1     -11.210   7.245  72.241  1.00  0.00    -0.255 NA 
HETATM    7  C   UNL     1     -10.383   7.851  71.348  1.00  0.00    -0.198 A  
HETATM    8  C   UNL     1     -11.093   5.914  72.789  1.00  0.00    -0.281 C  
HETATM    9  C   UNL     1     -10.909   9.087  71.125  1.00  0.00    -0.294 A  
HETATM   10  N   UNL     1     -10.288   9.922  70.275  1.00  0.00    -0.280 NA 
HETATM   11  C   UNL     1      -9.117   9.450  69.681  1.00  0.00    -0.181 C  
HETATM   12  N   UNL     1      -8.601   8.264  69.872  1.00  0.00    -0.124 N  
HETATM   13  O   UNL     1      -8.722   6.251  70.967  1.00  0.00    -0.134 OA 
HETATM   14  H   UNL     1      -7.753   8.000  69.370  1.00  0.00     0.000 HD 
HETATM   15  C   UNL     1      -9.183   7.361  70.741  1.00  0.00    -0.159 C  
BRANCH  11  16
HETATM   16  C   UNL     1      -8.376  10.350  68.707  1.00  0.00    -0.134 A  
HETATM   17  C   UNL     1      -6.457  10.903  67.325  1.00  0.00    -0.072 A  
HETATM   18  C   UNL     1      -7.096  10.029  68.216  1.00  0.00    -0.072 A  
HETATM   19  C   UNL     1      -8.980  11.565  68.322  1.00  0.00    -0.177 A  
HETATM   20  C   UNL     1      -7.028  12.136  67.008  1.00  0.00    -0.068 A  
HETATM   21  C   UNL     1      -8.269  12.488  67.544  1.00  0.00    -0.175 A  
BRANCH  18  22
HETATM   22  O   UNL     1      -6.550   8.834  68.602  1.00  0.00    -0.053 OA 
BRANCH  22  23
HETATM   23  C   UNL     1      -5.313   8.890  69.314  1.00  0.00    -0.036 C  
HETATM   24  C   UNL     1      -5.155   7.557  70.022  1.00  0.00    -0.023 C  
ENDBRANCH  22  23
ENDBRANCH  18  22
BRANCH  21  25
HETATM   25  S   UNL     1      -8.960  14.081  67.131  1.00  0.00    -0.237 S  
HETATM   26  O   UNL     1      -7.866  15.029  67.088  1.00  0.00    -0.199 OA 
HETATM   27  O   UNL     1     -10.083  14.286  68.024  1.00  0.00    -0.219 OA 
BRANCH  25  28
HETATM   28  N   UNL     1      -9.596  13.932  65.571  1.00  0.00    -0.067 N  
HETATM   29  C   UNL     1     -10.177  12.646  65.134  1.00  0.00    -0.280 C  
HETATM   30  C   UNL     1     -11.680  12.602  65.434  1.00  0.00    -0.387 C  
HETATM   31  N   UNL     1     -12.458  13.717  64.857  1.00  0.00    -0.576 NA 
HETATM   32  C   UNL     1     -11.793  15.025  65.054  1.00  0.00    -0.244 C  
HETATM   33  C   UNL     1     -12.772  13.450  63.458  1.00  0.00     0.176 C  
HETATM   34  C   UNL     1     -10.253  15.083  64.905  1.00  0.00    -0.225 C  
ENDBRANCH  25  28
ENDBRANCH  21  25
ENDBRANCH  11  16
ENDBRANCH   3   4
ENDBRANCH   2   3
TORSDOF 7
ENDMDL
MODEL      154
REMARK 921   NORMALIZED FREE ENERGY PREDICTED BY IDOCK:   -4.53 KCAL/MOL
REMARK 922        TOTAL FREE ENERGY PREDICTED BY IDOCK:   -7.73 KCAL/MOL
REMARK 923 INTER-LIGAND FREE ENERGY PREDICTED BY IDOCK:   -6.93 KCAL/MOL
REMARK 924 INTRA-LIGAND FREE ENERGY PREDICTED BY IDOCK:   -0.80 KCAL/MOL
REMARK 927      BINDING AFFINITY PREDICTED BY RF-SCORE:    0.00 PKD
ROOT
HETATM    1  C   UNL     1     -12.506  14.329  64.056  1.00  0.00    -0.171 C  
HETATM    2  C   UNL     1     -12.744  12.844  64.293  1.00  0.00    -0.286 C  
ENDROOT
BRANCH   2   3
HETATM    3  C   UNL     1     -12.028  11.981  63.252  1.00  0.00    -0.477 C  
BRANCH   3   4
HETATM    4  C   UNL     1     -10.768  11.375  63.777  1.00  0.00    -0.403 A  
HETATM    5  N   UNL     1     -10.281  10.279  63.169  1.00  0.00     0.260 NA 
HETATM    6  N   UNL     1      -9.142   9.997  63.841  1.00  0.00    -0.243 NA 
HETATM    7  C   UNL     1      -8.884  10.881  64.841  1.00  0.00    -0.116 A  
HETATM    8  C   UNL     1      -8.336   8.874  63.428  1.00  0.00    -0.176 C  
HETATM    9  C   UNL     1      -9.920  11.766  64.839  1.00  0.00    -0.247 A  
HETATM   10  N   UNL     1      -9.934  12.763  65.739  1.00  0.00    -0.266 NA 
HETATM   11  C   UNL     1      -8.866  12.810  66.635  1.00  0.00    -0.108 C  
HETATM   12  N   UNL     1      -7.857  11.979  66.647  1.00  0.00    -0.377 N  
HETATM   13  O   UNL     1      -6.873  10.111  65.748  1.00  0.00    -0.103 OA 
HETATM   14  H   UNL     1      -7.107  12.111  67.327  1.00  0.00     0.000 HD 
HETATM   15  C   UNL     1      -7.785  10.925  65.757  1.00  0.00    -0.036 C  
BRANCH  11  16
HETATM   16  C   UNL     1      -8.827  13.921  67.671  1.00  0.00    -0.191 A  
HETATM   17  C   UNL     1      -9.763  15.140  69.551  1.00  0.00    -0.172 A  
HETATM   18  C   UNL     1      -9.848  14.091  68.625  1.00  0.00    -0.191 A  
HETATM   19  C   UNL     1      -7.752  14.832  67.639  1.00  0.00    -0.199 A  
HETATM   20  C   UNL     1      -8.736  16.081  69.466  1.00  0.00    -0.044 A  
HETATM   21  C   UNL     1      -7.755  15.953  68.479  1.00  0.00    -0.147 A  
BRANCH  18  22
HETATM   22  O   UNL     1     -10.868  13.176  68.632  1.00  0.00    -0.248 OA 
BRANCH  22  23
HETATM   23  C   UNL     1     -10.620  11.940  69.303  1.00  0.00     0.025 C  
HETATM   24  C   UNL     1     -11.316  10.858  68.499  1.00  0.00    -0.367 C  
ENDBRANCH  22  23
ENDBRANCH  18  22
BRANCH  21  25
HETATM   25  S   UNL     1      -6.466  17.185  68.388  1.00  0.00    -0.163 S  
HETATM   26  O   UNL     1      -5.414  16.649  67.550  1.00  0.00    -0.117 OA 
HETATM   27  O   UNL     1      -6.191  17.592  69.752  1.00  0.00    -0.244 OA 
BRANCH  25  28
HETATM   28  N   UNL     1      -7.142  18.523  67.605  1.00  0.00    -0.209 N  
HETATM   29  C   UNL     1      -7.719  18.368  66.254  1.00  0.00    -0.247 C  
HETATM   30  C   UNL     1      -9.213  18.033  66.339  1.00  0.00    -0.242 C  
HETATM   31  N   UNL     1     -10.019  18.998  67.114  1.00  0.00    -0.322 NA 
HETATM   32  C   UNL     1      -9.364  19.383  68.385  1.00  0.00    -0.367 C  
HETATM   33  C   UNL     1     -10.368  20.150  66.289  1.00  0.00    -0.394 C  
HETATM   34  C   UNL     1      -7.830  19.587  68.374  1.00  0.00    -0.339 C  
ENDBRANCH  25  28
ENDBRANCH  21  25
ENDBRANCH  11  16
ENDBRANCH   3   4
ENDBRANCH   2   3
TORSDOF 7
ENDMDL
MODEL      155
REMARK 921   NORMALIZED FREE ENERGY PREDICTED BY IDOCK:   -4.52 KCAL/MOL
REMARK 922        TOTAL FREE ENERGY PREDICTED BY IDOCK:   -7.72 KCAL/MOL
REMARK 923 INTER-LIGAND FREE ENERGY PREDICTED BY IDOCK:   -6.76 KCAL/MOL
REMARK 924 INTRA-LIGAND FREE ENERGY PREDICTED BY IDOCK:   -0.96 KCAL/MOL
REMARK 927      BINDING AFFINITY PREDICTED BY RF-SCORE:    0.00 PKD
ROOT
HETATM    1  C   UNL     1      -9.540   4.139  71.959  1.00  0.00    -0.213 C  
HETATM    2  C   UNL     1      -8.322   5.053  71.959  1.00  0.00    -0.124 C  
ENDROOT
BRANCH   2   3
HETATM    3  C   UNL     1      -7.474   4.869  70.699  1.00  0.00    -0.065 C  
BRANCH   3   4
HETATM    4  C   UNL     1      -8.295   4.852  69.452  1.00  0.00    -0.084 A  
HETATM    5  N   UNL     1      -8.289   3.741  68.694  1.00  0.00    -0.073 NA 
HETATM    6  N   UNL     1      -9.136   4.020  67.677  1.00  0.00    -0.133 NA 
HETATM    7  C   UNL     1      -9.686   5.260  67.771  1.00  0.00    -0.140 A  
HETATM    8  C   UNL     1      -9.389   3.017  66.671  1.00  0.00    -0.083 C  
HETATM    9  C   UNL     1      -9.151   5.827  68.888  1.00  0.00    -0.115 A  
HETATM   10  N   UNL     1      -9.516   7.073  69.233  1.00  0.00    -0.148 NA 
HETATM   11  C   UNL     1     -10.429   7.710  68.391  1.00  0.00    -0.169 C  
HETATM   12  N   UNL     1     -10.963   7.181  67.321  1.00  0.00    -0.549 N  
HETATM   13  O   UNL     1     -11.080   5.384  65.899  1.00  0.00     0.012 OA 
HETATM   14  H   UNL     1     -11.643   7.719  66.783  1.00  0.00     0.000 HD 
HETATM   15  C   UNL     1     -10.623   5.908  66.906  1.00  0.00    -0.315 C  
BRANCH  11  16
HETATM   16  C   UNL     1     -10.882   9.119  68.735  1.00  0.00    -0.096 A  
HETATM   17  C   UNL     1     -11.781  10.773  70.269  1.00  0.00    -0.442 A  
HETATM   18  C   UNL     1     -11.369   9.458  70.012  1.00  0.00    -0.141 A  
HETATM   19  C   UNL     1     -10.851  10.101  67.723  1.00  0.00    -0.346 A  
HETATM   20  C   UNL     1     -11.818  11.719  69.243  1.00  0.00    -0.389 A  
HETATM   21  C   UNL     1     -11.397  11.369  67.958  1.00  0.00    -0.303 A  
BRANCH  18  22
HETATM   22  O   UNL     1     -11.369   8.480  70.970  1.00  0.00    -0.259 OA 
BRANCH  22  23
HETATM   23  C   UNL     1     -10.934   8.858  72.277  1.00  0.00    -0.175 C  
HETATM   24  C   UNL     1     -10.831   7.582  73.091  1.00  0.00    -0.448 C  
ENDBRANCH  22  23
ENDBRANCH  18  22
BRANCH  21  25
HETATM   25  S   UNL     1     -11.475  12.600  66.667  1.00  0.00    -0.370 S  
HETATM   26  O   UNL     1     -12.385  13.634  67.110  1.00  0.00    -0.336 OA 
HETATM   27  O   UNL     1     -11.714  11.883  65.430  1.00  0.00    -0.296 OA 
BRANCH  25  28
HETATM   28  N   UNL     1      -9.925  13.268  66.554  1.00  0.00    -0.273 N  
HETATM   29  C   UNL     1      -9.589  14.478  67.331  1.00  0.00    -0.212 C  
HETATM   30  C   UNL     1      -9.005  14.098  68.697  1.00  0.00    -0.132 C  
HETATM   31  N   UNL     1      -7.832  13.203  68.641  1.00  0.00    -0.100 NA 
HETATM   32  C   UNL     1      -8.019  12.092  67.681  1.00  0.00    -0.157 C  
HETATM   33  C   UNL     1      -6.617  13.971  68.384  1.00  0.00    -0.106 C  
HETATM   34  C   UNL     1      -8.738  12.404  66.346  1.00  0.00     0.018 C  
ENDBRANCH  25  28
ENDBRANCH  21  25
ENDBRANCH  11  16
ENDBRANCH   3   4
ENDBRANCH   2   3
TORSDOF 7
ENDMDL
MODEL      156
REMARK 921   NORMALIZED FREE ENERGY PREDICTED BY IDOCK:   -4.52 KCAL/MOL
REMARK 922        TOTAL FREE ENERGY PREDICTED BY IDOCK:   -7.71 KCAL/MOL
REMARK 923 INTER-LIGAND FREE ENERGY PREDICTED BY IDOCK:   -6.77 KCAL/MOL
REMARK 924 INTRA-LIGAND FREE ENERGY PREDICTED BY IDOCK:   -0.94 KCAL/MOL
REMARK 927      BINDING AFFINITY PREDICTED BY RF-SCORE:    0.00 PKD
ROOT
HETATM    1  C   UNL     1     -11.772   9.487  71.811  1.00  0.00    -0.411 C  
HETATM    2  C   UNL     1     -11.316   9.339  70.366  1.00  0.00    -0.283 C  
ENDROOT
BRANCH   2   3
HETATM    3  C   UNL     1      -9.790   9.323  70.252  1.00  0.00    -0.265 C  
BRANCH   3   4
HETATM    4  C   UNL     1      -9.321   9.364  68.836  1.00  0.00    -0.154 A  
HETATM    5  N   UNL     1      -9.043   8.201  68.218  1.00  0.00    -0.136 NA 
HETATM    6  N   UNL     1      -8.683   8.562  66.965  1.00  0.00    -0.124 NA 
HETATM    7  C   UNL     1      -8.734   9.906  66.765  1.00  0.00    -0.128 A  
HETATM    8  C   UNL     1      -8.337   7.540  66.006  1.00  0.00    -0.136 C  
HETATM    9  C   UNL     1      -9.121  10.450  67.952  1.00  0.00    -0.132 A  
HETATM   10  N   UNL     1      -9.254  11.783  68.052  1.00  0.00    -0.174 NA 
HETATM   11  C   UNL     1      -8.967  12.526  66.906  1.00  0.00    -0.212 C  
HETATM   12  N   UNL     1      -8.606  12.024  65.755  1.00  0.00    -0.318 N  
HETATM   13  O   UNL     1      -8.082  10.153  64.534  1.00  0.00    -0.154 OA 
HETATM   14  H   UNL     1      -8.444  12.649  64.965  1.00  0.00     0.000 HD 
HETATM   15  C   UNL     1      -8.441  10.663  65.586  1.00  0.00    -0.178 C  
BRANCH  11  16
HETATM   16  C   UNL     1      -9.106  14.037  66.961  1.00  0.00    -0.256 A  
HETATM   17  C   UNL     1     -10.045  16.139  66.185  1.00  0.00    -0.356 A  
HETATM   18  C   UNL     1      -9.965  14.742  66.095  1.00  0.00    -0.304 A  
HETATM   19  C   UNL     1      -8.313  14.754  67.881  1.00  0.00    -0.151 A  
HETATM   20  C   UNL     1      -9.204  16.845  67.045  1.00  0.00    -0.246 A  
HETATM   21  C   UNL     1      -8.303  16.154  67.860  1.00  0.00    -0.161 A  
BRANCH  18  22
HETATM   22  O   UNL     1     -10.729  14.009  65.226  1.00  0.00    -0.318 OA 
BRANCH  22  23
HETATM   23  C   UNL     1     -12.141  14.221  65.273  1.00  0.00    -0.400 C  
HETATM   24  C   UNL     1     -12.648  13.513  66.515  1.00  0.00    -0.181 C  
ENDBRANCH  22  23
ENDBRANCH  18  22
BRANCH  21  25
HETATM   25  S   UNL     1      -7.229  17.091  68.936  1.00  0.00    -0.234 S  
HETATM   26  O   UNL     1      -6.489  16.142  69.741  1.00  0.00    -0.198 OA 
HETATM   27  O   UNL     1      -8.055  18.105  69.558  1.00  0.00     0.290 OA 
BRANCH  25  28
HETATM   28  N   UNL     1      -6.136  17.899  67.928  1.00  0.00    -0.155 N  
HETATM   29  C   UNL     1      -5.793  17.328  66.610  1.00  0.00    -0.206 C  
HETATM   30  C   UNL     1      -6.736  17.864  65.526  1.00  0.00    -0.034 C  
HETATM   31  N   UNL     1      -6.791  19.337  65.429  1.00  0.00    -0.410 NA 
HETATM   32  C   UNL     1      -6.891  19.983  66.756  1.00  0.00    -0.216 C  
HETATM   33  C   UNL     1      -5.670  19.838  64.641  1.00  0.00    -0.220 C  
HETATM   34  C   UNL     1      -6.065  19.380  67.918  1.00  0.00    -0.209 C  
ENDBRANCH  25  28
ENDBRANCH  21  25
ENDBRANCH  11  16
ENDBRANCH   3   4
ENDBRANCH   2   3
TORSDOF 7
ENDMDL
MODEL      157
REMARK 921   NORMALIZED FREE ENERGY PREDICTED BY IDOCK:   -4.51 KCAL/MOL
REMARK 922        TOTAL FREE ENERGY PREDICTED BY IDOCK:   -7.71 KCAL/MOL
REMARK 923 INTER-LIGAND FREE ENERGY PREDICTED BY IDOCK:   -6.03 KCAL/MOL
REMARK 924 INTRA-LIGAND FREE ENERGY PREDICTED BY IDOCK:   -1.68 KCAL/MOL
REMARK 927      BINDING AFFINITY PREDICTED BY RF-SCORE:    0.00 PKD
ROOT
HETATM    1  C   UNL     1     -10.891  11.222  67.103  1.00  0.00    -0.321 C  
HETATM    2  C   UNL     1     -11.885  11.846  68.072  1.00  0.00    -0.323 C  
ENDROOT
BRANCH   2   3
HETATM    3  C   UNL     1     -11.386  11.782  69.517  1.00  0.00    -0.317 C  
BRANCH   3   4
HETATM    4  C   UNL     1     -11.788  10.521  70.207  1.00  0.00    -0.331 A  
HETATM    5  N   UNL     1     -12.917  10.522  70.938  1.00  0.00    -0.382 NA 
HETATM    6  N   UNL     1     -13.023   9.254  71.398  1.00  0.00    -0.334 NA 
HETATM    7  C   UNL     1     -12.011   8.451  70.976  1.00  0.00    -0.231 A  
HETATM    8  C   UNL     1     -14.156   8.889  72.214  1.00  0.00    -0.442 C  
HETATM    9  C   UNL     1     -11.191   9.239  70.226  1.00  0.00    -0.231 A  
HETATM   10  N   UNL     1     -10.089   8.705  69.674  1.00  0.00    -0.196 NA 
HETATM   11  C   UNL     1      -9.858   7.352  69.928  1.00  0.00    -0.178 C  
HETATM   12  N   UNL     1     -10.636   6.575  70.634  1.00  0.00    -0.223 N  
HETATM   13  O   UNL     1     -12.523   6.378  71.925  1.00  0.00    -0.337 OA 
HETATM   14  H   UNL     1     -10.396   5.589  70.741  1.00  0.00     0.000 HD 
HETATM   15  C   UNL     1     -11.779   7.063  71.237  1.00  0.00    -0.317 C  
BRANCH  11  16
HETATM   16  C   UNL     1      -8.629   6.694  69.324  1.00  0.00    -0.131 A  
HETATM   17  C   UNL     1      -6.498   5.543  69.507  1.00  0.00    -0.042 A  
HETATM   18  C   UNL     1      -7.615   6.129  70.120  1.00  0.00    -0.096 A  
HETATM   19  C   UNL     1      -8.488   6.692  67.921  1.00  0.00    -0.119 A  
HETATM   20  C   UNL     1      -6.331   5.611  68.123  1.00  0.00    -0.041 A  
HETATM   21  C   UNL     1      -7.304   6.229  67.334  1.00  0.00    -0.084 A  
BRANCH  18  22
HETATM   22  O   UNL     1      -7.796   6.137  71.478  1.00  0.00    -0.099 OA 
BRANCH  22  23
HETATM   23  C   UNL     1      -6.954   7.008  72.235  1.00  0.00    -0.065 C  
HETATM   24  C   UNL     1      -7.845   8.102  72.794  1.00  0.00    -0.197 C  
ENDBRANCH  22  23
ENDBRANCH  18  22
BRANCH  21  25
HETATM   25  S   UNL     1      -7.047   6.315  65.569  1.00  0.00    -0.070 S  
HETATM   26  O   UNL     1      -8.228   5.768  64.933  1.00  0.00    -0.130 OA 
HETATM   27  O   UNL     1      -5.740   5.744  65.316  1.00  0.00    -0.022 OA 
BRANCH  25  28
HETATM   28  N   UNL     1      -6.948   7.958  65.183  1.00  0.00    -0.058 N  
HETATM   29  C   UNL     1      -5.774   8.470  64.447  1.00  0.00    -0.064 C  
HETATM   30  C   UNL     1      -6.024   8.432  62.935  1.00  0.00    -0.082 C  
HETATM   31  N   UNL     1      -7.237   9.147  62.491  1.00  0.00    -0.098 NA 
HETATM   32  C   UNL     1      -8.406   8.858  63.352  1.00  0.00    -0.176 C  
HETATM   33  C   UNL     1      -6.969  10.577  62.367  1.00  0.00    -0.134 C  
HETATM   34  C   UNL     1      -8.170   8.742  64.877  1.00  0.00    -0.159 C  
ENDBRANCH  25  28
ENDBRANCH  21  25
ENDBRANCH  11  16
ENDBRANCH   3   4
ENDBRANCH   2   3
TORSDOF 7
ENDMDL
MODEL      158
REMARK 921   NORMALIZED FREE ENERGY PREDICTED BY IDOCK:   -4.50 KCAL/MOL
REMARK 922        TOTAL FREE ENERGY PREDICTED BY IDOCK:   -7.68 KCAL/MOL
REMARK 923 INTER-LIGAND FREE ENERGY PREDICTED BY IDOCK:   -6.85 KCAL/MOL
REMARK 924 INTRA-LIGAND FREE ENERGY PREDICTED BY IDOCK:   -0.84 KCAL/MOL
REMARK 927      BINDING AFFINITY PREDICTED BY RF-SCORE:    0.00 PKD
ROOT
HETATM    1  C   UNL     1     -10.414  11.803  63.284  1.00  0.00    -0.439 C  
HETATM    2  C   UNL     1     -11.763  12.485  63.107  1.00  0.00    -0.321 C  
ENDROOT
BRANCH   2   3
HETATM    3  C   UNL     1     -12.641  12.337  64.351  1.00  0.00    -0.447 C  
BRANCH   3   4
HETATM    4  C   UNL     1     -12.055  13.006  65.550  1.00  0.00    -0.452 A  
HETATM    5  N   UNL     1     -12.374  14.291  65.789  1.00  0.00    -0.424 NA 
HETATM    6  N   UNL     1     -11.727  14.592  66.937  1.00  0.00    -0.372 NA 
HETATM    7  C   UNL     1     -11.023  13.544  67.440  1.00  0.00    -0.272 A  
HETATM    8  C   UNL     1     -11.871  15.911  67.506  1.00  0.00     0.392 C  
HETATM    9  C   UNL     1     -11.197  12.517  66.562  1.00  0.00    -0.307 A  
HETATM   10  N   UNL     1     -10.603  11.337  66.804  1.00  0.00    -0.249 NA 
HETATM   11  C   UNL     1      -9.824  11.256  67.960  1.00  0.00    -0.178 C  
HETATM   12  N   UNL     1      -9.654  12.224  68.821  1.00  0.00    -0.406 N  
HETATM   13  O   UNL     1     -10.074  14.406  69.394  1.00  0.00    -0.098 OA 
HETATM   14  H   UNL     1      -9.085  12.060  69.653  1.00  0.00     0.000 HD 
HETATM   15  C   UNL     1     -10.227  13.466  68.627  1.00  0.00    -0.182 C  
BRANCH  11  16
HETATM   16  C   UNL     1      -9.134   9.943  68.288  1.00  0.00    -0.122 A  
HETATM   17  C   UNL     1      -7.201   8.645  68.979  1.00  0.00    -0.072 A  
HETATM   18  C   UNL     1      -7.789   9.887  68.700  1.00  0.00    -0.086 A  
HETATM   19  C   UNL     1      -9.859   8.744  68.128  1.00  0.00    -0.194 A  
HETATM   20  C   UNL     1      -7.902   7.460  68.748  1.00  0.00    -0.121 A  
HETATM   21  C   UNL     1      -9.216   7.509  68.277  1.00  0.00    -0.138 A  
BRANCH  18  22
HETATM   22  O   UNL     1      -7.124  11.074  68.856  1.00  0.00    -0.081 OA 
BRANCH  22  23
HETATM   23  C   UNL     1      -6.346  11.528  67.748  1.00  0.00    -0.063 C  
HETATM   24  C   UNL     1      -5.429  10.384  67.358  1.00  0.00    -0.041 C  
ENDBRANCH  22  23
ENDBRANCH  18  22
BRANCH  21  25
HETATM   25  S   UNL     1     -10.075   5.973  67.975  1.00  0.00    -0.177 S  
HETATM   26  O   UNL     1      -9.098   5.019  67.493  1.00  0.00    -0.113 OA 
HETATM   27  O   UNL     1     -11.241   6.304  67.181  1.00  0.00    -0.334 OA 
BRANCH  25  28
HETATM   28  N   UNL     1     -10.640   5.441  69.478  1.00  0.00    -0.287 N  
HETATM   29  C   UNL     1      -9.881   4.420  70.228  1.00  0.00    -0.214 C  
HETATM   30  C   UNL     1      -8.871   5.083  71.172  1.00  0.00    -0.129 C  
HETATM   31  N   UNL     1      -9.454   6.059  72.115  1.00  0.00    -0.149 NA 
HETATM   32  C   UNL     1     -10.421   6.965  71.456  1.00  0.00    -0.212 C  
HETATM   33  C   UNL     1     -10.020   5.374  73.272  1.00  0.00    -0.170 C  
HETATM   34  C   UNL     1     -11.364   6.363  70.387  1.00  0.00    -0.389 C  
ENDBRANCH  25  28
ENDBRANCH  21  25
ENDBRANCH  11  16
ENDBRANCH   3   4
ENDBRANCH   2   3
TORSDOF 7
ENDMDL
MODEL      159
REMARK 921   NORMALIZED FREE ENERGY PREDICTED BY IDOCK:   -4.49 KCAL/MOL
REMARK 922        TOTAL FREE ENERGY PREDICTED BY IDOCK:   -7.68 KCAL/MOL
REMARK 923 INTER-LIGAND FREE ENERGY PREDICTED BY IDOCK:   -6.84 KCAL/MOL
REMARK 924 INTRA-LIGAND FREE ENERGY PREDICTED BY IDOCK:   -0.83 KCAL/MOL
REMARK 927      BINDING AFFINITY PREDICTED BY RF-SCORE:    0.00 PKD
ROOT
HETATM    1  C   UNL     1      -5.877   2.967  72.758  1.00  0.00    -0.008 C  
HETATM    2  C   UNL     1      -6.404   4.391  72.645  1.00  0.00    -0.018 C  
ENDROOT
BRANCH   2   3
HETATM    3  C   UNL     1      -7.077   4.642  71.295  1.00  0.00    -0.047 C  
BRANCH   3   4
HETATM    4  C   UNL     1      -8.512   5.028  71.432  1.00  0.00    -0.119 A  
HETATM    5  N   UNL     1      -9.214   4.536  72.469  1.00  0.00    -0.126 NA 
HETATM    6  N   UNL     1     -10.443   5.084  72.337  1.00  0.00    -0.212 NA 
HETATM    7  C   UNL     1     -10.541   5.914  71.264  1.00  0.00    -0.252 A  
HETATM    8  C   UNL     1     -11.461   4.784  73.315  1.00  0.00    -0.273 C  
HETATM    9  C   UNL     1      -9.324   5.884  70.651  1.00  0.00    -0.160 A  
HETATM   10  N   UNL     1      -9.128   6.618  69.544  1.00  0.00    -0.144 NA 
HETATM   11  C   UNL     1     -10.216   7.364  69.088  1.00  0.00    -0.196 C  
HETATM   12  N   UNL     1     -11.387   7.416  69.667  1.00  0.00    -0.468 N  
HETATM   13  O   UNL     1     -12.747   6.679  71.362  1.00  0.00    -0.304 OA 
HETATM   14  H   UNL     1     -12.114   8.013  69.272  1.00  0.00     0.000 HD 
HETATM   15  C   UNL     1     -11.659   6.678  70.803  1.00  0.00    -0.376 C  
BRANCH  11  16
HETATM   16  C   UNL     1     -10.049   8.217  67.843  1.00  0.00    -0.246 A  
HETATM   17  C   UNL     1      -9.209   8.600  65.597  1.00  0.00    -0.204 A  
HETATM   18  C   UNL     1      -9.338   7.764  66.715  1.00  0.00    -0.180 A  
HETATM   19  C   UNL     1     -10.589   9.520  67.843  1.00  0.00    -0.299 A  
HETATM   20  C   UNL     1      -9.681   9.913  65.633  1.00  0.00    -0.346 A  
HETATM   21  C   UNL     1     -10.330  10.388  66.775  1.00  0.00    -0.235 A  
BRANCH  18  22
HETATM   22  O   UNL     1      -8.842   6.488  66.748  1.00  0.00    -0.121 OA 
BRANCH  22  23
HETATM   23  C   UNL     1      -9.542   5.504  65.986  1.00  0.00    -0.107 C  
HETATM   24  C   UNL     1      -8.579   5.006  64.924  1.00  0.00    -0.150 C  
ENDBRANCH  22  23
ENDBRANCH  18  22
BRANCH  21  25
HETATM   25  S   UNL     1     -10.905  12.079  66.793  1.00  0.00    -0.280 S  
HETATM   26  O   UNL     1     -12.265  12.068  67.289  1.00  0.00    -0.496 OA 
HETATM   27  O   UNL     1     -10.597  12.630  65.488  1.00  0.00    -0.266 OA 
BRANCH  25  28
HETATM   28  N   UNL     1      -9.936  12.898  67.912  1.00  0.00    -0.226 N  
HETATM   29  C   UNL     1      -8.554  12.440  68.160  1.00  0.00    -0.185 C  
HETATM   30  C   UNL     1      -7.571  13.157  67.227  1.00  0.00    -0.080 C  
HETATM   31  N   UNL     1      -7.623  14.632  67.290  1.00  0.00    -0.187 NA 
HETATM   32  C   UNL     1      -9.012  15.144  67.291  1.00  0.00    -0.199 C  
HETATM   33  C   UNL     1      -6.841  15.122  68.421  1.00  0.00    -0.109 C  
HETATM   34  C   UNL     1     -10.071  14.362  68.105  1.00  0.00    -0.226 C  
ENDBRANCH  25  28
ENDBRANCH  21  25
ENDBRANCH  11  16
ENDBRANCH   3   4
ENDBRANCH   2   3
TORSDOF 7
ENDMDL
MODEL      160
REMARK 921   NORMALIZED FREE ENERGY PREDICTED BY IDOCK:   -4.48 KCAL/MOL
REMARK 922        TOTAL FREE ENERGY PREDICTED BY IDOCK:   -7.67 KCAL/MOL
REMARK 923 INTER-LIGAND FREE ENERGY PREDICTED BY IDOCK:   -6.45 KCAL/MOL
REMARK 924 INTRA-LIGAND FREE ENERGY PREDICTED BY IDOCK:   -1.21 KCAL/MOL
REMARK 927      BINDING AFFINITY PREDICTED BY RF-SCORE:    0.00 PKD
ROOT
HETATM    1  C   UNL     1     -12.162  12.919  64.602  1.00  0.00    -0.494 C  
HETATM    2  C   UNL     1     -11.867  13.079  66.086  1.00  0.00    -0.466 C  
ENDROOT
BRANCH   2   3
HETATM    3  C   UNL     1     -11.515  11.742  66.742  1.00  0.00    -0.352 C  
BRANCH   3   4
HETATM    4  C   UNL     1     -10.069  11.641  67.098  1.00  0.00    -0.204 A  
HETATM    5  N   UNL     1      -9.290  12.726  66.936  1.00  0.00    -0.228 NA 
HETATM    6  N   UNL     1      -8.070  12.334  67.367  1.00  0.00    -0.166 NA 
HETATM    7  C   UNL     1      -8.051  11.048  67.807  1.00  0.00    -0.116 A  
HETATM    8  C   UNL     1      -6.978  13.278  67.356  1.00  0.00    -0.092 C  
HETATM    9  C   UNL     1      -9.314  10.569  67.629  1.00  0.00    -0.149 A  
HETATM   10  N   UNL     1      -9.592   9.302  67.978  1.00  0.00    -0.141 NA 
HETATM   11  C   UNL     1      -8.536   8.552  68.498  1.00  0.00    -0.138 C  
HETATM   12  N   UNL     1      -7.321   8.995  68.689  1.00  0.00    -0.076 N  
HETATM   13  O   UNL     1      -5.835  10.731  68.480  1.00  0.00    -0.044 OA 
HETATM   14  H   UNL     1      -6.622   8.377  69.101  1.00  0.00     0.000 HD 
HETATM   15  C   UNL     1      -6.965  10.284  68.342  1.00  0.00    -0.069 C  
BRANCH  11  16
HETATM   16  C   UNL     1      -8.795   7.115  68.916  1.00  0.00    -0.130 A  
HETATM   17  C   UNL     1      -9.290   4.789  68.422  1.00  0.00    -0.177 A  
HETATM   18  C   UNL     1      -9.048   6.097  67.977  1.00  0.00    -0.114 A  
HETATM   19  C   UNL     1      -8.825   6.809  70.292  1.00  0.00    -0.152 A  
HETATM   20  C   UNL     1      -9.391   4.510  69.785  1.00  0.00    -0.223 A  
HETATM   21  C   UNL     1      -9.205   5.532  70.720  1.00  0.00    -0.150 A  
BRANCH  18  22
HETATM   22  O   UNL     1      -8.996   6.431  66.650  1.00  0.00    -0.130 OA 
BRANCH  22  23
HETATM   23  C   UNL     1      -9.022   5.353  65.712  1.00  0.00    -0.158 C  
HETATM   24  C   UNL     1      -7.730   5.430  64.921  1.00  0.00    -0.088 C  
ENDBRANCH  22  23
ENDBRANCH  18  22
BRANCH  21  25
HETATM   25  S   UNL     1      -9.360   5.142  72.456  1.00  0.00    -0.135 S  
HETATM   26  O   UNL     1      -8.198   5.686  73.127  1.00  0.00    -0.117 OA 
HETATM   27  O   UNL     1      -9.664   3.727  72.533  1.00  0.00    -0.131 OA 
BRANCH  25  28
HETATM   28  N   UNL     1     -10.729   5.968  73.008  1.00  0.00    -0.239 N  
HETATM   29  C   UNL     1     -10.590   7.331  73.562  1.00  0.00    -0.362 C  
HETATM   30  C   UNL     1     -10.761   8.383  72.460  1.00  0.00    -0.302 C  
HETATM   31  N   UNL     1     -12.024   8.283  71.701  1.00  0.00    -0.288 NA 
HETATM   32  C   UNL     1     -12.343   6.887  71.324  1.00  0.00    -0.375 C  
HETATM   33  C   UNL     1     -13.109   8.932  72.429  1.00  0.00    -0.418 C  
HETATM   34  C   UNL     1     -12.047   5.774  72.358  1.00  0.00    -0.028 C  
ENDBRANCH  25  28
ENDBRANCH  21  25
ENDBRANCH  11  16
ENDBRANCH   3   4
ENDBRANCH   2   3
TORSDOF 7
ENDMDL
MODEL      161
REMARK 921   NORMALIZED FREE ENERGY PREDICTED BY IDOCK:   -4.48 KCAL/MOL
REMARK 922        TOTAL FREE ENERGY PREDICTED BY IDOCK:   -7.66 KCAL/MOL
REMARK 923 INTER-LIGAND FREE ENERGY PREDICTED BY IDOCK:   -7.20 KCAL/MOL
REMARK 924 INTRA-LIGAND FREE ENERGY PREDICTED BY IDOCK:   -0.46 KCAL/MOL
REMARK 927      BINDING AFFINITY PREDICTED BY RF-SCORE:    0.00 PKD
ROOT
HETATM    1  C   UNL     1      -9.447   2.499  69.550  1.00  0.00    -0.128 C  
HETATM    2  C   UNL     1      -9.288   3.884  68.937  1.00  0.00    -0.231 C  
ENDROOT
BRANCH   2   3
HETATM    3  C   UNL     1      -7.840   4.162  68.531  1.00  0.00    -0.073 C  
BRANCH   3   4
HETATM    4  C   UNL     1      -7.734   4.796  67.184  1.00  0.00    -0.091 A  
HETATM    5  N   UNL     1      -7.109   4.119  66.203  1.00  0.00    -0.066 NA 
HETATM    6  N   UNL     1      -7.204   4.925  65.121  1.00  0.00    -0.063 NA 
HETATM    7  C   UNL     1      -7.876   6.078  65.378  1.00  0.00    -0.104 A  
HETATM    8  C   UNL     1      -6.650   4.488  63.862  1.00  0.00    -0.042 C  
HETATM    9  C   UNL     1      -8.211   6.035  66.697  1.00  0.00    -0.106 A  
HETATM   10  N   UNL     1      -8.889   7.061  67.238  1.00  0.00    -0.119 NA 
HETATM   11  C   UNL     1      -9.195   8.124  66.386  1.00  0.00    -0.199 C  
HETATM   12  N   UNL     1      -8.894   8.181  65.116  1.00  0.00    -0.388 N  
HETATM   13  O   UNL     1      -7.866   7.188  63.321  1.00  0.00    -0.124 OA 
HETATM   14  H   UNL     1      -9.184   8.991  64.568  1.00  0.00     0.000 HD 
HETATM   15  C   UNL     1      -8.189   7.165  64.500  1.00  0.00     0.000 C  
BRANCH  11  16
HETATM   16  C   UNL     1      -9.965   9.309  66.942  1.00  0.00    -0.298 A  
HETATM   17  C   UNL     1     -11.193  10.437  68.709  1.00  0.00    -0.295 A  
HETATM   18  C   UNL     1     -10.481   9.319  68.253  1.00  0.00    -0.215 A  
HETATM   19  C   UNL     1     -10.206  10.412  66.097  1.00  0.00    -0.288 A  
HETATM   20  C   UNL     1     -11.490  11.491  67.844  1.00  0.00    -0.372 A  
HETATM   21  C   UNL     1     -11.035  11.456  66.523  1.00  0.00    -0.272 A  
BRANCH  18  22
HETATM   22  O   UNL     1     -10.214   8.235  69.047  1.00  0.00    -0.208 OA 
BRANCH  22  23
HETATM   23  C   UNL     1     -10.996   8.098  70.234  1.00  0.00    -0.240 C  
HETATM   24  C   UNL     1     -11.574   6.695  70.219  1.00  0.00    -0.454 C  
ENDBRANCH  22  23
ENDBRANCH  18  22
BRANCH  21  25
HETATM   25  S   UNL     1     -11.450  12.814  65.439  1.00  0.00    -0.344 S  
HETATM   26  O   UNL     1     -12.863  13.081  65.602  1.00  0.00    -0.463 OA 
HETATM   27  O   UNL     1     -10.905  12.481  64.138  1.00  0.00    -0.326 OA 
BRANCH  25  28
HETATM   28  N   UNL     1     -10.586  14.153  66.004  1.00  0.00    -0.290 N  
HETATM   29  C   UNL     1     -11.286  15.212  66.760  1.00  0.00    -0.285 C  
HETATM   30  C   UNL     1     -11.245  14.921  68.264  1.00  0.00    -0.294 C  
HETATM   31  N   UNL     1      -9.890  14.729  68.820  1.00  0.00    -0.223 NA 
HETATM   32  C   UNL     1      -9.051  13.859  67.965  1.00  0.00    -0.192 C  
HETATM   33  C   UNL     1      -9.265  16.018  69.097  1.00  0.00    -0.247 C  
HETATM   34  C   UNL     1      -9.172  14.021  66.430  1.00  0.00    -0.162 C  
ENDBRANCH  25  28
ENDBRANCH  21  25
ENDBRANCH  11  16
ENDBRANCH   3   4
ENDBRANCH   2   3
TORSDOF 7
ENDMDL
MODEL      162
REMARK 921   NORMALIZED FREE ENERGY PREDICTED BY IDOCK:   -4.46 KCAL/MOL
REMARK 922        TOTAL FREE ENERGY PREDICTED BY IDOCK:   -7.64 KCAL/MOL
REMARK 923 INTER-LIGAND FREE ENERGY PREDICTED BY IDOCK:   -6.30 KCAL/MOL
REMARK 924 INTRA-LIGAND FREE ENERGY PREDICTED BY IDOCK:   -1.34 KCAL/MOL
REMARK 927      BINDING AFFINITY PREDICTED BY RF-SCORE:    0.00 PKD
ROOT
HETATM    1  C   UNL     1      -5.946  15.631  70.515  1.00  0.00     0.015 C  
HETATM    2  C   UNL     1      -5.142  16.349  69.441  1.00  0.00    -0.124 C  
ENDROOT
BRANCH   2   3
HETATM    3  C   UNL     1      -5.585  15.943  68.034  1.00  0.00    -0.133 C  
BRANCH   3   4
HETATM    4  C   UNL     1      -6.971  16.396  67.716  1.00  0.00    -0.138 A  
HETATM    5  N   UNL     1      -7.143  17.636  67.222  1.00  0.00    -0.173 NA 
HETATM    6  N   UNL     1      -8.476  17.733  67.011  1.00  0.00    -0.225 NA 
HETATM    7  C   UNL     1      -9.149  16.599  67.339  1.00  0.00    -0.201 A  
HETATM    8  C   UNL     1      -9.016  18.949  66.451  1.00  0.00    -0.310 C  
HETATM    9  C   UNL     1      -8.214  15.729  67.813  1.00  0.00    -0.144 A  
HETATM   10  N   UNL     1      -8.599  14.509  68.222  1.00  0.00    -0.164 NA 
HETATM   11  C   UNL     1      -9.962  14.224  68.138  1.00  0.00    -0.230 C  
HETATM   12  N   UNL     1     -10.874  15.039  67.676  1.00  0.00    -0.283 N  
HETATM   13  O   UNL     1     -11.371  17.114  66.831  1.00  0.00     0.340 OA 
HETATM   14  H   UNL     1     -11.845  14.729  67.629  1.00  0.00     0.000 HD 
HETATM   15  C   UNL     1     -10.548  16.312  67.249  1.00  0.00    -0.298 C  
BRANCH  11  16
HETATM   16  C   UNL     1     -10.453  12.857  68.581  1.00  0.00    -0.231 A  
HETATM   17  C   UNL     1     -12.001  11.410  69.770  1.00  0.00    -0.422 A  
HETATM   18  C   UNL     1     -11.600  12.697  69.383  1.00  0.00    -0.306 A  
HETATM   19  C   UNL     1      -9.705  11.721  68.211  1.00  0.00    -0.199 A  
HETATM   20  C   UNL     1     -11.215  10.299  69.461  1.00  0.00    -0.314 A  
HETATM   21  C   UNL     1     -10.041  10.461  68.721  1.00  0.00    -0.187 A  
BRANCH  18  22
HETATM   22  O   UNL     1     -12.307  13.823  69.710  1.00  0.00    -0.319 OA 
BRANCH  22  23
HETATM   23  C   UNL     1     -12.619  14.010  71.091  1.00  0.00    -0.371 C  
HETATM   24  C   UNL     1     -12.285  15.452  71.425  1.00  0.00    -0.433 C  
ENDBRANCH  22  23
ENDBRANCH  18  22
BRANCH  21  25
HETATM   25  S   UNL     1      -9.050   9.019  68.361  1.00  0.00    -0.132 S  
HETATM   26  O   UNL     1      -8.766   8.364  69.621  1.00  0.00    -0.131 OA 
HETATM   27  O   UNL     1      -7.974   9.465  67.499  1.00  0.00    -0.102 OA 
BRANCH  25  28
HETATM   28  N   UNL     1     -10.025   7.992  67.436  1.00  0.00    -0.187 N  
HETATM   29  C   UNL     1      -9.574   7.561  66.097  1.00  0.00     0.014 C  
HETATM   30  C   UNL     1      -8.787   6.249  66.188  1.00  0.00    -0.153 C  
HETATM   31  N   UNL     1      -9.507   5.141  66.849  1.00  0.00    -0.131 NA 
HETATM   32  C   UNL     1     -10.192   5.577  68.086  1.00  0.00    -0.177 C  
HETATM   33  C   UNL     1     -10.408   4.485  65.907  1.00  0.00    -0.258 C  
HETATM   34  C   UNL     1     -10.876   6.965  68.083  1.00  0.00    -0.194 C  
ENDBRANCH  25  28
ENDBRANCH  21  25
ENDBRANCH  11  16
ENDBRANCH   3   4
ENDBRANCH   2   3
TORSDOF 7
ENDMDL
MODEL      163
REMARK 921   NORMALIZED FREE ENERGY PREDICTED BY IDOCK:   -4.43 KCAL/MOL
REMARK 922        TOTAL FREE ENERGY PREDICTED BY IDOCK:   -7.59 KCAL/MOL
REMARK 923 INTER-LIGAND FREE ENERGY PREDICTED BY IDOCK:   -6.51 KCAL/MOL
REMARK 924 INTRA-LIGAND FREE ENERGY PREDICTED BY IDOCK:   -1.09 KCAL/MOL
REMARK 927      BINDING AFFINITY PREDICTED BY RF-SCORE:    0.00 PKD
ROOT
HETATM    1  C   UNL     1      -9.354   8.518  71.200  1.00  0.00    -0.249 C  
HETATM    2  C   UNL     1      -7.930   7.984  71.132  1.00  0.00    -0.095 C  
ENDROOT
BRANCH   2   3
HETATM    3  C   UNL     1      -7.083   8.753  70.116  1.00  0.00    -0.045 C  
BRANCH   3   4
HETATM    4  C   UNL     1      -7.811   9.007  68.838  1.00  0.00    -0.095 A  
HETATM    5  N   UNL     1      -7.968   7.986  67.975  1.00  0.00    -0.126 NA 
HETATM    6  N   UNL     1      -8.679   8.514  66.953  1.00  0.00    -0.126 NA 
HETATM    7  C   UNL     1      -8.988   9.824  67.143  1.00  0.00    -0.135 A  
HETATM    8  C   UNL     1      -9.054   7.672  65.843  1.00  0.00    -0.052 C  
HETATM    9  C   UNL     1      -8.427  10.176  68.334  1.00  0.00    -0.118 A  
HETATM   10  N   UNL     1      -8.569  11.434  68.781  1.00  0.00    -0.127 NA 
HETATM   11  C   UNL     1      -9.288  12.309  67.965  1.00  0.00    -0.195 C  
HETATM   12  N   UNL     1      -9.843  11.991  66.826  1.00  0.00    -0.201 N  
HETATM   13  O   UNL     1     -10.210  10.382  65.230  1.00  0.00    -0.299 OA 
HETATM   14  H   UNL     1     -10.373  12.696  66.312  1.00  0.00     0.000 HD 
HETATM   15  C   UNL     1      -9.727  10.717  66.303  1.00  0.00    -0.205 C  
BRANCH  11  16
HETATM   16  C   UNL     1      -9.484  13.744  68.424  1.00  0.00    -0.198 A  
HETATM   17  C   UNL     1     -10.840  15.544  69.331  1.00  0.00    -0.261 A  
HETATM   18  C   UNL     1     -10.714  14.206  68.931  1.00  0.00    -0.256 A  
HETATM   19  C   UNL     1      -8.408  14.645  68.294  1.00  0.00    -0.148 A  
HETATM   20  C   UNL     1      -9.794  16.446  69.130  1.00  0.00    -0.272 A  
HETATM   21  C   UNL     1      -8.593  16.006  68.567  1.00  0.00    -0.190 A  
BRANCH  18  22
HETATM   22  O   UNL     1     -11.731  13.296  69.055  1.00  0.00    -0.281 OA 
BRANCH  22  23
HETATM   23  C   UNL     1     -12.047  12.860  70.378  1.00  0.00    -0.306 C  
HETATM   24  C   UNL     1     -12.080  11.344  70.343  1.00  0.00    -0.473 C  
ENDBRANCH  22  23
ENDBRANCH  18  22
BRANCH  21  25
HETATM   25  S   UNL     1      -7.284  17.192  68.308  1.00  0.00    -0.213 S  
HETATM   26  O   UNL     1      -6.120  16.459  67.855  1.00  0.00    -0.106 OA 
HETATM   27  O   UNL     1      -7.226  18.008  69.504  1.00  0.00    -0.050 OA 
BRANCH  25  28
HETATM   28  N   UNL     1      -7.799  18.201  67.051  1.00  0.00    -0.217 N  
HETATM   29  C   UNL     1      -8.629  17.649  65.961  1.00  0.00    -0.031 C  
HETATM   30  C   UNL     1     -10.119  17.790  66.291  1.00  0.00    -0.344 C  
HETATM   31  N   UNL     1     -10.556  19.167  66.598  1.00  0.00    -0.428 NA 
HETATM   32  C   UNL     1      -9.619  19.863  67.507  1.00  0.00    -0.370 C  
HETATM   33  C   UNL     1     -10.803  19.910  65.366  1.00  0.00    -0.011 C  
HETATM   34  C   UNL     1      -8.103  19.630  67.300  1.00  0.00    -0.282 C  
ENDBRANCH  25  28
ENDBRANCH  21  25
ENDBRANCH  11  16
ENDBRANCH   3   4
ENDBRANCH   2   3
TORSDOF 7
ENDMDL
MODEL      164
REMARK 921   NORMALIZED FREE ENERGY PREDICTED BY IDOCK:   -4.42 KCAL/MOL
REMARK 922        TOTAL FREE ENERGY PREDICTED BY IDOCK:   -7.58 KCAL/MOL
REMARK 923 INTER-LIGAND FREE ENERGY PREDICTED BY IDOCK:   -6.34 KCAL/MOL
REMARK 924 INTRA-LIGAND FREE ENERGY PREDICTED BY IDOCK:   -1.24 KCAL/MOL
REMARK 927      BINDING AFFINITY PREDICTED BY RF-SCORE:    0.00 PKD
ROOT
HETATM    1  C   UNL     1      -6.494   8.231  69.123  1.00  0.00    -0.040 C  
HETATM    2  C   UNL     1      -6.738   9.009  67.837  1.00  0.00    -0.068 C  
ENDROOT
BRANCH   2   3
HETATM    3  C   UNL     1      -7.590   8.215  66.846  1.00  0.00    -0.095 C  
BRANCH   3   4
HETATM    4  C   UNL     1      -8.159   9.071  65.764  1.00  0.00    -0.109 A  
HETATM    5  N   UNL     1      -8.359   8.523  64.551  1.00  0.00    -0.154 NA 
HETATM    6  N   UNL     1      -8.901   9.520  63.815  1.00  0.00    -0.226 NA 
HETATM    7  C   UNL     1      -9.064  10.671  64.520  1.00  0.00    -0.217 A  
HETATM    8  C   UNL     1      -9.271   9.267  62.443  1.00  0.00     0.027 C  
HETATM    9  C   UNL     1      -8.578  10.421  65.768  1.00  0.00    -0.164 A  
HETATM   10  N   UNL     1      -8.606  11.396  66.692  1.00  0.00    -0.166 NA 
HETATM   11  C   UNL     1      -9.133  12.624  66.287  1.00  0.00    -0.046 C  
HETATM   12  N   UNL     1      -9.615  12.881  65.100  1.00  0.00    -0.482 N  
HETATM   13  O   UNL     1     -10.025  12.133  62.970  1.00  0.00    -0.352 OA 
HETATM   14  H   UNL     1     -10.004  13.805  64.907  1.00  0.00     0.000 HD 
HETATM   15  C   UNL     1      -9.607  11.927  64.101  1.00  0.00    -0.034 C  
BRANCH  11  16
HETATM   16  C   UNL     1      -9.195  13.761  67.293  1.00  0.00    -0.239 A  
HETATM   17  C   UNL     1     -10.345  15.082  68.976  1.00  0.00    -0.243 A  
HETATM   18  C   UNL     1     -10.342  14.012  68.070  1.00  0.00    -0.240 A  
HETATM   19  C   UNL     1      -8.079  14.614  67.413  1.00  0.00    -0.216 A  
HETATM   20  C   UNL     1      -9.265  15.965  69.034  1.00  0.00    -0.242 A  
HETATM   21  C   UNL     1      -8.151  15.757  68.217  1.00  0.00    -0.142 A  
BRANCH  18  22
HETATM   22  O   UNL     1     -11.399  13.152  67.935  1.00  0.00    -0.255 OA 
BRANCH  22  23
HETATM   23  C   UNL     1     -11.687  12.304  69.048  1.00  0.00    -0.324 C  
HETATM   24  C   UNL     1     -11.577  10.875  68.550  1.00  0.00    -0.360 C  
ENDBRANCH  22  23
ENDBRANCH  18  22
BRANCH  21  25
HETATM   25  S   UNL     1      -6.797  16.918  68.306  1.00  0.00    -0.170 S  
HETATM   26  O   UNL     1      -5.639  16.276  67.720  1.00  0.00    -0.119 OA 
HETATM   27  O   UNL     1      -6.762  17.405  69.671  1.00  0.00    -0.187 OA 
BRANCH  25  28
HETATM   28  N   UNL     1      -7.230  18.229  67.329  1.00  0.00    -0.199 N  
HETATM   29  C   UNL     1      -6.982  19.608  67.798  1.00  0.00    -0.249 C  
HETATM   30  C   UNL     1      -5.605  20.097  67.336  1.00  0.00    -0.174 C  
HETATM   31  N   UNL     1      -5.379  20.021  65.878  1.00  0.00    -0.161 NA 
HETATM   32  C   UNL     1      -5.840  18.736  65.305  1.00  0.00    -0.248 C  
HETATM   33  C   UNL     1      -5.966  21.179  65.211  1.00  0.00    -0.180 C  
HETATM   34  C   UNL     1      -7.156  18.132  65.851  1.00  0.00    -0.265 C  
ENDBRANCH  25  28
ENDBRANCH  21  25
ENDBRANCH  11  16
ENDBRANCH   3   4
ENDBRANCH   2   3
TORSDOF 7
ENDMDL
MODEL      165
REMARK 921   NORMALIZED FREE ENERGY PREDICTED BY IDOCK:   -4.42 KCAL/MOL
REMARK 922        TOTAL FREE ENERGY PREDICTED BY IDOCK:   -7.57 KCAL/MOL
REMARK 923 INTER-LIGAND FREE ENERGY PREDICTED BY IDOCK:   -6.29 KCAL/MOL
REMARK 924 INTRA-LIGAND FREE ENERGY PREDICTED BY IDOCK:   -1.28 KCAL/MOL
REMARK 927      BINDING AFFINITY PREDICTED BY RF-SCORE:    0.00 PKD
ROOT
HETATM    1  C   UNL     1     -10.336  14.890  65.000  1.00  0.00    -0.401 C  
HETATM    2  C   UNL     1     -11.199  13.729  65.473  1.00  0.00    -0.303 C  
ENDROOT
BRANCH   2   3
HETATM    3  C   UNL     1     -10.530  12.948  66.606  1.00  0.00    -0.272 C  
BRANCH   3   4
HETATM    4  C   UNL     1     -11.188  13.175  67.926  1.00  0.00    -0.270 A  
HETATM    5  N   UNL     1     -11.732  14.381  68.173  1.00  0.00    -0.330 NA 
HETATM    6  N   UNL     1     -12.266  14.264  69.410  1.00  0.00    -0.312 NA 
HETATM    7  C   UNL     1     -12.091  13.027  69.948  1.00  0.00    -0.277 A  
HETATM    8  C   UNL     1     -12.964  15.386  69.989  1.00  0.00     0.037 C  
HETATM    9  C   UNL     1     -11.385  12.312  69.029  1.00  0.00    -0.280 A  
HETATM   10  N   UNL     1     -11.060  11.037  69.297  1.00  0.00    -0.235 NA 
HETATM   11  C   UNL     1     -11.470  10.535  70.533  1.00  0.00    -0.345 C  
HETATM   12  N   UNL     1     -12.158  11.199  71.424  1.00  0.00    -0.115 N  
HETATM   13  O   UNL     1     -13.138  13.183  72.032  1.00  0.00    -0.389 OA 
HETATM   14  H   UNL     1     -12.435  10.736  72.290  1.00  0.00     0.000 HD 
HETATM   15  C   UNL     1     -12.516  12.517  71.216  1.00  0.00    -0.170 C  
BRANCH  11  16
HETATM   16  C   UNL     1     -11.135   9.096  70.887  1.00  0.00    -0.356 A  
HETATM   17  C   UNL     1     -11.761   6.801  71.375  1.00  0.00    -0.371 A  
HETATM   18  C   UNL     1     -12.129   8.111  71.038  1.00  0.00    -0.207 A  
HETATM   19  C   UNL     1      -9.785   8.756  71.112  1.00  0.00    -0.315 A  
HETATM   20  C   UNL     1     -10.432   6.490  71.669  1.00  0.00    -0.241 A  
HETATM   21  C   UNL     1      -9.450   7.481  71.583  1.00  0.00    -0.149 A  
BRANCH  18  22
HETATM   22  O   UNL     1     -13.427   8.477  70.797  1.00  0.00     0.218 OA 
BRANCH  22  23
HETATM   23  C   UNL     1     -14.394   8.110  71.781  1.00  0.00    -0.484 C  
HETATM   24  C   UNL     1     -14.268   9.111  72.914  1.00  0.00     0.097 C  
ENDBRANCH  22  23
ENDBRANCH  18  22
BRANCH  21  25
HETATM   25  S   UNL     1      -7.764   7.052  71.984  1.00  0.00    -0.092 S  
HETATM   26  O   UNL     1      -7.797   5.793  72.698  1.00  0.00    -0.100 OA 
HETATM   27  O   UNL     1      -7.173   8.229  72.586  1.00  0.00    -0.104 OA 
BRANCH  25  28
HETATM   28  N   UNL     1      -6.973   6.806  70.509  1.00  0.00    -0.062 N  
HETATM   29  C   UNL     1      -7.693   6.166  69.388  1.00  0.00    -0.099 C  
HETATM   30  C   UNL     1      -8.375   7.222  68.511  1.00  0.00    -0.125 C  
HETATM   31  N   UNL     1      -7.472   8.267  67.988  1.00  0.00    -0.096 NA 
HETATM   32  C   UNL     1      -6.548   8.780  69.024  1.00  0.00    -0.048 C  
HETATM   33  C   UNL     1      -6.775   7.791  66.797  1.00  0.00    -0.067 C  
HETATM   34  C   UNL     1      -5.950   7.764  70.026  1.00  0.00    -0.023 C  
ENDBRANCH  25  28
ENDBRANCH  21  25
ENDBRANCH  11  16
ENDBRANCH   3   4
ENDBRANCH   2   3
TORSDOF 7
ENDMDL
MODEL      166
REMARK 921   NORMALIZED FREE ENERGY PREDICTED BY IDOCK:   -4.40 KCAL/MOL
REMARK 922        TOTAL FREE ENERGY PREDICTED BY IDOCK:   -7.55 KCAL/MOL
REMARK 923 INTER-LIGAND FREE ENERGY PREDICTED BY IDOCK:   -6.56 KCAL/MOL
REMARK 924 INTRA-LIGAND FREE ENERGY PREDICTED BY IDOCK:   -0.99 KCAL/MOL
REMARK 927      BINDING AFFINITY PREDICTED BY RF-SCORE:    0.00 PKD
ROOT
HETATM    1  C   UNL     1     -12.998  14.112  71.642  1.00  0.00    -0.423 C  
HETATM    2  C   UNL     1     -12.781  14.861  70.335  1.00  0.00    -0.370 C  
ENDROOT
BRANCH   2   3
HETATM    3  C   UNL     1     -11.445  14.495  69.686  1.00  0.00    -0.332 C  
BRANCH   3   4
HETATM    4  C   UNL     1     -11.613  13.863  68.344  1.00  0.00    -0.332 A  
HETATM    5  N   UNL     1     -12.328  14.518  67.411  1.00  0.00    -0.137 NA 
HETATM    6  N   UNL     1     -12.270  13.720  66.320  1.00  0.00    -0.444 NA 
HETATM    7  C   UNL     1     -11.536  12.595  66.524  1.00  0.00    -0.353 A  
HETATM    8  C   UNL     1     -12.923  14.138  65.103  1.00  0.00    -0.177 C  
HETATM    9  C   UNL     1     -11.117  12.647  67.819  1.00  0.00    -0.247 A  
HETATM   10  N   UNL     1     -10.364  11.648  68.308  1.00  0.00    -0.193 NA 
HETATM   11  C   UNL     1     -10.071  10.602  67.431  1.00  0.00    -0.194 C  
HETATM   12  N   UNL     1     -10.452  10.537  66.182  1.00  0.00    -0.205 N  
HETATM   13  O   UNL     1     -11.635  11.494  64.465  1.00  0.00    -0.211 OA 
HETATM   14  H   UNL     1     -10.165   9.742  65.612  1.00  0.00     0.000 HD 
HETATM   15  C   UNL     1     -11.237  11.526  65.621  1.00  0.00    -0.148 C  
BRANCH  11  16
HETATM   16  C   UNL     1      -9.218   9.448  67.928  1.00  0.00    -0.139 A  
HETATM   17  C   UNL     1      -7.115   8.503  68.695  1.00  0.00    -0.072 A  
HETATM   18  C   UNL     1      -7.856   9.607  68.249  1.00  0.00    -0.085 A  
HETATM   19  C   UNL     1      -9.805   8.169  68.025  1.00  0.00    -0.200 A  
HETATM   20  C   UNL     1      -7.684   7.229  68.716  1.00  0.00    -0.119 A  
HETATM   21  C   UNL     1      -9.017   7.055  68.336  1.00  0.00    -0.122 A  
BRANCH  18  22
HETATM   22  O   UNL     1      -7.326  10.867  68.156  1.00  0.00    -0.084 OA 
BRANCH  22  23
HETATM   23  C   UNL     1      -6.641  11.190  66.945  1.00  0.00    -0.124 C  
HETATM   24  C   UNL     1      -5.156  11.078  67.239  1.00  0.00    -0.043 C  
ENDBRANCH  22  23
ENDBRANCH  18  22
BRANCH  21  25
HETATM   25  S   UNL     1      -9.705   5.407  68.359  1.00  0.00    -0.144 S  
HETATM   26  O   UNL     1      -8.608   4.478  68.186  1.00  0.00    -0.100 OA 
HETATM   27  O   UNL     1     -10.821   5.416  67.434  1.00  0.00    -0.159 OA 
BRANCH  25  28
HETATM   28  N   UNL     1     -10.352   5.185  69.906  1.00  0.00    -0.294 N  
HETATM   29  C   UNL     1      -9.734   4.208  70.826  1.00  0.00    -0.196 C  
HETATM   30  C   UNL     1      -8.664   4.884  71.691  1.00  0.00    -0.127 C  
HETATM   31  N   UNL     1      -9.136   6.055  72.456  1.00  0.00    -0.136 NA 
HETATM   32  C   UNL     1      -9.976   6.958  71.637  1.00  0.00    -0.171 C  
HETATM   33  C   UNL     1      -9.798   5.629  73.684  1.00  0.00    -0.172 C  
HETATM   34  C   UNL     1     -10.970   6.315  70.641  1.00  0.00    -0.309 C  
ENDBRANCH  25  28
ENDBRANCH  21  25
ENDBRANCH  11  16
ENDBRANCH   3   4
ENDBRANCH   2   3
TORSDOF 7
ENDMDL
MODEL      167
REMARK 921   NORMALIZED FREE ENERGY PREDICTED BY IDOCK:   -4.38 KCAL/MOL
REMARK 922        TOTAL FREE ENERGY PREDICTED BY IDOCK:   -7.52 KCAL/MOL
REMARK 923 INTER-LIGAND FREE ENERGY PREDICTED BY IDOCK:   -6.25 KCAL/MOL
REMARK 924 INTRA-LIGAND FREE ENERGY PREDICTED BY IDOCK:   -1.28 KCAL/MOL
REMARK 927      BINDING AFFINITY PREDICTED BY RF-SCORE:    0.00 PKD
ROOT
HETATM    1  C   UNL     1     -12.371  13.793  63.972  1.00  0.00    -0.370 C  
HETATM    2  C   UNL     1     -12.330  13.013  65.278  1.00  0.00    -0.537 C  
ENDROOT
BRANCH   2   3
HETATM    3  C   UNL     1     -12.220  13.940  66.490  1.00  0.00    -0.482 C  
BRANCH   3   4
HETATM    4  C   UNL     1     -10.850  14.510  66.654  1.00  0.00    -0.311 A  
HETATM    5  N   UNL     1     -10.703  15.847  66.622  1.00  0.00    -0.303 NA 
HETATM    6  N   UNL     1      -9.381  16.046  66.828  1.00  0.00    -0.225 NA 
HETATM    7  C   UNL     1      -8.691  14.888  67.002  1.00  0.00    -0.238 A  
HETATM    8  C   UNL     1      -8.868  17.395  66.879  1.00  0.00    -0.242 C  
HETATM    9  C   UNL     1      -9.602  13.883  66.876  1.00  0.00    -0.269 A  
HETATM   10  N   UNL     1      -9.195  12.609  66.999  1.00  0.00    -0.206 NA 
HETATM   11  C   UNL     1      -7.835  12.408  67.240  1.00  0.00    -0.166 C  
HETATM   12  N   UNL     1      -6.947  13.357  67.376  1.00  0.00    -0.300 N  
HETATM   13  O   UNL     1      -6.493  15.606  67.346  1.00  0.00    -0.169 OA 
HETATM   14  H   UNL     1      -5.978  13.111  67.577  1.00  0.00     0.000 HD 
HETATM   15  C   UNL     1      -7.295  14.688  67.251  1.00  0.00    -0.090 C  
BRANCH  11  16
HETATM   16  C   UNL     1      -7.321  10.987  67.394  1.00  0.00    -0.105 A  
HETATM   17  C   UNL     1      -5.828   9.334  68.362  1.00  0.00    -0.041 A  
HETATM   18  C   UNL     1      -6.267  10.663  68.269  1.00  0.00    -0.050 A  
HETATM   19  C   UNL     1      -7.895   9.974  66.597  1.00  0.00    -0.111 A  
HETATM   20  C   UNL     1      -6.350   8.353  67.518  1.00  0.00    -0.057 A  
HETATM   21  C   UNL     1      -7.351   8.684  66.602  1.00  0.00    -0.081 A  
BRANCH  18  22
HETATM   22  O   UNL     1      -5.747  11.671  69.036  1.00  0.00    -0.050 OA 
BRANCH  22  23
HETATM   23  C   UNL     1      -6.043  11.638  70.432  1.00  0.00    -0.074 C  
HETATM   24  C   UNL     1      -5.784  13.034  70.969  1.00  0.00    -0.085 C  
ENDBRANCH  22  23
ENDBRANCH  18  22
BRANCH  21  25
HETATM   25  S   UNL     1      -7.982   7.407  65.524  1.00  0.00    -0.128 S  
HETATM   26  O   UNL     1      -6.994   6.349  65.484  1.00  0.00    -0.051 OA 
HETATM   27  O   UNL     1      -8.407   8.069  64.308  1.00  0.00    -0.110 OA 
BRANCH  25  28
HETATM   28  N   UNL     1      -9.377   6.805  66.268  1.00  0.00    -0.139 N  
HETATM   29  C   UNL     1      -9.308   5.557  67.056  1.00  0.00    -0.118 C  
HETATM   30  C   UNL     1      -9.010   5.863  68.529  1.00  0.00    -0.113 C  
HETATM   31  N   UNL     1      -9.955   6.801  69.168  1.00  0.00    -0.157 NA 
HETATM   32  C   UNL     1     -10.254   7.968  68.308  1.00  0.00    -0.205 C  
HETATM   33  C   UNL     1     -11.157   6.098  69.602  1.00  0.00    -0.419 C  
HETATM   34  C   UNL     1     -10.417   7.724  66.789  1.00  0.00    -0.248 C  
ENDBRANCH  25  28
ENDBRANCH  21  25
ENDBRANCH  11  16
ENDBRANCH   3   4
ENDBRANCH   2   3
TORSDOF 7
ENDMDL
MODEL      168
REMARK 921   NORMALIZED FREE ENERGY PREDICTED BY IDOCK:   -4.38 KCAL/MOL
REMARK 922        TOTAL FREE ENERGY PREDICTED BY IDOCK:   -7.52 KCAL/MOL
REMARK 923 INTER-LIGAND FREE ENERGY PREDICTED BY IDOCK:   -6.60 KCAL/MOL
REMARK 924 INTRA-LIGAND FREE ENERGY PREDICTED BY IDOCK:   -0.92 KCAL/MOL
REMARK 927      BINDING AFFINITY PREDICTED BY RF-SCORE:    0.00 PKD
ROOT
HETATM    1  C   UNL     1     -12.238  12.217  63.334  1.00  0.00    -0.630 C  
HETATM    2  C   UNL     1     -12.172  12.032  64.843  1.00  0.00    -0.187 C  
ENDROOT
BRANCH   2   3
HETATM    3  C   UNL     1     -12.581  13.303  65.590  1.00  0.00    -0.469 C  
BRANCH   3   4
HETATM    4  C   UNL     1     -11.410  14.146  65.972  1.00  0.00    -0.330 A  
HETATM    5  N   UNL     1     -11.419  15.448  65.632  1.00  0.00    -0.135 NA 
HETATM    6  N   UNL     1     -10.263  15.937  66.137  1.00  0.00    -0.304 NA 
HETATM    7  C   UNL     1      -9.532  14.997  66.793  1.00  0.00    -0.246 A  
HETATM    8  C   UNL     1      -9.955  17.337  65.973  1.00  0.00    -0.233 C  
HETATM    9  C   UNL     1     -10.232  13.833  66.688  1.00  0.00    -0.276 A  
HETATM   10  N   UNL     1      -9.739  12.717  67.249  1.00  0.00    -0.204 NA 
HETATM   11  C   UNL     1      -8.511  12.836  67.902  1.00  0.00    -0.173 C  
HETATM   12  N   UNL     1      -7.829  13.945  68.025  1.00  0.00    -0.138 N  
HETATM   13  O   UNL     1      -7.657  16.179  67.533  1.00  0.00    -0.129 OA 
HETATM   14  H   UNL     1      -6.951  13.937  68.545  1.00  0.00     0.000 HD 
HETATM   15  C   UNL     1      -8.274  15.126  67.463  1.00  0.00    -0.178 C  
BRANCH  11  16
HETATM   16  C   UNL     1      -7.909  11.607  68.559  1.00  0.00    -0.140 A  
HETATM   17  C   UNL     1      -6.198  10.494  69.876  1.00  0.00    -0.090 A  
HETATM   18  C   UNL     1      -6.712  11.664  69.299  1.00  0.00    -0.115 A  
HETATM   19  C   UNL     1      -8.552  10.365  68.381  1.00  0.00    -0.128 A  
HETATM   20  C   UNL     1      -6.800   9.258  69.633  1.00  0.00    -0.055 A  
HETATM   21  C   UNL     1      -7.952   9.188  68.845  1.00  0.00    -0.099 A  
BRANCH  18  22
HETATM   22  O   UNL     1      -6.125  12.890  69.462  1.00  0.00    -0.102 OA 
BRANCH  22  23
HETATM   23  C   UNL     1      -5.693  13.229  70.781  1.00  0.00    -0.176 C  
HETATM   24  C   UNL     1      -5.632  14.744  70.846  1.00  0.00    -0.140 C  
ENDBRANCH  22  23
ENDBRANCH  18  22
BRANCH  21  25
HETATM   25  S   UNL     1      -8.684   7.589  68.540  1.00  0.00    -0.127 S  
HETATM   26  O   UNL     1      -7.691   6.588  68.872  1.00  0.00    -0.104 OA 
HETATM   27  O   UNL     1      -9.260   7.648  67.211  1.00  0.00    -0.127 OA 
BRANCH  25  28
HETATM   28  N   UNL     1      -9.972   7.441  69.626  1.00  0.00    -0.179 N  
HETATM   29  C   UNL     1     -10.819   6.231  69.601  1.00  0.00    -0.339 C  
HETATM   30  C   UNL     1     -10.272   5.169  70.562  1.00  0.00    -0.260 C  
HETATM   31  N   UNL     1     -10.102   5.626  71.956  1.00  0.00    -0.181 NA 
HETATM   32  C   UNL     1      -9.470   6.962  72.035  1.00  0.00    -0.140 C  
HETATM   33  C   UNL     1     -11.371   5.559  72.673  1.00  0.00    -0.291 C  
HETATM   34  C   UNL     1      -9.888   8.022  70.988  1.00  0.00    -0.174 C  
ENDBRANCH  25  28
ENDBRANCH  21  25
ENDBRANCH  11  16
ENDBRANCH   3   4
ENDBRANCH   2   3
TORSDOF 7
ENDMDL
MODEL      169
REMARK 921   NORMALIZED FREE ENERGY PREDICTED BY IDOCK:   -4.37 KCAL/MOL
REMARK 922        TOTAL FREE ENERGY PREDICTED BY IDOCK:   -7.50 KCAL/MOL
REMARK 923 INTER-LIGAND FREE ENERGY PREDICTED BY IDOCK:   -6.30 KCAL/MOL
REMARK 924 INTRA-LIGAND FREE ENERGY PREDICTED BY IDOCK:   -1.20 KCAL/MOL
REMARK 927      BINDING AFFINITY PREDICTED BY RF-SCORE:    0.00 PKD
ROOT
HETATM    1  C   UNL     1      -7.549  14.985  67.274  1.00  0.00    -0.227 C  
HETATM    2  C   UNL     1      -8.100  13.999  68.295  1.00  0.00    -0.148 C  
ENDROOT
BRANCH   2   3
HETATM    3  C   UNL     1      -9.627  14.052  68.367  1.00  0.00    -0.222 C  
BRANCH   3   4
HETATM    4  C   UNL     1     -10.276  13.712  67.067  1.00  0.00    -0.250 A  
HETATM    5  N   UNL     1     -11.062  14.634  66.481  1.00  0.00    -0.323 NA 
HETATM    6  N   UNL     1     -11.465  14.052  65.329  1.00  0.00    -0.313 NA 
HETATM    7  C   UNL     1     -10.954  12.803  65.158  1.00  0.00    -0.293 A  
HETATM    8  C   UNL     1     -12.318  14.786  64.425  1.00  0.00    -0.368 C  
HETATM    9  C   UNL     1     -10.203  12.549  66.266  1.00  0.00    -0.248 A  
HETATM   10  N   UNL     1      -9.572  11.368  66.375  1.00  0.00    -0.200 NA 
HETATM   11  C   UNL     1      -9.748  10.467  65.323  1.00  0.00    -0.278 C  
HETATM   12  N   UNL     1     -10.454  10.695  64.247  1.00  0.00    -0.397 N  
HETATM   13  O   UNL     1     -11.828  12.130  63.098  1.00  0.00    -0.373 OA 
HETATM   14  H   UNL     1     -10.502   9.982  63.519  1.00  0.00     0.000 HD 
HETATM   15  C   UNL     1     -11.137  11.884  64.077  1.00  0.00    -0.391 C  
BRANCH  11  16
HETATM   16  C   UNL     1      -9.053   9.118  65.391  1.00  0.00    -0.271 A  
HETATM   17  C   UNL     1      -7.333   7.550  64.697  1.00  0.00    -0.078 A  
HETATM   18  C   UNL     1      -7.928   8.815  64.599  1.00  0.00    -0.135 A  
HETATM   19  C   UNL     1      -9.584   8.129  66.243  1.00  0.00    -0.248 A  
HETATM   20  C   UNL     1      -7.909   6.553  65.486  1.00  0.00    -0.104 A  
HETATM   21  C   UNL     1      -9.063   6.830  66.224  1.00  0.00    -0.139 A  
BRANCH  18  22
HETATM   22  O   UNL     1      -7.433   9.808  63.795  1.00  0.00    -0.118 OA 
BRANCH  22  23
HETATM   23  C   UNL     1      -6.286   9.486  63.007  1.00  0.00    -0.101 C  
HETATM   24  C   UNL     1      -5.832  10.776  62.349  1.00  0.00    -0.155 C  
ENDBRANCH  22  23
ENDBRANCH  18  22
BRANCH  21  25
HETATM   25  S   UNL     1      -9.783   5.525  67.208  1.00  0.00    -0.152 S  
HETATM   26  O   UNL     1      -9.194   4.277  66.768  1.00  0.00    -0.126 OA 
HETATM   27  O   UNL     1     -11.217   5.722  67.166  1.00  0.00    -0.072 OA 
BRANCH  25  28
HETATM   28  N   UNL     1      -9.295   5.810  68.803  1.00  0.00    -0.117 N  
HETATM   29  C   UNL     1      -8.611   4.744  69.563  1.00  0.00    -0.085 C  
HETATM   30  C   UNL     1      -7.091   4.847  69.391  1.00  0.00    -0.055 C  
HETATM   31  N   UNL     1      -6.517   6.159  69.751  1.00  0.00    -0.041 NA 
HETATM   32  C   UNL     1      -7.311   7.286  69.212  1.00  0.00    -0.087 C  
HETATM   33  C   UNL     1      -6.316   6.250  71.193  1.00  0.00    -0.048 C  
HETATM   34  C   UNL     1      -8.853   7.158  69.233  1.00  0.00    -0.136 C  
ENDBRANCH  25  28
ENDBRANCH  21  25
ENDBRANCH  11  16
ENDBRANCH   3   4
ENDBRANCH   2   3
TORSDOF 7
ENDMDL
MODEL      170
REMARK 921   NORMALIZED FREE ENERGY PREDICTED BY IDOCK:   -4.36 KCAL/MOL
REMARK 922        TOTAL FREE ENERGY PREDICTED BY IDOCK:   -7.49 KCAL/MOL
REMARK 923 INTER-LIGAND FREE ENERGY PREDICTED BY IDOCK:   -7.18 KCAL/MOL
REMARK 924 INTRA-LIGAND FREE ENERGY PREDICTED BY IDOCK:   -0.31 KCAL/MOL
REMARK 927      BINDING AFFINITY PREDICTED BY RF-SCORE:    0.00 PKD
ROOT
HETATM    1  C   UNL     1     -10.760  16.846  69.489  1.00  0.00    -0.205 C  
HETATM    2  C   UNL     1     -10.047  15.681  68.815  1.00  0.00    -0.211 C  
ENDROOT
BRANCH   2   3
HETATM    3  C   UNL     1     -11.037  14.675  68.225  1.00  0.00    -0.283 C  
BRANCH   3   4
HETATM    4  C   UNL     1     -11.625  13.774  69.260  1.00  0.00    -0.312 A  
HETATM    5  N   UNL     1     -12.354  14.323  70.249  1.00  0.00    -0.338 NA 
HETATM    6  N   UNL     1     -12.767  13.269  70.989  1.00  0.00    -0.325 NA 
HETATM    7  C   UNL     1     -12.337  12.076  70.499  1.00  0.00    -0.282 A  
HETATM    8  C   UNL     1     -13.608  13.498  72.139  1.00  0.00    -0.557 C  
HETATM    9  C   UNL     1     -11.585  12.368  69.401  1.00  0.00    -0.307 A  
HETATM   10  N   UNL     1     -11.020  11.367  68.706  1.00  0.00    -0.207 NA 
HETATM   11  C   UNL     1     -11.243  10.074  69.181  1.00  0.00    -0.149 C  
HETATM   12  N   UNL     1     -11.970   9.771  70.225  1.00  0.00    -0.452 N  
HETATM   13  O   UNL     1     -13.239  10.515  71.986  1.00  0.00    -0.464 OA 
HETATM   14  H   UNL     1     -12.097   8.790  70.479  1.00  0.00     0.000 HD 
HETATM   15  C   UNL     1     -12.571  10.752  70.990  1.00  0.00    -0.420 C  
BRANCH  11  16
HETATM   16  C   UNL     1     -10.633   8.902  68.431  1.00  0.00    -0.190 A  
HETATM   17  C   UNL     1      -9.888   7.807  66.395  1.00  0.00    -0.198 A  
HETATM   18  C   UNL     1     -10.448   8.922  67.035  1.00  0.00    -0.256 A  
HETATM   19  C   UNL     1     -10.285   7.745  69.158  1.00  0.00    -0.210 A  
HETATM   20  C   UNL     1      -9.616   6.640  67.110  1.00  0.00    -0.168 A  
HETATM   21  C   UNL     1      -9.859   6.594  68.486  1.00  0.00    -0.139 A  
BRANCH  18  22
HETATM   22  O   UNL     1     -10.785  10.069  66.367  1.00  0.00    -0.118 OA 
BRANCH  22  23
HETATM   23  C   UNL     1     -10.040  10.370  65.186  1.00  0.00    -0.308 C  
HETATM   24  C   UNL     1      -8.849  11.203  65.620  1.00  0.00    -0.165 C  
ENDBRANCH  22  23
ENDBRANCH  18  22
BRANCH  21  25
HETATM   25  S   UNL     1      -9.516   5.078  69.365  1.00  0.00    -0.159 S  
HETATM   26  O   UNL     1      -9.641   3.991  68.417  1.00  0.00    -0.161 OA 
HETATM   27  O   UNL     1     -10.325   5.108  70.567  1.00  0.00    -0.256 OA 
BRANCH  25  28
HETATM   28  N   UNL     1      -7.901   5.170  69.858  1.00  0.00    -0.074 N  
HETATM   29  C   UNL     1      -7.578   5.586  71.238  1.00  0.00    -0.099 C  
HETATM   30  C   UNL     1      -7.483   4.366  72.162  1.00  0.00    -0.072 C  
HETATM   31  N   UNL     1      -6.529   3.329  71.720  1.00  0.00    -0.015 NA 
HETATM   32  C   UNL     1      -6.642   3.042  70.273  1.00  0.00    -0.033 C  
HETATM   33  C   UNL     1      -5.170   3.683  72.120  1.00  0.00     0.000 C  
HETATM   34  C   UNL     1      -6.886   4.235  69.317  1.00  0.00    -0.046 C  
ENDBRANCH  25  28
ENDBRANCH  21  25
ENDBRANCH  11  16
ENDBRANCH   3   4
ENDBRANCH   2   3
TORSDOF 7
ENDMDL
MODEL      171
REMARK 921   NORMALIZED FREE ENERGY PREDICTED BY IDOCK:   -4.34 KCAL/MOL
REMARK 922        TOTAL FREE ENERGY PREDICTED BY IDOCK:   -7.46 KCAL/MOL
REMARK 923 INTER-LIGAND FREE ENERGY PREDICTED BY IDOCK:   -6.22 KCAL/MOL
REMARK 924 INTRA-LIGAND FREE ENERGY PREDICTED BY IDOCK:   -1.24 KCAL/MOL
REMARK 927      BINDING AFFINITY PREDICTED BY RF-SCORE:    0.00 PKD
ROOT
HETATM    1  C   UNL     1     -10.689  15.452  65.070  1.00  0.00    -0.460 C  
HETATM    2  C   UNL     1     -11.659  14.279  65.027  1.00  0.00    -0.367 C  
ENDROOT
BRANCH   2   3
HETATM    3  C   UNL     1     -11.073  13.034  65.695  1.00  0.00    -0.301 C  
BRANCH   3   4
HETATM    4  C   UNL     1     -11.435  12.934  67.140  1.00  0.00    -0.336 A  
HETATM    5  N   UNL     1     -12.003  13.999  67.734  1.00  0.00    -0.375 NA 
HETATM    6  N   UNL     1     -12.236  13.593  69.003  1.00  0.00    -0.296 NA 
HETATM    7  C   UNL     1     -11.849  12.309  69.229  1.00  0.00    -0.306 A  
HETATM    8  C   UNL     1     -12.874  14.498  69.930  1.00  0.00     0.056 C  
HETATM    9  C   UNL     1     -11.313  11.866  68.058  1.00  0.00    -0.288 A  
HETATM   10  N   UNL     1     -10.836  10.612  67.987  1.00  0.00    -0.239 NA 
HETATM   11  C   UNL     1     -10.919   9.846  69.151  1.00  0.00    -0.200 C  
HETATM   12  N   UNL     1     -11.441  10.248  70.280  1.00  0.00    -0.294 N  
HETATM   13  O   UNL     1     -12.413  11.953  71.469  1.00  0.00    -0.220 OA 
HETATM   14  H   UNL     1     -11.480   9.603  71.071  1.00  0.00     0.000 HD 
HETATM   15  C   UNL     1     -11.939  11.528  70.425  1.00  0.00    -0.368 C  
BRANCH  11  16
HETATM   16  C   UNL     1     -10.401   8.418  69.126  1.00  0.00    -0.229 A  
HETATM   17  C   UNL     1     -10.552   6.066  69.713  1.00  0.00    -0.356 A  
HETATM   18  C   UNL     1     -11.083   7.363  69.761  1.00  0.00    -0.152 A  
HETATM   19  C   UNL     1      -9.174   8.159  68.483  1.00  0.00    -0.136 A  
HETATM   20  C   UNL     1      -9.302   5.832  69.139  1.00  0.00    -0.146 A  
HETATM   21  C   UNL     1      -8.591   6.889  68.565  1.00  0.00    -0.123 A  
BRANCH  18  22
HETATM   22  O   UNL     1     -12.279   7.652  70.364  1.00  0.00     0.028 OA 
BRANCH  22  23
HETATM   23  C   UNL     1     -12.557   6.988  71.597  1.00  0.00    -0.380 C  
HETATM   24  C   UNL     1     -12.021   7.876  72.704  1.00  0.00    -0.299 C  
ENDBRANCH  22  23
ENDBRANCH  18  22
BRANCH  21  25
HETATM   25  S   UNL     1      -6.986   6.555  67.855  1.00  0.00    -0.082 S  
HETATM   26  O   UNL     1      -6.617   7.708  67.061  1.00  0.00    -0.058 OA 
HETATM   27  O   UNL     1      -7.068   5.239  67.256  1.00  0.00    -0.067 OA 
BRANCH  25  28
HETATM   28  N   UNL     1      -5.909   6.436  69.154  1.00  0.00    -0.020 N  
HETATM   29  C   UNL     1      -5.758   7.570  70.089  1.00  0.00    -0.024 C  
HETATM   30  C   UNL     1      -6.732   7.433  71.266  1.00  0.00    -0.050 C  
HETATM   31  N   UNL     1      -6.628   6.160  72.008  1.00  0.00    -0.057 NA 
HETATM   32  C   UNL     1      -6.528   4.991  71.107  1.00  0.00    -0.023 C  
HETATM   33  C   UNL     1      -5.536   6.222  72.975  1.00  0.00    -0.037 C  
HETATM   34  C   UNL     1      -5.670   5.137  69.827  1.00  0.00    -0.016 C  
ENDBRANCH  25  28
ENDBRANCH  21  25
ENDBRANCH  11  16
ENDBRANCH   3   4
ENDBRANCH   2   3
TORSDOF 7
ENDMDL
MODEL      172
REMARK 921   NORMALIZED FREE ENERGY PREDICTED BY IDOCK:   -4.33 KCAL/MOL
REMARK 922        TOTAL FREE ENERGY PREDICTED BY IDOCK:   -7.45 KCAL/MOL
REMARK 923 INTER-LIGAND FREE ENERGY PREDICTED BY IDOCK:   -6.46 KCAL/MOL
REMARK 924 INTRA-LIGAND FREE ENERGY PREDICTED BY IDOCK:   -0.98 KCAL/MOL
REMARK 927      BINDING AFFINITY PREDICTED BY RF-SCORE:    0.00 PKD
ROOT
HETATM    1  C   UNL     1      -5.976   6.143  67.997  1.00  0.00    -0.016 C  
HETATM    2  C   UNL     1      -5.205   7.240  67.277  1.00  0.00    -0.021 C  
ENDROOT
BRANCH   2   3
HETATM    3  C   UNL     1      -5.811   8.622  67.534  1.00  0.00    -0.043 C  
BRANCH   3   4
HETATM    4  C   UNL     1      -6.813   9.010  66.498  1.00  0.00    -0.079 A  
HETATM    5  N   UNL     1      -6.627   8.588  65.234  1.00  0.00    -0.063 NA 
HETATM    6  N   UNL     1      -7.696   9.065  64.558  1.00  0.00    -0.111 NA 
HETATM    7  C   UNL     1      -8.557   9.760  65.348  1.00  0.00    -0.149 A  
HETATM    8  C   UNL     1      -7.832   8.772  63.151  1.00  0.00    -0.149 C  
HETATM    9  C   UNL     1      -8.008   9.760  66.595  1.00  0.00    -0.112 A  
HETATM   10  N   UNL     1      -8.649  10.387  67.595  1.00  0.00    -0.118 NA 
HETATM   11  C   UNL     1      -9.852  11.015  67.269  1.00  0.00    -0.178 C  
HETATM   12  N   UNL     1     -10.401  11.018  66.083  1.00  0.00    -0.246 N  
HETATM   13  O   UNL     1     -10.257  10.400  63.878  1.00  0.00    -0.243 OA 
HETATM   14  H   UNL     1     -11.299  11.484  65.948  1.00  0.00     0.000 HD 
HETATM   15  C   UNL     1      -9.790  10.401  65.008  1.00  0.00    -0.319 C  
BRANCH  11  16
HETATM   16  C   UNL     1     -10.622  11.734  68.362  1.00  0.00    -0.239 A  
HETATM   17  C   UNL     1     -11.948  11.759  70.397  1.00  0.00    -0.422 A  
HETATM   18  C   UNL     1     -11.241  11.043  69.421  1.00  0.00    -0.268 A  
HETATM   19  C   UNL     1     -10.755  13.136  68.282  1.00  0.00    -0.261 A  
HETATM   20  C   UNL     1     -12.136  13.136  70.270  1.00  0.00    -0.399 A  
HETATM   21  C   UNL     1     -11.578  13.818  69.185  1.00  0.00    -0.317 A  
BRANCH  18  22
HETATM   22  O   UNL     1     -11.078   9.684  69.472  1.00  0.00    -0.229 OA 
BRANCH  22  23
HETATM   23  C   UNL     1     -10.933   9.100  70.767  1.00  0.00    -0.270 C  
HETATM   24  C   UNL     1      -9.448   9.084  71.077  1.00  0.00    -0.342 C  
ENDBRANCH  22  23
ENDBRANCH  18  22
BRANCH  21  25
HETATM   25  S   UNL     1     -11.856  15.576  69.045  1.00  0.00    -0.316 S  
HETATM   26  O   UNL     1     -12.893  15.927  69.992  1.00  0.00    -0.217 OA 
HETATM   27  O   UNL     1     -12.018  15.855  67.633  1.00  0.00     0.146 OA 
BRANCH  25  28
HETATM   28  N   UNL     1     -10.418  16.324  69.530  1.00  0.00    -0.285 N  
HETATM   29  C   UNL     1      -9.134  15.609  69.384  1.00  0.00    -0.278 C  
HETATM   30  C   UNL     1      -8.493  15.921  68.027  1.00  0.00    -0.162 C  
HETATM   31  N   UNL     1      -8.294  17.358  67.753  1.00  0.00    -0.214 NA 
HETATM   32  C   UNL     1      -9.479  18.167  68.115  1.00  0.00    -0.294 C  
HETATM   33  C   UNL     1      -7.071  17.834  68.391  1.00  0.00    -0.239 C  
HETATM   34  C   UNL     1     -10.245  17.791  69.406  1.00  0.00    -0.008 C  
ENDBRANCH  25  28
ENDBRANCH  21  25
ENDBRANCH  11  16
ENDBRANCH   3   4
ENDBRANCH   2   3
TORSDOF 7
ENDMDL
MODEL      173
REMARK 921   NORMALIZED FREE ENERGY PREDICTED BY IDOCK:   -4.33 KCAL/MOL
REMARK 922        TOTAL FREE ENERGY PREDICTED BY IDOCK:   -7.45 KCAL/MOL
REMARK 923 INTER-LIGAND FREE ENERGY PREDICTED BY IDOCK:   -8.12 KCAL/MOL
REMARK 924 INTRA-LIGAND FREE ENERGY PREDICTED BY IDOCK:    0.67 KCAL/MOL
REMARK 927      BINDING AFFINITY PREDICTED BY RF-SCORE:    0.00 PKD
ROOT
HETATM    1  C   UNL     1      -8.156   6.284  65.644  1.00  0.00    -0.129 C  
HETATM    2  C   UNL     1      -9.313   6.603  66.581  1.00  0.00    -0.192 C  
ENDROOT
BRANCH   2   3
HETATM    3  C   UNL     1      -9.385   5.620  67.751  1.00  0.00    -0.113 C  
BRANCH   3   4
HETATM    4  C   UNL     1     -10.077   6.195  68.942  1.00  0.00    -0.173 A  
HETATM    5  N   UNL     1     -10.273   5.405  70.013  1.00  0.00    -0.255 NA 
HETATM    6  N   UNL     1     -10.880   6.206  70.918  1.00  0.00    -0.267 NA 
HETATM    7  C   UNL     1     -11.064   7.474  70.463  1.00  0.00    -0.259 A  
HETATM    8  C   UNL     1     -11.218   5.678  72.217  1.00  0.00    -0.259 C  
HETATM    9  C   UNL     1     -10.577   7.494  69.191  1.00  0.00    -0.197 A  
HETATM   10  N   UNL     1     -10.631   8.634  68.483  1.00  0.00    -0.166 NA 
HETATM   11  C   UNL     1     -11.207   9.736  69.119  1.00  0.00    -0.061 C  
HETATM   12  N   UNL     1     -11.669   9.742  70.342  1.00  0.00    -0.357 N  
HETATM   13  O   UNL     1     -12.096   8.557  72.259  1.00  0.00    -0.358 OA 
HETATM   14  H   UNL     1     -12.048  10.607  70.729  1.00  0.00     0.000 HD 
HETATM   15  C   UNL     1     -11.653   8.601  71.120  1.00  0.00    -0.281 C  
BRANCH  11  16
HETATM   16  C   UNL     1     -11.289  11.053  68.368  1.00  0.00    -0.363 A  
HETATM   17  C   UNL     1     -11.694  13.446  68.263  1.00  0.00    -0.391 A  
HETATM   18  C   UNL     1     -11.625  12.261  69.010  1.00  0.00    -0.316 A  
HETATM   19  C   UNL     1     -11.064  11.050  66.976  1.00  0.00    -0.311 A  
HETATM   20  C   UNL     1     -11.544  13.421  66.876  1.00  0.00    -0.404 A  
HETATM   21  C   UNL     1     -11.275  12.213  66.227  1.00  0.00    -0.334 A  
BRANCH  18  22
HETATM   22  O   UNL     1     -11.821  12.226  70.365  1.00  0.00    -0.303 OA 
BRANCH  22  23
HETATM   23  C   UNL     1     -13.125  12.570  70.836  1.00  0.00     0.146 C  
HETATM   24  C   UNL     1     -13.068  14.025  71.261  1.00  0.00    -0.399 C  
ENDBRANCH  22  23
ENDBRANCH  18  22
BRANCH  21  25
HETATM   25  S   UNL     1     -11.107  12.217  64.449  1.00  0.00    -0.358 S  
HETATM   26  O   UNL     1     -10.157  13.255  64.107  1.00  0.00    -0.347 OA 
HETATM   27  O   UNL     1     -12.451  12.236  63.909  1.00  0.00    -0.500 OA 
BRANCH  25  28
HETATM   28  N   UNL     1     -10.433  10.722  64.033  1.00  0.00    -0.314 N  
HETATM   29  C   UNL     1      -9.827  10.535  62.699  1.00  0.00    -0.069 C  
HETATM   30  C   UNL     1      -8.331  10.868  62.733  1.00  0.00    -0.116 C  
HETATM   31  N   UNL     1      -7.554  10.117  63.740  1.00  0.00    -0.147 NA 
HETATM   32  C   UNL     1      -8.239  10.062  65.051  1.00  0.00    -0.148 C  
HETATM   33  C   UNL     1      -7.204   8.794  63.231  1.00  0.00    -0.094 C  
HETATM   34  C   UNL     1      -9.775   9.874  65.056  1.00  0.00    -0.288 C  
ENDBRANCH  25  28
ENDBRANCH  21  25
ENDBRANCH  11  16
ENDBRANCH   3   4
ENDBRANCH   2   3
TORSDOF 7
ENDMDL
MODEL      174
REMARK 921   NORMALIZED FREE ENERGY PREDICTED BY IDOCK:   -4.33 KCAL/MOL
REMARK 922        TOTAL FREE ENERGY PREDICTED BY IDOCK:   -7.44 KCAL/MOL
REMARK 923 INTER-LIGAND FREE ENERGY PREDICTED BY IDOCK:   -6.66 KCAL/MOL
REMARK 924 INTRA-LIGAND FREE ENERGY PREDICTED BY IDOCK:   -0.79 KCAL/MOL
REMARK 927      BINDING AFFINITY PREDICTED BY RF-SCORE:    0.00 PKD
ROOT
HETATM    1  C   UNL     1      -8.750   4.808  72.699  1.00  0.00    -0.116 C  
HETATM    2  C   UNL     1     -10.182   4.479  72.303  1.00  0.00    -0.257 C  
ENDROOT
BRANCH   2   3
HETATM    3  C   UNL     1     -10.558   5.107  70.959  1.00  0.00    -0.201 C  
BRANCH   3   4
HETATM    4  C   UNL     1     -11.364   6.354  71.114  1.00  0.00    -0.319 A  
HETATM    5  N   UNL     1     -12.300   6.397  72.079  1.00  0.00    -0.303 NA 
HETATM    6  N   UNL     1     -12.823   7.641  71.987  1.00  0.00    -0.258 NA 
HETATM    7  C   UNL     1     -12.245   8.388  71.011  1.00  0.00    -0.164 A  
HETATM    8  C   UNL     1     -13.858   8.043  72.910  1.00  0.00     0.593 C  
HETATM    9  C   UNL     1     -11.318   7.584  70.418  1.00  0.00    -0.233 A  
HETATM   10  N   UNL     1     -10.585   8.065  69.401  1.00  0.00    -0.226 NA 
HETATM   11  C   UNL     1     -10.844   9.380  69.012  1.00  0.00    -0.136 C  
HETATM   12  N   UNL     1     -11.719  10.172  69.573  1.00  0.00    -0.459 N  
HETATM   13  O   UNL     1     -13.360  10.437  71.155  1.00  0.00    -0.344 OA 
HETATM   14  H   UNL     1     -11.818  11.130  69.234  1.00  0.00     0.000 HD 
HETATM   15  C   UNL     1     -12.513   9.738  70.617  1.00  0.00    -0.142 C  
BRANCH  11  16
HETATM   16  C   UNL     1     -10.040   9.977  67.870  1.00  0.00    -0.203 A  
HETATM   17  C   UNL     1      -7.984  10.266  66.609  1.00  0.00    -0.116 A  
HETATM   18  C   UNL     1      -8.678   9.676  67.675  1.00  0.00    -0.126 A  
HETATM   19  C   UNL     1     -10.674  10.897  67.009  1.00  0.00    -0.323 A  
HETATM   20  C   UNL     1      -8.599  11.229  65.808  1.00  0.00    -0.067 A  
HETATM   21  C   UNL     1      -9.932  11.579  66.039  1.00  0.00    -0.224 A  
BRANCH  18  22
HETATM   22  O   UNL     1      -8.102   8.768  68.523  1.00  0.00    -0.113 OA 
BRANCH  22  23
HETATM   23  C   UNL     1      -7.168   9.279  69.476  1.00  0.00    -0.061 C  
HETATM   24  C   UNL     1      -6.793   8.123  70.384  1.00  0.00    -0.037 C  
ENDBRANCH  22  23
ENDBRANCH  18  22
BRANCH  21  25
HETATM   25  S   UNL     1     -10.679  12.829  65.006  1.00  0.00    -0.309 S  
HETATM   26  O   UNL     1     -12.002  12.361  64.650  1.00  0.00    -0.369 OA 
HETATM   27  O   UNL     1      -9.707  13.150  63.981  1.00  0.00    -0.082 OA 
BRANCH  25  28
HETATM   28  N   UNL     1     -10.845  14.207  65.973  1.00  0.00    -0.293 N  
HETATM   29  C   UNL     1     -11.988  14.319  66.902  1.00  0.00    -0.438 C  
HETATM   30  C   UNL     1     -11.621  13.755  68.280  1.00  0.00    -0.338 C  
HETATM   31  N   UNL     1     -10.422  14.359  68.895  1.00  0.00    -0.245 NA 
HETATM   32  C   UNL     1      -9.307  14.499  67.931  1.00  0.00    -0.201 C  
HETATM   33  C   UNL     1     -10.763  15.619  69.548  1.00  0.00    -0.271 C  
HETATM   34  C   UNL     1      -9.652  14.925  66.483  1.00  0.00    -0.276 C  
ENDBRANCH  25  28
ENDBRANCH  21  25
ENDBRANCH  11  16
ENDBRANCH   3   4
ENDBRANCH   2   3
TORSDOF 7
ENDMDL
MODEL      175
REMARK 921   NORMALIZED FREE ENERGY PREDICTED BY IDOCK:   -4.31 KCAL/MOL
REMARK 922        TOTAL FREE ENERGY PREDICTED BY IDOCK:   -7.42 KCAL/MOL
REMARK 923 INTER-LIGAND FREE ENERGY PREDICTED BY IDOCK:   -6.73 KCAL/MOL
REMARK 924 INTRA-LIGAND FREE ENERGY PREDICTED BY IDOCK:   -0.70 KCAL/MOL
REMARK 927      BINDING AFFINITY PREDICTED BY RF-SCORE:    0.00 PKD
ROOT
HETATM    1  C   UNL     1      -6.457   7.481  68.154  1.00  0.00    -0.049 C  
HETATM    2  C   UNL     1      -5.976   8.681  67.350  1.00  0.00    -0.047 C  
ENDROOT
BRANCH   2   3
HETATM    3  C   UNL     1      -6.703   9.964  67.755  1.00  0.00    -0.072 C  
BRANCH   3   4
HETATM    4  C   UNL     1      -7.542  10.521  66.653  1.00  0.00    -0.120 A  
HETATM    5  N   UNL     1      -7.610   9.843  65.493  1.00  0.00    -0.119 NA 
HETATM    6  N   UNL     1      -8.455  10.569  64.726  1.00  0.00    -0.170 NA 
HETATM    7  C   UNL     1      -8.932  11.672  65.362  1.00  0.00     0.090 A  
HETATM    8  C   UNL     1      -8.779  10.107  63.398  1.00  0.00    -0.213 C  
HETATM    9  C   UNL     1      -8.350  11.680  66.593  1.00  0.00    -0.154 A  
HETATM   10  N   UNL     1      -8.638  12.673  67.450  1.00  0.00    -0.180 NA 
HETATM   11  C   UNL     1      -9.526  13.650  66.997  1.00  0.00    -0.252 C  
HETATM   12  N   UNL     1     -10.105  13.655  65.825  1.00  0.00    -0.311 N  
HETATM   13  O   UNL     1     -10.345  12.649  63.777  1.00  0.00    -0.415 OA 
HETATM   14  H   UNL     1     -10.762  14.401  65.595  1.00  0.00     0.000 HD 
HETATM   15  C   UNL     1      -9.845  12.670  64.893  1.00  0.00    -0.055 C  
BRANCH  11  16
HETATM   16  C   UNL     1      -9.893  14.793  67.927  1.00  0.00    -0.212 A  
HETATM   17  C   UNL     1     -10.914  15.680  69.945  1.00  0.00    -0.323 A  
HETATM   18  C   UNL     1     -10.594  14.585  69.130  1.00  0.00    -0.234 A  
HETATM   19  C   UNL     1      -9.556  16.108  67.543  1.00  0.00    -0.229 A  
HETATM   20  C   UNL     1     -10.643  16.982  69.522  1.00  0.00    -0.168 A  
HETATM   21  C   UNL     1     -10.006  17.198  68.297  1.00  0.00    -0.300 A  
BRANCH  18  22
HETATM   22  O   UNL     1     -10.890  13.293  69.476  1.00  0.00    -0.029 OA 
BRANCH  22  23
HETATM   23  C   UNL     1     -12.062  12.722  68.891  1.00  0.00    -0.135 C  
HETATM   24  C   UNL     1     -11.641  11.406  68.262  1.00  0.00    -0.376 C  
ENDBRANCH  22  23
ENDBRANCH  18  22
BRANCH  21  25
HETATM   25  S   UNL     1      -9.691  18.878  67.780  1.00  0.00    -0.337 S  
HETATM   26  O   UNL     1     -10.026  19.742  68.893  1.00  0.00    -0.441 OA 
HETATM   27  O   UNL     1     -10.342  19.041  66.496  1.00  0.00    -0.381 OA 
BRANCH  25  28
HETATM   28  N   UNL     1      -8.026  18.986  67.504  1.00  0.00    -0.250 N  
HETATM   29  C   UNL     1      -7.509  18.969  66.121  1.00  0.00    -0.270 C  
HETATM   30  C   UNL     1      -7.395  20.395  65.568  1.00  0.00    -0.097 C  
HETATM   31  N   UNL     1      -6.581  21.313  66.390  1.00  0.00    -0.262 NA 
HETATM   32  C   UNL     1      -6.890  21.197  67.833  1.00  0.00    -0.096 C  
HETATM   33  C   UNL     1      -5.162  21.134  66.101  1.00  0.00    -0.213 C  
HETATM   34  C   UNL     1      -7.157  19.783  68.404  1.00  0.00    -0.306 C  
ENDBRANCH  25  28
ENDBRANCH  21  25
ENDBRANCH  11  16
ENDBRANCH   3   4
ENDBRANCH   2   3
TORSDOF 7
ENDMDL
MODEL      176
REMARK 921   NORMALIZED FREE ENERGY PREDICTED BY IDOCK:   -4.28 KCAL/MOL
REMARK 922        TOTAL FREE ENERGY PREDICTED BY IDOCK:   -7.38 KCAL/MOL
REMARK 923 INTER-LIGAND FREE ENERGY PREDICTED BY IDOCK:   -6.87 KCAL/MOL
REMARK 924 INTRA-LIGAND FREE ENERGY PREDICTED BY IDOCK:   -0.50 KCAL/MOL
REMARK 927      BINDING AFFINITY PREDICTED BY RF-SCORE:    0.00 PKD
ROOT
HETATM    1  C   UNL     1     -11.627  15.654  68.228  1.00  0.00    -0.326 C  
HETATM    2  C   UNL     1     -11.959  14.395  67.441  1.00  0.00    -0.407 C  
ENDROOT
BRANCH   2   3
HETATM    3  C   UNL     1     -11.451  14.476  66.000  1.00  0.00    -0.348 C  
BRANCH   3   4
HETATM    4  C   UNL     1     -10.924  13.170  65.503  1.00  0.00    -0.277 A  
HETATM    5  N   UNL     1     -10.597  13.063  64.203  1.00  0.00    -0.415 NA 
HETATM    6  N   UNL     1     -10.131  11.800  64.074  1.00  0.00    -0.304 NA 
HETATM    7  C   UNL     1     -10.139  11.110  65.246  1.00  0.00    -0.276 A  
HETATM    8  C   UNL     1      -9.660  11.347  62.787  1.00  0.00    -0.257 C  
HETATM    9  C   UNL     1     -10.661  11.955  66.178  1.00  0.00    -0.278 A  
HETATM   10  N   UNL     1     -10.795  11.534  67.446  1.00  0.00    -0.232 NA 
HETATM   11  C   UNL     1     -10.389  10.225  67.714  1.00  0.00    -0.204 C  
HETATM   12  N   UNL     1      -9.875   9.402  66.838  1.00  0.00    -0.186 N  
HETATM   13  O   UNL     1      -9.266   9.023  64.659  1.00  0.00    -0.082 OA 
HETATM   14  H   UNL     1      -9.583   8.471  67.137  1.00  0.00     0.000 HD 
HETATM   15  C   UNL     1      -9.720   9.769  65.516  1.00  0.00    -0.312 C  
BRANCH  11  16
HETATM   16  C   UNL     1     -10.512   9.697  69.133  1.00  0.00    -0.230 A  
HETATM   17  C   UNL     1     -11.578   9.623  71.314  1.00  0.00    -0.466 A  
HETATM   18  C   UNL     1     -11.519  10.139  70.012  1.00  0.00    -0.277 A  
HETATM   19  C   UNL     1      -9.555   8.768  69.591  1.00  0.00    -0.171 A  
HETATM   20  C   UNL     1     -10.584   8.761  71.782  1.00  0.00    -0.417 A  
HETATM   21  C   UNL     1      -9.546   8.371  70.933  1.00  0.00    -0.175 A  
BRANCH  18  22
HETATM   22  O   UNL     1     -12.438  11.031  69.526  1.00  0.00    -0.293 OA 
BRANCH  22  23
HETATM   23  C   UNL     1     -13.024  11.931  70.468  1.00  0.00     0.252 C  
HETATM   24  C   UNL     1     -11.993  13.009  70.743  1.00  0.00    -0.129 C  
ENDBRANCH  22  23
ENDBRANCH  18  22
BRANCH  21  25
HETATM   25  S   UNL     1      -8.282   7.282  71.571  1.00  0.00    -0.105 S  
HETATM   26  O   UNL     1      -8.193   7.513  72.998  1.00  0.00    -0.104 OA 
HETATM   27  O   UNL     1      -7.123   7.456  70.720  1.00  0.00    -0.061 OA 
BRANCH  25  28
HETATM   28  N   UNL     1      -8.843   5.706  71.321  1.00  0.00    -0.135 N  
HETATM   29  C   UNL     1      -9.877   5.449  70.298  1.00  0.00    -0.206 C  
HETATM   30  C   UNL     1      -9.231   5.119  68.947  1.00  0.00    -0.118 C  
HETATM   31  N   UNL     1      -8.274   3.995  68.978  1.00  0.00    -0.069 NA 
HETATM   32  C   UNL     1      -7.357   4.071  70.137  1.00  0.00    -0.045 C  
HETATM   33  C   UNL     1      -8.982   2.721  68.901  1.00  0.00    -0.124 C  
HETATM   34  C   UNL     1      -7.940   4.542  71.490  1.00  0.00    -0.095 C  
ENDBRANCH  25  28
ENDBRANCH  21  25
ENDBRANCH  11  16
ENDBRANCH   3   4
ENDBRANCH   2   3
TORSDOF 7
ENDMDL
MODEL      177
REMARK 921   NORMALIZED FREE ENERGY PREDICTED BY IDOCK:   -4.26 KCAL/MOL
REMARK 922        TOTAL FREE ENERGY PREDICTED BY IDOCK:   -7.36 KCAL/MOL
REMARK 923 INTER-LIGAND FREE ENERGY PREDICTED BY IDOCK:   -7.05 KCAL/MOL
REMARK 924 INTRA-LIGAND FREE ENERGY PREDICTED BY IDOCK:   -0.31 KCAL/MOL
REMARK 927      BINDING AFFINITY PREDICTED BY RF-SCORE:    0.00 PKD
ROOT
HETATM    1  C   UNL     1     -11.501   9.086  71.935  1.00  0.00    -0.440 C  
HETATM    2  C   UNL     1     -10.667   8.275  70.953  1.00  0.00    -0.250 C  
ENDROOT
BRANCH   2   3
HETATM    3  C   UNL     1      -9.259   8.850  70.793  1.00  0.00    -0.272 C  
BRANCH   3   4
HETATM    4  C   UNL     1      -8.673   8.569  69.449  1.00  0.00    -0.136 A  
HETATM    5  N   UNL     1      -8.056   7.390  69.252  1.00  0.00    -0.121 NA 
HETATM    6  N   UNL     1      -7.671   7.423  67.956  1.00  0.00    -0.114 NA 
HETATM    7  C   UNL     1      -8.033   8.571  67.324  1.00  0.00    -0.102 A  
HETATM    8  C   UNL     1      -6.988   6.284  67.391  1.00  0.00    -0.068 C  
HETATM    9  C   UNL     1      -8.660   9.336  68.261  1.00  0.00    -0.125 A  
HETATM   10  N   UNL     1      -9.128  10.546  67.915  1.00  0.00    -0.135 NA 
HETATM   11  C   UNL     1      -8.920  10.941  66.592  1.00  0.00    -0.164 C  
HETATM   12  N   UNL     1      -8.332  10.219  65.675  1.00  0.00    -0.152 N  
HETATM   13  O   UNL     1      -7.240   8.272  65.146  1.00  0.00    -0.076 OA 
HETATM   14  H   UNL     1      -8.250  10.585  64.726  1.00  0.00     0.000 HD 
HETATM   15  C   UNL     1      -7.818   8.970  65.966  1.00  0.00    -0.102 C  
BRANCH  11  16
HETATM   16  C   UNL     1      -9.434  12.298  66.144  1.00  0.00    -0.221 A  
HETATM   17  C   UNL     1     -10.871  13.713  64.790  1.00  0.00    -0.402 A  
HETATM   18  C   UNL     1     -10.443  12.433  65.172  1.00  0.00    -0.292 A  
HETATM   19  C   UNL     1      -8.844  13.456  66.693  1.00  0.00    -0.076 A  
HETATM   20  C   UNL     1     -10.232  14.851  65.283  1.00  0.00    -0.404 A  
HETATM   21  C   UNL     1      -9.186  14.721  66.200  1.00  0.00    -0.202 A  
BRANCH  18  22
HETATM   22  O   UNL     1     -11.001  11.286  64.673  1.00  0.00    -0.294 OA 
BRANCH  22  23
HETATM   23  C   UNL     1     -10.401  10.735  63.500  1.00  0.00    -0.163 C  
HETATM   24  C   UNL     1      -9.568  11.838  62.874  1.00  0.00    -0.082 C  
ENDBRANCH  22  23
ENDBRANCH  18  22
BRANCH  21  25
HETATM   25  S   UNL     1      -8.379  16.199  66.794  1.00  0.00    -0.294 S  
HETATM   26  O   UNL     1      -8.668  17.258  65.851  1.00  0.00    -0.528 OA 
HETATM   27  O   UNL     1      -7.011  15.827  67.093  1.00  0.00    -0.203 OA 
BRANCH  25  28
HETATM   28  N   UNL     1      -9.116  16.582  68.267  1.00  0.00    -0.208 N  
HETATM   29  C   UNL     1     -10.415  17.287  68.277  1.00  0.00    -0.385 C  
HETATM   30  C   UNL     1     -11.574  16.284  68.294  1.00  0.00    -0.118 C  
HETATM   31  N   UNL     1     -11.532  15.309  69.402  1.00  0.00    -0.293 NA 
HETATM   32  C   UNL     1     -10.178  14.743  69.600  1.00  0.00    -0.029 C  
HETATM   33  C   UNL     1     -12.080  15.897  70.620  1.00  0.00    -0.333 C  
HETATM   34  C   UNL     1      -8.967  15.694  69.445  1.00  0.00    -0.265 C  
ENDBRANCH  25  28
ENDBRANCH  21  25
ENDBRANCH  11  16
ENDBRANCH   3   4
ENDBRANCH   2   3
TORSDOF 7
ENDMDL
MODEL      178
REMARK 921   NORMALIZED FREE ENERGY PREDICTED BY IDOCK:   -4.25 KCAL/MOL
REMARK 922        TOTAL FREE ENERGY PREDICTED BY IDOCK:   -7.33 KCAL/MOL
REMARK 923 INTER-LIGAND FREE ENERGY PREDICTED BY IDOCK:   -7.50 KCAL/MOL
REMARK 924 INTRA-LIGAND FREE ENERGY PREDICTED BY IDOCK:    0.17 KCAL/MOL
REMARK 927      BINDING AFFINITY PREDICTED BY RF-SCORE:    0.00 PKD
ROOT
HETATM    1  C   UNL     1      -7.552   4.658  72.995  1.00  0.00    -0.087 C  
HETATM    2  C   UNL     1      -8.132   4.134  71.689  1.00  0.00    -0.086 C  
ENDROOT
BRANCH   2   3
HETATM    3  C   UNL     1      -8.190   5.224  70.616  1.00  0.00    -0.109 C  
BRANCH   3   4
HETATM    4  C   UNL     1      -9.211   6.271  70.916  1.00  0.00    -0.157 A  
HETATM    5  N   UNL     1      -9.761   6.297  72.144  1.00  0.00    -0.154 NA 
HETATM    6  N   UNL     1     -10.603   7.355  72.114  1.00  0.00    -0.214 NA 
HETATM    7  C   UNL     1     -10.596   8.005  70.920  1.00  0.00    -0.213 A  
HETATM    8  C   UNL     1     -11.354   7.695  73.298  1.00  0.00     0.001 C  
HETATM    9  C   UNL     1      -9.728   7.321  70.123  1.00  0.00    -0.172 A  
HETATM   10  N   UNL     1      -9.521   7.741  68.864  1.00  0.00    -0.150 NA 
HETATM   11  C   UNL     1     -10.238   8.867  68.456  1.00  0.00    -0.197 C  
HETATM   12  N   UNL     1     -11.066   9.544  69.207  1.00  0.00    -0.417 N  
HETATM   13  O   UNL     1     -12.118   9.750  71.236  1.00  0.00    -0.326 OA 
HETATM   14  H   UNL     1     -11.525  10.372  68.825  1.00  0.00     0.000 HD 
HETATM   15  C   UNL     1     -11.333   9.160  70.507  1.00  0.00    -0.257 C  
BRANCH  11  16
HETATM   16  C   UNL     1     -10.038   9.389  67.044  1.00  0.00    -0.304 A  
HETATM   17  C   UNL     1      -8.942   9.362  64.877  1.00  0.00    -0.256 A  
HETATM   18  C   UNL     1      -9.089   8.832  66.166  1.00  0.00    -0.202 A  
HETATM   19  C   UNL     1     -10.802  10.498  66.623  1.00  0.00    -0.166 A  
HETATM   20  C   UNL     1      -9.648  10.504  64.494  1.00  0.00    -0.359 A  
HETATM   21  C   UNL     1     -10.544  11.100  65.386  1.00  0.00    -0.227 A  
BRANCH  18  22
HETATM   22  O   UNL     1      -8.377   7.748  66.608  1.00  0.00    -0.119 OA 
BRANCH  22  23
HETATM   23  C   UNL     1      -6.971   7.756  66.359  1.00  0.00    -0.063 C  
HETATM   24  C   UNL     1      -6.505   6.314  66.432  1.00  0.00    -0.047 C  
ENDBRANCH  22  23
ENDBRANCH  18  22
BRANCH  21  25
HETATM   25  S   UNL     1     -11.416  12.570  64.868  1.00  0.00    -0.339 S  
HETATM   26  O   UNL     1     -12.807  12.397  65.229  1.00  0.00    -0.557 OA 
HETATM   27  O   UNL     1     -11.033  12.811  63.492  1.00  0.00    -0.412 OA 
BRANCH  25  28
HETATM   28  N   UNL     1     -10.783  13.844  65.783  1.00  0.00    -0.283 N  
HETATM   29  C   UNL     1     -11.682  14.659  66.626  1.00  0.00    -0.333 C  
HETATM   30  C   UNL     1     -11.772  14.076  68.041  1.00  0.00    -0.359 C  
HETATM   31  N   UNL     1     -10.473  13.905  68.723  1.00  0.00    -0.237 NA 
HETATM   32  C   UNL     1      -9.449  13.308  67.837  1.00  0.00    -0.214 C  
HETATM   33  C   UNL     1     -10.039  15.165  69.317  1.00  0.00    -0.246 C  
HETATM   34  C   UNL     1      -9.419  13.762  66.358  1.00  0.00    -0.243 C  
ENDBRANCH  25  28
ENDBRANCH  21  25
ENDBRANCH  11  16
ENDBRANCH   3   4
ENDBRANCH   2   3
TORSDOF 7
ENDMDL
MODEL      179
REMARK 921   NORMALIZED FREE ENERGY PREDICTED BY IDOCK:   -4.23 KCAL/MOL
REMARK 922        TOTAL FREE ENERGY PREDICTED BY IDOCK:   -7.31 KCAL/MOL
REMARK 923 INTER-LIGAND FREE ENERGY PREDICTED BY IDOCK:   -6.50 KCAL/MOL
REMARK 924 INTRA-LIGAND FREE ENERGY PREDICTED BY IDOCK:   -0.81 KCAL/MOL
REMARK 927      BINDING AFFINITY PREDICTED BY RF-SCORE:    0.00 PKD
ROOT
HETATM    1  C   UNL     1     -10.716   4.427  65.321  1.00  0.00    -0.150 C  
HETATM    2  C   UNL     1     -10.397   5.002  66.694  1.00  0.00    -0.312 C  
ENDROOT
BRANCH   2   3
HETATM    3  C   UNL     1     -11.051   6.369  66.903  1.00  0.00    -0.346 C  
BRANCH   3   4
HETATM    4  C   UNL     1     -10.800   6.924  68.266  1.00  0.00    -0.184 A  
HETATM    5  N   UNL     1     -11.393   6.331  69.318  1.00  0.00    -0.407 NA 
HETATM    6  N   UNL     1     -10.953   7.028  70.390  1.00  0.00    -0.257 NA 
HETATM    7  C   UNL     1     -10.095   8.029  70.057  1.00  0.00    -0.196 A  
HETATM    8  C   UNL     1     -11.380   6.638  71.712  1.00  0.00    -0.279 C  
HETATM    9  C   UNL     1      -9.993   8.001  68.699  1.00  0.00    -0.189 A  
HETATM   10  N   UNL     1      -9.203   8.894  68.080  1.00  0.00    -0.139 NA 
HETATM   11  C   UNL     1      -8.541   9.813  68.897  1.00  0.00    -0.134 C  
HETATM   12  N   UNL     1      -8.616   9.850  70.202  1.00  0.00    -0.321 N  
HETATM   13  O   UNL     1      -9.536   8.982  72.116  1.00  0.00    -0.340 OA 
HETATM   14  H   UNL     1      -8.072  10.544  70.715  1.00  0.00     0.000 HD 
HETATM   15  C   UNL     1      -9.418   8.967  70.899  1.00  0.00    -0.236 C  
BRANCH  11  16
HETATM   16  C   UNL     1      -7.630  10.842  68.252  1.00  0.00    -0.100 A  
HETATM   17  C   UNL     1      -5.766  11.471  66.828  1.00  0.00    -0.139 A  
HETATM   18  C   UNL     1      -6.581  10.477  67.387  1.00  0.00    -0.067 A  
HETATM   19  C   UNL     1      -7.821  12.203  68.571  1.00  0.00    -0.122 A  
HETATM   20  C   UNL     1      -5.914  12.806  67.206  1.00  0.00    -0.031 A  
HETATM   21  C   UNL     1      -6.912  13.166  68.115  1.00  0.00    -0.108 A  
BRANCH  18  22
HETATM   22  O   UNL     1      -6.438   9.147  67.091  1.00  0.00    -0.059 OA 
BRANCH  22  23
HETATM   23  C   UNL     1      -5.229   8.518  67.520  1.00  0.00    -0.034 C  
HETATM   24  C   UNL     1      -5.587   7.649  68.711  1.00  0.00    -0.026 C  
ENDBRANCH  22  23
ENDBRANCH  18  22
BRANCH  21  25
HETATM   25  S   UNL     1      -7.061  14.881  68.590  1.00  0.00    -0.119 S  
HETATM   26  O   UNL     1      -6.034  15.616  67.880  1.00  0.00    -0.125 OA 
HETATM   27  O   UNL     1      -7.120  14.902  70.037  1.00  0.00    -0.176 OA 
BRANCH  25  28
HETATM   28  N   UNL     1      -8.570  15.400  68.029  1.00  0.00    -0.150 N  
HETATM   29  C   UNL     1      -8.930  15.211  66.609  1.00  0.00    -0.287 C  
HETATM   30  C   UNL     1      -9.644  13.870  66.406  1.00  0.00    -0.277 C  
HETATM   31  N   UNL     1     -10.839  13.672  67.250  1.00  0.00    -0.282 NA 
HETATM   32  C   UNL     1     -10.608  14.080  68.654  1.00  0.00    -0.257 C  
HETATM   33  C   UNL     1     -11.998  14.330  66.656  1.00  0.00    -0.430 C  
HETATM   34  C   UNL     1      -9.764  15.352  68.907  1.00  0.00    -0.220 C  
ENDBRANCH  25  28
ENDBRANCH  21  25
ENDBRANCH  11  16
ENDBRANCH   3   4
ENDBRANCH   2   3
TORSDOF 7
ENDMDL
MODEL      180
REMARK 921   NORMALIZED FREE ENERGY PREDICTED BY IDOCK:   -4.21 KCAL/MOL
REMARK 922        TOTAL FREE ENERGY PREDICTED BY IDOCK:   -7.29 KCAL/MOL
REMARK 923 INTER-LIGAND FREE ENERGY PREDICTED BY IDOCK:   -6.17 KCAL/MOL
REMARK 924 INTRA-LIGAND FREE ENERGY PREDICTED BY IDOCK:   -1.11 KCAL/MOL
REMARK 927      BINDING AFFINITY PREDICTED BY RF-SCORE:    0.00 PKD
ROOT
HETATM    1  C   UNL     1     -11.585  14.412  65.478  1.00  0.00    -0.347 C  
HETATM    2  C   UNL     1     -10.602  13.283  65.197  1.00  0.00    -0.342 C  
ENDROOT
BRANCH   2   3
HETATM    3  C   UNL     1     -10.767  12.128  66.187  1.00  0.00    -0.307 C  
BRANCH   3   4
HETATM    4  C   UNL     1      -9.641  12.043  67.163  1.00  0.00    -0.192 A  
HETATM    5  N   UNL     1      -8.808  13.094  67.275  1.00  0.00    -0.200 NA 
HETATM    6  N   UNL     1      -7.935  12.732  68.242  1.00  0.00    -0.146 NA 
HETATM    7  C   UNL     1      -8.192  11.499  68.753  1.00  0.00    -0.082 A  
HETATM    8  C   UNL     1      -6.899  13.653  68.641  1.00  0.00    -0.097 C  
HETATM    9  C   UNL     1      -9.268  11.022  68.068  1.00  0.00    -0.159 A  
HETATM   10  N   UNL     1      -9.749   9.803  68.363  1.00  0.00    -0.147 NA 
HETATM   11  C   UNL     1      -9.084   9.097  69.366  1.00  0.00    -0.148 C  
HETATM   12  N   UNL     1      -8.057   9.539  70.044  1.00  0.00    -0.148 N  
HETATM   13  O   UNL     1      -6.534  11.222  70.376  1.00  0.00    -0.266 OA 
HETATM   14  H   UNL     1      -7.655   8.957  70.779  1.00  0.00     0.000 HD 
HETATM   15  C   UNL     1      -7.507  10.779  69.784  1.00  0.00    -0.018 C  
BRANCH  11  16
HETATM   16  C   UNL     1      -9.588   7.715  69.745  1.00  0.00    -0.163 A  
HETATM   17  C   UNL     1     -11.246   6.219  70.700  1.00  0.00    -0.401 A  
HETATM   18  C   UNL     1     -10.837   7.517  70.364  1.00  0.00    -0.244 A  
HETATM   19  C   UNL     1      -8.752   6.605  69.506  1.00  0.00    -0.135 A  
HETATM   20  C   UNL     1     -10.383   5.136  70.528  1.00  0.00    -0.314 A  
HETATM   21  C   UNL     1      -9.116   5.337  69.974  1.00  0.00    -0.128 A  
BRANCH  18  22
HETATM   22  O   UNL     1     -11.626   8.619  70.566  1.00  0.00    -0.243 OA 
BRANCH  22  23
HETATM   23  C   UNL     1     -11.779   9.064  71.914  1.00  0.00    -0.374 C  
HETATM   24  C   UNL     1     -13.264   9.027  72.222  1.00  0.00    -0.519 C  
ENDBRANCH  22  23
ENDBRANCH  18  22
BRANCH  21  25
HETATM   25  S   UNL     1      -8.031   3.930  69.787  1.00  0.00    -0.054 S  
HETATM   26  O   UNL     1      -8.610   2.835  70.537  1.00  0.00    -0.055 OA 
HETATM   27  O   UNL     1      -6.693   4.402  70.080  1.00  0.00    -0.032 OA 
BRANCH  25  28
HETATM   28  N   UNL     1      -8.059   3.525  68.145  1.00  0.00    -0.078 N  
HETATM   29  C   UNL     1      -9.342   3.190  67.494  1.00  0.00    -0.198 C  
HETATM   30  C   UNL     1      -9.988   4.444  66.893  1.00  0.00    -0.177 C  
HETATM   31  N   UNL     1      -9.131   5.187  65.947  1.00  0.00    -0.150 NA 
HETATM   32  C   UNL     1      -7.747   5.343  66.448  1.00  0.00    -0.099 C  
HETATM   33  C   UNL     1      -9.186   4.577  64.622  1.00  0.00    -0.145 C  
HETATM   34  C   UNL     1      -7.108   4.146  67.192  1.00  0.00    -0.067 C  
ENDBRANCH  25  28
ENDBRANCH  21  25
ENDBRANCH  11  16
ENDBRANCH   3   4
ENDBRANCH   2   3
TORSDOF 7
ENDMDL
MODEL      181
REMARK 921   NORMALIZED FREE ENERGY PREDICTED BY IDOCK:   -4.20 KCAL/MOL
REMARK 922        TOTAL FREE ENERGY PREDICTED BY IDOCK:   -7.27 KCAL/MOL
REMARK 923 INTER-LIGAND FREE ENERGY PREDICTED BY IDOCK:   -6.03 KCAL/MOL
REMARK 924 INTRA-LIGAND FREE ENERGY PREDICTED BY IDOCK:   -1.24 KCAL/MOL
REMARK 927      BINDING AFFINITY PREDICTED BY RF-SCORE:    0.00 PKD
ROOT
HETATM    1  C   UNL     1      -6.270  18.938  65.091  1.00  0.00    -0.313 C  
HETATM    2  C   UNL     1      -6.979  18.393  66.323  1.00  0.00    -0.278 C  
ENDROOT
BRANCH   2   3
HETATM    3  C   UNL     1      -7.222  16.886  66.218  1.00  0.00    -0.210 C  
BRANCH   3   4
HETATM    4  C   UNL     1      -8.263  16.405  67.172  1.00  0.00    -0.180 A  
HETATM    5  N   UNL     1      -8.924  17.313  67.914  1.00  0.00    -0.231 NA 
HETATM    6  N   UNL     1      -9.803  16.584  68.637  1.00  0.00    -0.239 NA 
HETATM    7  C   UNL     1      -9.733  15.252  68.372  1.00  0.00    -0.213 A  
HETATM    8  C   UNL     1     -10.707  17.256  69.539  1.00  0.00     0.099 C  
HETATM    9  C   UNL     1      -8.740  15.103  67.451  1.00  0.00    -0.190 A  
HETATM   10  N   UNL     1      -8.442  13.874  67.000  1.00  0.00    -0.176 NA 
HETATM   11  C   UNL     1      -9.182  12.817  67.532  1.00  0.00    -0.191 C  
HETATM   12  N   UNL     1     -10.146  12.939  68.407  1.00  0.00    -0.246 N  
HETATM   13  O   UNL     1     -11.374  14.330  69.756  1.00  0.00    -0.257 OA 
HETATM   14  H   UNL     1     -10.648  12.107  68.717  1.00  0.00     0.000 HD 
HETATM   15  C   UNL     1     -10.496  14.173  68.919  1.00  0.00    -0.222 C  
BRANCH  11  16
HETATM   16  C   UNL     1      -8.891  11.405  67.053  1.00  0.00    -0.168 A  
HETATM   17  C   UNL     1      -9.359   9.466  65.667  1.00  0.00    -0.309 A  
HETATM   18  C   UNL     1      -9.669  10.775  66.063  1.00  0.00    -0.217 A  
HETATM   19  C   UNL     1      -7.833  10.695  67.657  1.00  0.00    -0.105 A  
HETATM   20  C   UNL     1      -8.359   8.744  66.322  1.00  0.00    -0.120 A  
HETATM   21  C   UNL     1      -7.627   9.344  67.350  1.00  0.00    -0.095 A  
BRANCH  18  22
HETATM   22  O   UNL     1     -10.678  11.503  65.490  1.00  0.00    -0.273 OA 
BRANCH  22  23
HETATM   23  C   UNL     1     -10.432  12.032  64.187  1.00  0.00    -0.353 C  
HETATM   24  C   UNL     1     -11.704  11.831  63.385  1.00  0.00    -0.423 C  
ENDBRANCH  22  23
ENDBRANCH  18  22
BRANCH  21  25
HETATM   25  S   UNL     1      -6.368   8.385  68.177  1.00  0.00    -0.057 S  
HETATM   26  O   UNL     1      -5.586   9.300  68.981  1.00  0.00    -0.036 OA 
HETATM   27  O   UNL     1      -5.737   7.571  67.157  1.00  0.00    -0.029 OA 
BRANCH  25  28
HETATM   28  N   UNL     1      -7.183   7.327  69.215  1.00  0.00    -0.079 N  
HETATM   29  C   UNL     1      -8.252   7.841  70.095  1.00  0.00    -0.123 C  
HETATM   30  C   UNL     1      -9.616   7.743  69.403  1.00  0.00    -0.156 C  
HETATM   31  N   UNL     1      -9.973   6.391  68.927  1.00  0.00    -0.143 NA 
HETATM   32  C   UNL     1      -8.845   5.723  68.240  1.00  0.00    -0.109 C  
HETATM   33  C   UNL     1     -10.519   5.594  70.021  1.00  0.00    -0.297 C  
HETATM   34  C   UNL     1      -7.425   5.917  68.825  1.00  0.00    -0.086 C  
ENDBRANCH  25  28
ENDBRANCH  21  25
ENDBRANCH  11  16
ENDBRANCH   3   4
ENDBRANCH   2   3
TORSDOF 7
ENDMDL
MODEL      182
REMARK 921   NORMALIZED FREE ENERGY PREDICTED BY IDOCK:   -4.19 KCAL/MOL
REMARK 922        TOTAL FREE ENERGY PREDICTED BY IDOCK:   -7.25 KCAL/MOL
REMARK 923 INTER-LIGAND FREE ENERGY PREDICTED BY IDOCK:   -6.31 KCAL/MOL
REMARK 924 INTRA-LIGAND FREE ENERGY PREDICTED BY IDOCK:   -0.94 KCAL/MOL
REMARK 927      BINDING AFFINITY PREDICTED BY RF-SCORE:    0.00 PKD
ROOT
HETATM    1  C   UNL     1      -6.318   2.359  73.475  1.00  0.00    -0.013 C  
HETATM    2  C   UNL     1      -6.759   3.814  73.394  1.00  0.00    -0.039 C  
ENDROOT
BRANCH   2   3
HETATM    3  C   UNL     1      -7.003   4.253  71.949  1.00  0.00    -0.046 C  
BRANCH   3   4
HETATM    4  C   UNL     1      -8.370   4.817  71.743  1.00  0.00    -0.114 A  
HETATM    5  N   UNL     1      -9.244   4.771  72.766  1.00  0.00    -0.128 NA 
HETATM    6  N   UNL     1     -10.355   5.376  72.288  1.00  0.00    -0.202 NA 
HETATM    7  C   UNL     1     -10.212   5.814  71.009  1.00  0.00    -0.217 A  
HETATM    8  C   UNL     1     -11.504   5.526  73.148  1.00  0.00    -0.158 C  
HETATM    9  C   UNL     1      -8.956   5.452  70.624  1.00  0.00    -0.143 A  
HETATM   10  N   UNL     1      -8.535   5.756  69.385  1.00  0.00    -0.111 NA 
HETATM   11  C   UNL     1      -9.444   6.425  68.564  1.00  0.00    -0.120 C  
HETATM   12  N   UNL     1     -10.648   6.791  68.916  1.00  0.00    -0.213 N  
HETATM   13  O   UNL     1     -12.275   6.804  70.534  1.00  0.00    -0.363 OA 
HETATM   14  H   UNL     1     -11.231   7.301  68.252  1.00  0.00     0.000 HD 
HETATM   15  C   UNL     1     -11.147   6.501  70.171  1.00  0.00    -0.351 C  
BRANCH  11  16
HETATM   16  C   UNL     1      -9.019   6.799  67.155  1.00  0.00    -0.116 A  
HETATM   17  C   UNL     1      -8.147   6.250  64.955  1.00  0.00    -0.136 A  
HETATM   18  C   UNL     1      -8.533   5.844  66.241  1.00  0.00    -0.128 A  
HETATM   19  C   UNL     1      -9.074   8.155  66.773  1.00  0.00    -0.191 A  
HETATM   20  C   UNL     1      -8.135   7.602  64.611  1.00  0.00    -0.112 A  
HETATM   21  C   UNL     1      -8.554   8.560  65.538  1.00  0.00    -0.180 A  
BRANCH  18  22
HETATM   22  O   UNL     1      -8.509   4.536  66.644  1.00  0.00    -0.106 OA 
BRANCH  22  23
HETATM   23  C   UNL     1      -9.476   3.662  66.059  1.00  0.00    -0.160 C  
HETATM   24  C   UNL     1      -8.705   2.538  65.394  1.00  0.00    -0.118 C  
ENDBRANCH  22  23
ENDBRANCH  18  22
BRANCH  21  25
HETATM   25  S   UNL     1      -8.508  10.283  65.069  1.00  0.00    -0.176 S  
HETATM   26  O   UNL     1      -8.159  10.339  63.665  1.00  0.00    -0.159 OA 
HETATM   27  O   UNL     1      -7.695  10.956  66.061  1.00  0.00    -0.153 OA 
BRANCH  25  28
HETATM   28  N   UNL     1     -10.085  10.866  65.248  1.00  0.00    -0.264 N  
HETATM   29  C   UNL     1     -10.447  11.646  66.449  1.00  0.00    -0.244 C  
HETATM   30  C   UNL     1     -10.235  13.145  66.205  1.00  0.00    -0.290 C  
HETATM   31  N   UNL     1     -10.947  13.686  65.030  1.00  0.00    -0.328 NA 
HETATM   32  C   UNL     1     -10.820  12.809  63.844  1.00  0.00    -0.411 C  
HETATM   33  C   UNL     1     -12.335  13.982  65.366  1.00  0.00    -0.478 C  
HETATM   34  C   UNL     1     -10.882  11.279  64.068  1.00  0.00    -0.344 C  
ENDBRANCH  25  28
ENDBRANCH  21  25
ENDBRANCH  11  16
ENDBRANCH   3   4
ENDBRANCH   2   3
TORSDOF 7
ENDMDL
MODEL      183
REMARK 921   NORMALIZED FREE ENERGY PREDICTED BY IDOCK:   -4.18 KCAL/MOL
REMARK 922        TOTAL FREE ENERGY PREDICTED BY IDOCK:   -7.24 KCAL/MOL
REMARK 923 INTER-LIGAND FREE ENERGY PREDICTED BY IDOCK:   -5.71 KCAL/MOL
REMARK 924 INTRA-LIGAND FREE ENERGY PREDICTED BY IDOCK:   -1.53 KCAL/MOL
REMARK 927      BINDING AFFINITY PREDICTED BY RF-SCORE:    0.00 PKD
ROOT
HETATM    1  C   UNL     1     -10.562  10.935  67.241  1.00  0.00    -0.296 C  
HETATM    2  C   UNL     1     -11.740  11.433  68.066  1.00  0.00    -0.324 C  
ENDROOT
BRANCH   2   3
HETATM    3  C   UNL     1     -11.389  11.542  69.551  1.00  0.00    -0.342 C  
BRANCH   3   4
HETATM    4  C   UNL     1     -11.820  10.346  70.332  1.00  0.00    -0.328 A  
HETATM    5  N   UNL     1     -12.915  10.446  71.107  1.00  0.00    -0.391 NA 
HETATM    6  N   UNL     1     -13.061   9.215  71.647  1.00  0.00    -0.349 NA 
HETATM    7  C   UNL     1     -12.108   8.338  71.233  1.00  0.00    -0.280 A  
HETATM    8  C   UNL     1     -14.174   8.956  72.529  1.00  0.00    -0.307 C  
HETATM    9  C   UNL     1     -11.285   9.039  70.404  1.00  0.00    -0.241 A  
HETATM   10  N   UNL     1     -10.235   8.418  69.842  1.00  0.00    -0.197 NA 
HETATM   11  C   UNL     1     -10.058   7.073  70.168  1.00  0.00    -0.187 C  
HETATM   12  N   UNL     1     -10.841   6.379  70.950  1.00  0.00    -0.249 N  
HETATM   13  O   UNL     1     -12.677   6.353  72.327  1.00  0.00    -0.172 OA 
HETATM   14  H   UNL     1     -10.644   5.390  71.108  1.00  0.00     0.000 HD 
HETATM   15  C   UNL     1     -11.932   6.958  71.569  1.00  0.00    -0.344 C  
BRANCH  11  16
HETATM   16  C   UNL     1      -8.890   6.319  69.556  1.00  0.00    -0.135 A  
HETATM   17  C   UNL     1      -6.794   5.102  69.719  1.00  0.00    -0.052 A  
HETATM   18  C   UNL     1      -7.852   5.781  70.340  1.00  0.00    -0.104 A  
HETATM   19  C   UNL     1      -8.829   6.198  68.152  1.00  0.00    -0.112 A  
HETATM   20  C   UNL     1      -6.703   5.052  68.327  1.00  0.00    -0.054 A  
HETATM   21  C   UNL     1      -7.698   5.641  67.543  1.00  0.00    -0.097 A  
BRANCH  18  22
HETATM   22  O   UNL     1      -7.955   5.907  71.700  1.00  0.00    -0.110 OA 
BRANCH  22  23
HETATM   23  C   UNL     1      -7.082   6.846  72.329  1.00  0.00    -0.073 C  
HETATM   24  C   UNL     1      -7.027   6.478  73.800  1.00  0.00    -0.081 C  
ENDBRANCH  22  23
ENDBRANCH  18  22
BRANCH  21  25
HETATM   25  S   UNL     1      -7.539   5.573  65.765  1.00  0.00    -0.084 S  
HETATM   26  O   UNL     1      -6.279   4.924  65.469  1.00  0.00    -0.032 OA 
HETATM   27  O   UNL     1      -7.817   6.908  65.277  1.00  0.00    -0.103 OA 
BRANCH  25  28
HETATM   28  N   UNL     1      -8.792   4.579  65.215  1.00  0.00    -0.134 N  
HETATM   29  C   UNL     1      -9.181   4.609  63.790  1.00  0.00    -0.034 C  
HETATM   30  C   UNL     1      -8.395   3.562  62.992  1.00  0.00    -0.085 C  
HETATM   31  N   UNL     1      -8.506   2.182  63.507  1.00  0.00    -0.084 NA 
HETATM   32  C   UNL     1      -8.366   2.120  64.979  1.00  0.00    -0.087 C  
HETATM   33  C   UNL     1      -9.737   1.558  63.031  1.00  0.00    -0.096 C  
HETATM   34  C   UNL     1      -9.022   3.243  65.816  1.00  0.00    -0.145 C  
ENDBRANCH  25  28
ENDBRANCH  21  25
ENDBRANCH  11  16
ENDBRANCH   3   4
ENDBRANCH   2   3
TORSDOF 7
ENDMDL
MODEL      184
REMARK 921   NORMALIZED FREE ENERGY PREDICTED BY IDOCK:   -4.12 KCAL/MOL
REMARK 922        TOTAL FREE ENERGY PREDICTED BY IDOCK:   -7.15 KCAL/MOL
REMARK 923 INTER-LIGAND FREE ENERGY PREDICTED BY IDOCK:   -5.80 KCAL/MOL
REMARK 924 INTRA-LIGAND FREE ENERGY PREDICTED BY IDOCK:   -1.35 KCAL/MOL
REMARK 927      BINDING AFFINITY PREDICTED BY RF-SCORE:    0.00 PKD
ROOT
HETATM    1  C   UNL     1      -7.369  14.093  67.357  1.00  0.00    -0.143 C  
HETATM    2  C   UNL     1      -8.278  14.843  68.320  1.00  0.00    -0.145 C  
ENDROOT
BRANCH   2   3
HETATM    3  C   UNL     1      -9.726  14.873  67.828  1.00  0.00    -0.212 C  
BRANCH   3   4
HETATM    4  C   UNL     1     -10.676  14.256  68.800  1.00  0.00    -0.254 A  
HETATM    5  N   UNL     1     -11.631  15.032  69.345  1.00  0.00    -0.296 NA 
HETATM    6  N   UNL     1     -12.335  14.193  70.139  1.00  0.00    -0.342 NA 
HETATM    7  C   UNL     1     -11.869  12.916  70.106  1.00  0.00    -0.245 A  
HETATM    8  C   UNL     1     -13.471  14.699  70.871  1.00  0.00    -0.243 C  
HETATM    9  C   UNL     1     -10.793  12.928  69.272  1.00  0.00     0.012 A  
HETATM   10  N   UNL     1     -10.120  11.787  69.050  1.00  0.00    -0.060 NA 
HETATM   11  C   UNL     1     -10.581  10.651  69.718  1.00  0.00    -0.184 C  
HETATM   12  N   UNL     1     -11.618  10.615  70.513  1.00  0.00    -0.336 N  
HETATM   13  O   UNL     1     -13.309  11.771  71.548  1.00  0.00    -0.268 OA 
HETATM   14  H   UNL     1     -11.894   9.728  70.936  1.00  0.00     0.000 HD 
HETATM   15  C   UNL     1     -12.347  11.755  70.792  1.00  0.00    -0.337 C  
BRANCH  11  16
HETATM   16  C   UNL     1      -9.862   9.331  69.499  1.00  0.00    -0.188 A  
HETATM   17  C   UNL     1      -9.309   7.380  68.162  1.00  0.00    -0.135 A  
HETATM   18  C   UNL     1      -9.989   8.598  68.304  1.00  0.00    -0.180 A  
HETATM   19  C   UNL     1      -9.080   8.809  70.550  1.00  0.00    -0.205 A  
HETATM   20  C   UNL     1      -8.598   6.835  69.233  1.00  0.00    -0.129 A  
HETATM   21  C   UNL     1      -8.524   7.529  70.444  1.00  0.00    -0.141 A  
BRANCH  18  22
HETATM   22  O   UNL     1     -10.746   9.145  67.302  1.00  0.00    -0.262 OA 
BRANCH  22  23
HETATM   23  C   UNL     1     -10.079   9.426  66.070  1.00  0.00    -0.231 C  
HETATM   24  C   UNL     1     -10.557  10.792  65.614  1.00  0.00    -0.199 C  
ENDBRANCH  22  23
ENDBRANCH  18  22
BRANCH  21  25
HETATM   25  S   UNL     1      -7.621   6.793  71.797  1.00  0.00    -0.095 S  
HETATM   26  O   UNL     1      -6.844   7.844  72.421  1.00  0.00    -0.063 OA 
HETATM   27  O   UNL     1      -6.974   5.611  71.265  1.00  0.00    -0.062 OA 
BRANCH  25  28
HETATM   28  N   UNL     1      -8.781   6.259  72.907  1.00  0.00    -0.126 N  
HETATM   29  C   UNL     1     -10.172   6.036  72.464  1.00  0.00    -0.186 C  
HETATM   30  C   UNL     1     -10.369   4.586  72.007  1.00  0.00    -0.146 C  
HETATM   31  N   UNL     1      -9.999   3.567  73.011  1.00  0.00    -0.136 NA 
HETATM   32  C   UNL     1      -8.711   3.873  73.672  1.00  0.00    -0.093 C  
HETATM   33  C   UNL     1     -11.088   3.370  73.962  1.00  0.00    -0.057 C  
HETATM   34  C   UNL     1      -8.408   5.351  74.018  1.00  0.00    -0.113 C  
ENDBRANCH  25  28
ENDBRANCH  21  25
ENDBRANCH  11  16
ENDBRANCH   3   4
ENDBRANCH   2   3
TORSDOF 7
ENDMDL
MODEL      185
REMARK 921   NORMALIZED FREE ENERGY PREDICTED BY IDOCK:   -4.11 KCAL/MOL
REMARK 922        TOTAL FREE ENERGY PREDICTED BY IDOCK:   -7.14 KCAL/MOL
REMARK 923 INTER-LIGAND FREE ENERGY PREDICTED BY IDOCK:   -6.24 KCAL/MOL
REMARK 924 INTRA-LIGAND FREE ENERGY PREDICTED BY IDOCK:   -0.90 KCAL/MOL
REMARK 927      BINDING AFFINITY PREDICTED BY RF-SCORE:    0.00 PKD
ROOT
HETATM    1  C   UNL     1      -5.183  19.113  70.865  1.00  0.00    -0.254 C  
HETATM    2  C   UNL     1      -6.442  19.180  70.012  1.00  0.00    -0.104 C  
ENDROOT
BRANCH   2   3
HETATM    3  C   UNL     1      -6.132  18.986  68.527  1.00  0.00    -0.232 C  
BRANCH   3   4
HETATM    4  C   UNL     1      -7.360  18.763  67.708  1.00  0.00    -0.233 A  
HETATM    5  N   UNL     1      -7.906  19.815  67.071  1.00  0.00    -0.273 NA 
HETATM    6  N   UNL     1      -8.962  19.294  66.404  1.00  0.00    -0.344 NA 
HETATM    7  C   UNL     1      -9.094  17.954  66.585  1.00  0.00    -0.267 A  
HETATM    8  C   UNL     1      -9.773  20.158  65.580  1.00  0.00    -0.021 C  
HETATM    9  C   UNL     1      -8.094  17.586  67.433  1.00  0.00    -0.202 A  
HETATM   10  N   UNL     1      -7.980  16.298  67.797  1.00  0.00    -0.140 NA 
HETATM   11  C   UNL     1      -8.928  15.416  67.275  1.00  0.00    -0.198 C  
HETATM   12  N   UNL     1      -9.888  15.745  66.451  1.00  0.00    -0.258 N  
HETATM   13  O   UNL     1     -10.966  17.409  65.295  1.00  0.00    -0.484 OA 
HETATM   14  H   UNL     1     -10.518  15.022  66.102  1.00  0.00     0.000 HD 
HETATM   15  C   UNL     1     -10.067  17.054  66.045  1.00  0.00    -0.302 C  
BRANCH  11  16
HETATM   16  C   UNL     1      -8.844  13.947  67.648  1.00  0.00    -0.191 A  
HETATM   17  C   UNL     1      -9.693  11.959  68.756  1.00  0.00    -0.051 A  
HETATM   18  C   UNL     1      -9.828  13.317  68.434  1.00  0.00    -0.218 A  
HETATM   19  C   UNL     1      -7.719  13.208  67.226  1.00  0.00    -0.107 A  
HETATM   20  C   UNL     1      -8.542  11.255  68.398  1.00  0.00    -0.155 A  
HETATM   21  C   UNL     1      -7.533  11.894  67.672  1.00  0.00    -0.127 A  
BRANCH  18  22
HETATM   22  O   UNL     1     -10.912  14.064  68.812  1.00  0.00    -0.246 OA 
BRANCH  22  23
HETATM   23  C   UNL     1     -12.111  13.351  69.118  1.00  0.00    -0.261 C  
HETATM   24  C   UNL     1     -12.443  13.653  70.568  1.00  0.00    -0.394 C  
ENDBRANCH  22  23
ENDBRANCH  18  22
BRANCH  21  25
HETATM   25  S   UNL     1      -6.066  10.968  67.248  1.00  0.00    -0.075 S  
HETATM   26  O   UNL     1      -5.506  10.456  68.481  1.00  0.00    -0.038 OA 
HETATM   27  O   UNL     1      -5.281  11.820  66.376  1.00  0.00    -0.302 OA 
BRANCH  25  28
HETATM   28  N   UNL     1      -6.586   9.658  66.314  1.00  0.00    -0.070 N  
HETATM   29  C   UNL     1      -6.456   8.284  66.841  1.00  0.00    -0.057 C  
HETATM   30  C   UNL     1      -7.726   7.872  67.596  1.00  0.00    -0.117 C  
HETATM   31  N   UNL     1      -8.974   7.987  66.815  1.00  0.00    -0.137 NA 
HETATM   32  C   UNL     1      -9.048   9.258  66.061  1.00  0.00    -0.188 C  
HETATM   33  C   UNL     1      -9.152   6.815  65.963  1.00  0.00    -0.072 C  
HETATM   34  C   UNL     1      -7.750   9.787  65.404  1.00  0.00    -0.123 C  
ENDBRANCH  25  28
ENDBRANCH  21  25
ENDBRANCH  11  16
ENDBRANCH   3   4
ENDBRANCH   2   3
TORSDOF 7
ENDMDL
MODEL      186
REMARK 921   NORMALIZED FREE ENERGY PREDICTED BY IDOCK:   -4.10 KCAL/MOL
REMARK 922        TOTAL FREE ENERGY PREDICTED BY IDOCK:   -7.13 KCAL/MOL
REMARK 923 INTER-LIGAND FREE ENERGY PREDICTED BY IDOCK:   -6.02 KCAL/MOL
REMARK 924 INTRA-LIGAND FREE ENERGY PREDICTED BY IDOCK:   -1.11 KCAL/MOL
REMARK 927      BINDING AFFINITY PREDICTED BY RF-SCORE:    0.00 PKD
ROOT
HETATM    1  C   UNL     1      -9.585  10.361  62.918  1.00  0.00    -0.331 C  
HETATM    2  C   UNL     1      -8.170  10.145  63.435  1.00  0.00    -0.164 C  
ENDROOT
BRANCH   2   3
HETATM    3  C   UNL     1      -7.983   8.738  64.005  1.00  0.00    -0.156 C  
BRANCH   3   4
HETATM    4  C   UNL     1      -8.744   8.526  65.271  1.00  0.00    -0.140 A  
HETATM    5  N   UNL     1      -9.357   7.343  65.461  1.00  0.00     0.306 NA 
HETATM    6  N   UNL     1      -9.920   7.447  66.686  1.00  0.00    -0.215 NA 
HETATM    7  C   UNL     1      -9.675   8.644  67.283  1.00  0.00    -0.185 A  
HETATM    8  C   UNL     1     -10.650   6.325  67.227  1.00  0.00    -0.302 C  
HETATM    9  C   UNL     1      -8.940   9.366  66.392  1.00  0.00    -0.152 A  
HETATM   10  N   UNL     1      -8.551  10.610  66.716  1.00  0.00    -0.127 NA 
HETATM   11  C   UNL     1      -8.950  11.082  67.967  1.00  0.00    -0.145 C  
HETATM   12  N   UNL     1      -9.645  10.402  68.841  1.00  0.00    -0.183 N  
HETATM   13  O   UNL     1     -10.757   8.460  69.346  1.00  0.00    -0.221 OA 
HETATM   14  H   UNL     1      -9.866  10.826  69.743  1.00  0.00     0.000 HD 
HETATM   15  C   UNL     1     -10.085   9.122  68.568  1.00  0.00    -0.191 C  
BRANCH  11  16
HETATM   16  C   UNL     1      -8.534  12.481  68.389  1.00  0.00    -0.125 A  
HETATM   17  C   UNL     1      -6.929  14.066  69.291  1.00  0.00    -0.084 A  
HETATM   18  C   UNL     1      -7.255  12.756  68.909  1.00  0.00    -0.039 A  
HETATM   19  C   UNL     1      -9.480  13.522  68.295  1.00  0.00    -0.212 A  
HETATM   20  C   UNL     1      -7.894  15.074  69.264  1.00  0.00    -0.190 A  
HETATM   21  C   UNL     1      -9.185  14.790  68.809  1.00  0.00    -0.196 A  
BRANCH  18  22
HETATM   22  O   UNL     1      -6.359  11.722  68.971  1.00  0.00    -0.065 OA 
BRANCH  22  23
HETATM   23  C   UNL     1      -5.958  11.294  70.274  1.00  0.00    -0.154 C  
HETATM   24  C   UNL     1      -6.043   9.779  70.283  1.00  0.00    -0.068 C  
ENDBRANCH  22  23
ENDBRANCH  18  22
BRANCH  21  25
HETATM   25  S   UNL     1     -10.398  16.100  68.806  1.00  0.00    -0.266 S  
HETATM   26  O   UNL     1     -10.745  16.371  70.185  1.00  0.00    -0.299 OA 
HETATM   27  O   UNL     1     -11.416  15.714  67.849  1.00  0.00    -0.329 OA 
BRANCH  25  28
HETATM   28  N   UNL     1      -9.623  17.464  68.175  1.00  0.00    -0.276 N  
HETATM   29  C   UNL     1      -9.180  17.470  66.766  1.00  0.00    -0.265 C  
HETATM   30  C   UNL     1     -10.276  18.036  65.856  1.00  0.00    -0.229 C  
HETATM   31  N   UNL     1     -10.755  19.382  66.231  1.00  0.00    -0.434 NA 
HETATM   32  C   UNL     1     -10.987  19.510  67.687  1.00  0.00    -0.215 C  
HETATM   33  C   UNL     1      -9.856  20.406  65.711  1.00  0.00     0.020 C  
HETATM   34  C   UNL     1      -9.980  18.825  68.642  1.00  0.00    -0.394 C  
ENDBRANCH  25  28
ENDBRANCH  21  25
ENDBRANCH  11  16
ENDBRANCH   3   4
ENDBRANCH   2   3
TORSDOF 7
ENDMDL
MODEL      187
REMARK 921   NORMALIZED FREE ENERGY PREDICTED BY IDOCK:   -4.10 KCAL/MOL
REMARK 922        TOTAL FREE ENERGY PREDICTED BY IDOCK:   -7.13 KCAL/MOL
REMARK 923 INTER-LIGAND FREE ENERGY PREDICTED BY IDOCK:   -6.62 KCAL/MOL
REMARK 924 INTRA-LIGAND FREE ENERGY PREDICTED BY IDOCK:   -0.51 KCAL/MOL
REMARK 927      BINDING AFFINITY PREDICTED BY RF-SCORE:    0.00 PKD
ROOT
HETATM    1  C   UNL     1     -12.116  11.757  63.211  1.00  0.00    -0.375 C  
HETATM    2  C   UNL     1     -10.600  11.689  63.084  1.00  0.00    -0.341 C  
ENDROOT
BRANCH   2   3
HETATM    3  C   UNL     1      -9.937  11.288  64.403  1.00  0.00    -0.338 C  
BRANCH   3   4
HETATM    4  C   UNL     1     -10.509  12.012  65.576  1.00  0.00    -0.269 A  
HETATM    5  N   UNL     1     -11.230  13.126  65.354  1.00  0.00    -0.289 NA 
HETATM    6  N   UNL     1     -11.628  13.522  66.584  1.00  0.00    -0.346 NA 
HETATM    7  C   UNL     1     -11.197  12.695  67.573  1.00  0.00    -0.288 A  
HETATM    8  C   UNL     1     -12.458  14.696  66.715  1.00  0.00     0.212 C  
HETATM    9  C   UNL     1     -10.459  11.728  66.961  1.00  0.00    -0.220 A  
HETATM   10  N   UNL     1      -9.896  10.761  67.704  1.00  0.00    -0.169 NA 
HETATM   11  C   UNL     1     -10.106  10.832  69.082  1.00  0.00    -0.205 C  
HETATM   12  N   UNL     1     -10.819  11.744  69.689  1.00  0.00    -0.456 N  
HETATM   13  O   UNL     1     -12.073  13.658  69.514  1.00  0.00    -0.318 OA 
HETATM   14  H   UNL     1     -10.937  11.696  70.701  1.00  0.00     0.000 HD 
HETATM   15  C   UNL     1     -11.417  12.771  68.985  1.00  0.00    -0.309 C  
BRANCH  11  16
HETATM   16  C   UNL     1      -9.497   9.761  69.971  1.00  0.00    -0.278 A  
HETATM   17  C   UNL     1      -7.620   8.730  71.116  1.00  0.00    -0.134 A  
HETATM   18  C   UNL     1      -8.128   9.749  70.298  1.00  0.00    -0.154 A  
HETATM   19  C   UNL     1     -10.329   8.726  70.444  1.00  0.00    -0.230 A  
HETATM   20  C   UNL     1      -8.434   7.669  71.518  1.00  0.00    -0.124 A  
HETATM   21  C   UNL     1      -9.779   7.644  71.141  1.00  0.00    -0.162 A  
BRANCH  18  22
HETATM   22  O   UNL     1      -7.355  10.780  69.832  1.00  0.00    -0.126 OA 
BRANCH  22  23
HETATM   23  C   UNL     1      -6.152  10.426  69.148  1.00  0.00    -0.037 C  
HETATM   24  C   UNL     1      -6.296  10.924  67.722  1.00  0.00    -0.062 C  
ENDBRANCH  22  23
ENDBRANCH  18  22
BRANCH  21  25
HETATM   25  S   UNL     1     -10.786   6.262  71.657  1.00  0.00    -0.261 S  
HETATM   26  O   UNL     1     -12.171   6.658  71.510  1.00  0.00    -0.344 OA 
HETATM   27  O   UNL     1     -10.271   5.837  72.943  1.00  0.00    -0.180 OA 
BRANCH  25  28
HETATM   28  N   UNL     1     -10.471   5.010  70.565  1.00  0.00    -0.211 N  
HETATM   29  C   UNL     1     -10.555   5.265  69.112  1.00  0.00    -0.097 C  
HETATM   30  C   UNL     1      -9.192   5.696  68.558  1.00  0.00    -0.121 C  
HETATM   31  N   UNL     1      -8.088   4.754  68.833  1.00  0.00    -0.082 NA 
HETATM   32  C   UNL     1      -8.099   4.269  70.231  1.00  0.00    -0.058 C  
HETATM   33  C   UNL     1      -8.092   3.667  67.859  1.00  0.00    -0.084 C  
HETATM   34  C   UNL     1      -9.470   3.961  70.879  1.00  0.00    -0.166 C  
ENDBRANCH  25  28
ENDBRANCH  21  25
ENDBRANCH  11  16
ENDBRANCH   3   4
ENDBRANCH   2   3
TORSDOF 7
ENDMDL
MODEL      188
REMARK 921   NORMALIZED FREE ENERGY PREDICTED BY IDOCK:   -4.07 KCAL/MOL
REMARK 922        TOTAL FREE ENERGY PREDICTED BY IDOCK:   -7.08 KCAL/MOL
REMARK 923 INTER-LIGAND FREE ENERGY PREDICTED BY IDOCK:   -6.78 KCAL/MOL
REMARK 924 INTRA-LIGAND FREE ENERGY PREDICTED BY IDOCK:   -0.30 KCAL/MOL
REMARK 927      BINDING AFFINITY PREDICTED BY RF-SCORE:    0.00 PKD
ROOT
HETATM    1  C   UNL     1      -9.209   5.116  72.296  1.00  0.00    -0.155 C  
HETATM    2  C   UNL     1     -10.633   5.482  71.904  1.00  0.00    -0.293 C  
ENDROOT
BRANCH   2   3
HETATM    3  C   UNL     1     -10.664   6.537  70.797  1.00  0.00    -0.290 C  
BRANCH   3   4
HETATM    4  C   UNL     1     -11.510   7.715  71.150  1.00  0.00    -0.275 A  
HETATM    5  N   UNL     1     -12.474   7.559  72.076  1.00  0.00    -0.285 NA 
HETATM    6  N   UNL     1     -13.030   8.786  72.195  1.00  0.00    -0.379 NA 
HETATM    7  C   UNL     1     -12.447   9.713  71.391  1.00  0.00    -0.373 A  
HETATM    8  C   UNL     1     -14.101   8.988  73.141  1.00  0.00     0.548 C  
HETATM    9  C   UNL     1     -11.481   9.053  70.692  1.00  0.00    -0.248 A  
HETATM   10  N   UNL     1     -10.734   9.729  69.804  1.00  0.00    -0.240 NA 
HETATM   11  C   UNL     1     -11.020  11.087  69.653  1.00  0.00    -0.225 C  
HETATM   12  N   UNL     1     -11.933  11.742  70.321  1.00  0.00    -0.395 N  
HETATM   13  O   UNL     1     -13.624  11.674  71.870  1.00  0.00    -0.259 OA 
HETATM   14  H   UNL     1     -12.050  12.742  70.159  1.00  0.00     0.000 HD 
HETATM   15  C   UNL     1     -12.743  11.105  71.241  1.00  0.00    -0.426 C  
BRANCH  11  16
HETATM   16  C   UNL     1     -10.203  11.902  68.666  1.00  0.00    -0.202 A  
HETATM   17  C   UNL     1      -8.989  12.162  66.578  1.00  0.00    -0.179 A  
HETATM   18  C   UNL     1      -9.749  11.365  67.446  1.00  0.00    -0.181 A  
HETATM   19  C   UNL     1      -9.854  13.224  69.012  1.00  0.00     0.229 A  
HETATM   20  C   UNL     1      -8.586  13.443  66.960  1.00  0.00    -0.168 A  
HETATM   21  C   UNL     1      -8.980  13.956  68.199  1.00  0.00    -0.185 A  
BRANCH  18  22
HETATM   22  O   UNL     1     -10.120  10.082  67.141  1.00  0.00    -0.191 OA 
BRANCH  22  23
HETATM   23  C   UNL     1      -9.097   9.213  66.653  1.00  0.00    -0.148 C  
HETATM   24  C   UNL     1      -9.069   9.372  65.144  1.00  0.00    -0.280 C  
ENDBRANCH  22  23
ENDBRANCH  18  22
BRANCH  21  25
HETATM   25  S   UNL     1      -8.431  15.591  68.662  1.00  0.00    -0.189 S  
HETATM   26  O   UNL     1      -7.185  15.440  69.383  1.00  0.00    -0.172 OA 
HETATM   27  O   UNL     1      -9.567  16.247  69.276  1.00  0.00    -0.248 OA 
BRANCH  25  28
HETATM   28  N   UNL     1      -8.113  16.411  67.217  1.00  0.00    -0.161 N  
HETATM   29  C   UNL     1      -9.058  17.439  66.734  1.00  0.00    -0.260 C  
HETATM   30  C   UNL     1      -8.667  18.824  67.264  1.00  0.00    -0.274 C  
HETATM   31  N   UNL     1      -7.284  19.237  66.952  1.00  0.00    -0.205 NA 
HETATM   32  C   UNL     1      -6.307  18.150  67.189  1.00  0.00    -0.168 C  
HETATM   33  C   UNL     1      -7.206  19.780  65.600  1.00  0.00    -0.301 C  
HETATM   34  C   UNL     1      -6.721  16.710  66.803  1.00  0.00    -0.206 C  
ENDBRANCH  25  28
ENDBRANCH  21  25
ENDBRANCH  11  16
ENDBRANCH   3   4
ENDBRANCH   2   3
TORSDOF 7
ENDMDL
MODEL      189
REMARK 921   NORMALIZED FREE ENERGY PREDICTED BY IDOCK:   -4.04 KCAL/MOL
REMARK 922        TOTAL FREE ENERGY PREDICTED BY IDOCK:   -7.04 KCAL/MOL
REMARK 923 INTER-LIGAND FREE ENERGY PREDICTED BY IDOCK:   -7.21 KCAL/MOL
REMARK 924 INTRA-LIGAND FREE ENERGY PREDICTED BY IDOCK:    0.16 KCAL/MOL
REMARK 927      BINDING AFFINITY PREDICTED BY RF-SCORE:    0.00 PKD
ROOT
HETATM    1  C   UNL     1     -10.406  20.049  68.397  1.00  0.00    -0.465 C  
HETATM    2  C   UNL     1      -9.772  18.732  68.821  1.00  0.00    -0.432 C  
ENDROOT
BRANCH   2   3
HETATM    3  C   UNL     1      -9.889  17.668  67.728  1.00  0.00    -0.292 C  
BRANCH   3   4
HETATM    4  C   UNL     1      -8.646  16.855  67.583  1.00  0.00    -0.208 A  
HETATM    5  N   UNL     1      -7.477  17.496  67.408  1.00  0.00    -0.191 NA 
HETATM    6  N   UNL     1      -6.556  16.508  67.344  1.00  0.00    -0.147 NA 
HETATM    7  C   UNL     1      -7.097  15.269  67.485  1.00  0.00    -0.196 A  
HETATM    8  C   UNL     1      -5.162  16.848  67.182  1.00  0.00    -0.150 C  
HETATM    9  C   UNL     1      -8.439  15.456  67.620  1.00  0.00    -0.162 A  
HETATM   10  N   UNL     1      -9.240  14.389  67.774  1.00  0.00    -0.187 NA 
HETATM   11  C   UNL     1      -8.620  13.138  67.772  1.00  0.00    -0.188 C  
HETATM   12  N   UNL     1      -7.333  12.937  67.656  1.00  0.00    -0.132 N  
HETATM   13  O   UNL     1      -5.249  13.845  67.348  1.00  0.00    -0.335 OA 
HETATM   14  H   UNL     1      -6.971  11.983  67.693  1.00  0.00     0.000 HD 
HETATM   15  C   UNL     1      -6.455  13.989  67.484  1.00  0.00    -0.047 C  
BRANCH  11  16
HETATM   16  C   UNL     1      -9.476  11.896  67.949  1.00  0.00    -0.194 A  
HETATM   17  C   UNL     1     -11.526  10.634  67.623  1.00  0.00    -0.169 A  
HETATM   18  C   UNL     1     -10.778  11.803  67.421  1.00  0.00    -0.236 A  
HETATM   19  C   UNL     1      -8.959  10.824  68.705  1.00  0.00    -0.171 A  
HETATM   20  C   UNL     1     -11.036   9.610  68.435  1.00  0.00    -0.161 A  
HETATM   21  C   UNL     1      -9.770   9.726  69.015  1.00  0.00    -0.177 A  
BRANCH  18  22
HETATM   22  O   UNL     1     -11.239  12.859  66.680  1.00  0.00    -0.283 OA 
BRANCH  22  23
HETATM   23  C   UNL     1     -11.694  12.569  65.358  1.00  0.00    -0.398 C  
HETATM   24  C   UNL     1     -10.544  12.880  64.419  1.00  0.00    -0.418 C  
ENDBRANCH  22  23
ENDBRANCH  18  22
BRANCH  21  25
HETATM   25  S   UNL     1      -9.183   8.404  70.062  1.00  0.00    -0.160 S  
HETATM   26  O   UNL     1      -7.914   8.824  70.618  1.00  0.00    -0.094 OA 
HETATM   27  O   UNL     1      -9.283   7.187  69.281  1.00  0.00    -0.141 OA 
BRANCH  25  28
HETATM   28  N   UNL     1     -10.299   8.268  71.325  1.00  0.00    -0.199 N  
HETATM   29  C   UNL     1     -11.094   9.445  71.732  1.00  0.00    -0.255 C  
HETATM   30  C   UNL     1     -12.418   9.496  70.960  1.00  0.00    -0.267 C  
HETATM   31  N   UNL     1     -13.245   8.278  71.071  1.00  0.00     0.018 NA 
HETATM   32  C   UNL     1     -12.446   7.042  70.912  1.00  0.00    -0.272 C  
HETATM   33  C   UNL     1     -14.016   8.295  72.309  1.00  0.00    -0.252 C  
HETATM   34  C   UNL     1     -11.039   7.003  71.554  1.00  0.00    -0.243 C  
ENDBRANCH  25  28
ENDBRANCH  21  25
ENDBRANCH  11  16
ENDBRANCH   3   4
ENDBRANCH   2   3
TORSDOF 7
ENDMDL
MODEL      190
REMARK 921   NORMALIZED FREE ENERGY PREDICTED BY IDOCK:   -4.02 KCAL/MOL
REMARK 922        TOTAL FREE ENERGY PREDICTED BY IDOCK:   -7.02 KCAL/MOL
REMARK 923 INTER-LIGAND FREE ENERGY PREDICTED BY IDOCK:   -5.96 KCAL/MOL
REMARK 924 INTRA-LIGAND FREE ENERGY PREDICTED BY IDOCK:   -1.05 KCAL/MOL
REMARK 927      BINDING AFFINITY PREDICTED BY RF-SCORE:    0.00 PKD
ROOT
HETATM    1  C   UNL     1     -10.303  16.063  67.815  1.00  0.00    -0.279 C  
HETATM    2  C   UNL     1     -10.330  14.593  67.423  1.00  0.00    -0.241 C  
ENDROOT
BRANCH   2   3
HETATM    3  C   UNL     1     -11.715  13.976  67.628  1.00  0.00    -0.412 C  
BRANCH   3   4
HETATM    4  C   UNL     1     -11.753  13.019  68.772  1.00  0.00    -0.324 A  
HETATM    5  N   UNL     1     -12.528  13.316  69.831  1.00  0.00    -0.131 NA 
HETATM    6  N   UNL     1     -12.377  12.262  70.666  1.00  0.00    -0.337 NA 
HETATM    7  C   UNL     1     -11.548  11.306  70.169  1.00  0.00    -0.305 A  
HETATM    8  C   UNL     1     -13.102  12.239  71.914  1.00  0.00    -0.363 C  
HETATM    9  C   UNL     1     -11.115  11.771  68.964  1.00  0.00    -0.246 A  
HETATM   10  N   UNL     1     -10.267  11.025  68.238  1.00  0.00    -0.169 NA 
HETATM   11  C   UNL     1      -9.876   9.806  68.794  1.00  0.00    -0.169 C  
HETATM   12  N   UNL     1     -10.288   9.336  69.942  1.00  0.00    -0.207 N  
HETATM   13  O   UNL     1     -11.543   9.666  71.834  1.00  0.00    -0.339 OA 
HETATM   14  H   UNL     1      -9.965   8.419  70.252  1.00  0.00     0.000 HD 
HETATM   15  C   UNL     1     -11.152  10.056  70.743  1.00  0.00    -0.334 C  
BRANCH  11  16
HETATM   16  C   UNL     1      -8.922   8.918  68.013  1.00  0.00    -0.140 A  
HETATM   17  C   UNL     1      -6.833   8.514  66.841  1.00  0.00    -0.069 A  
HETATM   18  C   UNL     1      -7.668   9.376  67.566  1.00  0.00    -0.091 A  
HETATM   19  C   UNL     1      -9.333   7.607  67.692  1.00  0.00    -0.158 A  
HETATM   20  C   UNL     1      -7.278   7.246  66.465  1.00  0.00    -0.079 A  
HETATM   21  C   UNL     1      -8.548   6.810  66.851  1.00  0.00    -0.116 A  
BRANCH  18  22
HETATM   22  O   UNL     1      -7.300  10.650  67.910  1.00  0.00    -0.087 OA 
BRANCH  22  23
HETATM   23  C   UNL     1      -6.524  11.377  66.955  1.00  0.00    -0.120 C  
HETATM   24  C   UNL     1      -6.615  12.841  67.341  1.00  0.00    -0.140 C  
ENDBRANCH  22  23
ENDBRANCH  18  22
BRANCH  21  25
HETATM   25  S   UNL     1      -9.090   5.189  66.336  1.00  0.00    -0.136 S  
HETATM   26  O   UNL     1      -8.330   4.834  65.156  1.00  0.00    -0.119 OA 
HETATM   27  O   UNL     1     -10.538   5.233  66.298  1.00  0.00    -0.283 OA 
BRANCH  25  28
HETATM   28  N   UNL     1      -8.664   4.128  67.582  1.00  0.00    -0.104 N  
HETATM   29  C   UNL     1      -7.240   3.910  67.907  1.00  0.00    -0.059 C  
HETATM   30  C   UNL     1      -6.774   4.896  68.984  1.00  0.00    -0.049 C  
HETATM   31  N   UNL     1      -7.573   4.877  70.226  1.00  0.00    -0.061 NA 
HETATM   32  C   UNL     1      -9.028   4.847  69.956  1.00  0.00    -0.103 C  
HETATM   33  C   UNL     1      -7.139   3.789  71.095  1.00  0.00    -0.033 C  
HETATM   34  C   UNL     1      -9.527   3.976  68.779  1.00  0.00    -0.158 C  
ENDBRANCH  25  28
ENDBRANCH  21  25
ENDBRANCH  11  16
ENDBRANCH   3   4
ENDBRANCH   2   3
TORSDOF 7
ENDMDL
MODEL      191
REMARK 921   NORMALIZED FREE ENERGY PREDICTED BY IDOCK:   -4.01 KCAL/MOL
REMARK 922        TOTAL FREE ENERGY PREDICTED BY IDOCK:   -7.00 KCAL/MOL
REMARK 923 INTER-LIGAND FREE ENERGY PREDICTED BY IDOCK:   -5.91 KCAL/MOL
REMARK 924 INTRA-LIGAND FREE ENERGY PREDICTED BY IDOCK:   -1.09 KCAL/MOL
REMARK 927      BINDING AFFINITY PREDICTED BY RF-SCORE:    0.00 PKD
ROOT
HETATM    1  C   UNL     1     -10.101  14.714  66.383  1.00  0.00    -0.288 C  
HETATM    2  C   UNL     1     -10.522  13.588  65.450  1.00  0.00    -0.322 C  
ENDROOT
BRANCH   2   3
HETATM    3  C   UNL     1     -11.799  12.898  65.933  1.00  0.00    -0.476 C  
BRANCH   3   4
HETATM    4  C   UNL     1     -11.570  12.044  67.136  1.00  0.00    -0.316 A  
HETATM    5  N   UNL     1     -12.114  12.425  68.306  1.00  0.00    -0.304 NA 
HETATM    6  N   UNL     1     -11.763  11.451  69.176  1.00  0.00    -0.313 NA 
HETATM    7  C   UNL     1     -11.029  10.463  68.597  1.00  0.00    -0.243 A  
HETATM    8  C   UNL     1     -12.209  11.529  70.546  1.00  0.00    -0.377 C  
HETATM    9  C   UNL     1     -10.871  10.825  67.293  1.00  0.00    -0.288 A  
HETATM   10  N   UNL     1     -10.172  10.027  66.469  1.00  0.00    -0.233 NA 
HETATM   11  C   UNL     1      -9.639   8.865  67.030  1.00  0.00    -0.176 C  
HETATM   12  N   UNL     1      -9.788   8.493  68.275  1.00  0.00    -0.163 N  
HETATM   13  O   UNL     1     -10.629   8.975  70.354  1.00  0.00    -0.198 OA 
HETATM   14  H   UNL     1      -9.382   7.610  68.585  1.00  0.00     0.000 HD 
HETATM   15  C   UNL     1     -10.486   9.273  69.177  1.00  0.00    -0.217 C  
BRANCH  11  16
HETATM   16  C   UNL     1      -8.845   7.922  66.143  1.00  0.00    -0.197 A  
HETATM   17  C   UNL     1      -7.056   7.445  64.571  1.00  0.00    -0.061 A  
HETATM   18  C   UNL     1      -7.746   8.359  65.380  1.00  0.00    -0.099 A  
HETATM   19  C   UNL     1      -9.256   6.576  66.054  1.00  0.00    -0.077 A  
HETATM   20  C   UNL     1      -7.514   6.134  64.432  1.00  0.00    -0.080 A  
HETATM   21  C   UNL     1      -8.644   5.713  65.138  1.00  0.00    -0.130 A  
BRANCH  18  22
HETATM   22  O   UNL     1      -7.369   9.670  65.505  1.00  0.00    -0.098 OA 
BRANCH  22  23
HETATM   23  C   UNL     1      -6.098   9.921  66.106  1.00  0.00    -0.067 C  
HETATM   24  C   UNL     1      -5.295  10.737  65.110  1.00  0.00    -0.134 C  
ENDBRANCH  22  23
ENDBRANCH  18  22
BRANCH  21  25
HETATM   25  S   UNL     1      -9.212   4.034  64.920  1.00  0.00    -0.162 S  
HETATM   26  O   UNL     1      -8.607   3.527  63.706  1.00  0.00    -0.090 OA 
HETATM   27  O   UNL     1     -10.653   4.065  65.072  1.00  0.00    -0.199 OA 
BRANCH  25  28
HETATM   28  N   UNL     1      -8.600   3.152  66.228  1.00  0.00    -0.113 N  
HETATM   29  C   UNL     1      -7.143   3.111  66.468  1.00  0.00    -0.054 C  
HETATM   30  C   UNL     1      -6.718   4.243  67.411  1.00  0.00    -0.047 C  
HETATM   31  N   UNL     1      -7.432   4.271  68.703  1.00  0.00    -0.059 NA 
HETATM   32  C   UNL     1      -8.890   4.070  68.543  1.00  0.00    -0.107 C  
HETATM   33  C   UNL     1      -6.832   3.325  69.638  1.00  0.00    -0.034 C  
HETATM   34  C   UNL     1      -9.366   3.038  67.492  1.00  0.00    -0.185 C  
ENDBRANCH  25  28
ENDBRANCH  21  25
ENDBRANCH  11  16
ENDBRANCH   3   4
ENDBRANCH   2   3
TORSDOF 7
ENDMDL
MODEL      192
REMARK 921   NORMALIZED FREE ENERGY PREDICTED BY IDOCK:   -3.99 KCAL/MOL
REMARK 922        TOTAL FREE ENERGY PREDICTED BY IDOCK:   -6.97 KCAL/MOL
REMARK 923 INTER-LIGAND FREE ENERGY PREDICTED BY IDOCK:   -5.73 KCAL/MOL
REMARK 924 INTRA-LIGAND FREE ENERGY PREDICTED BY IDOCK:   -1.24 KCAL/MOL
REMARK 927      BINDING AFFINITY PREDICTED BY RF-SCORE:    0.00 PKD
ROOT
HETATM    1  C   UNL     1     -12.372  12.425  64.373  1.00  0.00    -0.532 C  
HETATM    2  C   UNL     1     -12.772  13.760  64.984  1.00  0.00    -0.379 C  
ENDROOT
BRANCH   2   3
HETATM    3  C   UNL     1     -12.396  13.842  66.465  1.00  0.00    -0.447 C  
BRANCH   3   4
HETATM    4  C   UNL     1     -10.963  14.205  66.674  1.00  0.00    -0.303 A  
HETATM    5  N   UNL     1     -10.641  15.505  66.796  1.00  0.00    -0.304 NA 
HETATM    6  N   UNL     1      -9.305  15.504  67.004  1.00  0.00    -0.217 NA 
HETATM    7  C   UNL     1      -8.773  14.254  67.030  1.00  0.00    -0.212 A  
HETATM    8  C   UNL     1      -8.619  16.758  67.205  1.00  0.00    -0.192 C  
HETATM    9  C   UNL     1      -9.808  13.398  66.802  1.00  0.00    -0.265 A  
HETATM   10  N   UNL     1      -9.574  12.076  66.768  1.00  0.00    -0.203 NA 
HETATM   11  C   UNL     1      -8.252  11.672  66.963  1.00  0.00    -0.170 C  
HETATM   12  N   UNL     1      -7.246  12.474  67.195  1.00  0.00    -0.331 N  
HETATM   13  O   UNL     1      -6.500  14.632  67.423  1.00  0.00    -0.306 OA 
HETATM   14  H   UNL     1      -6.318  12.081  67.352  1.00  0.00     0.000 HD 
HETATM   15  C   UNL     1      -7.416  13.845  67.233  1.00  0.00    -0.028 C  
BRANCH  11  16
HETATM   16  C   UNL     1      -7.930  10.188  66.941  1.00  0.00    -0.114 A  
HETATM   17  C   UNL     1      -7.461   8.073  68.040  1.00  0.00    -0.097 A  
HETATM   18  C   UNL     1      -7.768   9.439  68.122  1.00  0.00    -0.083 A  
HETATM   19  C   UNL     1      -7.745   9.558  65.693  1.00  0.00    -0.101 A  
HETATM   20  C   UNL     1      -7.207   7.476  66.805  1.00  0.00    -0.084 A  
HETATM   21  C   UNL     1      -7.303   8.231  65.633  1.00  0.00    -0.072 A  
BRANCH  18  22
HETATM   22  O   UNL     1      -7.970  10.084  69.314  1.00  0.00    -0.105 OA 
BRANCH  22  23
HETATM   23  C   UNL     1      -8.894   9.484  70.223  1.00  0.00    -0.243 C  
HETATM   24  C   UNL     1     -10.271  10.002  69.852  1.00  0.00    -0.304 C  
ENDBRANCH  22  23
ENDBRANCH  18  22
BRANCH  21  25
HETATM   25  S   UNL     1      -6.953   7.437  64.072  1.00  0.00    -0.061 S  
HETATM   26  O   UNL     1      -5.675   7.937  63.611  1.00  0.00    -0.052 OA 
HETATM   27  O   UNL     1      -8.143   7.587  63.260  1.00  0.00    -0.116 OA 
BRANCH  25  28
HETATM   28  N   UNL     1      -6.790   5.787  64.405  1.00  0.00    -0.049 N  
HETATM   29  C   UNL     1      -7.986   4.982  64.726  1.00  0.00    -0.100 C  
HETATM   30  C   UNL     1      -8.582   4.366  63.454  1.00  0.00    -0.114 C  
HETATM   31  N   UNL     1      -7.637   3.555  62.660  1.00  0.00    -0.053 NA 
HETATM   32  C   UNL     1      -6.320   4.215  62.510  1.00  0.00    -0.022 C  
HETATM   33  C   UNL     1      -7.533   2.208  63.211  1.00  0.00    -0.053 C  
HETATM   34  C   UNL     1      -5.749   4.975  63.731  1.00  0.00    -0.017 C  
ENDBRANCH  25  28
ENDBRANCH  21  25
ENDBRANCH  11  16
ENDBRANCH   3   4
ENDBRANCH   2   3
TORSDOF 7
ENDMDL
MODEL      193
REMARK 921   NORMALIZED FREE ENERGY PREDICTED BY IDOCK:   -3.95 KCAL/MOL
REMARK 922        TOTAL FREE ENERGY PREDICTED BY IDOCK:   -6.91 KCAL/MOL
REMARK 923 INTER-LIGAND FREE ENERGY PREDICTED BY IDOCK:   -6.42 KCAL/MOL
REMARK 924 INTRA-LIGAND FREE ENERGY PREDICTED BY IDOCK:   -0.49 KCAL/MOL
REMARK 927      BINDING AFFINITY PREDICTED BY RF-SCORE:    0.00 PKD
ROOT
HETATM    1  C   UNL     1      -9.359   3.344  72.301  1.00  0.00    -0.173 C  
HETATM    2  C   UNL     1      -9.140   3.440  70.797  1.00  0.00    -0.183 C  
ENDROOT
BRANCH   2   3
HETATM    3  C   UNL     1      -9.646   4.768  70.233  1.00  0.00    -0.269 C  
BRANCH   3   4
HETATM    4  C   UNL     1      -8.540   5.644  69.745  1.00  0.00    -0.121 A  
HETATM    5  N   UNL     1      -7.349   5.081  69.471  1.00  0.00    -0.056 NA 
HETATM    6  N   UNL     1      -6.585   6.105  69.029  1.00  0.00    -0.049 NA 
HETATM    7  C   UNL     1      -7.251   7.290  69.000  1.00  0.00    -0.089 A  
HETATM    8  C   UNL     1      -5.226   5.847  68.616  1.00  0.00    -0.007 C  
HETATM    9  C   UNL     1      -8.502   7.031  69.472  1.00  0.00    -0.134 A  
HETATM   10  N   UNL     1      -9.392   8.033  69.561  1.00  0.00    -0.156 NA 
HETATM   11  C   UNL     1      -8.951   9.296  69.163  1.00  0.00    -0.144 C  
HETATM   12  N   UNL     1      -7.760   9.564  68.696  1.00  0.00    -0.080 N  
HETATM   13  O   UNL     1      -5.661   8.793  68.180  1.00  0.00    -0.034 OA 
HETATM   14  H   UNL     1      -7.539  10.517  68.405  1.00  0.00     0.000 HD 
HETATM   15  C   UNL     1      -6.794   8.582  68.588  1.00  0.00    -0.063 C  
BRANCH  11  16
HETATM   16  C   UNL     1      -9.917  10.466  69.236  1.00  0.00    -0.246 A  
HETATM   17  C   UNL     1     -11.975  11.510  69.993  1.00  0.00    -0.435 A  
HETATM   18  C   UNL     1     -11.117  10.401  69.970  1.00  0.00    -0.314 A  
HETATM   19  C   UNL     1      -9.615  11.634  68.506  1.00  0.00    -0.181 A  
HETATM   20  C   UNL     1     -11.705  12.633  69.210  1.00  0.00    -0.379 A  
HETATM   21  C   UNL     1     -10.548  12.676  68.429  1.00  0.00    -0.243 A  
BRANCH  18  22
HETATM   22  O   UNL     1     -11.367   9.255  70.676  1.00  0.00    -0.255 OA 
BRANCH  22  23
HETATM   23  C   UNL     1     -12.345   9.338  71.714  1.00  0.00    -0.379 C  
HETATM   24  C   UNL     1     -11.810   8.535  72.885  1.00  0.00     0.071 C  
ENDBRANCH  22  23
ENDBRANCH  18  22
BRANCH  21  25
HETATM   25  S   UNL     1     -10.245  14.121  67.425  1.00  0.00    -0.245 S  
HETATM   26  O   UNL     1     -11.484  14.867  67.357  1.00  0.00    -0.339 OA 
HETATM   27  O   UNL     1      -9.595  13.653  66.218  1.00  0.00    -0.276 OA 
BRANCH  25  28
HETATM   28  N   UNL     1      -9.109  15.052  68.264  1.00  0.00    -0.177 N  
HETATM   29  C   UNL     1      -7.863  15.472  67.591  1.00  0.00    -0.155 C  
HETATM   30  C   UNL     1      -8.046  16.837  66.916  1.00  0.00    -0.211 C  
HETATM   31  N   UNL     1      -8.511  17.912  67.815  1.00  0.00    -0.238 NA 
HETATM   32  C   UNL     1      -9.613  17.469  68.698  1.00  0.00    -0.303 C  
HETATM   33  C   UNL     1      -7.388  18.478  68.556  1.00  0.00    -0.295 C  
HETATM   34  C   UNL     1      -9.538  16.039  69.284  1.00  0.00    -0.255 C  
ENDBRANCH  25  28
ENDBRANCH  21  25
ENDBRANCH  11  16
ENDBRANCH   3   4
ENDBRANCH   2   3
TORSDOF 7
ENDMDL
MODEL      194
REMARK 921   NORMALIZED FREE ENERGY PREDICTED BY IDOCK:   -3.92 KCAL/MOL
REMARK 922        TOTAL FREE ENERGY PREDICTED BY IDOCK:   -6.87 KCAL/MOL
REMARK 923 INTER-LIGAND FREE ENERGY PREDICTED BY IDOCK:   -5.64 KCAL/MOL
REMARK 924 INTRA-LIGAND FREE ENERGY PREDICTED BY IDOCK:   -1.24 KCAL/MOL
REMARK 927      BINDING AFFINITY PREDICTED BY RF-SCORE:    0.00 PKD
ROOT
HETATM    1  C   UNL     1      -8.267   8.691  62.384  1.00  0.00    -0.182 C  
HETATM    2  C   UNL     1      -8.150   8.369  63.868  1.00  0.00    -0.143 C  
ENDROOT
BRANCH   2   3
HETATM    3  C   UNL     1      -6.965   7.445  64.156  1.00  0.00    -0.057 C  
BRANCH   3   4
HETATM    4  C   UNL     1      -7.329   6.307  65.050  1.00  0.00    -0.078 A  
HETATM    5  N   UNL     1      -7.004   5.059  64.666  1.00  0.00    -0.049 NA 
HETATM    6  N   UNL     1      -7.428   4.272  65.681  1.00  0.00    -0.080 NA 
HETATM    7  C   UNL     1      -7.997   4.975  66.695  1.00  0.00    -0.107 A  
HETATM    8  C   UNL     1      -7.212   2.847  65.608  1.00  0.00    -0.070 C  
HETATM    9  C   UNL     1      -7.967   6.282  66.312  1.00  0.00    -0.110 A  
HETATM   10  N   UNL     1      -8.474   7.219  67.130  1.00  0.00    -0.117 NA 
HETATM   11  C   UNL     1      -9.016   6.768  68.335  1.00  0.00    -0.124 C  
HETATM   12  N   UNL     1      -9.045   5.521  68.727  1.00  0.00    -0.116 N  
HETATM   13  O   UNL     1      -8.578   3.326  68.247  1.00  0.00    -0.085 OA 
HETATM   14  H   UNL     1      -9.440   5.292  69.640  1.00  0.00     0.000 HD 
HETATM   15  C   UNL     1      -8.550   4.507  67.930  1.00  0.00    -0.102 C  
BRANCH  11  16
HETATM   16  C   UNL     1      -9.598   7.784  69.302  1.00  0.00    -0.159 A  
HETATM   17  C   UNL     1     -10.058   8.601  71.542  1.00  0.00    -0.345 A  
HETATM   18  C   UNL     1      -9.493   7.635  70.698  1.00  0.00    -0.163 A  
HETATM   19  C   UNL     1     -10.303   8.886  68.776  1.00  0.00    -0.232 A  
HETATM   20  C   UNL     1     -10.817   9.648  71.016  1.00  0.00    -0.412 A  
HETATM   21  C   UNL     1     -10.979   9.763  69.633  1.00  0.00    -0.241 A  
BRANCH  18  22
HETATM   22  O   UNL     1      -8.789   6.559  71.169  1.00  0.00    -0.137 OA 
BRANCH  22  23
HETATM   23  C   UNL     1      -7.633   6.842  71.960  1.00  0.00    -0.094 C  
HETATM   24  C   UNL     1      -6.516   7.191  70.993  1.00  0.00    -0.044 C  
ENDBRANCH  22  23
ENDBRANCH  18  22
BRANCH  21  25
HETATM   25  S   UNL     1     -11.971  11.104  68.996  1.00  0.00    -0.241 S  
HETATM   26  O   UNL     1     -13.253  11.050  69.668  1.00  0.00     0.136 OA 
HETATM   27  O   UNL     1     -11.890  11.025  67.551  1.00  0.00    -0.571 OA 
BRANCH  25  28
HETATM   28  N   UNL     1     -11.190  12.532  69.454  1.00  0.00    -0.194 N  
HETATM   29  C   UNL     1     -10.364  13.265  68.472  1.00  0.00    -0.239 C  
HETATM   30  C   UNL     1     -11.206  14.310  67.731  1.00  0.00    -0.291 C  
HETATM   31  N   UNL     1     -11.906  15.273  68.606  1.00  0.00    -0.334 NA 
HETATM   32  C   UNL     1     -12.557  14.612  69.759  1.00  0.00    -0.121 C  
HETATM   33  C   UNL     1     -11.004  16.347  69.007  1.00  0.00    -0.325 C  
HETATM   34  C   UNL     1     -11.801  13.449  70.446  1.00  0.00    -0.208 C  
ENDBRANCH  25  28
ENDBRANCH  21  25
ENDBRANCH  11  16
ENDBRANCH   3   4
ENDBRANCH   2   3
TORSDOF 7
ENDMDL
MODEL      195
REMARK 921   NORMALIZED FREE ENERGY PREDICTED BY IDOCK:   -3.92 KCAL/MOL
REMARK 922        TOTAL FREE ENERGY PREDICTED BY IDOCK:   -6.87 KCAL/MOL
REMARK 923 INTER-LIGAND FREE ENERGY PREDICTED BY IDOCK:   -6.53 KCAL/MOL
REMARK 924 INTRA-LIGAND FREE ENERGY PREDICTED BY IDOCK:   -0.34 KCAL/MOL
REMARK 927      BINDING AFFINITY PREDICTED BY RF-SCORE:    0.00 PKD
ROOT
HETATM    1  C   UNL     1      -6.094  20.104  69.993  1.00  0.00    -0.392 C  
HETATM    2  C   UNL     1      -6.849  19.555  68.791  1.00  0.00    -0.357 C  
ENDROOT
BRANCH   2   3
HETATM    3  C   UNL     1      -7.164  18.066  68.951  1.00  0.00    -0.264 C  
BRANCH   3   4
HETATM    4  C   UNL     1      -8.145  17.575  67.939  1.00  0.00    -0.230 A  
HETATM    5  N   UNL     1      -8.908  18.477  67.294  1.00  0.00    -0.267 NA 
HETATM    6  N   UNL     1      -9.653  17.740  66.439  1.00  0.00    -0.355 NA 
HETATM    7  C   UNL     1      -9.380  16.410  66.509  1.00  0.00    -0.273 A  
HETATM    8  C   UNL     1     -10.583  18.404  65.557  1.00  0.00     0.048 C  
HETATM    9  C   UNL     1      -8.431  16.269  67.477  1.00  0.00    -0.169 A  
HETATM   10  N   UNL     1      -7.967  15.043  67.769  1.00  0.00    -0.131 NA 
HETATM   11  C   UNL     1      -8.515  13.981  67.050  1.00  0.00    -0.147 C  
HETATM   12  N   UNL     1      -9.417  14.094  66.110  1.00  0.00    -0.467 N  
HETATM   13  O   UNL     1     -10.806  15.472  64.912  1.00  0.00    -0.427 OA 
HETATM   14  H   UNL     1      -9.738  13.258  65.621  1.00  0.00     0.000 HD 
HETATM   15  C   UNL     1      -9.944  15.324  65.767  1.00  0.00    -0.360 C  
BRANCH  11  16
HETATM   16  C   UNL     1      -8.023  12.572  67.335  1.00  0.00    -0.180 A  
HETATM   17  C   UNL     1      -6.396  11.002  68.223  1.00  0.00    -0.056 A  
HETATM   18  C   UNL     1      -6.804  12.324  67.995  1.00  0.00    -0.082 A  
HETATM   19  C   UNL     1      -8.797  11.484  66.882  1.00  0.00    -0.182 A  
HETATM   20  C   UNL     1      -7.130   9.934  67.706  1.00  0.00    -0.087 A  
HETATM   21  C   UNL     1      -8.308  10.177  66.995  1.00  0.00    -0.125 A  
BRANCH  18  22
HETATM   22  O   UNL     1      -6.088  13.407  68.432  1.00  0.00    -0.077 OA 
BRANCH  22  23
HETATM   23  C   UNL     1      -5.359  13.249  69.650  1.00  0.00    -0.089 C  
HETATM   24  C   UNL     1      -5.776  14.389  70.561  1.00  0.00    -0.158 C  
ENDBRANCH  22  23
ENDBRANCH  18  22
BRANCH  21  25
HETATM   25  S   UNL     1      -9.212   8.787  66.333  1.00  0.00    -0.206 S  
HETATM   26  O   UNL     1      -8.240   7.788  65.939  1.00  0.00    -0.113 OA 
HETATM   27  O   UNL     1     -10.149   9.327  65.370  1.00  0.00    -0.062 OA 
BRANCH  25  28
HETATM   28  N   UNL     1     -10.127   8.164  67.612  1.00  0.00    -0.192 N  
HETATM   29  C   UNL     1     -10.929   6.940  67.412  1.00  0.00    -0.304 C  
HETATM   30  C   UNL     1     -10.114   5.693  67.776  1.00  0.00    -0.171 C  
HETATM   31  N   UNL     1      -9.552   5.699  69.141  1.00  0.00    -0.129 NA 
HETATM   32  C   UNL     1      -8.941   7.001  69.490  1.00  0.00    -0.143 C  
HETATM   33  C   UNL     1     -10.557   5.271  70.108  1.00  0.00    -0.227 C  
HETATM   34  C   UNL     1      -9.658   8.287  69.013  1.00  0.00    -0.156 C  
ENDBRANCH  25  28
ENDBRANCH  21  25
ENDBRANCH  11  16
ENDBRANCH   3   4
ENDBRANCH   2   3
TORSDOF 7
ENDMDL
MODEL      196
REMARK 921   NORMALIZED FREE ENERGY PREDICTED BY IDOCK:   -3.91 KCAL/MOL
REMARK 922        TOTAL FREE ENERGY PREDICTED BY IDOCK:   -6.86 KCAL/MOL
REMARK 923 INTER-LIGAND FREE ENERGY PREDICTED BY IDOCK:   -5.44 KCAL/MOL
REMARK 924 INTRA-LIGAND FREE ENERGY PREDICTED BY IDOCK:   -1.42 KCAL/MOL
REMARK 927      BINDING AFFINITY PREDICTED BY RF-SCORE:    0.00 PKD
ROOT
HETATM    1  C   UNL     1     -12.120  12.167  63.722  1.00  0.00    -0.620 C  
HETATM    2  C   UNL     1     -10.941  11.294  64.130  1.00  0.00    -0.376 C  
ENDROOT
BRANCH   2   3
HETATM    3  C   UNL     1      -9.989  11.043  62.960  1.00  0.00    -0.333 C  
BRANCH   3   4
HETATM    4  C   UNL     1      -8.884  10.104  63.310  1.00  0.00    -0.231 A  
HETATM    5  N   UNL     1      -8.599   9.101  62.460  1.00  0.00    -0.213 NA 
HETATM    6  N   UNL     1      -7.553   8.460  63.030  1.00  0.00    -0.114 NA 
HETATM    7  C   UNL     1      -7.158   9.028  64.200  1.00  0.00    -0.094 A  
HETATM    8  C   UNL     1      -6.967   7.326  62.357  1.00  0.00    -0.069 C  
HETATM    9  C   UNL     1      -8.005  10.072  64.418  1.00  0.00    -0.152 A  
HETATM   10  N   UNL     1      -7.852  10.823  65.521  1.00  0.00    -0.096 NA 
HETATM   11  C   UNL     1      -6.819  10.459  66.386  1.00  0.00    -0.112 C  
HETATM   12  N   UNL     1      -5.988   9.469  66.190  1.00  0.00    -0.061 N  
HETATM   13  O   UNL     1      -5.356   7.700  64.872  1.00  0.00    -0.029 OA 
HETATM   14  H   UNL     1      -5.246   9.296  66.869  1.00  0.00     0.000 HD 
HETATM   15  C   UNL     1      -6.096   8.651  65.082  1.00  0.00    -0.056 C  
BRANCH  11  16
HETATM   16  C   UNL     1      -6.596  11.277  67.646  1.00  0.00    -0.072 A  
HETATM   17  C   UNL     1      -6.438  11.509  70.059  1.00  0.00    -0.067 A  
HETATM   18  C   UNL     1      -6.643  10.702  68.930  1.00  0.00    -0.055 A  
HETATM   19  C   UNL     1      -6.380  12.665  67.518  1.00  0.00    -0.159 A  
HETATM   20  C   UNL     1      -6.299  12.891  69.927  1.00  0.00    -0.029 A  
HETATM   21  C   UNL     1      -6.317  13.475  68.658  1.00  0.00    -0.091 A  
BRANCH  18  22
HETATM   22  O   UNL     1      -6.840   9.349  69.012  1.00  0.00    -0.053 OA 
BRANCH  22  23
HETATM   23  C   UNL     1      -7.852   8.899  69.915  1.00  0.00    -0.092 C  
HETATM   24  C   UNL     1      -7.149   8.516  71.204  1.00  0.00    -0.073 C  
ENDBRANCH  22  23
ENDBRANCH  18  22
BRANCH  21  25
HETATM   25  S   UNL     1      -6.155  15.249  68.529  1.00  0.00    -0.100 S  
HETATM   26  O   UNL     1      -5.421  15.528  67.312  1.00  0.00    -0.341 OA 
HETATM   27  O   UNL     1      -5.664  15.710  69.812  1.00  0.00    -0.119 OA 
BRANCH  25  28
HETATM   28  N   UNL     1      -7.724  15.857  68.356  1.00  0.00    -0.136 N  
HETATM   29  C   UNL     1      -8.237  16.192  67.012  1.00  0.00    -0.216 C  
HETATM   30  C   UNL     1      -8.952  14.987  66.391  1.00  0.00    -0.251 C  
HETATM   31  N   UNL     1     -10.044  14.425  67.212  1.00  0.00    -0.250 NA 
HETATM   32  C   UNL     1      -9.663  14.293  68.636  1.00  0.00    -0.213 C  
HETATM   33  C   UNL     1     -11.270  15.194  67.026  1.00  0.00    -0.308 C  
HETATM   34  C   UNL     1      -8.812  15.423  69.265  1.00  0.00    -0.258 C  
ENDBRANCH  25  28
ENDBRANCH  21  25
ENDBRANCH  11  16
ENDBRANCH   3   4
ENDBRANCH   2   3
TORSDOF 7
ENDMDL
MODEL      197
REMARK 921   NORMALIZED FREE ENERGY PREDICTED BY IDOCK:   -3.90 KCAL/MOL
REMARK 922        TOTAL FREE ENERGY PREDICTED BY IDOCK:   -6.85 KCAL/MOL
REMARK 923 INTER-LIGAND FREE ENERGY PREDICTED BY IDOCK:   -5.92 KCAL/MOL
REMARK 924 INTRA-LIGAND FREE ENERGY PREDICTED BY IDOCK:   -0.93 KCAL/MOL
REMARK 927      BINDING AFFINITY PREDICTED BY RF-SCORE:    0.00 PKD
ROOT
HETATM    1  C   UNL     1     -11.040   4.137  74.137  1.00  0.00    -0.071 C  
HETATM    2  C   UNL     1      -9.953   4.836  73.333  1.00  0.00    -0.184 C  
ENDROOT
BRANCH   2   3
HETATM    3  C   UNL     1      -8.933   3.842  72.774  1.00  0.00    -0.118 C  
BRANCH   3   4
HETATM    4  C   UNL     1      -9.026   3.698  71.291  1.00  0.00    -0.101 A  
HETATM    5  N   UNL     1      -9.203   2.467  70.776  1.00  0.00    -0.119 NA 
HETATM    6  N   UNL     1      -9.280   2.667  69.441  1.00  0.00    -0.124 NA 
HETATM    7  C   UNL     1      -9.171   3.977  69.094  1.00  0.00    -0.152 A  
HETATM    8  C   UNL     1      -9.498   1.539  68.568  1.00  0.00    -0.178 C  
HETATM    9  C   UNL     1      -8.987   4.662  70.257  1.00  0.00    -0.096 A  
HETATM   10  N   UNL     1      -8.841   5.997  70.219  1.00  0.00    -0.142 NA 
HETATM   11  C   UNL     1      -8.880   6.592  68.957  1.00  0.00    -0.128 C  
HETATM   12  N   UNL     1      -9.067   5.956  67.830  1.00  0.00    -0.111 N  
HETATM   13  O   UNL     1      -9.366   3.946  66.765  1.00  0.00    -0.160 OA 
HETATM   14  H   UNL     1      -9.106   6.484  66.958  1.00  0.00     0.000 HD 
HETATM   15  C   UNL     1      -9.213   4.583  67.798  1.00  0.00    -0.131 C  
BRANCH  11  16
HETATM   16  C   UNL     1      -8.727   8.100  68.854  1.00  0.00    -0.137 A  
HETATM   17  C   UNL     1      -7.685  10.202  69.481  1.00  0.00    -0.155 A  
HETATM   18  C   UNL     1      -7.774   8.809  69.610  1.00  0.00    -0.088 A  
HETATM   19  C   UNL     1      -9.601   8.808  68.004  1.00  0.00    -0.160 A  
HETATM   20  C   UNL     1      -8.602  10.903  68.695  1.00  0.00    -0.153 A  
HETATM   21  C   UNL     1      -9.591  10.208  67.994  1.00  0.00    -0.145 A  
BRANCH  18  22
HETATM   22  O   UNL     1      -6.934   8.084  70.413  1.00  0.00    -0.041 OA 
BRANCH  22  23
HETATM   23  C   UNL     1      -6.497   8.709  71.621  1.00  0.00    -0.072 C  
HETATM   24  C   UNL     1      -7.452   8.265  72.714  1.00  0.00    -0.152 C  
ENDBRANCH  22  23
ENDBRANCH  18  22
BRANCH  21  25
HETATM   25  S   UNL     1     -10.758  11.139  67.013  1.00  0.00    -0.279 S  
HETATM   26  O   UNL     1     -12.026  11.113  67.712  1.00  0.00    -0.630 OA 
HETATM   27  O   UNL     1     -10.649  10.636  65.659  1.00  0.00    -0.204 OA 
BRANCH  25  28
HETATM   28  N   UNL     1     -10.194  12.733  66.991  1.00  0.00    -0.240 N  
HETATM   29  C   UNL     1      -9.515  13.255  65.787  1.00  0.00     0.053 C  
HETATM   30  C   UNL     1     -10.525  13.910  64.838  1.00  0.00    -0.426 C  
HETATM   31  N   UNL     1     -11.343  14.977  65.447  1.00  0.00    -0.346 NA 
HETATM   32  C   UNL     1     -11.857  14.598  66.782  1.00  0.00    -0.317 C  
HETATM   33  C   UNL     1     -10.607  16.237  65.463  1.00  0.00    -0.353 C  
HETATM   34  C   UNL     1     -10.915  13.804  67.720  1.00  0.00    -0.256 C  
ENDBRANCH  25  28
ENDBRANCH  21  25
ENDBRANCH  11  16
ENDBRANCH   3   4
ENDBRANCH   2   3
TORSDOF 7
ENDMDL
MODEL      198
REMARK 921   NORMALIZED FREE ENERGY PREDICTED BY IDOCK:   -3.89 KCAL/MOL
REMARK 922        TOTAL FREE ENERGY PREDICTED BY IDOCK:   -6.83 KCAL/MOL
REMARK 923 INTER-LIGAND FREE ENERGY PREDICTED BY IDOCK:   -5.80 KCAL/MOL
REMARK 924 INTRA-LIGAND FREE ENERGY PREDICTED BY IDOCK:   -1.04 KCAL/MOL
REMARK 927      BINDING AFFINITY PREDICTED BY RF-SCORE:    0.00 PKD
ROOT
HETATM    1  C   UNL     1      -5.975  14.801  67.845  1.00  0.00    -0.157 C  
HETATM    2  C   UNL     1      -6.324  13.374  68.245  1.00  0.00    -0.102 C  
ENDROOT
BRANCH   2   3
HETATM    3  C   UNL     1      -5.381  12.357  67.599  1.00  0.00    -0.103 C  
BRANCH   3   4
HETATM    4  C   UNL     1      -6.093  11.412  66.689  1.00  0.00    -0.140 A  
HETATM    5  N   UNL     1      -5.558  11.159  65.481  1.00  0.00    -0.161 NA 
HETATM    6  N   UNL     1      -6.399  10.260  64.920  1.00  0.00    -0.130 NA 
HETATM    7  C   UNL     1      -7.437   9.927  65.732  1.00  0.00    -0.110 A  
HETATM    8  C   UNL     1      -6.107   9.743  63.605  1.00  0.00    -0.114 C  
HETATM    9  C   UNL     1      -7.280  10.664  66.867  1.00  0.00    -0.110 A  
HETATM   10  N   UNL     1      -8.177  10.542  67.860  1.00  0.00    -0.107 NA 
HETATM   11  C   UNL     1      -9.232   9.655  67.642  1.00  0.00    -0.130 C  
HETATM   12  N   UNL     1      -9.395   8.930  66.566  1.00  0.00    -0.179 N  
HETATM   13  O   UNL     1      -8.644   8.373  64.471  1.00  0.00    -0.114 OA 
HETATM   14  H   UNL     1     -10.187   8.288  66.511  1.00  0.00     0.000 HD 
HETATM   15  C   UNL     1      -8.516   9.015  65.504  1.00  0.00    -0.144 C  
BRANCH  11  16
HETATM   16  C   UNL     1     -10.272   9.472  68.733  1.00  0.00    -0.215 A  
HETATM   17  C   UNL     1     -12.063  10.291  70.156  1.00  0.00    -0.279 A  
HETATM   18  C   UNL     1     -11.128  10.515  69.135  1.00  0.00    -0.250 A  
HETATM   19  C   UNL     1     -10.346   8.226  69.390  1.00  0.00    -0.223 A  
HETATM   20  C   UNL     1     -12.078   9.080  70.850  1.00  0.00    -0.247 A  
HETATM   21  C   UNL     1     -11.187   8.064  70.498  1.00  0.00    -0.250 A  
BRANCH  18  22
HETATM   22  O   UNL     1     -11.035  11.705  68.463  1.00  0.00    -0.193 OA 
BRANCH  22  23
HETATM   23  C   UNL     1     -11.723  12.821  69.031  1.00  0.00    -0.323 C  
HETATM   24  C   UNL     1     -10.828  14.031  68.837  1.00  0.00    -0.278 C  
ENDBRANCH  22  23
ENDBRANCH  18  22
BRANCH  21  25
HETATM   25  S   UNL     1     -11.223   6.535  71.420  1.00  0.00    -0.296 S  
HETATM   26  O   UNL     1     -10.966   5.460  70.485  1.00  0.00    -0.197 OA 
HETATM   27  O   UNL     1     -12.441   6.558  72.205  1.00  0.00    -0.285 OA 
BRANCH  25  28
HETATM   28  N   UNL     1      -9.934   6.609  72.513  1.00  0.00    -0.169 N  
HETATM   29  C   UNL     1     -10.108   6.100  73.889  1.00  0.00    -0.257 C  
HETATM   30  C   UNL     1      -9.709   4.622  73.972  1.00  0.00    -0.138 C  
HETATM   31  N   UNL     1      -8.341   4.324  73.503  1.00  0.00    -0.093 NA 
HETATM   32  C   UNL     1      -8.021   5.014  72.233  1.00  0.00    -0.108 C  
HETATM   33  C   UNL     1      -7.369   4.601  74.555  1.00  0.00    -0.077 C  
HETATM   34  C   UNL     1      -8.534   6.462  72.048  1.00  0.00    -0.115 C  
ENDBRANCH  25  28
ENDBRANCH  21  25
ENDBRANCH  11  16
ENDBRANCH   3   4
ENDBRANCH   2   3
TORSDOF 7
ENDMDL
MODEL      199
REMARK 921   NORMALIZED FREE ENERGY PREDICTED BY IDOCK:   -3.88 KCAL/MOL
REMARK 922        TOTAL FREE ENERGY PREDICTED BY IDOCK:   -6.82 KCAL/MOL
REMARK 923 INTER-LIGAND FREE ENERGY PREDICTED BY IDOCK:   -5.57 KCAL/MOL
REMARK 924 INTRA-LIGAND FREE ENERGY PREDICTED BY IDOCK:   -1.25 KCAL/MOL
REMARK 927      BINDING AFFINITY PREDICTED BY RF-SCORE:    0.00 PKD
ROOT
HETATM    1  C   UNL     1      -6.809   3.580  74.171  1.00  0.00    -0.045 C  
HETATM    2  C   UNL     1      -7.108   2.643  73.009  1.00  0.00    -0.032 C  
ENDROOT
BRANCH   2   3
HETATM    3  C   UNL     1      -7.429   3.413  71.727  1.00  0.00    -0.052 C  
BRANCH   3   4
HETATM    4  C   UNL     1      -8.667   4.238  71.848  1.00  0.00    -0.111 A  
HETATM    5  N   UNL     1      -9.686   3.762  72.587  1.00  0.00    -0.137 NA 
HETATM    6  N   UNL     1     -10.627   4.732  72.529  1.00  0.00    -0.209 NA 
HETATM    7  C   UNL     1     -10.237   5.806  71.793  1.00  0.00    -0.197 A  
HETATM    8  C   UNL     1     -11.867   4.558  73.247  1.00  0.00     0.043 C  
HETATM    9  C   UNL     1      -8.992   5.511  71.325  1.00  0.00    -0.142 A  
HETATM   10  N   UNL     1      -8.351   6.404  70.552  1.00  0.00    -0.128 NA 
HETATM   11  C   UNL     1      -9.034   7.589  70.271  1.00  0.00    -0.147 C  
HETATM   12  N   UNL     1     -10.222   7.897  70.719  1.00  0.00    -0.194 N  
HETATM   13  O   UNL     1     -12.063   7.257  71.930  1.00  0.00    -0.296 OA 
HETATM   14  H   UNL     1     -10.629   8.802  70.480  1.00  0.00     0.000 HD 
HETATM   15  C   UNL     1     -10.940   7.020  71.510  1.00  0.00    -0.234 C  
BRANCH  11  16
HETATM   16  C   UNL     1      -8.355   8.637  69.407  1.00  0.00    -0.114 A  
HETATM   17  C   UNL     1      -6.925  10.577  69.104  1.00  0.00    -0.080 A  
HETATM   18  C   UNL     1      -7.517   9.629  69.951  1.00  0.00    -0.127 A  
HETATM   19  C   UNL     1      -8.613   8.635  68.020  1.00  0.00    -0.137 A  
HETATM   20  C   UNL     1      -7.244  10.613  67.746  1.00  0.00    -0.088 A  
HETATM   21  C   UNL     1      -8.126   9.670  67.213  1.00  0.00    -0.110 A  
BRANCH  18  22
HETATM   22  O   UNL     1      -7.280   9.589  71.299  1.00  0.00    -0.325 OA 
BRANCH  22  23
HETATM   23  C   UNL     1      -5.989   9.141  71.714  1.00  0.00    -0.067 C  
HETATM   24  C   UNL     1      -6.195   8.303  72.962  1.00  0.00    -0.088 C  
ENDBRANCH  22  23
ENDBRANCH  18  22
BRANCH  21  25
HETATM   25  S   UNL     1      -8.525   9.758  65.474  1.00  0.00    -0.150 S  
HETATM   26  O   UNL     1      -8.697   8.401  65.001  1.00  0.00    -0.154 OA 
HETATM   27  O   UNL     1      -7.540  10.633  64.871  1.00  0.00    -0.056 OA 
BRANCH  25  28
HETATM   28  N   UNL     1     -10.015  10.551  65.369  1.00  0.00    -0.270 N  
HETATM   29  C   UNL     1     -10.461  11.426  66.473  1.00  0.00    -0.249 C  
HETATM   30  C   UNL     1     -10.007  12.871  66.234  1.00  0.00    -0.270 C  
HETATM   31  N   UNL     1     -10.434  13.447  64.943  1.00  0.00    -0.372 NA 
HETATM   32  C   UNL     1     -10.234  12.507  63.817  1.00  0.00    -0.333 C  
HETATM   33  C   UNL     1     -11.805  13.938  65.032  1.00  0.00    -0.373 C  
HETATM   34  C   UNL     1     -10.541  11.010  64.061  1.00  0.00    -0.324 C  
ENDBRANCH  25  28
ENDBRANCH  21  25
ENDBRANCH  11  16
ENDBRANCH   3   4
ENDBRANCH   2   3
TORSDOF 7
ENDMDL
MODEL      200
REMARK 921   NORMALIZED FREE ENERGY PREDICTED BY IDOCK:   -3.87 KCAL/MOL
REMARK 922        TOTAL FREE ENERGY PREDICTED BY IDOCK:   -6.80 KCAL/MOL
REMARK 923 INTER-LIGAND FREE ENERGY PREDICTED BY IDOCK:   -7.56 KCAL/MOL
REMARK 924 INTRA-LIGAND FREE ENERGY PREDICTED BY IDOCK:    0.77 KCAL/MOL
REMARK 927      BINDING AFFINITY PREDICTED BY RF-SCORE:    0.00 PKD
ROOT
HETATM    1  C   UNL     1      -5.705  20.080  71.936  1.00  0.00    -0.357 C  
HETATM    2  C   UNL     1      -6.026  20.304  70.465  1.00  0.00    -0.365 C  
ENDROOT
BRANCH   2   3
HETATM    3  C   UNL     1      -6.025  18.992  69.678  1.00  0.00    -0.281 C  
BRANCH   3   4
HETATM    4  C   UNL     1      -7.172  18.893  68.728  1.00  0.00    -0.318 A  
HETATM    5  N   UNL     1      -7.674  20.027  68.207  1.00  0.00    -0.259 NA 
HETATM    6  N   UNL     1      -8.658  19.611  67.377  1.00  0.00    -0.296 NA 
HETATM    7  C   UNL     1      -8.788  18.259  67.345  1.00  0.00    -0.253 A  
HETATM    8  C   UNL     1      -9.405  20.587  66.621  1.00  0.00    -0.191 C  
HETATM    9  C   UNL     1      -7.862  17.769  68.216  1.00  0.00    -0.279 A  
HETATM   10  N   UNL     1      -7.763  16.442  68.394  1.00  0.00    -0.169 NA 
HETATM   11  C   UNL     1      -8.648  15.647  67.663  1.00  0.00    -0.167 C  
HETATM   12  N   UNL     1      -9.535  16.094  66.814  1.00  0.00    -0.227 N  
HETATM   13  O   UNL     1     -10.529  17.911  65.824  1.00  0.00    -0.564 OA 
HETATM   14  H   UNL     1     -10.121  15.431  66.305  1.00  0.00     0.000 HD 
HETATM   15  C   UNL     1      -9.696  17.448  66.591  1.00  0.00    -0.290 C  
BRANCH  11  16
HETATM   16  C   UNL     1      -8.577  14.138  67.820  1.00  0.00    -0.184 A  
HETATM   17  C   UNL     1      -7.427  12.094  68.452  1.00  0.00    -0.114 A  
HETATM   18  C   UNL     1      -7.439  13.491  68.338  1.00  0.00    -0.124 A  
HETATM   19  C   UNL     1      -9.675  13.365  67.389  1.00  0.00    -0.221 A  
HETATM   20  C   UNL     1      -8.487  11.333  67.955  1.00  0.00    -0.138 A  
HETATM   21  C   UNL     1      -9.591  11.967  67.381  1.00  0.00    -0.176 A  
BRANCH  18  22
HETATM   22  O   UNL     1      -6.400  14.278  68.759  1.00  0.00    -0.080 OA 
BRANCH  22  23
HETATM   23  C   UNL     1      -6.323  14.551  70.159  1.00  0.00    -0.168 C  
HETATM   24  C   UNL     1      -5.152  13.750  70.698  1.00  0.00    -0.106 C  
ENDBRANCH  22  23
ENDBRANCH  18  22
BRANCH  21  25
HETATM   25  S   UNL     1     -10.919  10.960  66.739  1.00  0.00    -0.118 S  
HETATM   26  O   UNL     1     -11.971  10.948  67.734  1.00  0.00    -0.553 OA 
HETATM   27  O   UNL     1     -10.314   9.724  66.286  1.00  0.00    -0.235 OA 
BRANCH  25  28
HETATM   28  N   UNL     1     -11.496  11.756  65.363  1.00  0.00    -0.234 N  
HETATM   29  C   UNL     1     -12.764  12.511  65.430  1.00  0.00     0.124 C  
HETATM   30  C   UNL     1     -12.503  13.974  65.807  1.00  0.00    -0.494 C  
HETATM   31  N   UNL     1     -11.553  14.680  64.924  1.00  0.00    -0.388 NA 
HETATM   32  C   UNL     1     -10.357  13.862  64.621  1.00  0.00    -0.339 C  
HETATM   33  C   UNL     1     -12.230  15.155  63.722  1.00  0.00     0.337 C  
HETATM   34  C   UNL     1     -10.559  12.347  64.378  1.00  0.00    -0.337 C  
ENDBRANCH  25  28
ENDBRANCH  21  25
ENDBRANCH  11  16
ENDBRANCH   3   4
ENDBRANCH   2   3
TORSDOF 7
ENDMDL
MODEL      201
REMARK 921   NORMALIZED FREE ENERGY PREDICTED BY IDOCK:   -3.86 KCAL/MOL
REMARK 922        TOTAL FREE ENERGY PREDICTED BY IDOCK:   -6.79 KCAL/MOL
REMARK 923 INTER-LIGAND FREE ENERGY PREDICTED BY IDOCK:   -5.61 KCAL/MOL
REMARK 924 INTRA-LIGAND FREE ENERGY PREDICTED BY IDOCK:   -1.18 KCAL/MOL
REMARK 927      BINDING AFFINITY PREDICTED BY RF-SCORE:    0.00 PKD
ROOT
HETATM    1  C   UNL     1      -5.672   1.970  70.230  1.00  0.00    -0.017 C  
HETATM    2  C   UNL     1      -6.648   2.961  69.611  1.00  0.00    -0.033 C  
ENDROOT
BRANCH   2   3
HETATM    3  C   UNL     1      -5.947   4.245  69.164  1.00  0.00    -0.023 C  
BRANCH   3   4
HETATM    4  C   UNL     1      -6.413   4.718  67.828  1.00  0.00    -0.045 A  
HETATM    5  N   UNL     1      -6.067   4.009  66.739  1.00  0.00    -0.027 NA 
HETATM    6  N   UNL     1      -6.656   4.660  65.710  1.00  0.00    -0.043 NA 
HETATM    7  C   UNL     1      -7.371   5.745  66.109  1.00  0.00    -0.078 A  
HETATM    8  C   UNL     1      -6.509   4.145  64.369  1.00  0.00    -0.042 C  
HETATM    9  C   UNL     1      -7.218   5.821  67.460  1.00  0.00    -0.076 A  
HETATM   10  N   UNL     1      -7.821   6.814  68.135  1.00  0.00    -0.112 NA 
HETATM   11  C   UNL     1      -8.565   7.721  67.378  1.00  0.00    -0.125 C  
HETATM   12  N   UNL     1      -8.734   7.659  66.083  1.00  0.00    -0.150 N  
HETATM   13  O   UNL     1      -8.246   6.589  64.113  1.00  0.00    -0.081 OA 
HETATM   14  H   UNL     1      -9.320   8.356  65.621  1.00  0.00     0.000 HD 
HETATM   15  C   UNL     1      -8.134   6.670  65.328  1.00  0.00    -0.130 C  
BRANCH  11  16
HETATM   16  C   UNL     1      -9.273   8.861  68.089  1.00  0.00    -0.145 A  
HETATM   17  C   UNL     1     -11.015   9.741  69.535  1.00  0.00    -0.256 A  
HETATM   18  C   UNL     1     -10.396   8.648  68.911  1.00  0.00    -0.211 A  
HETATM   19  C   UNL     1      -8.810  10.176  67.878  1.00  0.00    -0.125 A  
HETATM   20  C   UNL     1     -10.597  11.044  69.263  1.00  0.00    -0.236 A  
HETATM   21  C   UNL     1      -9.523  11.264  68.396  1.00  0.00    -0.192 A  
BRANCH  18  22
HETATM   22  O   UNL     1     -10.806   7.355  69.103  1.00  0.00    -0.199 OA 
BRANCH  22  23
HETATM   23  C   UNL     1     -10.767   6.858  70.441  1.00  0.00    -0.246 C  
HETATM   24  C   UNL     1     -10.494   5.369  70.347  1.00  0.00    -0.345 C  
ENDBRANCH  22  23
ENDBRANCH  18  22
BRANCH  21  25
HETATM   25  S   UNL     1      -9.028  12.946  68.056  1.00  0.00    -0.200 S  
HETATM   26  O   UNL     1      -7.581  12.986  68.090  1.00  0.00    -0.113 OA 
HETATM   27  O   UNL     1      -9.813  13.790  68.933  1.00  0.00    -0.137 OA 
BRANCH  25  28
HETATM   28  N   UNL     1      -9.532  13.279  66.476  1.00  0.00    -0.259 N  
HETATM   29  C   UNL     1     -10.464  12.358  65.793  1.00  0.00    -0.259 C  
HETATM   30  C   UNL     1     -11.917  12.783  66.032  1.00  0.00    -0.432 C  
HETATM   31  N   UNL     1     -12.224  14.175  65.647  1.00  0.00    -0.422 NA 
HETATM   32  C   UNL     1     -11.185  15.126  66.100  1.00  0.00    -0.271 C  
HETATM   33  C   UNL     1     -12.481  14.262  64.213  1.00  0.00    -0.272 C  
HETATM   34  C   UNL     1      -9.706  14.676  66.012  1.00  0.00    -0.312 C  
ENDBRANCH  25  28
ENDBRANCH  21  25
ENDBRANCH  11  16
ENDBRANCH   3   4
ENDBRANCH   2   3
TORSDOF 7
ENDMDL
MODEL      202
REMARK 921   NORMALIZED FREE ENERGY PREDICTED BY IDOCK:   -3.81 KCAL/MOL
REMARK 922        TOTAL FREE ENERGY PREDICTED BY IDOCK:   -6.71 KCAL/MOL
REMARK 923 INTER-LIGAND FREE ENERGY PREDICTED BY IDOCK:   -5.73 KCAL/MOL
REMARK 924 INTRA-LIGAND FREE ENERGY PREDICTED BY IDOCK:   -0.98 KCAL/MOL
REMARK 927      BINDING AFFINITY PREDICTED BY RF-SCORE:    0.00 PKD
ROOT
HETATM    1  C   UNL     1     -12.306  14.180  64.178  1.00  0.00    -0.372 C  
HETATM    2  C   UNL     1     -12.420  12.664  64.258  1.00  0.00    -0.494 C  
ENDROOT
BRANCH   2   3
HETATM    3  C   UNL     1     -11.654  11.976  63.127  1.00  0.00    -0.265 C  
BRANCH   3   4
HETATM    4  C   UNL     1     -10.437  11.260  63.610  1.00  0.00    -0.405 A  
HETATM    5  N   UNL     1     -10.030  10.165  62.943  1.00  0.00     0.106 NA 
HETATM    6  N   UNL     1      -8.909   9.772  63.590  1.00  0.00    -0.222 NA 
HETATM    7  C   UNL     1      -8.586  10.584  64.631  1.00  0.00    -0.161 A  
HETATM    8  C   UNL     1      -8.185   8.618  63.114  1.00  0.00    -0.170 C  
HETATM    9  C   UNL     1      -9.558  11.537  64.683  1.00  0.00    -0.162 A  
HETATM   10  N   UNL     1      -9.499  12.487  65.631  1.00  0.00    -0.084 NA 
HETATM   11  C   UNL     1      -8.425  12.414  66.519  1.00  0.00     0.058 C  
HETATM   12  N   UNL     1      -7.476  11.517  66.481  1.00  0.00    -0.327 N  
HETATM   13  O   UNL     1      -6.628   9.633  65.481  1.00  0.00    -0.073 OA 
HETATM   14  H   UNL     1      -6.715  11.563  67.160  1.00  0.00     0.000 HD 
HETATM   15  C   UNL     1      -7.482  10.507  65.538  1.00  0.00    -0.111 C  
BRANCH  11  16
HETATM   16  C   UNL     1      -8.304  13.466  67.608  1.00  0.00    -0.179 A  
HETATM   17  C   UNL     1      -7.331  14.338  69.656  1.00  0.00     0.110 A  
HETATM   18  C   UNL     1      -7.392  13.340  68.674  1.00  0.00    -0.101 A  
HETATM   19  C   UNL     1      -9.168  14.580  67.567  1.00  0.00    -0.194 A  
HETATM   20  C   UNL     1      -8.239  15.398  69.648  1.00  0.00    -0.127 A  
HETATM   21  C   UNL     1      -9.190  15.493  68.628  1.00  0.00    -0.202 A  
BRANCH  18  22
HETATM   22  O   UNL     1      -6.560  12.252  68.670  1.00  0.00    -0.067 OA 
BRANCH  22  23
HETATM   23  C   UNL     1      -6.175  11.730  69.943  1.00  0.00    -0.141 C  
HETATM   24  C   UNL     1      -5.228  10.575  69.675  1.00  0.00    -0.038 C  
ENDBRANCH  22  23
ENDBRANCH  18  22
BRANCH  21  25
HETATM   25  S   UNL     1     -10.348  16.852  68.661  1.00  0.00    -0.353 S  
HETATM   26  O   UNL     1     -10.761  17.100  67.296  1.00  0.00    -0.302 OA 
HETATM   27  O   UNL     1      -9.730  17.898  69.450  1.00  0.00    -0.042 OA 
BRANCH  25  28
HETATM   28  N   UNL     1     -11.692  16.309  69.533  1.00  0.00    -0.189 N  
HETATM   29  C   UNL     1     -12.527  15.218  68.991  1.00  0.00     0.114 C  
HETATM   30  C   UNL     1     -12.025  13.856  69.486  1.00  0.00    -0.343 C  
HETATM   31  N   UNL     1     -11.934  13.728  70.954  1.00  0.00    -0.271 NA 
HETATM   32  C   UNL     1     -11.317  14.917  71.584  1.00  0.00    -0.135 C  
HETATM   33  C   UNL     1     -13.239  13.403  71.520  1.00  0.00    -0.312 C  
HETATM   34  C   UNL     1     -11.686  16.308  71.016  1.00  0.00    -0.277 C  
ENDBRANCH  25  28
ENDBRANCH  21  25
ENDBRANCH  11  16
ENDBRANCH   3   4
ENDBRANCH   2   3
TORSDOF 7
ENDMDL
MODEL      203
REMARK 921   NORMALIZED FREE ENERGY PREDICTED BY IDOCK:   -3.80 KCAL/MOL
REMARK 922        TOTAL FREE ENERGY PREDICTED BY IDOCK:   -6.70 KCAL/MOL
REMARK 923 INTER-LIGAND FREE ENERGY PREDICTED BY IDOCK:   -5.55 KCAL/MOL
REMARK 924 INTRA-LIGAND FREE ENERGY PREDICTED BY IDOCK:   -1.15 KCAL/MOL
REMARK 927      BINDING AFFINITY PREDICTED BY RF-SCORE:    0.00 PKD
ROOT
HETATM    1  C   UNL     1      -6.948  15.084  67.350  1.00  0.00    -0.184 C  
HETATM    2  C   UNL     1      -8.181  15.040  68.241  1.00  0.00    -0.146 C  
ENDROOT
BRANCH   2   3
HETATM    3  C   UNL     1      -9.368  14.380  67.535  1.00  0.00    -0.198 C  
BRANCH   3   4
HETATM    4  C   UNL     1     -10.344  13.780  68.492  1.00  0.00    -0.244 A  
HETATM    5  N   UNL     1     -11.341  14.553  68.960  1.00  0.00    -0.257 NA 
HETATM    6  N   UNL     1     -12.058  13.731  69.760  1.00  0.00    -0.335 NA 
HETATM    7  C   UNL     1     -11.559  12.467  69.805  1.00  0.00    -0.221 A  
HETATM    8  C   UNL     1     -13.238  14.237  70.418  1.00  0.00     0.113 C  
HETATM    9  C   UNL     1     -10.448  12.472  69.018  1.00  0.00     0.010 A  
HETATM   10  N   UNL     1      -9.737  11.340  68.876  1.00  0.00    -0.170 NA 
HETATM   11  C   UNL     1     -10.199  10.223  69.574  1.00  0.00    -0.236 C  
HETATM   12  N   UNL     1     -11.269  10.194  70.325  1.00  0.00    -0.296 N  
HETATM   13  O   UNL     1     -13.032  11.347  71.233  1.00  0.00    -0.385 OA 
HETATM   14  H   UNL     1     -11.541   9.319  70.775  1.00  0.00     0.000 HD 
HETATM   15  C   UNL     1     -12.038  11.324  70.521  1.00  0.00    -0.387 C  
BRANCH  11  16
HETATM   16  C   UNL     1      -9.438   8.915  69.446  1.00  0.00    -0.161 A  
HETATM   17  C   UNL     1      -8.142   7.082  70.375  1.00  0.00    -0.119 A  
HETATM   18  C   UNL     1      -8.840   8.285  70.555  1.00  0.00    -0.145 A  
HETATM   19  C   UNL     1      -9.292   8.343  68.166  1.00  0.00    -0.141 A  
HETATM   20  C   UNL     1      -7.940   6.563  69.095  1.00  0.00    -0.111 A  
HETATM   21  C   UNL     1      -8.476   7.220  67.985  1.00  0.00    -0.123 A  
BRANCH  18  22
HETATM   22  O   UNL     1      -9.016   8.863  71.784  1.00  0.00    -0.297 OA 
BRANCH  22  23
HETATM   23  C   UNL     1      -9.699   8.087  72.770  1.00  0.00    -0.280 C  
HETATM   24  C   UNL     1      -8.783   8.011  73.978  1.00  0.00    -0.265 C  
ENDBRANCH  22  23
ENDBRANCH  18  22
BRANCH  21  25
HETATM   25  S   UNL     1      -8.182   6.537  66.362  1.00  0.00    -0.121 S  
HETATM   26  O   UNL     1      -9.328   5.721  66.022  1.00  0.00    -0.161 OA 
HETATM   27  O   UNL     1      -6.850   5.966  66.392  1.00  0.00    -0.056 OA 
BRANCH  25  28
HETATM   28  N   UNL     1      -8.128   7.850  65.297  1.00  0.00    -0.129 N  
HETATM   29  C   UNL     1      -7.489   9.113  65.720  1.00  0.00    -0.090 C  
HETATM   30  C   UNL     1      -6.004   9.121  65.340  1.00  0.00    -0.058 C  
HETATM   31  N   UNL     1      -5.731   8.884  63.908  1.00  0.00    -0.070 NA 
HETATM   32  C   UNL     1      -6.537   7.769  63.361  1.00  0.00    -0.066 C  
HETATM   33  C   UNL     1      -5.888  10.119  63.147  1.00  0.00    -0.134 C  
HETATM   34  C   UNL     1      -8.004   7.638  63.834  1.00  0.00    -0.091 C  
ENDBRANCH  25  28
ENDBRANCH  21  25
ENDBRANCH  11  16
ENDBRANCH   3   4
ENDBRANCH   2   3
TORSDOF 7
ENDMDL
MODEL      204
REMARK 921   NORMALIZED FREE ENERGY PREDICTED BY IDOCK:   -3.79 KCAL/MOL
REMARK 922        TOTAL FREE ENERGY PREDICTED BY IDOCK:   -6.69 KCAL/MOL
REMARK 923 INTER-LIGAND FREE ENERGY PREDICTED BY IDOCK:   -5.92 KCAL/MOL
REMARK 924 INTRA-LIGAND FREE ENERGY PREDICTED BY IDOCK:   -0.77 KCAL/MOL
REMARK 927      BINDING AFFINITY PREDICTED BY RF-SCORE:    0.00 PKD
ROOT
HETATM    1  C   UNL     1      -9.483   3.836  69.094  1.00  0.00    -0.242 C  
HETATM    2  C   UNL     1      -9.678   5.224  68.500  1.00  0.00    -0.194 C  
ENDROOT
BRANCH   2   3
HETATM    3  C   UNL     1      -8.346   5.952  68.308  1.00  0.00    -0.112 C  
BRANCH   3   4
HETATM    4  C   UNL     1      -8.234   6.601  66.969  1.00  0.00    -0.113 A  
HETATM    5  N   UNL     1      -8.130   5.815  65.882  1.00  0.00    -0.108 NA 
HETATM    6  N   UNL     1      -8.080   6.680  64.843  1.00  0.00    -0.127 NA 
HETATM    7  C   UNL     1      -8.162   7.980  65.231  1.00  0.00    -0.146 A  
HETATM    8  C   UNL     1      -7.990   6.165  63.498  1.00  0.00    -0.100 C  
HETATM    9  C   UNL     1      -8.241   7.964  66.591  1.00  0.00    -0.119 A  
HETATM   10  N   UNL     1      -8.329   9.126  67.259  1.00  0.00    -0.120 NA 
HETATM   11  C   UNL     1      -8.321  10.290  66.488  1.00  0.00    -0.126 C  
HETATM   12  N   UNL     1      -8.257  10.328  65.183  1.00  0.00    -0.158 N  
HETATM   13  O   UNL     1      -8.069   9.161  63.217  1.00  0.00    -0.146 OA 
HETATM   14  H   UNL     1      -8.284  11.230  64.707  1.00  0.00     0.000 HD 
HETATM   15  C   UNL     1      -8.154   9.170  64.436  1.00  0.00    -0.145 C  
BRANCH  11  16
HETATM   16  C   UNL     1      -8.424  11.633  67.190  1.00  0.00    -0.162 A  
HETATM   17  C   UNL     1      -7.646  13.289  68.787  1.00  0.00    -0.043 A  
HETATM   18  C   UNL     1      -7.494  12.042  68.166  1.00  0.00    -0.112 A  
HETATM   19  C   UNL     1      -9.514  12.472  66.880  1.00  0.00    -0.219 A  
HETATM   20  C   UNL     1      -8.766  14.080  68.529  1.00  0.00    -0.156 A  
HETATM   21  C   UNL     1      -9.725  13.649  67.609  1.00  0.00    -0.228 A  
BRANCH  18  22
HETATM   22  O   UNL     1      -6.442  11.205  68.429  1.00  0.00    -0.055 OA 
BRANCH  22  23
HETATM   23  C   UNL     1      -6.060  11.060  69.797  1.00  0.00    -0.097 C  
HETATM   24  C   UNL     1      -6.856   9.894  70.353  1.00  0.00    -0.141 C  
ENDBRANCH  22  23
ENDBRANCH  18  22
BRANCH  21  25
HETATM   25  S   UNL     1     -11.155  14.678  67.317  1.00  0.00    -0.339 S  
HETATM   26  O   UNL     1     -11.681  15.064  68.610  1.00  0.00    -0.329 OA 
HETATM   27  O   UNL     1     -11.984  13.969  66.363  1.00  0.00    -0.396 OA 
BRANCH  25  28
HETATM   28  N   UNL     1     -10.589  16.067  66.536  1.00  0.00    -0.305 N  
HETATM   29  C   UNL     1     -10.852  17.397  67.123  1.00  0.00    -0.090 C  
HETATM   30  C   UNL     1      -9.709  17.813  68.056  1.00  0.00    -0.304 C  
HETATM   31  N   UNL     1      -8.369  17.801  67.436  1.00  0.00    -0.220 NA 
HETATM   32  C   UNL     1      -8.137  16.585  66.624  1.00  0.00    -0.278 C  
HETATM   33  C   UNL     1      -8.144  19.032  66.684  1.00  0.00    -0.274 C  
HETATM   34  C   UNL     1      -9.315  16.046  65.777  1.00  0.00    -0.215 C  
ENDBRANCH  25  28
ENDBRANCH  21  25
ENDBRANCH  11  16
ENDBRANCH   3   4
ENDBRANCH   2   3
TORSDOF 7
ENDMDL
MODEL      205
REMARK 921   NORMALIZED FREE ENERGY PREDICTED BY IDOCK:   -3.78 KCAL/MOL
REMARK 922        TOTAL FREE ENERGY PREDICTED BY IDOCK:   -6.67 KCAL/MOL
REMARK 923 INTER-LIGAND FREE ENERGY PREDICTED BY IDOCK:   -6.51 KCAL/MOL
REMARK 924 INTRA-LIGAND FREE ENERGY PREDICTED BY IDOCK:   -0.16 KCAL/MOL
REMARK 927      BINDING AFFINITY PREDICTED BY RF-SCORE:    0.00 PKD
ROOT
HETATM    1  C   UNL     1      -8.060   7.791  74.253  1.00  0.00    -0.274 C  
HETATM    2  C   UNL     1      -7.803   6.398  73.696  1.00  0.00    -0.092 C  
ENDROOT
BRANCH   2   3
HETATM    3  C   UNL     1      -9.107   5.650  73.412  1.00  0.00    -0.129 C  
BRANCH   3   4
HETATM    4  C   UNL     1      -9.380   5.505  71.952  1.00  0.00    -0.144 A  
HETATM    5  N   UNL     1      -9.156   4.311  71.373  1.00  0.00    -0.122 NA 
HETATM    6  N   UNL     1      -9.521   4.487  70.082  1.00  0.00    -0.148 NA 
HETATM    7  C   UNL     1      -9.977   5.742  69.827  1.00  0.00    -0.190 A  
HETATM    8  C   UNL     1      -9.432   3.378  69.164  1.00  0.00    -0.141 C  
HETATM    9  C   UNL     1      -9.880   6.425  71.002  1.00  0.00    -0.180 A  
HETATM   10  N   UNL     1     -10.263   7.712  71.048  1.00  0.00    -0.194 NA 
HETATM   11  C   UNL     1     -10.732   8.266  69.855  1.00  0.00    -0.234 C  
HETATM   12  N   UNL     1     -10.844   7.626  68.721  1.00  0.00    -0.413 N  
HETATM   13  O   UNL     1     -10.524   5.675  67.556  1.00  0.00    -0.210 OA 
HETATM   14  H   UNL     1     -11.224   8.111  67.908  1.00  0.00     0.000 HD 
HETATM   15  C   UNL     1     -10.459   6.305  68.602  1.00  0.00    -0.231 C  
BRANCH  11  16
HETATM   16  C   UNL     1     -11.184   9.716  69.850  1.00  0.00    -0.244 A  
HETATM   17  C   UNL     1     -12.370  11.601  70.819  1.00  0.00    -0.454 A  
HETATM   18  C   UNL     1     -11.974  10.258  70.882  1.00  0.00    -0.375 A  
HETATM   19  C   UNL     1     -10.834  10.526  68.750  1.00  0.00    -0.269 A  
HETATM   20  C   UNL     1     -12.083  12.374  69.693  1.00  0.00    -0.271 A  
HETATM   21  C   UNL     1     -11.354  11.821  68.637  1.00  0.00    -0.270 A  
BRANCH  18  22
HETATM   22  O   UNL     1     -12.281   9.443  71.940  1.00  0.00    -0.365 OA 
BRANCH  22  23
HETATM   23  C   UNL     1     -13.664   9.157  72.153  1.00  0.00    -0.471 C  
HETATM   24  C   UNL     1     -14.282   8.935  70.785  1.00  0.00     0.343 C  
ENDBRANCH  22  23
ENDBRANCH  18  22
BRANCH  21  25
HETATM   25  S   UNL     1     -11.021  12.834  67.204  1.00  0.00    -0.272 S  
HETATM   26  O   UNL     1     -11.419  14.187  67.530  1.00  0.00    -0.305 OA 
HETATM   27  O   UNL     1     -11.602  12.144  66.070  1.00  0.00    -0.367 OA 
BRANCH  25  28
HETATM   28  N   UNL     1      -9.344  12.810  66.985  1.00  0.00    -0.222 N  
HETATM   29  C   UNL     1      -8.469  13.511  67.946  1.00  0.00    -0.179 C  
HETATM   30  C   UNL     1      -8.039  12.567  69.076  1.00  0.00     0.335 C  
HETATM   31  N   UNL     1      -7.384  11.323  68.625  1.00  0.00    -0.102 NA 
HETATM   32  C   UNL     1      -8.092  10.696  67.487  1.00  0.00    -0.111 C  
HETATM   33  C   UNL     1      -5.972  11.563  68.347  1.00  0.00    -0.045 C  
HETATM   34  C   UNL     1      -8.672  11.627  66.395  1.00  0.00    -0.170 C  
ENDBRANCH  25  28
ENDBRANCH  21  25
ENDBRANCH  11  16
ENDBRANCH   3   4
ENDBRANCH   2   3
TORSDOF 7
ENDMDL
MODEL      206
REMARK 921   NORMALIZED FREE ENERGY PREDICTED BY IDOCK:   -3.78 KCAL/MOL
REMARK 922        TOTAL FREE ENERGY PREDICTED BY IDOCK:   -6.67 KCAL/MOL
REMARK 923 INTER-LIGAND FREE ENERGY PREDICTED BY IDOCK:   -6.58 KCAL/MOL
REMARK 924 INTRA-LIGAND FREE ENERGY PREDICTED BY IDOCK:   -0.09 KCAL/MOL
REMARK 927      BINDING AFFINITY PREDICTED BY RF-SCORE:    0.00 PKD
ROOT
HETATM    1  C   UNL     1      -7.863   8.771  69.470  1.00  0.00    -0.091 C  
HETATM    2  C   UNL     1      -7.670   7.827  70.648  1.00  0.00    -0.091 C  
ENDROOT
BRANCH   2   3
HETATM    3  C   UNL     1      -8.430   8.304  71.887  1.00  0.00    -0.214 C  
BRANCH   3   4
HETATM    4  C   UNL     1      -9.909   8.295  71.692  1.00  0.00    -0.199 A  
HETATM    5  N   UNL     1     -10.587   7.166  71.967  1.00  0.00    -0.209 NA 
HETATM    6  N   UNL     1     -11.880   7.480  71.727  1.00  0.00    -0.283 NA 
HETATM    7  C   UNL     1     -12.047   8.768  71.324  1.00  0.00    -0.296 A  
HETATM    8  C   UNL     1     -12.903   6.486  71.948  1.00  0.00    -0.067 C  
HETATM    9  C   UNL     1     -10.799   9.312  71.272  1.00  0.00    -0.347 A  
HETATM   10  N   UNL     1     -10.655  10.593  70.895  1.00  0.00     0.751 NA 
HETATM   11  C   UNL     1     -11.824  11.281  70.566  1.00  0.00    -0.324 C  
HETATM   12  N   UNL     1     -13.031  10.783  70.620  1.00  0.00    -0.289 N  
HETATM   13  O   UNL     1     -14.358   8.956  71.031  1.00  0.00    -0.151 OA 
HETATM   14  H   UNL     1     -13.828  11.375  70.384  1.00  0.00     0.000 HD 
HETATM   15  C   UNL     1     -13.248   9.469  70.990  1.00  0.00    -0.187 C  
BRANCH  11  16
HETATM   16  C   UNL     1     -11.721  12.735  70.138  1.00  0.00    -0.239 A  
HETATM   17  C   UNL     1     -12.516  15.030  70.116  1.00  0.00    -0.356 A  
HETATM   18  C   UNL     1     -12.656  13.704  70.550  1.00  0.00    -0.267 A  
HETATM   19  C   UNL     1     -10.679  13.107  69.264  1.00  0.00     0.022 A  
HETATM   20  C   UNL     1     -11.527  15.374  69.193  1.00  0.00    -0.344 A  
HETATM   21  C   UNL     1     -10.637  14.401  68.731  1.00  0.00    -0.254 A  
BRANCH  18  22
HETATM   22  O   UNL     1     -13.644  13.306  71.410  1.00  0.00    -0.180 OA 
BRANCH  22  23
HETATM   23  C   UNL     1     -13.855  14.115  72.569  1.00  0.00    -0.485 C  
HETATM   24  C   UNL     1     -14.378  15.453  72.080  1.00  0.00    -0.642 C  
ENDBRANCH  22  23
ENDBRANCH  18  22
BRANCH  21  25
HETATM   25  S   UNL     1      -9.396  14.873  67.537  1.00  0.00    -0.196 S  
HETATM   26  O   UNL     1      -8.110  14.794  68.196  1.00  0.00    -0.122 OA 
HETATM   27  O   UNL     1      -9.849  16.116  66.944  1.00  0.00    -0.230 OA 
BRANCH  25  28
HETATM   28  N   UNL     1      -9.442  13.703  66.316  1.00  0.00    -0.234 N  
HETATM   29  C   UNL     1      -8.573  12.512  66.409  1.00  0.00     0.124 C  
HETATM   30  C   UNL     1      -9.298  11.368  67.127  1.00  0.00    -0.172 C  
HETATM   31  N   UNL     1     -10.596  10.989  66.533  1.00  0.00    -0.258 NA 
HETATM   32  C   UNL     1     -11.421  12.169  66.189  1.00  0.00    -0.371 C  
HETATM   33  C   UNL     1     -10.395  10.093  65.399  1.00  0.00    -0.106 C  
HETATM   34  C   UNL     1     -10.703  13.405  65.595  1.00  0.00    -0.277 C  
ENDBRANCH  25  28
ENDBRANCH  21  25
ENDBRANCH  11  16
ENDBRANCH   3   4
ENDBRANCH   2   3
TORSDOF 7
ENDMDL
MODEL      207
REMARK 921   NORMALIZED FREE ENERGY PREDICTED BY IDOCK:   -3.76 KCAL/MOL
REMARK 922        TOTAL FREE ENERGY PREDICTED BY IDOCK:   -6.64 KCAL/MOL
REMARK 923 INTER-LIGAND FREE ENERGY PREDICTED BY IDOCK:   -5.21 KCAL/MOL
REMARK 924 INTRA-LIGAND FREE ENERGY PREDICTED BY IDOCK:   -1.43 KCAL/MOL
REMARK 927      BINDING AFFINITY PREDICTED BY RF-SCORE:    0.00 PKD
ROOT
HETATM    1  C   UNL     1     -12.829  12.516  64.477  1.00  0.00    -0.352 C  
HETATM    2  C   UNL     1     -11.500  11.924  64.923  1.00  0.00    -0.315 C  
ENDROOT
BRANCH   2   3
HETATM    3  C   UNL     1     -10.636  11.507  63.732  1.00  0.00    -0.465 C  
BRANCH   3   4
HETATM    4  C   UNL     1      -9.588  10.511  64.103  1.00  0.00    -0.313 A  
HETATM    5  N   UNL     1      -9.530   9.354  63.417  1.00  0.00     0.323 NA 
HETATM    6  N   UNL     1      -8.480   8.694  63.956  1.00  0.00    -0.119 NA 
HETATM    7  C   UNL     1      -7.865   9.394  64.946  1.00  0.00    -0.117 A  
HETATM    8  C   UNL     1      -8.111   7.402  63.430  1.00  0.00    -0.010 C  
HETATM    9  C   UNL     1      -8.565  10.555  65.078  1.00  0.00    -0.176 A  
HETATM   10  N   UNL     1      -8.181  11.454  66.000  1.00  0.00    -0.053 NA 
HETATM   11  C   UNL     1      -7.073  11.114  66.778  1.00  0.00    -0.139 C  
HETATM   12  N   UNL     1      -6.380  10.011  66.660  1.00  0.00    -0.068 N  
HETATM   13  O   UNL     1      -6.123   7.986  65.613  1.00  0.00    -0.038 OA 
HETATM   14  H   UNL     1      -5.568   9.864  67.260  1.00  0.00     0.000 HD 
HETATM   15  C   UNL     1      -6.728   9.041  65.740  1.00  0.00    -0.072 C  
BRANCH  11  16
HETATM   16  C   UNL     1      -6.590  12.095  67.832  1.00  0.00    -0.085 A  
HETATM   17  C   UNL     1      -5.839  12.642  70.077  1.00  0.00    -0.151 A  
HETATM   18  C   UNL     1      -6.271  11.690  69.143  1.00  0.00    -0.077 A  
HETATM   19  C   UNL     1      -6.504  13.460  67.491  1.00  0.00    -0.129 A  
HETATM   20  C   UNL     1      -5.828  14.000  69.753  1.00  0.00    -0.115 A  
HETATM   21  C   UNL     1      -6.206  14.413  68.473  1.00  0.00    -0.090 A  
BRANCH  18  22
HETATM   22  O   UNL     1      -6.354  10.353  69.431  1.00  0.00    -0.045 OA 
BRANCH  22  23
HETATM   23  C   UNL     1      -7.113   9.988  70.584  1.00  0.00     0.021 C  
HETATM   24  C   UNL     1      -8.165   8.997  70.121  1.00  0.00    -0.140 C  
ENDBRANCH  22  23
ENDBRANCH  18  22
BRANCH  21  25
HETATM   25  S   UNL     1      -6.197  16.160  68.100  1.00  0.00    -0.125 S  
HETATM   26  O   UNL     1      -5.492  16.330  66.847  1.00  0.00    -0.346 OA 
HETATM   27  O   UNL     1      -5.745  16.833  69.301  1.00  0.00    -0.145 OA 
BRANCH  25  28
HETATM   28  N   UNL     1      -7.812  16.604  67.868  1.00  0.00    -0.164 N  
HETATM   29  C   UNL     1      -8.515  17.385  68.905  1.00  0.00    -0.156 C  
HETATM   30  C   UNL     1      -8.371  18.888  68.641  1.00  0.00    -0.349 C  
HETATM   31  N   UNL     1      -8.818  19.326  67.303  1.00  0.00    -0.287 NA 
HETATM   32  C   UNL     1      -8.338  18.427  66.229  1.00  0.00    -0.207 C  
HETATM   33  C   UNL     1     -10.266  19.506  67.283  1.00  0.00    -0.429 C  
HETATM   34  C   UNL     1      -8.330  16.905  66.511  1.00  0.00    -0.280 C  
ENDBRANCH  25  28
ENDBRANCH  21  25
ENDBRANCH  11  16
ENDBRANCH   3   4
ENDBRANCH   2   3
TORSDOF 7
ENDMDL
MODEL      208
REMARK 921   NORMALIZED FREE ENERGY PREDICTED BY IDOCK:   -3.73 KCAL/MOL
REMARK 922        TOTAL FREE ENERGY PREDICTED BY IDOCK:   -6.61 KCAL/MOL
REMARK 923 INTER-LIGAND FREE ENERGY PREDICTED BY IDOCK:   -5.67 KCAL/MOL
REMARK 924 INTRA-LIGAND FREE ENERGY PREDICTED BY IDOCK:   -0.94 KCAL/MOL
REMARK 927      BINDING AFFINITY PREDICTED BY RF-SCORE:    0.00 PKD
ROOT
HETATM    1  C   UNL     1     -10.776   7.959  72.726  1.00  0.00    -0.435 C  
HETATM    2  C   UNL     1      -9.887   6.929  72.043  1.00  0.00    -0.172 C  
ENDROOT
BRANCH   2   3
HETATM    3  C   UNL     1     -10.644   5.634  71.746  1.00  0.00    -0.296 C  
BRANCH   3   4
HETATM    4  C   UNL     1      -9.977   4.806  70.698  1.00  0.00    -0.230 A  
HETATM    5  N   UNL     1      -9.990   3.467  70.833  1.00  0.00    -0.055 NA 
HETATM    6  N   UNL     1      -9.349   3.011  69.733  1.00  0.00    -0.152 NA 
HETATM    7  C   UNL     1      -8.944   4.008  68.903  1.00  0.00    -0.116 A  
HETATM    8  C   UNL     1      -9.203   1.588  69.539  1.00  0.00    -0.104 C  
HETATM    9  C   UNL     1      -9.314   5.173  69.504  1.00  0.00    -0.130 A  
HETATM   10  N   UNL     1      -9.033   6.341  68.903  1.00  0.00    -0.126 NA 
HETATM   11  C   UNL     1      -8.357   6.269  67.685  1.00  0.00    -0.117 C  
HETATM   12  N   UNL     1      -8.003   5.163  67.085  1.00  0.00    -0.100 N  
HETATM   13  O   UNL     1      -7.917   2.870  67.139  1.00  0.00    -0.074 OA 
HETATM   14  H   UNL     1      -7.534   5.212  66.180  1.00  0.00     0.000 HD 
HETATM   15  C   UNL     1      -8.252   3.928  67.653  1.00  0.00    -0.093 C  
BRANCH  11  16
HETATM   16  C   UNL     1      -8.019   7.559  66.957  1.00  0.00    -0.116 A  
HETATM   17  C   UNL     1      -6.790   8.828  65.290  1.00  0.00    -0.072 A  
HETATM   18  C   UNL     1      -7.069   7.607  65.920  1.00  0.00    -0.065 A  
HETATM   19  C   UNL     1      -8.650   8.750  67.372  1.00  0.00    -0.126 A  
HETATM   20  C   UNL     1      -7.364  10.013  65.755  1.00  0.00    -0.117 A  
HETATM   21  C   UNL     1      -8.258   9.979  66.828  1.00  0.00    -0.121 A  
BRANCH  18  22
HETATM   22  O   UNL     1      -6.488   6.427  65.537  1.00  0.00    -0.037 OA 
BRANCH  22  23
HETATM   23  C   UNL     1      -6.275   6.237  64.137  1.00  0.00    -0.030 C  
HETATM   24  C   UNL     1      -7.573   5.697  63.565  1.00  0.00    -0.077 C  
ENDBRANCH  22  23
ENDBRANCH  18  22
BRANCH  21  25
HETATM   25  S   UNL     1      -8.958  11.517  67.408  1.00  0.00    -0.160 S  
HETATM   26  O   UNL     1      -8.061  12.579  67.004  1.00  0.00    -0.169 OA 
HETATM   27  O   UNL     1      -9.287  11.317  68.804  1.00  0.00    -0.182 OA 
BRANCH  25  28
HETATM   28  N   UNL     1     -10.421  11.713  66.582  1.00  0.00    -0.225 N  
HETATM   29  C   UNL     1     -11.562  12.366  67.256  1.00  0.00    -0.365 C  
HETATM   30  C   UNL     1     -11.551  13.877  66.996  1.00  0.00    -0.369 C  
HETATM   31  N   UNL     1     -11.534  14.259  65.569  1.00  0.00    -0.322 NA 
HETATM   32  C   UNL     1     -10.568  13.456  64.786  1.00  0.00    -0.405 C  
HETATM   33  C   UNL     1     -12.883  14.217  65.014  1.00  0.00    -0.221 C  
HETATM   34  C   UNL     1     -10.442  11.950  65.118  1.00  0.00    -0.287 C  
ENDBRANCH  25  28
ENDBRANCH  21  25
ENDBRANCH  11  16
ENDBRANCH   3   4
ENDBRANCH   2   3
TORSDOF 7
ENDMDL
MODEL      209
REMARK 921   NORMALIZED FREE ENERGY PREDICTED BY IDOCK:   -3.71 KCAL/MOL
REMARK 922        TOTAL FREE ENERGY PREDICTED BY IDOCK:   -6.58 KCAL/MOL
REMARK 923 INTER-LIGAND FREE ENERGY PREDICTED BY IDOCK:   -5.79 KCAL/MOL
REMARK 924 INTRA-LIGAND FREE ENERGY PREDICTED BY IDOCK:   -0.79 KCAL/MOL
REMARK 927      BINDING AFFINITY PREDICTED BY RF-SCORE:    0.00 PKD
ROOT
HETATM    1  C   UNL     1      -7.806   8.836  62.378  1.00  0.00    -0.135 C  
HETATM    2  C   UNL     1      -7.939   8.397  63.830  1.00  0.00    -0.159 C  
ENDROOT
BRANCH   2   3
HETATM    3  C   UNL     1      -6.904   7.333  64.198  1.00  0.00    -0.048 C  
BRANCH   3   4
HETATM    4  C   UNL     1      -7.411   6.365  65.215  1.00  0.00    -0.081 A  
HETATM    5  N   UNL     1      -7.105   5.063  65.071  1.00  0.00    -0.061 NA 
HETATM    6  N   UNL     1      -7.669   4.463  66.144  1.00  0.00    -0.093 NA 
HETATM    7  C   UNL     1      -8.307   5.337  66.966  1.00  0.00    -0.107 A  
HETATM    8  C   UNL     1      -7.512   3.039  66.322  1.00  0.00    -0.076 C  
HETATM    9  C   UNL     1      -8.177   6.563  66.387  1.00  0.00    -0.116 A  
HETATM   10  N   UNL     1      -8.723   7.634  66.986  1.00  0.00    -0.124 NA 
HETATM   11  C   UNL     1      -9.408   7.400  68.179  1.00  0.00    -0.135 C  
HETATM   12  N   UNL     1      -9.535   6.234  68.758  1.00  0.00    -0.123 N  
HETATM   13  O   UNL     1      -9.122   3.978  68.684  1.00  0.00    -0.112 OA 
HETATM   14  H   UNL     1     -10.033   6.168  69.646  1.00  0.00     0.000 HD 
HETATM   15  C   UNL     1      -9.007   5.091  68.190  1.00  0.00    -0.108 C  
BRANCH  11  16
HETATM   16  C   UNL     1     -10.040   8.576  68.904  1.00  0.00    -0.213 A  
HETATM   17  C   UNL     1     -11.468   9.525  70.624  1.00  0.00    -0.362 A  
HETATM   18  C   UNL     1     -10.906   8.402  70.000  1.00  0.00    -0.225 A  
HETATM   19  C   UNL     1      -9.781   9.877  68.428  1.00  0.00    -0.161 A  
HETATM   20  C   UNL     1     -11.265  10.803  70.101  1.00  0.00    -0.345 A  
HETATM   21  C   UNL     1     -10.459  10.974  68.973  1.00  0.00    -0.216 A  
BRANCH  18  22
HETATM   22  O   UNL     1     -11.122   7.123  70.442  1.00  0.00    -0.262 OA 
BRANCH  22  23
HETATM   23  C   UNL     1     -11.354   6.955  71.841  1.00  0.00    -0.263 C  
HETATM   24  C   UNL     1     -12.788   6.483  71.993  1.00  0.00    -0.092 C  
ENDBRANCH  22  23
ENDBRANCH  18  22
BRANCH  21  25
HETATM   25  S   UNL     1     -10.237  12.622  68.322  1.00  0.00    -0.238 S  
HETATM   26  O   UNL     1      -8.812  12.869  68.247  1.00  0.00    -0.186 OA 
HETATM   27  O   UNL     1     -11.099  13.490  69.098  1.00  0.00    -0.256 OA 
BRANCH  25  28
HETATM   28  N   UNL     1     -10.855  12.597  66.748  1.00  0.00    -0.246 N  
HETATM   29  C   UNL     1     -12.255  13.000  66.502  1.00  0.00    -0.246 C  
HETATM   30  C   UNL     1     -12.340  14.500  66.197  1.00  0.00    -0.209 C  
HETATM   31  N   UNL     1     -11.491  14.951  65.076  1.00  0.00    -0.373 NA 
HETATM   32  C   UNL     1     -10.129  14.376  65.137  1.00  0.00    -0.326 C  
HETATM   33  C   UNL     1     -12.154  14.698  63.801  1.00  0.00     0.141 C  
HETATM   34  C   UNL     1      -9.987  12.901  65.585  1.00  0.00    -0.235 C  
ENDBRANCH  25  28
ENDBRANCH  21  25
ENDBRANCH  11  16
ENDBRANCH   3   4
ENDBRANCH   2   3
TORSDOF 7
ENDMDL
MODEL      210
REMARK 921   NORMALIZED FREE ENERGY PREDICTED BY IDOCK:   -3.62 KCAL/MOL
REMARK 922        TOTAL FREE ENERGY PREDICTED BY IDOCK:   -6.45 KCAL/MOL
REMARK 923 INTER-LIGAND FREE ENERGY PREDICTED BY IDOCK:   -7.63 KCAL/MOL
REMARK 924 INTRA-LIGAND FREE ENERGY PREDICTED BY IDOCK:    1.18 KCAL/MOL
REMARK 927      BINDING AFFINITY PREDICTED BY RF-SCORE:    0.00 PKD
ROOT
HETATM    1  C   UNL     1      -9.640  19.184  68.590  1.00  0.00    -0.471 C  
HETATM    2  C   UNL     1     -10.603  18.006  68.566  1.00  0.00    -0.186 C  
ENDROOT
BRANCH   2   3
HETATM    3  C   UNL     1      -9.920  16.705  68.994  1.00  0.00    -0.280 C  
BRANCH   3   4
HETATM    4  C   UNL     1     -10.804  15.841  69.830  1.00  0.00    -0.327 A  
HETATM    5  N   UNL     1     -11.549  16.421  70.788  1.00  0.00    -0.255 NA 
HETATM    6  N   UNL     1     -12.249  15.402  71.336  1.00  0.00    -0.335 NA 
HETATM    7  C   UNL     1     -11.985  14.203  70.752  1.00  0.00    -0.306 A  
HETATM    8  C   UNL     1     -13.185  15.677  72.399  1.00  0.00    -0.474 C  
HETATM    9  C   UNL     1     -11.046  14.448  69.795  1.00  0.00    -0.159 A  
HETATM   10  N   UNL     1     -10.586  13.430  69.050  1.00  0.00    -0.140 NA 
HETATM   11  C   UNL     1     -11.110  12.166  69.328  1.00  0.00    -0.167 C  
HETATM   12  N   UNL     1     -12.018  11.911  70.232  1.00  0.00    -0.423 N  
HETATM   13  O   UNL     1     -13.359  12.712  71.913  1.00  0.00    -0.463 OA 
HETATM   14  H   UNL     1     -12.359  10.956  70.344  1.00  0.00     0.000 HD 
HETATM   15  C   UNL     1     -12.527  12.910  71.040  1.00  0.00    -0.283 C  
BRANCH  11  16
HETATM   16  C   UNL     1     -10.630  10.979  68.512  1.00  0.00    -0.218 A  
HETATM   17  C   UNL     1     -10.641   9.599  66.513  1.00  0.00    -0.142 A  
HETATM   18  C   UNL     1     -11.114  10.716  67.216  1.00  0.00    -0.243 A  
HETATM   19  C   UNL     1      -9.701  10.092  69.096  1.00  0.00    -0.225 A  
HETATM   20  C   UNL     1      -9.780   8.687  67.126  1.00  0.00    -0.248 A  
HETATM   21  C   UNL     1      -9.347   8.910  68.435  1.00  0.00    -0.136 A  
BRANCH  18  22
HETATM   22  O   UNL     1     -12.003  11.608  66.679  1.00  0.00    -0.503 OA 
BRANCH  22  23
HETATM   23  C   UNL     1     -11.520  12.447  65.628  1.00  0.00    -0.367 C  
HETATM   24  C   UNL     1     -11.235  13.803  66.247  1.00  0.00    -0.310 C  
ENDBRANCH  22  23
ENDBRANCH  18  22
BRANCH  21  25
HETATM   25  S   UNL     1      -8.261   7.712  69.193  1.00  0.00    -0.131 S  
HETATM   26  O   UNL     1      -9.093   6.673  69.762  1.00  0.00    -0.142 OA 
HETATM   27  O   UNL     1      -7.340   8.461  70.024  1.00  0.00    -0.057 OA 
BRANCH  25  28
HETATM   28  N   UNL     1      -7.350   7.037  67.938  1.00  0.00    -0.094 N  
HETATM   29  C   UNL     1      -7.912   5.930  67.137  1.00  0.00    -0.102 C  
HETATM   30  C   UNL     1      -8.654   6.474  65.910  1.00  0.00    -0.149 C  
HETATM   31  N   UNL     1      -7.849   7.356  65.042  1.00  0.00    -0.118 NA 
HETATM   32  C   UNL     1      -7.064   8.342  65.817  1.00  0.00    -0.071 C  
HETATM   33  C   UNL     1      -7.023   6.564  64.136  1.00  0.00    -0.047 C  
HETATM   34  C   UNL     1      -6.418   7.871  67.142  1.00  0.00    -0.056 C  
ENDBRANCH  25  28
ENDBRANCH  21  25
ENDBRANCH  11  16
ENDBRANCH   3   4
ENDBRANCH   2   3
TORSDOF 7
ENDMDL
MODEL      211
REMARK 921   NORMALIZED FREE ENERGY PREDICTED BY IDOCK:   -3.55 KCAL/MOL
REMARK 922        TOTAL FREE ENERGY PREDICTED BY IDOCK:   -6.35 KCAL/MOL
REMARK 923 INTER-LIGAND FREE ENERGY PREDICTED BY IDOCK:   -5.51 KCAL/MOL
REMARK 924 INTRA-LIGAND FREE ENERGY PREDICTED BY IDOCK:   -0.84 KCAL/MOL
REMARK 927      BINDING AFFINITY PREDICTED BY RF-SCORE:    0.00 PKD
ROOT
HETATM    1  C   UNL     1      -5.381   7.416  67.399  1.00  0.00    -0.025 C  
HETATM    2  C   UNL     1      -5.734   8.889  67.246  1.00  0.00    -0.042 C  
ENDROOT
BRANCH   2   3
HETATM    3  C   UNL     1      -6.638   9.134  66.036  1.00  0.00    -0.069 C  
BRANCH   3   4
HETATM    4  C   UNL     1      -7.910   9.824  66.401  1.00  0.00    -0.106 A  
HETATM    5  N   UNL     1      -8.429  10.715  65.536  1.00  0.00    -0.177 NA 
HETATM    6  N   UNL     1      -9.572  11.133  66.125  1.00  0.00    -0.202 NA 
HETATM    7  C   UNL     1      -9.802  10.532  67.323  1.00  0.00    -0.177 A  
HETATM    8  C   UNL     1     -10.409  12.092  65.445  1.00  0.00    -0.269 C  
HETATM    9  C   UNL     1      -8.743   9.701  67.538  1.00  0.00    -0.125 A  
HETATM   10  N   UNL     1      -8.699   8.970  68.664  1.00  0.00    -0.132 NA 
HETATM   11  C   UNL     1      -9.762   9.131  69.554  1.00  0.00    -0.173 C  
HETATM   12  N   UNL     1     -10.792   9.913  69.362  1.00  0.00    -0.230 N  
HETATM   13  O   UNL     1     -11.828  11.461  68.023  1.00  0.00    -0.570 OA 
HETATM   14  H   UNL     1     -11.535   9.943  70.062  1.00  0.00     0.000 HD 
HETATM   15  C   UNL     1     -10.895  10.699  68.231  1.00  0.00    -0.241 C  
BRANCH  11  16
HETATM   16  C   UNL     1      -9.767   8.325  70.841  1.00  0.00    -0.204 A  
HETATM   17  C   UNL     1     -10.664   7.779  73.031  1.00  0.00    -0.446 A  
HETATM   18  C   UNL     1     -10.713   8.548  71.860  1.00  0.00    -0.324 A  
HETATM   19  C   UNL     1      -8.762   7.355  71.032  1.00  0.00    -0.139 A  
HETATM   20  C   UNL     1      -9.622   6.874  73.243  1.00  0.00    -0.193 A  
HETATM   21  C   UNL     1      -8.644   6.697  72.261  1.00  0.00    -0.121 A  
BRANCH  18  22
HETATM   22  O   UNL     1     -11.682   9.488  71.631  1.00  0.00    -0.370 OA 
BRANCH  22  23
HETATM   23  C   UNL     1     -13.013   9.153  72.030  1.00  0.00    -0.424 C  
HETATM   24  C   UNL     1     -13.898   9.359  70.815  1.00  0.00     0.209 C  
ENDBRANCH  22  23
ENDBRANCH  18  22
BRANCH  21  25
HETATM   25  S   UNL     1      -7.316   5.544  72.574  1.00  0.00    -0.097 S  
HETATM   26  O   UNL     1      -7.450   5.092  73.943  1.00  0.00    -0.085 OA 
HETATM   27  O   UNL     1      -6.099   6.187  72.122  1.00  0.00    -0.039 OA 
BRANCH  25  28
HETATM   28  N   UNL     1      -7.582   4.224  71.550  1.00  0.00    -0.067 N  
HETATM   29  C   UNL     1      -8.950   3.694  71.376  1.00  0.00    -0.104 C  
HETATM   30  C   UNL     1      -9.648   4.376  70.194  1.00  0.00    -0.193 C  
HETATM   31  N   UNL     1      -8.918   4.293  68.913  1.00  0.00    -0.101 NA 
HETATM   32  C   UNL     1      -7.475   4.580  69.071  1.00  0.00    -0.056 C  
HETATM   33  C   UNL     1      -9.170   3.010  68.266  1.00  0.00    -0.189 C  
HETATM   34  C   UNL     1      -6.762   4.031  70.330  1.00  0.00    -0.033 C  
ENDBRANCH  25  28
ENDBRANCH  21  25
ENDBRANCH  11  16
ENDBRANCH   3   4
ENDBRANCH   2   3
TORSDOF 7
ENDMDL
MODEL      212
REMARK 921   NORMALIZED FREE ENERGY PREDICTED BY IDOCK:   -3.53 KCAL/MOL
REMARK 922        TOTAL FREE ENERGY PREDICTED BY IDOCK:   -6.32 KCAL/MOL
REMARK 923 INTER-LIGAND FREE ENERGY PREDICTED BY IDOCK:   -5.64 KCAL/MOL
REMARK 924 INTRA-LIGAND FREE ENERGY PREDICTED BY IDOCK:   -0.68 KCAL/MOL
REMARK 927      BINDING AFFINITY PREDICTED BY RF-SCORE:    0.00 PKD
ROOT
HETATM    1  C   UNL     1      -6.687   4.830  73.107  1.00  0.00    -0.066 C  
HETATM    2  C   UNL     1      -7.696   3.991  72.337  1.00  0.00    -0.080 C  
ENDROOT
BRANCH   2   3
HETATM    3  C   UNL     1      -8.008   4.594  70.966  1.00  0.00    -0.082 C  
BRANCH   3   4
HETATM    4  C   UNL     1      -8.882   5.801  71.056  1.00  0.00    -0.138 A  
HETATM    5  N   UNL     1      -9.760   5.883  72.071  1.00  0.00    -0.153 NA 
HETATM    6  N   UNL     1     -10.366   7.080  71.898  1.00  0.00    -0.193 NA 
HETATM    7  C   UNL     1      -9.896   7.761  70.819  1.00  0.00    -0.180 A  
HETATM    8  C   UNL     1     -11.368   7.510  72.843  1.00  0.00    -0.304 C  
HETATM    9  C   UNL     1      -8.957   6.958  70.246  1.00  0.00    -0.152 A  
HETATM   10  N   UNL     1      -8.317   7.378  69.142  1.00  0.00    -0.131 NA 
HETATM   11  C   UNL     1      -8.682   8.632  68.649  1.00  0.00    -0.138 C  
HETATM   12  N   UNL     1      -9.571   9.423  69.190  1.00  0.00    -0.159 N  
HETATM   13  O   UNL     1     -11.129   9.746  70.843  1.00  0.00    -0.308 OA 
HETATM   14  H   UNL     1      -9.750  10.336  68.770  1.00  0.00     0.000 HD 
HETATM   15  C   UNL     1     -10.272   9.048  70.319  1.00  0.00    -0.201 C  
BRANCH  11  16
HETATM   16  C   UNL     1      -7.987   9.161  67.407  1.00  0.00    -0.103 A  
HETATM   17  C   UNL     1      -6.014   9.900  66.197  1.00  0.00    -0.065 A  
HETATM   18  C   UNL     1      -6.600   9.403  67.370  1.00  0.00    -0.064 A  
HETATM   19  C   UNL     1      -8.770   9.459  66.273  1.00  0.00    -0.157 A  
HETATM   20  C   UNL     1      -6.806  10.261  65.106  1.00  0.00    -0.120 A  
HETATM   21  C   UNL     1      -8.191  10.084  65.162  1.00  0.00    -0.146 A  
BRANCH  18  22
HETATM   22  O   UNL     1      -5.872   9.087  68.486  1.00  0.00    -0.041 OA 
BRANCH  22  23
HETATM   23  C   UNL     1      -5.169  10.157  69.121  1.00  0.00    -0.035 C  
HETATM   24  C   UNL     1      -6.021  10.607  70.293  1.00  0.00    -0.111 C  
ENDBRANCH  22  23
ENDBRANCH  18  22
BRANCH  21  25
HETATM   25  S   UNL     1      -9.174  10.575  63.755  1.00  0.00    -0.286 S  
HETATM   26  O   UNL     1      -9.385   9.395  62.942  1.00  0.00    -0.089 OA 
HETATM   27  O   UNL     1      -8.537  11.751  63.199  1.00  0.00     0.208 OA 
BRANCH  25  28
HETATM   28  N   UNL     1     -10.669  11.071  64.370  1.00  0.00    -0.329 N  
HETATM   29  C   UNL     1     -10.754  11.620  65.738  1.00  0.00    -0.280 C  
HETATM   30  C   UNL     1     -10.587  13.144  65.721  1.00  0.00    -0.282 C  
HETATM   31  N   UNL     1     -11.533  13.859  64.840  1.00  0.00    -0.336 NA 
HETATM   32  C   UNL     1     -11.676  13.204  63.521  1.00  0.00    -0.415 C  
HETATM   33  C   UNL     1     -12.813  14.051  65.515  1.00  0.00    -0.419 C  
HETATM   34  C   UNL     1     -11.701  11.658  63.480  1.00  0.00    -0.279 C  
ENDBRANCH  25  28
ENDBRANCH  21  25
ENDBRANCH  11  16
ENDBRANCH   3   4
ENDBRANCH   2   3
TORSDOF 7
ENDMDL
MODEL      213
REMARK 921   NORMALIZED FREE ENERGY PREDICTED BY IDOCK:   -3.50 KCAL/MOL
REMARK 922        TOTAL FREE ENERGY PREDICTED BY IDOCK:   -6.28 KCAL/MOL
REMARK 923 INTER-LIGAND FREE ENERGY PREDICTED BY IDOCK:   -6.87 KCAL/MOL
REMARK 924 INTRA-LIGAND FREE ENERGY PREDICTED BY IDOCK:    0.59 KCAL/MOL
REMARK 927      BINDING AFFINITY PREDICTED BY RF-SCORE:    0.00 PKD
ROOT
HETATM    1  C   UNL     1     -12.295   8.923  72.163  1.00  0.00    -0.449 C  
HETATM    2  C   UNL     1     -11.079   8.341  71.456  1.00  0.00    -0.315 C  
ENDROOT
BRANCH   2   3
HETATM    3  C   UNL     1      -9.879   9.288  71.518  1.00  0.00    -0.245 C  
BRANCH   3   4
HETATM    4  C   UNL     1      -9.057   9.255  70.273  1.00  0.00    -0.237 A  
HETATM    5  N   UNL     1      -8.171   8.255  70.115  1.00  0.00    -0.115 NA 
HETATM    6  N   UNL     1      -7.619   8.480  68.901  1.00  0.00    -0.094 NA 
HETATM    7  C   UNL     1      -8.131   9.576  68.281  1.00  0.00    -0.102 A  
HETATM    8  C   UNL     1      -6.625   7.564  68.395  1.00  0.00    -0.050 C  
HETATM    9  C   UNL     1      -9.042  10.107  69.144  1.00  0.00    -0.183 A  
HETATM   10  N   UNL     1      -9.713  11.216  68.792  1.00  0.00    -0.200 NA 
HETATM   11  C   UNL     1      -9.408  11.759  67.543  1.00  0.00    -0.174 C  
HETATM   12  N   UNL     1      -8.547  11.260  66.695  1.00  0.00    -0.162 N  
HETATM   13  O   UNL     1      -6.984   9.641  66.246  1.00  0.00    -0.088 OA 
HETATM   14  H   UNL     1      -8.412  11.716  65.792  1.00  0.00     0.000 HD 
HETATM   15  C   UNL     1      -7.816  10.127  66.998  1.00  0.00    -0.102 C  
BRANCH  11  16
HETATM   16  C   UNL     1     -10.140  13.010  67.090  1.00  0.00    -0.244 A  
HETATM   17  C   UNL     1     -11.835  14.153  65.778  1.00  0.00    -0.385 A  
HETATM   18  C   UNL     1     -11.202  12.964  66.166  1.00  0.00    -0.292 A  
HETATM   19  C   UNL     1      -9.707  14.259  67.582  1.00  0.00    -0.220 A  
HETATM   20  C   UNL     1     -11.352  15.389  66.212  1.00  0.00    -0.081 A  
HETATM   21  C   UNL     1     -10.257  15.443  67.078  1.00  0.00    -0.262 A  
BRANCH  18  22
HETATM   22  O   UNL     1     -11.603  11.732  65.722  1.00  0.00    -0.312 OA 
BRANCH  22  23
HETATM   23  C   UNL     1     -10.987  11.245  64.529  1.00  0.00    -0.231 C  
HETATM   24  C   UNL     1     -10.659  12.458  63.679  1.00  0.00    -0.481 C  
ENDBRANCH  22  23
ENDBRANCH  18  22
BRANCH  21  25
HETATM   25  S   UNL     1      -9.655  17.042  67.598  1.00  0.00    -0.253 S  
HETATM   26  O   UNL     1     -10.297  17.357  68.857  1.00  0.00    -0.335 OA 
HETATM   27  O   UNL     1      -9.793  17.923  66.456  1.00  0.00    -0.312 OA 
BRANCH  25  28
HETATM   28  N   UNL     1      -7.997  16.858  67.877  1.00  0.00    -0.180 N  
HETATM   29  C   UNL     1      -7.495  16.742  69.262  1.00  0.00    -0.134 C  
HETATM   30  C   UNL     1      -7.432  15.273  69.694  1.00  0.00    -0.181 C  
HETATM   31  N   UNL     1      -6.639  14.400  68.805  1.00  0.00    -0.085 NA 
HETATM   32  C   UNL     1      -6.928  14.647  67.374  1.00  0.00    -0.093 C  
HETATM   33  C   UNL     1      -5.218  14.508  69.119  1.00  0.00    -0.082 C  
HETATM   34  C   UNL     1      -7.144  16.111  66.922  1.00  0.00    -0.187 C  
ENDBRANCH  25  28
ENDBRANCH  21  25
ENDBRANCH  11  16
ENDBRANCH   3   4
ENDBRANCH   2   3
TORSDOF 7
ENDMDL
MODEL      214
REMARK 921   NORMALIZED FREE ENERGY PREDICTED BY IDOCK:   -3.46 KCAL/MOL
REMARK 922        TOTAL FREE ENERGY PREDICTED BY IDOCK:   -6.22 KCAL/MOL
REMARK 923 INTER-LIGAND FREE ENERGY PREDICTED BY IDOCK:   -6.87 KCAL/MOL
REMARK 924 INTRA-LIGAND FREE ENERGY PREDICTED BY IDOCK:    0.65 KCAL/MOL
REMARK 927      BINDING AFFINITY PREDICTED BY RF-SCORE:    0.00 PKD
ROOT
HETATM    1  C   UNL     1     -10.413  19.945  67.239  1.00  0.00    -0.557 C  
HETATM    2  C   UNL     1     -10.335  19.174  65.928  1.00  0.00    -0.463 C  
ENDROOT
BRANCH   2   3
HETATM    3  C   UNL     1     -10.425  17.663  66.153  1.00  0.00    -0.295 C  
BRANCH   3   4
HETATM    4  C   UNL     1      -9.127  17.069  66.589  1.00  0.00    -0.254 A  
HETATM    5  N   UNL     1      -8.118  17.899  66.914  1.00  0.00    -0.221 NA 
HETATM    6  N   UNL     1      -7.113  17.076  67.290  1.00  0.00    -0.152 NA 
HETATM    7  C   UNL     1      -7.451  15.761  67.228  1.00  0.00    -0.217 A  
HETATM    8  C   UNL     1      -5.863  17.645  67.734  1.00  0.00    -0.140 C  
HETATM    9  C   UNL     1      -8.731  15.723  66.762  1.00  0.00    -0.271 A  
HETATM   10  N   UNL     1      -9.334  14.534  66.593  1.00  0.00    -0.269 NA 
HETATM   11  C   UNL     1      -8.579  13.402  66.905  1.00  0.00    -0.100 C  
HETATM   12  N   UNL     1      -7.355  13.417  67.364  1.00  0.00    -0.296 N  
HETATM   13  O   UNL     1      -5.521  14.663  67.955  1.00  0.00    -0.168 OA 
HETATM   14  H   UNL     1      -6.894  12.535  67.588  1.00  0.00     0.000 HD 
HETATM   15  C   UNL     1      -6.674  14.604  67.551  1.00  0.00    -0.122 C  
BRANCH  11  16
HETATM   16  C   UNL     1      -9.212  12.032  66.739  1.00  0.00    -0.201 A  
HETATM   17  C   UNL     1     -11.132  10.546  66.659  1.00  0.00    -0.006 A  
HETATM   18  C   UNL     1     -10.604  11.836  66.810  1.00  0.00    -0.238 A  
HETATM   19  C   UNL     1      -8.367  10.918  66.551  1.00  0.00    -0.155 A  
HETATM   20  C   UNL     1     -10.286   9.442  66.548  1.00  0.00    -0.308 A  
HETATM   21  C   UNL     1      -8.900   9.624  66.541  1.00  0.00    -0.142 A  
BRANCH  18  22
HETATM   22  O   UNL     1     -11.392  12.944  66.979  1.00  0.00    -0.279 OA 
BRANCH  22  23
HETATM   23  C   UNL     1     -12.022  13.099  68.252  1.00  0.00    -0.291 C  
HETATM   24  C   UNL     1     -11.253  12.231  69.230  1.00  0.00    -0.275 C  
ENDBRANCH  22  23
ENDBRANCH  18  22
BRANCH  21  25
HETATM   25  S   UNL     1      -7.848   8.186  66.416  1.00  0.00    -0.094 S  
HETATM   26  O   UNL     1      -6.478   8.653  66.412  1.00  0.00    -0.060 OA 
HETATM   27  O   UNL     1      -8.364   7.395  65.318  1.00  0.00    -0.139 OA 
BRANCH  25  28
HETATM   28  N   UNL     1      -8.100   7.290  67.828  1.00  0.00    -0.114 N  
HETATM   29  C   UNL     1      -8.125   7.973  69.137  1.00  0.00    -0.119 C  
HETATM   30  C   UNL     1      -9.554   8.394  69.501  1.00  0.00    -0.170 C  
HETATM   31  N   UNL     1     -10.542   7.296  69.496  1.00  0.00    -0.231 NA 
HETATM   32  C   UNL     1     -10.402   6.421  68.311  1.00  0.00    -0.191 C  
HETATM   33  C   UNL     1     -10.486   6.556  70.753  1.00  0.00    -0.220 C  
HETATM   34  C   UNL     1      -8.972   6.090  67.821  1.00  0.00    -0.111 C  
ENDBRANCH  25  28
ENDBRANCH  21  25
ENDBRANCH  11  16
ENDBRANCH   3   4
ENDBRANCH   2   3
TORSDOF 7
ENDMDL
MODEL      215
REMARK 921   NORMALIZED FREE ENERGY PREDICTED BY IDOCK:   -3.45 KCAL/MOL
REMARK 922        TOTAL FREE ENERGY PREDICTED BY IDOCK:   -6.20 KCAL/MOL
REMARK 923 INTER-LIGAND FREE ENERGY PREDICTED BY IDOCK:   -5.98 KCAL/MOL
REMARK 924 INTRA-LIGAND FREE ENERGY PREDICTED BY IDOCK:   -0.22 KCAL/MOL
REMARK 927      BINDING AFFINITY PREDICTED BY RF-SCORE:    0.00 PKD
ROOT
HETATM    1  C   UNL     1      -9.972  13.761  65.850  1.00  0.00    -0.308 C  
HETATM    2  C   UNL     1     -11.284  13.729  66.622  1.00  0.00    -0.327 C  
ENDROOT
BRANCH   2   3
HETATM    3  C   UNL     1     -11.137  14.344  68.015  1.00  0.00    -0.287 C  
BRANCH   3   4
HETATM    4  C   UNL     1     -11.570  13.416  69.101  1.00  0.00    -0.315 A  
HETATM    5  N   UNL     1     -12.469  13.855  70.000  1.00  0.00    -0.308 NA 
HETATM    6  N   UNL     1     -12.676  12.796  70.816  1.00  0.00    -0.197 NA 
HETATM    7  C   UNL     1     -11.953  11.702  70.458  1.00  0.00    -0.319 A  
HETATM    8  C   UNL     1     -13.622  12.912  71.900  1.00  0.00    -0.293 C  
HETATM    9  C   UNL     1     -11.218  12.073  69.373  1.00  0.00    -0.196 A  
HETATM   10  N   UNL     1     -10.394  11.181  68.801  1.00  0.00    -0.199 NA 
HETATM   11  C   UNL     1     -10.345   9.913  69.383  1.00  0.00    -0.222 C  
HETATM   12  N   UNL     1     -11.050   9.532  70.416  1.00  0.00    -0.259 N  
HETATM   13  O   UNL     1     -12.569  10.096  72.041  1.00  0.00    -0.376 OA 
HETATM   14  H   UNL     1     -10.965   8.573  70.754  1.00  0.00     0.000 HD 
HETATM   15  C   UNL     1     -11.909  10.403  71.058  1.00  0.00    -0.361 C  
BRANCH  11  16
HETATM   16  C   UNL     1      -9.435   8.862  68.773  1.00  0.00    -0.144 A  
HETATM   17  C   UNL     1      -7.681   8.161  67.246  1.00  0.00    -0.098 A  
HETATM   18  C   UNL     1      -8.488   9.176  67.779  1.00  0.00    -0.117 A  
HETATM   19  C   UNL     1      -9.580   7.522  69.190  1.00  0.00    -0.157 A  
HETATM   20  C   UNL     1      -7.882   6.829  67.610  1.00  0.00    -0.112 A  
HETATM   21  C   UNL     1      -8.864   6.504  68.548  1.00  0.00    -0.121 A  
BRANCH  18  22
HETATM   22  O   UNL     1      -8.368  10.490  67.411  1.00  0.00    -0.121 OA 
BRANCH  22  23
HETATM   23  C   UNL     1      -7.788  10.751  66.132  1.00  0.00    -0.155 C  
HETATM   24  C   UNL     1      -8.938  10.987  65.170  1.00  0.00    -0.159 C  
ENDBRANCH  22  23
ENDBRANCH  18  22
BRANCH  21  25
HETATM   25  S   UNL     1      -9.105   4.787  68.976  1.00  0.00    -0.123 S  
HETATM   26  O   UNL     1      -8.364   3.995  68.018  1.00  0.00    -0.091 OA 
HETATM   27  O   UNL     1     -10.533   4.603  69.143  1.00  0.00     0.019 OA 
BRANCH  25  28
HETATM   28  N   UNL     1      -8.402   4.575  70.500  1.00  0.00    -0.077 N  
HETATM   29  C   UNL     1      -6.993   4.960  70.718  1.00  0.00    -0.041 C  
HETATM   30  C   UNL     1      -6.898   6.411  71.202  1.00  0.00    -0.067 C  
HETATM   31  N   UNL     1      -7.687   6.712  72.414  1.00  0.00    -0.095 NA 
HETATM   32  C   UNL     1      -9.048   6.133  72.355  1.00  0.00    -0.136 C  
HETATM   33  C   UNL     1      -6.955   6.310  73.611  1.00  0.00    -0.083 C  
HETATM   34  C   UNL     1      -9.208   4.724  71.736  1.00  0.00    -0.138 C  
ENDBRANCH  25  28
ENDBRANCH  21  25
ENDBRANCH  11  16
ENDBRANCH   3   4
ENDBRANCH   2   3
TORSDOF 7
ENDMDL
MODEL      216
REMARK 921   NORMALIZED FREE ENERGY PREDICTED BY IDOCK:   -3.44 KCAL/MOL
REMARK 922        TOTAL FREE ENERGY PREDICTED BY IDOCK:   -6.20 KCAL/MOL
REMARK 923 INTER-LIGAND FREE ENERGY PREDICTED BY IDOCK:   -4.83 KCAL/MOL
REMARK 924 INTRA-LIGAND FREE ENERGY PREDICTED BY IDOCK:   -1.37 KCAL/MOL
REMARK 927      BINDING AFFINITY PREDICTED BY RF-SCORE:    0.00 PKD
ROOT
HETATM    1  C   UNL     1     -12.103  13.529  64.726  1.00  0.00    -0.442 C  
HETATM    2  C   UNL     1     -12.194  12.684  65.989  1.00  0.00    -0.329 C  
ENDROOT
BRANCH   2   3
HETATM    3  C   UNL     1     -12.227  13.551  67.250  1.00  0.00    -0.305 C  
BRANCH   3   4
HETATM    4  C   UNL     1     -10.961  14.313  67.456  1.00  0.00    -0.289 A  
HETATM    5  N   UNL     1     -11.042  15.619  67.770  1.00  0.00    -0.320 NA 
HETATM    6  N   UNL     1      -9.756  16.011  67.921  1.00  0.00    -0.220 NA 
HETATM    7  C   UNL     1      -8.868  15.001  67.726  1.00  0.00    -0.171 A  
HETATM    8  C   UNL     1      -9.471  17.376  68.292  1.00  0.00    -0.290 C  
HETATM    9  C   UNL     1      -9.608  13.903  67.406  1.00  0.00    -0.235 A  
HETATM   10  N   UNL     1      -8.985  12.740  67.152  1.00  0.00    -0.207 NA 
HETATM   11  C   UNL     1      -7.591  12.751  67.226  1.00  0.00    -0.112 C  
HETATM   12  N   UNL     1      -6.862  13.788  67.543  1.00  0.00    -0.218 N  
HETATM   13  O   UNL     1      -6.794  16.018  68.081  1.00  0.00    -0.115 OA 
HETATM   14  H   UNL     1      -5.848  13.690  67.596  1.00  0.00     0.000 HD 
HETATM   15  C   UNL     1      -7.439  15.016  67.805  1.00  0.00    -0.159 C  
BRANCH  11  16
HETATM   16  C   UNL     1      -6.835  11.462  66.955  1.00  0.00    -0.142 A  
HETATM   17  C   UNL     1      -5.232   9.741  67.564  1.00  0.00    -0.035 A  
HETATM   18  C   UNL     1      -5.909  10.930  67.873  1.00  0.00    -0.046 A  
HETATM   19  C   UNL     1      -7.039  10.809  65.722  1.00  0.00    -0.053 A  
HETATM   20  C   UNL     1      -5.385   9.142  66.312  1.00  0.00    -0.040 A  
HETATM   21  C   UNL     1      -6.254   9.703  65.373  1.00  0.00    -0.071 A  
BRANCH  18  22
HETATM   22  O   UNL     1      -5.749  11.586  69.064  1.00  0.00    -0.047 OA 
BRANCH  22  23
HETATM   23  C   UNL     1      -6.232  10.924  70.234  1.00  0.00    -0.141 C  
HETATM   24  C   UNL     1      -5.155  11.066  71.294  1.00  0.00    -0.098 C  
ENDBRANCH  22  23
ENDBRANCH  18  22
BRANCH  21  25
HETATM   25  S   UNL     1      -6.410   8.920  63.776  1.00  0.00    -0.088 S  
HETATM   26  O   UNL     1      -5.177   8.204  63.524  1.00  0.00    -0.048 OA 
HETATM   27  O   UNL     1      -6.872   9.943  62.861  1.00  0.00    -0.110 OA 
BRANCH  25  28
HETATM   28  N   UNL     1      -7.661   7.790  63.922  1.00  0.00    -0.118 N  
HETATM   29  C   UNL     1      -7.396   6.362  63.653  1.00  0.00    -0.073 C  
HETATM   30  C   UNL     1      -6.987   5.636  64.940  1.00  0.00    -0.056 C  
HETATM   31  N   UNL     1      -7.951   5.760  66.052  1.00  0.00    -0.101 NA 
HETATM   32  C   UNL     1      -8.444   7.146  66.215  1.00  0.00    -0.138 C  
HETATM   33  C   UNL     1      -9.032   4.792  65.900  1.00  0.00    -0.130 C  
HETATM   34  C   UNL     1      -8.730   7.967  64.934  1.00  0.00     0.120 C  
ENDBRANCH  25  28
ENDBRANCH  21  25
ENDBRANCH  11  16
ENDBRANCH   3   4
ENDBRANCH   2   3
TORSDOF 7
ENDMDL
MODEL      217
REMARK 921   NORMALIZED FREE ENERGY PREDICTED BY IDOCK:   -3.44 KCAL/MOL
REMARK 922        TOTAL FREE ENERGY PREDICTED BY IDOCK:   -6.19 KCAL/MOL
REMARK 923 INTER-LIGAND FREE ENERGY PREDICTED BY IDOCK:   -7.46 KCAL/MOL
REMARK 924 INTRA-LIGAND FREE ENERGY PREDICTED BY IDOCK:    1.27 KCAL/MOL
REMARK 927      BINDING AFFINITY PREDICTED BY RF-SCORE:    0.00 PKD
ROOT
HETATM    1  C   UNL     1     -14.155  13.808  72.335  1.00  0.00    -0.593 C  
HETATM    2  C   UNL     1     -13.774  14.660  71.133  1.00  0.00    -0.374 C  
ENDROOT
BRANCH   2   3
HETATM    3  C   UNL     1     -12.284  14.548  70.807  1.00  0.00    -0.403 C  
BRANCH   3   4
HETATM    4  C   UNL     1     -12.034  13.963  69.456  1.00  0.00    -0.343 A  
HETATM    5  N   UNL     1     -12.106  14.772  68.383  1.00  0.00    -0.228 NA 
HETATM    6  N   UNL     1     -11.805  13.971  67.336  1.00  0.00    -0.389 NA 
HETATM    7  C   UNL     1     -11.533  12.692  67.707  1.00  0.00    -0.322 A  
HETATM    8  C   UNL     1     -11.765  14.530  66.006  1.00  0.00    -0.345 C  
HETATM    9  C   UNL     1     -11.691  12.650  69.060  1.00  0.00    -0.318 A  
HETATM   10  N   UNL     1     -11.488  11.492  69.710  1.00  0.00    -0.294 NA 
HETATM   11  C   UNL     1     -11.134  10.391  68.928  1.00  0.00    -0.247 C  
HETATM   12  N   UNL     1     -10.965  10.412  67.632  1.00  0.00    -0.307 N  
HETATM   13  O   UNL     1     -11.045  11.625  65.686  1.00  0.00    -0.300 OA 
HETATM   14  H   UNL     1     -10.679   9.559  67.151  1.00  0.00     0.000 HD 
HETATM   15  C   UNL     1     -11.168  11.567  66.901  1.00  0.00    -0.298 C  
BRANCH  11  16
HETATM   16  C   UNL     1     -10.886   9.058  69.611  1.00  0.00    -0.196 A  
HETATM   17  C   UNL     1     -11.353   7.400  71.324  1.00  0.00    -0.289 A  
HETATM   18  C   UNL     1     -11.633   8.639  70.729  1.00  0.00    -0.242 A  
HETATM   19  C   UNL     1      -9.843   8.239  69.131  1.00  0.00    -0.179 A  
HETATM   20  C   UNL     1     -10.273   6.632  70.890  1.00  0.00    -0.219 A  
HETATM   21  C   UNL     1      -9.488   7.075  69.822  1.00  0.00    -0.145 A  
BRANCH  18  22
HETATM   22  O   UNL     1     -12.647   9.455  71.156  1.00  0.00    -0.314 OA 
BRANCH  22  23
HETATM   23  C   UNL     1     -13.973   8.932  71.073  1.00  0.00     0.077 C  
HETATM   24  C   UNL     1     -14.380   8.544  72.483  1.00  0.00    -0.325 C  
ENDBRANCH  22  23
ENDBRANCH  18  22
BRANCH  21  25
HETATM   25  S   UNL     1      -8.102   6.074  69.305  1.00  0.00    -0.108 S  
HETATM   26  O   UNL     1      -8.607   5.082  68.379  1.00  0.00    -0.098 OA 
HETATM   27  O   UNL     1      -7.411   5.674  70.515  1.00  0.00    -0.080 OA 
BRANCH  25  28
HETATM   28  N   UNL     1      -7.059   7.106  68.464  1.00  0.00    -0.079 N  
HETATM   29  C   UNL     1      -6.663   6.779  67.079  1.00  0.00    -0.059 C  
HETATM   30  C   UNL     1      -7.629   7.417  66.075  1.00  0.00    -0.088 C  
HETATM   31  N   UNL     1      -7.787   8.879  66.213  1.00  0.00    -0.101 NA 
HETATM   32  C   UNL     1      -7.946   9.295  67.624  1.00  0.00    -0.103 C  
HETATM   33  C   UNL     1      -6.696   9.576  65.539  1.00  0.00    -0.080 C  
HETATM   34  C   UNL     1      -7.091   8.570  68.692  1.00  0.00    -0.072 C  
ENDBRANCH  25  28
ENDBRANCH  21  25
ENDBRANCH  11  16
ENDBRANCH   3   4
ENDBRANCH   2   3
TORSDOF 7
ENDMDL
MODEL      218
REMARK 921   NORMALIZED FREE ENERGY PREDICTED BY IDOCK:   -3.42 KCAL/MOL
REMARK 922        TOTAL FREE ENERGY PREDICTED BY IDOCK:   -6.16 KCAL/MOL
REMARK 923 INTER-LIGAND FREE ENERGY PREDICTED BY IDOCK:   -5.04 KCAL/MOL
REMARK 924 INTRA-LIGAND FREE ENERGY PREDICTED BY IDOCK:   -1.12 KCAL/MOL
REMARK 927      BINDING AFFINITY PREDICTED BY RF-SCORE:    0.00 PKD
ROOT
HETATM    1  C   UNL     1     -11.968  12.732  63.200  1.00  0.00    -0.347 C  
HETATM    2  C   UNL     1     -11.807  12.118  64.584  1.00  0.00    -0.400 C  
ENDROOT
BRANCH   2   3
HETATM    3  C   UNL     1     -12.631  12.864  65.635  1.00  0.00    -0.268 C  
BRANCH   3   4
HETATM    4  C   UNL     1     -11.781  13.629  66.594  1.00  0.00    -0.388 A  
HETATM    5  N   UNL     1     -12.119  14.900  66.878  1.00  0.00    -0.118 NA 
HETATM    6  N   UNL     1     -11.196  15.301  67.782  1.00  0.00    -0.320 NA 
HETATM    7  C   UNL     1     -10.297  14.328  68.089  1.00  0.00    -0.233 A  
HETATM    8  C   UNL     1     -11.275  16.633  68.332  1.00  0.00    -0.239 C  
HETATM    9  C   UNL     1     -10.634  13.249  67.328  1.00  0.00    -0.247 A  
HETATM   10  N   UNL     1      -9.904  12.125  67.422  1.00  0.00    -0.188 NA 
HETATM   11  C   UNL     1      -8.824  12.154  68.305  1.00  0.00    -0.182 C  
HETATM   12  N   UNL     1      -8.491  13.173  69.053  1.00  0.00    -0.282 N  
HETATM   13  O   UNL     1      -8.901  15.348  69.661  1.00  0.00    -0.256 OA 
HETATM   14  H   UNL     1      -7.698  13.089  69.689  1.00  0.00     0.000 HD 
HETATM   15  C   UNL     1      -9.192  14.363  68.998  1.00  0.00    -0.012 C  
BRANCH  11  16
HETATM   16  C   UNL     1      -7.968  10.909  68.456  1.00  0.00    -0.134 A  
HETATM   17  C   UNL     1      -5.822   9.780  68.601  1.00  0.00    -0.039 A  
HETATM   18  C   UNL     1      -6.561  10.964  68.468  1.00  0.00    -0.055 A  
HETATM   19  C   UNL     1      -8.611   9.657  68.541  1.00  0.00    -0.119 A  
HETATM   20  C   UNL     1      -6.464   8.540  68.610  1.00  0.00    -0.054 A  
HETATM   21  C   UNL     1      -7.857   8.477  68.532  1.00  0.00    -0.108 A  
BRANCH  18  22
HETATM   22  O   UNL     1      -5.975  12.200  68.398  1.00  0.00    -0.049 OA 
BRANCH  22  23
HETATM   23  C   UNL     1      -5.199  12.610  69.525  1.00  0.00    -0.073 C  
HETATM   24  C   UNL     1      -5.148  14.126  69.493  1.00  0.00    -0.086 C  
ENDBRANCH  22  23
ENDBRANCH  18  22
BRANCH  21  25
HETATM   25  S   UNL     1      -8.642   6.873  68.527  1.00  0.00    -0.122 S  
HETATM   26  O   UNL     1      -7.905   6.034  67.606  1.00  0.00    -0.099 OA 
HETATM   27  O   UNL     1     -10.059   7.110  68.339  1.00  0.00    -0.157 OA 
BRANCH  25  28
HETATM   28  N   UNL     1      -8.452   6.247  70.087  1.00  0.00    -0.132 N  
HETATM   29  C   UNL     1      -7.602   5.058  70.302  1.00  0.00    -0.063 C  
HETATM   30  C   UNL     1      -6.159   5.475  70.611  1.00  0.00    -0.026 C  
HETATM   31  N   UNL     1      -6.014   6.401  71.752  1.00  0.00    -0.036 NA 
HETATM   32  C   UNL     1      -7.014   7.492  71.720  1.00  0.00    -0.062 C  
HETATM   33  C   UNL     1      -6.026   5.664  73.012  1.00  0.00    -0.036 C  
HETATM   34  C   UNL     1      -8.453   7.141  71.270  1.00  0.00    -0.113 C  
ENDBRANCH  25  28
ENDBRANCH  21  25
ENDBRANCH  11  16
ENDBRANCH   3   4
ENDBRANCH   2   3
TORSDOF 7
ENDMDL
MODEL      219
REMARK 921   NORMALIZED FREE ENERGY PREDICTED BY IDOCK:   -3.41 KCAL/MOL
REMARK 922        TOTAL FREE ENERGY PREDICTED BY IDOCK:   -6.15 KCAL/MOL
REMARK 923 INTER-LIGAND FREE ENERGY PREDICTED BY IDOCK:   -5.34 KCAL/MOL
REMARK 924 INTRA-LIGAND FREE ENERGY PREDICTED BY IDOCK:   -0.81 KCAL/MOL
REMARK 927      BINDING AFFINITY PREDICTED BY RF-SCORE:    0.00 PKD
ROOT
HETATM    1  C   UNL     1      -7.520   7.341  69.678  1.00  0.00    -0.094 C  
HETATM    2  C   UNL     1      -7.125   6.483  68.483  1.00  0.00    -0.083 C  
ENDROOT
BRANCH   2   3
HETATM    3  C   UNL     1      -5.943   7.084  67.719  1.00  0.00    -0.029 C  
BRANCH   3   4
HETATM    4  C   UNL     1      -6.349   7.684  66.415  1.00  0.00    -0.046 A  
HETATM    5  N   UNL     1      -5.925   7.100  65.279  1.00  0.00    -0.036 NA 
HETATM    6  N   UNL     1      -6.475   7.842  64.291  1.00  0.00    -0.056 NA 
HETATM    7  C   UNL     1      -7.239   8.865  64.759  1.00  0.00    -0.092 A  
HETATM    8  C   UNL     1      -6.242   7.473  62.916  1.00  0.00    -0.055 C  
HETATM    9  C   UNL     1      -7.162   8.803  66.117  1.00  0.00    -0.085 A  
HETATM   10  N   UNL     1      -7.827   9.707  66.855  1.00  0.00    -0.102 NA 
HETATM   11  C   UNL     1      -8.553  10.672  66.155  1.00  0.00    -0.159 C  
HETATM   12  N   UNL     1      -8.649  10.743  64.853  1.00  0.00    -0.313 N  
HETATM   13  O   UNL     1      -8.027   9.894  62.814  1.00  0.00    -0.122 OA 
HETATM   14  H   UNL     1      -9.227  11.471  64.433  1.00  0.00     0.000 HD 
HETATM   15  C   UNL     1      -7.983   9.850  64.035  1.00  0.00    -0.150 C  
BRANCH  11  16
HETATM   16  C   UNL     1      -9.328  11.717  66.938  1.00  0.00    -0.195 A  
HETATM   17  C   UNL     1     -10.737  12.405  68.794  1.00  0.00    -0.242 A  
HETATM   18  C   UNL     1     -10.030  11.400  68.117  1.00  0.00    -0.189 A  
HETATM   19  C   UNL     1      -9.377  13.034  66.438  1.00  0.00    -0.189 A  
HETATM   20  C   UNL     1     -10.841  13.687  68.252  1.00  0.00    -0.268 A  
HETATM   21  C   UNL     1     -10.199  13.989  67.048  1.00  0.00    -0.261 A  
BRANCH  18  22
HETATM   22  O   UNL     1      -9.947  10.113  68.579  1.00  0.00    -0.154 OA 
BRANCH  22  23
HETATM   23  C   UNL     1      -9.799   9.943  69.989  1.00  0.00    -0.243 C  
HETATM   24  C   UNL     1     -10.987   9.124  70.458  1.00  0.00    -0.307 C  
ENDBRANCH  22  23
ENDBRANCH  18  22
BRANCH  21  25
HETATM   25  S   UNL     1     -10.370  15.634  66.376  1.00  0.00    -0.307 S  
HETATM   26  O   UNL     1     -11.635  16.162  66.842  1.00  0.00     0.286 OA 
HETATM   27  O   UNL     1     -10.088  15.530  64.959  1.00  0.00    -0.352 OA 
BRANCH  25  28
HETATM   28  N   UNL     1      -9.126  16.556  67.057  1.00  0.00    -0.205 N  
HETATM   29  C   UNL     1      -9.171  16.904  68.492  1.00  0.00    -0.260 C  
HETATM   30  C   UNL     1      -8.444  15.844  69.328  1.00  0.00    -0.242 C  
HETATM   31  N   UNL     1      -7.047  15.589  68.923  1.00  0.00    -0.125 NA 
HETATM   32  C   UNL     1      -6.901  15.473  67.455  1.00  0.00    -0.195 C  
HETATM   33  C   UNL     1      -6.158  16.592  69.501  1.00  0.00    -0.214 C  
HETATM   34  C   UNL     1      -7.732  16.430  66.568  1.00  0.00    -0.260 C  
ENDBRANCH  25  28
ENDBRANCH  21  25
ENDBRANCH  11  16
ENDBRANCH   3   4
ENDBRANCH   2   3
TORSDOF 7
ENDMDL
MODEL      220
REMARK 921   NORMALIZED FREE ENERGY PREDICTED BY IDOCK:   -3.33 KCAL/MOL
REMARK 922        TOTAL FREE ENERGY PREDICTED BY IDOCK:   -6.04 KCAL/MOL
REMARK 923 INTER-LIGAND FREE ENERGY PREDICTED BY IDOCK:   -5.35 KCAL/MOL
REMARK 924 INTRA-LIGAND FREE ENERGY PREDICTED BY IDOCK:   -0.69 KCAL/MOL
REMARK 927      BINDING AFFINITY PREDICTED BY RF-SCORE:    0.00 PKD
ROOT
HETATM    1  C   UNL     1     -11.280  14.413  70.787  1.00  0.00     0.076 C  
HETATM    2  C   UNL     1     -11.221  14.324  69.269  1.00  0.00    -0.309 C  
ENDROOT
BRANCH   2   3
HETATM    3  C   UNL     1     -12.293  13.384  68.714  1.00  0.00     0.037 C  
BRANCH   3   4
HETATM    4  C   UNL     1     -12.063  13.034  67.281  1.00  0.00    -0.245 A  
HETATM    5  N   UNL     1     -12.621  13.808  66.333  1.00  0.00    -0.344 NA 
HETATM    6  N   UNL     1     -12.210  13.264  65.166  1.00  0.00    -0.415 NA 
HETATM    7  C   UNL     1     -11.403  12.183  65.340  1.00  0.00    -0.338 A  
HETATM    8  C   UNL     1     -12.612  13.872  63.920  1.00  0.00     0.003 C  
HETATM    9  C   UNL     1     -11.306  11.998  66.686  1.00  0.00    -0.340 A  
HETATM   10  N   UNL     1     -10.563  10.983  67.158  1.00  0.00    -0.236 NA 
HETATM   11  C   UNL     1      -9.942  10.170  66.208  1.00  0.00    -0.242 C  
HETATM   12  N   UNL     1     -10.013  10.337  64.913  1.00  0.00    -0.334 N  
HETATM   13  O   UNL     1     -10.881  11.532  63.157  1.00  0.00    -0.306 OA 
HETATM   14  H   UNL     1      -9.500   9.704  64.298  1.00  0.00     0.000 HD 
HETATM   15  C   UNL     1     -10.768  11.354  64.362  1.00  0.00    -0.342 C  
BRANCH  11  16
HETATM   16  C   UNL     1      -9.084   9.011  66.685  1.00  0.00    -0.196 A  
HETATM   17  C   UNL     1      -7.806   6.982  66.299  1.00  0.00    -0.104 A  
HETATM   18  C   UNL     1      -8.585   8.036  65.800  1.00  0.00    -0.153 A  
HETATM   19  C   UNL     1      -8.822   8.891  68.065  1.00  0.00    -0.133 A  
HETATM   20  C   UNL     1      -7.613   6.830  67.673  1.00  0.00    -0.106 A  
HETATM   21  C   UNL     1      -8.162   7.760  68.560  1.00  0.00    -0.128 A  
BRANCH  18  22
HETATM   22  O   UNL     1      -8.850   8.195  64.466  1.00  0.00     0.118 OA 
BRANCH  22  23
HETATM   23  C   UNL     1      -7.905   7.637  63.551  1.00  0.00    -0.124 C  
HETATM   24  C   UNL     1      -8.505   6.340  63.039  1.00  0.00     0.170 C  
ENDBRANCH  22  23
ENDBRANCH  18  22
BRANCH  21  25
HETATM   25  S   UNL     1      -7.911   7.524  70.312  1.00  0.00    -0.104 S  
HETATM   26  O   UNL     1      -7.356   8.753  70.839  1.00  0.00    -0.066 OA 
HETATM   27  O   UNL     1      -7.202   6.269  70.459  1.00  0.00    -0.075 OA 
BRANCH  25  28
HETATM   28  N   UNL     1      -9.446   7.301  70.986  1.00  0.00    -0.159 N  
HETATM   29  C   UNL     1      -9.894   8.168  72.095  1.00  0.00    -0.246 C  
HETATM   30  C   UNL     1     -10.632   9.399  71.555  1.00  0.00    -0.261 C  
HETATM   31  N   UNL     1     -11.775   9.095  70.671  1.00  0.00    -0.249 NA 
HETATM   32  C   UNL     1     -11.455   8.042  69.682  1.00  0.00     0.336 C  
HETATM   33  C   UNL     1     -12.962   8.784  71.462  1.00  0.00    -0.319 C  
HETATM   34  C   UNL     1     -10.585   6.851  70.150  1.00  0.00    -0.220 C  
ENDBRANCH  25  28
ENDBRANCH  21  25
ENDBRANCH  11  16
ENDBRANCH   3   4
ENDBRANCH   2   3
TORSDOF 7
ENDMDL
MODEL      221
REMARK 921   NORMALIZED FREE ENERGY PREDICTED BY IDOCK:   -3.31 KCAL/MOL
REMARK 922        TOTAL FREE ENERGY PREDICTED BY IDOCK:   -6.01 KCAL/MOL
REMARK 923 INTER-LIGAND FREE ENERGY PREDICTED BY IDOCK:   -7.78 KCAL/MOL
REMARK 924 INTRA-LIGAND FREE ENERGY PREDICTED BY IDOCK:    1.78 KCAL/MOL
REMARK 927      BINDING AFFINITY PREDICTED BY RF-SCORE:    0.00 PKD
ROOT
HETATM    1  C   UNL     1     -14.150  13.818  72.345  1.00  0.00    -0.593 C  
HETATM    2  C   UNL     1     -13.690  14.654  71.159  1.00  0.00    -0.374 C  
ENDROOT
BRANCH   2   3
HETATM    3  C   UNL     1     -12.191  14.491  70.897  1.00  0.00    -0.409 C  
BRANCH   3   4
HETATM    4  C   UNL     1     -11.905  13.853  69.578  1.00  0.00    -0.329 A  
HETATM    5  N   UNL     1     -11.861  14.633  68.483  1.00  0.00    -0.326 NA 
HETATM    6  N   UNL     1     -11.555  13.784  67.475  1.00  0.00    -0.334 NA 
HETATM    7  C   UNL     1     -11.393  12.501  67.894  1.00  0.00    -0.291 A  
HETATM    8  C   UNL     1     -11.401  14.302  66.137  1.00  0.00    -0.342 C  
HETATM    9  C   UNL     1     -11.631  12.509  69.235  1.00  0.00    -0.319 A  
HETATM   10  N   UNL     1     -11.545  11.359  69.924  1.00  0.00    -0.315 NA 
HETATM   11  C   UNL     1     -11.222  10.215  69.192  1.00  0.00    -0.183 C  
HETATM   12  N   UNL     1     -10.978  10.188  67.908  1.00  0.00    -0.352 N  
HETATM   13  O   UNL     1     -10.863  11.348  65.932  1.00  0.00    -0.272 OA 
HETATM   14  H   UNL     1     -10.723   9.304  67.466  1.00  0.00     0.000 HD 
HETATM   15  C   UNL     1     -11.059  11.332  67.139  1.00  0.00    -0.301 C  
BRANCH  11  16
HETATM   16  C   UNL     1     -11.105   8.888  69.921  1.00  0.00    -0.146 A  
HETATM   17  C   UNL     1     -11.790   7.310  71.636  1.00  0.00    -0.330 A  
HETATM   18  C   UNL     1     -11.951   8.546  70.994  1.00  0.00    -0.231 A  
HETATM   19  C   UNL     1     -10.085   7.995  69.533  1.00  0.00    -0.196 A  
HETATM   20  C   UNL     1     -10.733   6.465  71.295  1.00  0.00    -0.288 A  
HETATM   21  C   UNL     1      -9.851   6.830  70.274  1.00  0.00    -0.174 A  
BRANCH  18  22
HETATM   22  O   UNL     1     -12.938   9.434  71.331  1.00  0.00    -0.332 OA 
BRANCH  22  23
HETATM   23  C   UNL     1     -14.286   9.006  71.130  1.00  0.00     0.044 C  
HETATM   24  C   UNL     1     -14.399   7.618  71.732  1.00  0.00    -0.586 C  
ENDBRANCH  22  23
ENDBRANCH  18  22
BRANCH  21  25
HETATM   25  S   UNL     1      -8.499   5.733  69.878  1.00  0.00    -0.125 S  
HETATM   26  O   UNL     1      -7.270   6.461  70.111  1.00  0.00    -0.078 OA 
HETATM   27  O   UNL     1      -8.793   5.174  68.573  1.00  0.00    -0.100 OA 
BRANCH  25  28
HETATM   28  N   UNL     1      -8.582   4.458  70.987  1.00  0.00    -0.088 N  
HETATM   29  C   UNL     1      -7.436   3.537  71.133  1.00  0.00    -0.040 C  
HETATM   30  C   UNL     1      -6.478   4.034  72.222  1.00  0.00    -0.021 C  
HETATM   31  N   UNL     1      -7.105   4.258  73.540  1.00  0.00    -0.067 NA 
HETATM   32  C   UNL     1      -8.396   4.974  73.433  1.00  0.00    -0.110 C  
HETATM   33  C   UNL     1      -7.216   3.001  74.273  1.00  0.00    -0.046 C  
HETATM   34  C   UNL     1      -9.332   4.604  72.257  1.00  0.00    -0.128 C  
ENDBRANCH  25  28
ENDBRANCH  21  25
ENDBRANCH  11  16
ENDBRANCH   3   4
ENDBRANCH   2   3
TORSDOF 7
ENDMDL
MODEL      222
REMARK 921   NORMALIZED FREE ENERGY PREDICTED BY IDOCK:   -3.28 KCAL/MOL
REMARK 922        TOTAL FREE ENERGY PREDICTED BY IDOCK:   -5.97 KCAL/MOL
REMARK 923 INTER-LIGAND FREE ENERGY PREDICTED BY IDOCK:   -5.00 KCAL/MOL
REMARK 924 INTRA-LIGAND FREE ENERGY PREDICTED BY IDOCK:   -0.97 KCAL/MOL
REMARK 927      BINDING AFFINITY PREDICTED BY RF-SCORE:    0.00 PKD
ROOT
HETATM    1  C   UNL     1      -6.221   9.917  65.643  1.00  0.00    -0.078 C  
HETATM    2  C   UNL     1      -6.548   9.238  64.320  1.00  0.00    -0.086 C  
ENDROOT
BRANCH   2   3
HETATM    3  C   UNL     1      -6.200   7.749  64.345  1.00  0.00    -0.052 C  
BRANCH   3   4
HETATM    4  C   UNL     1      -7.400   6.882  64.539  1.00  0.00    -0.091 A  
HETATM    5  N   UNL     1      -7.544   5.800  63.752  1.00  0.00    -0.073 NA 
HETATM    6  N   UNL     1      -8.685   5.217  64.186  1.00  0.00    -0.075 NA 
HETATM    7  C   UNL     1      -9.259   5.882  65.223  1.00  0.00     0.219 A  
HETATM    8  C   UNL     1      -9.134   3.994  63.566  1.00  0.00    -0.128 C  
HETATM    9  C   UNL     1      -8.469   6.966  65.460  1.00  0.00    -0.116 A  
HETATM   10  N   UNL     1      -8.801   7.819  66.444  1.00  0.00    -0.148 NA 
HETATM   11  C   UNL     1      -9.965   7.527  67.157  1.00  0.00    -0.220 C  
HETATM   12  N   UNL     1     -10.730   6.487  66.954  1.00  0.00    -0.420 N  
HETATM   13  O   UNL     1     -11.153   4.604  65.713  1.00  0.00    -0.138 OA 
HETATM   14  H   UNL     1     -11.549   6.344  67.546  1.00  0.00     0.000 HD 
HETATM   15  C   UNL     1     -10.452   5.577  65.952  1.00  0.00     0.118 C  
BRANCH  11  16
HETATM   16  C   UNL     1     -10.385   8.454  68.284  1.00  0.00    -0.244 A  
HETATM   17  C   UNL     1     -11.095   8.876  70.568  1.00  0.00    -0.288 A  
HETATM   18  C   UNL     1     -10.704   7.974  69.569  1.00  0.00    -0.181 A  
HETATM   19  C   UNL     1     -10.499   9.833  68.014  1.00  0.00    -0.271 A  
HETATM   20  C   UNL     1     -11.277  10.228  70.273  1.00  0.00    -0.395 A  
HETATM   21  C   UNL     1     -11.024  10.698  68.981  1.00  0.00    -0.248 A  
BRANCH  18  22
HETATM   22  O   UNL     1     -10.567   6.630  69.796  1.00  0.00    -0.201 OA 
BRANCH  22  23
HETATM   23  C   UNL     1     -10.353   6.223  71.148  1.00  0.00    -0.209 C  
HETATM   24  C   UNL     1     -10.147   4.720  71.126  1.00  0.00    -0.261 C  
ENDBRANCH  22  23
ENDBRANCH  18  22
BRANCH  21  25
HETATM   25  S   UNL     1     -11.285  12.430  68.635  1.00  0.00    -0.293 S  
HETATM   26  O   UNL     1     -12.607  12.561  68.060  1.00  0.00     0.193 OA 
HETATM   27  O   UNL     1     -10.115  12.885  67.912  1.00  0.00    -0.219 OA 
BRANCH  25  28
HETATM   28  N   UNL     1     -11.275  13.220  70.131  1.00  0.00     0.191 N  
HETATM   29  C   UNL     1     -10.567  14.508  70.276  1.00  0.00     0.317 C  
HETATM   30  C   UNL     1     -11.513  15.681  69.994  1.00  0.00    -0.344 C  
HETATM   31  N   UNL     1     -12.740  15.696  70.816  1.00  0.00    -0.460 NA 
HETATM   32  C   UNL     1     -13.369  14.359  70.908  1.00  0.00    -0.238 C  
HETATM   33  C   UNL     1     -12.471  16.283  72.124  1.00  0.00    -0.246 C  
HETATM   34  C   UNL     1     -12.439  13.130  71.045  1.00  0.00    -0.318 C  
ENDBRANCH  25  28
ENDBRANCH  21  25
ENDBRANCH  11  16
ENDBRANCH   3   4
ENDBRANCH   2   3
TORSDOF 7
ENDMDL
MODEL      223
REMARK 921   NORMALIZED FREE ENERGY PREDICTED BY IDOCK:   -3.24 KCAL/MOL
REMARK 922        TOTAL FREE ENERGY PREDICTED BY IDOCK:   -5.92 KCAL/MOL
REMARK 923 INTER-LIGAND FREE ENERGY PREDICTED BY IDOCK:   -5.39 KCAL/MOL
REMARK 924 INTRA-LIGAND FREE ENERGY PREDICTED BY IDOCK:   -0.53 KCAL/MOL
REMARK 927      BINDING AFFINITY PREDICTED BY RF-SCORE:    0.00 PKD
ROOT
HETATM    1  C   UNL     1      -7.417   3.897  73.755  1.00  0.00    -0.070 C  
HETATM    2  C   UNL     1      -7.451   3.114  72.450  1.00  0.00    -0.056 C  
ENDROOT
BRANCH   2   3
HETATM    3  C   UNL     1      -7.892   3.988  71.275  1.00  0.00    -0.070 C  
BRANCH   3   4
HETATM    4  C   UNL     1      -9.142   4.751  71.564  1.00  0.00    -0.136 A  
HETATM    5  N   UNL     1     -10.092   4.166  72.316  1.00  0.00    -0.176 NA 
HETATM    6  N   UNL     1     -11.062   5.102  72.423  1.00  0.00    -0.189 NA 
HETATM    7  C   UNL     1     -10.756   6.260  71.779  1.00  0.00    -0.236 A  
HETATM    8  C   UNL     1     -12.243   4.811  73.200  1.00  0.00     0.397 C  
HETATM    9  C   UNL     1      -9.539   6.059  71.201  1.00  0.00    -0.172 A  
HETATM   10  N   UNL     1      -8.980   7.049  70.485  1.00  0.00    -0.154 NA 
HETATM   11  C   UNL     1      -9.714   8.231  70.376  1.00  0.00    -0.168 C  
HETATM   12  N   UNL     1     -10.877   8.449  70.932  1.00  0.00    -0.225 N  
HETATM   13  O   UNL     1     -12.609   7.623  72.190  1.00  0.00    -0.271 OA 
HETATM   14  H   UNL     1     -11.325   9.358  70.817  1.00  0.00     0.000 HD 
HETATM   15  C   UNL     1     -11.511   7.470  71.673  1.00  0.00    -0.261 C  
BRANCH  11  16
HETATM   16  C   UNL     1      -9.128   9.386  69.583  1.00  0.00    -0.190 A  
HETATM   17  C   UNL     1      -7.485  11.141  69.236  1.00  0.00    -0.076 A  
HETATM   18  C   UNL     1      -7.975  10.076  70.005  1.00  0.00    -0.150 A  
HETATM   19  C   UNL     1      -9.792   9.803  68.411  1.00  0.00    -0.168 A  
HETATM   20  C   UNL     1      -8.189  11.594  68.119  1.00  0.00    -0.151 A  
HETATM   21  C   UNL     1      -9.370  10.953  67.734  1.00  0.00    -0.157 A  
BRANCH  18  22
HETATM   22  O   UNL     1      -7.351   9.632  71.140  1.00  0.00    -0.332 OA 
BRANCH  22  23
HETATM   23  C   UNL     1      -5.975   9.268  71.019  1.00  0.00    -0.064 C  
HETATM   24  C   UNL     1      -5.178  10.309  71.783  1.00  0.00    -0.027 C  
ENDBRANCH  22  23
ENDBRANCH  18  22
BRANCH  21  25
HETATM   25  S   UNL     1     -10.254  11.572  66.311  1.00  0.00    -0.239 S  
HETATM   26  O   UNL     1     -10.986  10.460  65.741  1.00  0.00     0.090 OA 
HETATM   27  O   UNL     1      -9.291  12.308  65.518  1.00  0.00    -0.097 OA 
BRANCH  25  28
HETATM   28  N   UNL     1     -11.369  12.699  66.899  1.00  0.00    -0.301 N  
HETATM   29  C   UNL     1     -11.598  12.816  68.353  1.00  0.00    -0.325 C  
HETATM   30  C   UNL     1     -10.661  13.863  68.966  1.00  0.00    -0.195 C  
HETATM   31  N   UNL     1     -10.738  15.200  68.343  1.00  0.00    -0.242 NA 
HETATM   32  C   UNL     1     -10.759  15.130  66.865  1.00  0.00    -0.308 C  
HETATM   33  C   UNL     1     -11.864  15.952  68.888  1.00  0.00    -0.304 C  
HETATM   34  C   UNL     1     -11.577  13.994  66.206  1.00  0.00    -0.369 C  
ENDBRANCH  25  28
ENDBRANCH  21  25
ENDBRANCH  11  16
ENDBRANCH   3   4
ENDBRANCH   2   3
TORSDOF 7
ENDMDL
MODEL      224
REMARK 921   NORMALIZED FREE ENERGY PREDICTED BY IDOCK:   -3.17 KCAL/MOL
REMARK 922        TOTAL FREE ENERGY PREDICTED BY IDOCK:   -5.81 KCAL/MOL
REMARK 923 INTER-LIGAND FREE ENERGY PREDICTED BY IDOCK:   -4.49 KCAL/MOL
REMARK 924 INTRA-LIGAND FREE ENERGY PREDICTED BY IDOCK:   -1.32 KCAL/MOL
REMARK 927      BINDING AFFINITY PREDICTED BY RF-SCORE:    0.00 PKD
ROOT
HETATM    1  C   UNL     1      -6.218   9.899  65.658  1.00  0.00    -0.078 C  
HETATM    2  C   UNL     1      -6.025   9.180  64.330  1.00  0.00    -0.070 C  
ENDROOT
BRANCH   2   3
HETATM    3  C   UNL     1      -5.491   7.759  64.526  1.00  0.00    -0.033 C  
BRANCH   3   4
HETATM    4  C   UNL     1      -6.550   6.720  64.364  1.00  0.00    -0.042 A  
HETATM    5  N   UNL     1      -6.572   5.998  63.229  1.00  0.00    -0.032 NA 
HETATM    6  N   UNL     1      -7.603   5.139  63.395  1.00  0.00    -0.060 NA 
HETATM    7  C   UNL     1      -8.224   5.282  64.596  1.00  0.00    -0.134 A  
HETATM    8  C   UNL     1      -7.901   4.181  62.357  1.00  0.00    -0.061 C  
HETATM    9  C   UNL     1      -7.585   6.303  65.232  1.00  0.00    -0.090 A  
HETATM   10  N   UNL     1      -7.995   6.673  66.457  1.00  0.00    -0.104 NA 
HETATM   11  C   UNL     1      -9.078   5.974  66.990  1.00  0.00    -0.117 C  
HETATM   12  N   UNL     1      -9.698   4.985  66.402  1.00  0.00    -0.165 N  
HETATM   13  O   UNL     1      -9.902   3.656  64.542  1.00  0.00    -0.164 OA 
HETATM   14  H   UNL     1     -10.466   4.517  66.885  1.00  0.00     0.000 HD 
HETATM   15  C   UNL     1      -9.335   4.560  65.139  1.00  0.00    -0.159 C  
BRANCH  11  16
HETATM   16  C   UNL     1      -9.580   6.346  68.374  1.00  0.00    -0.125 A  
HETATM   17  C   UNL     1     -10.287   5.782  70.628  1.00  0.00    -0.310 A  
HETATM   18  C   UNL     1      -9.815   5.380  69.371  1.00  0.00    -0.184 A  
HETATM   19  C   UNL     1      -9.861   7.701  68.646  1.00  0.00    -0.175 A  
HETATM   20  C   UNL     1     -10.632   7.114  70.865  1.00  0.00    -0.238 A  
HETATM   21  C   UNL     1     -10.462   8.066  69.856  1.00  0.00    -0.233 A  
BRANCH  18  22
HETATM   22  O   UNL     1      -9.517   4.077  69.073  1.00  0.00    -0.158 OA 
BRANCH  22  23
HETATM   23  C   UNL     1      -8.274   3.571  69.563  1.00  0.00    -0.052 C  
HETATM   24  C   UNL     1      -8.564   2.212  70.173  1.00  0.00    -0.098 C  
ENDBRANCH  22  23
ENDBRANCH  18  22
BRANCH  21  25
HETATM   25  S   UNL     1     -10.931   9.757  70.188  1.00  0.00    -0.310 S  
HETATM   26  O   UNL     1      -9.935  10.315  71.079  1.00  0.00     0.523 OA 
HETATM   27  O   UNL     1     -12.329   9.728  70.567  1.00  0.00    -0.214 OA 
BRANCH  25  28
HETATM   28  N   UNL     1     -10.840  10.574  68.710  1.00  0.00    -0.215 N  
HETATM   29  C   UNL     1     -11.877  11.563  68.353  1.00  0.00    -0.283 C  
HETATM   30  C   UNL     1     -11.469  12.966  68.818  1.00  0.00    -0.303 C  
HETATM   31  N   UNL     1     -10.155  13.424  68.321  1.00  0.00    -0.243 NA 
HETATM   32  C   UNL     1      -9.118  12.374  68.430  1.00  0.00    -0.141 C  
HETATM   33  C   UNL     1     -10.279  13.955  66.968  1.00  0.00    -0.254 C  
HETATM   34  C   UNL     1      -9.528  10.916  68.110  1.00  0.00    -0.165 C  
ENDBRANCH  25  28
ENDBRANCH  21  25
ENDBRANCH  11  16
ENDBRANCH   3   4
ENDBRANCH   2   3
TORSDOF 7
ENDMDL
MODEL      225
REMARK 921   NORMALIZED FREE ENERGY PREDICTED BY IDOCK:   -3.16 KCAL/MOL
REMARK 922        TOTAL FREE ENERGY PREDICTED BY IDOCK:   -5.80 KCAL/MOL
REMARK 923 INTER-LIGAND FREE ENERGY PREDICTED BY IDOCK:   -6.08 KCAL/MOL
REMARK 924 INTRA-LIGAND FREE ENERGY PREDICTED BY IDOCK:    0.27 KCAL/MOL
REMARK 927      BINDING AFFINITY PREDICTED BY RF-SCORE:    0.00 PKD
ROOT
HETATM    1  C   UNL     1      -9.039   9.791  62.436  1.00  0.00    -0.300 C  
HETATM    2  C   UNL     1      -7.606  10.139  62.815  1.00  0.00    -0.144 C  
ENDROOT
BRANCH   2   3
HETATM    3  C   UNL     1      -6.931   9.004  63.588  1.00  0.00    -0.089 C  
BRANCH   3   4
HETATM    4  C   UNL     1      -7.608   8.712  64.886  1.00  0.00    -0.100 A  
HETATM    5  N   UNL     1      -8.063   7.465  65.106  1.00  0.00    -0.128 NA 
HETATM    6  N   UNL     1      -8.583   7.511  66.353  1.00  0.00    -0.133 NA 
HETATM    7  C   UNL     1      -8.462   8.734  66.934  1.00  0.00    -0.111 A  
HETATM    8  C   UNL     1      -9.148   6.313  66.929  1.00  0.00    -0.128 C  
HETATM    9  C   UNL     1      -7.858   9.532  66.011  1.00  0.00    -0.100 A  
HETATM   10  N   UNL     1      -7.611  10.817  66.313  1.00  0.00    -0.140 NA 
HETATM   11  C   UNL     1      -8.013  11.248  67.579  1.00  0.00    -0.124 C  
HETATM   12  N   UNL     1      -8.583  10.497  68.484  1.00  0.00    -0.128 N  
HETATM   13  O   UNL     1      -9.427   8.438  69.042  1.00  0.00    -0.150 OA 
HETATM   14  H   UNL     1      -8.817  10.898  69.392  1.00  0.00     0.000 HD 
HETATM   15  C   UNL     1      -8.874   9.170  68.234  1.00  0.00    -0.129 C  
BRANCH  11  16
HETATM   16  C   UNL     1      -7.754  12.691  67.977  1.00  0.00    -0.139 A  
HETATM   17  C   UNL     1      -6.510  14.400  69.174  1.00  0.00    -0.107 A  
HETATM   18  C   UNL     1      -6.696  13.053  68.833  1.00  0.00    -0.096 A  
HETATM   19  C   UNL     1      -8.632  13.688  67.505  1.00  0.00    -0.197 A  
HETATM   20  C   UNL     1      -7.427  15.369  68.763  1.00  0.00    -0.136 A  
HETATM   21  C   UNL     1      -8.515  15.004  67.967  1.00  0.00    -0.149 A  
BRANCH  18  22
HETATM   22  O   UNL     1      -5.856  12.058  69.259  1.00  0.00    -0.063 OA 
BRANCH  22  23
HETATM   23  C   UNL     1      -5.779  11.838  70.668  1.00  0.00    -0.123 C  
HETATM   24  C   UNL     1      -5.812  10.336  70.880  1.00  0.00    -0.074 C  
ENDBRANCH  22  23
ENDBRANCH  18  22
BRANCH  21  25
HETATM   25  S   UNL     1      -9.678  16.268  67.476  1.00  0.00    -0.236 S  
HETATM   26  O   UNL     1      -9.068  17.021  66.400  1.00  0.00    -0.254 OA 
HETATM   27  O   UNL     1     -10.105  16.928  68.693  1.00  0.00    -0.257 OA 
BRANCH  25  28
HETATM   28  N   UNL     1     -11.027  15.457  66.858  1.00  0.00    -0.315 N  
HETATM   29  C   UNL     1     -11.222  15.362  65.397  1.00  0.00    -0.272 C  
HETATM   30  C   UNL     1     -10.571  14.087  64.847  1.00  0.00    -0.424 C  
HETATM   31  N   UNL     1     -11.023  12.836  65.489  1.00  0.00    -0.275 NA 
HETATM   32  C   UNL     1     -11.083  12.953  66.963  1.00  0.00    -0.275 C  
HETATM   33  C   UNL     1     -12.285  12.392  64.907  1.00  0.00    -0.418 C  
HETATM   34  C   UNL     1     -11.597  14.283  67.563  1.00  0.00    -0.363 C  
ENDBRANCH  25  28
ENDBRANCH  21  25
ENDBRANCH  11  16
ENDBRANCH   3   4
ENDBRANCH   2   3
TORSDOF 7
ENDMDL
MODEL      226
REMARK 921   NORMALIZED FREE ENERGY PREDICTED BY IDOCK:   -3.15 KCAL/MOL
REMARK 922        TOTAL FREE ENERGY PREDICTED BY IDOCK:   -5.79 KCAL/MOL
REMARK 923 INTER-LIGAND FREE ENERGY PREDICTED BY IDOCK:   -4.31 KCAL/MOL
REMARK 924 INTRA-LIGAND FREE ENERGY PREDICTED BY IDOCK:   -1.47 KCAL/MOL
REMARK 927      BINDING AFFINITY PREDICTED BY RF-SCORE:    0.00 PKD
ROOT
HETATM    1  C   UNL     1     -10.983  21.071  69.206  1.00  0.00     1.239 C  
HETATM    2  C   UNL     1     -10.236  19.796  69.571  1.00  0.00    -0.031 C  
ENDROOT
BRANCH   2   3
HETATM    3  C   UNL     1     -10.386  18.722  68.492  1.00  0.00    -0.312 C  
BRANCH   3   4
HETATM    4  C   UNL     1      -9.086  18.366  67.851  1.00  0.00    -0.283 A  
HETATM    5  N   UNL     1      -8.370  19.344  67.266  1.00  0.00    -0.287 NA 
HETATM    6  N   UNL     1      -7.255  18.724  66.817  1.00  0.00    -0.209 NA 
HETATM    7  C   UNL     1      -7.234  17.396  67.107  1.00  0.00    -0.172 A  
HETATM    8  C   UNL     1      -6.237  19.496  66.147  1.00  0.00    -0.176 C  
HETATM    9  C   UNL     1      -8.404  17.131  67.752  1.00  0.00    -0.202 A  
HETATM   10  N   UNL     1      -8.661  15.878  68.160  1.00  0.00    -0.169 NA 
HETATM   11  C   UNL     1      -7.690  14.917  67.873  1.00  0.00    -0.141 C  
HETATM   12  N   UNL     1      -6.557  15.151  67.266  1.00  0.00    -0.050 N  
HETATM   13  O   UNL     1      -5.197  16.673  66.219  1.00  0.00    -0.290 OA 
HETATM   14  H   UNL     1      -5.897  14.385  67.125  1.00  0.00     0.000 HD 
HETATM   15  C   UNL     1      -6.234  16.415  66.812  1.00  0.00     0.067 C  
BRANCH  11  16
HETATM   16  C   UNL     1      -7.926  13.483  68.317  1.00  0.00    -0.147 A  
HETATM   17  C   UNL     1      -7.222  11.423  69.394  1.00  0.00    -0.030 A  
HETATM   18  C   UNL     1      -6.952  12.747  69.018  1.00  0.00    -0.059 A  
HETATM   19  C   UNL     1      -9.145  12.864  67.971  1.00  0.00    -0.211 A  
HETATM   20  C   UNL     1      -8.399  10.795  68.984  1.00  0.00    -0.138 A  
HETATM   21  C   UNL     1      -9.340  11.502  68.231  1.00  0.00    -0.190 A  
BRANCH  18  22
HETATM   22  O   UNL     1      -5.788  13.388  69.347  1.00  0.00    -0.082 OA 
BRANCH  22  23
HETATM   23  C   UNL     1      -5.370  13.306  70.711  1.00  0.00    -0.155 C  
HETATM   24  C   UNL     1      -5.416  14.716  71.269  1.00  0.00    -0.132 C  
ENDBRANCH  22  23
ENDBRANCH  18  22
BRANCH  21  25
HETATM   25  S   UNL     1     -10.826  10.660  67.709  1.00  0.00    -0.306 S  
HETATM   26  O   UNL     1     -11.849  11.667  67.520  1.00  0.00    -0.591 OA 
HETATM   27  O   UNL     1     -11.026   9.567  68.638  1.00  0.00    -0.174 OA 
BRANCH  25  28
HETATM   28  N   UNL     1     -10.476   9.968  66.206  1.00  0.00    -0.151 N  
HETATM   29  C   UNL     1     -10.279  10.836  65.027  1.00  0.00    -0.306 C  
HETATM   30  C   UNL     1      -8.799  11.208  64.870  1.00  0.00     0.019 C  
HETATM   31  N   UNL     1      -7.877  10.056  64.798  1.00  0.00    -0.141 NA 
HETATM   32  C   UNL     1      -8.186   9.026  65.815  1.00  0.00    -0.120 C  
HETATM   33  C   UNL     1      -7.840   9.517  63.443  1.00  0.00    -0.132 C  
HETATM   34  C   UNL     1      -9.675   8.724  66.110  1.00  0.00    -0.250 C  
ENDBRANCH  25  28
ENDBRANCH  21  25
ENDBRANCH  11  16
ENDBRANCH   3   4
ENDBRANCH   2   3
TORSDOF 7
ENDMDL
MODEL      227
REMARK 921   NORMALIZED FREE ENERGY PREDICTED BY IDOCK:   -2.91 KCAL/MOL
REMARK 922        TOTAL FREE ENERGY PREDICTED BY IDOCK:   -5.45 KCAL/MOL
REMARK 923 INTER-LIGAND FREE ENERGY PREDICTED BY IDOCK:   -5.24 KCAL/MOL
REMARK 924 INTRA-LIGAND FREE ENERGY PREDICTED BY IDOCK:   -0.21 KCAL/MOL
REMARK 927      BINDING AFFINITY PREDICTED BY RF-SCORE:    0.00 PKD
ROOT
HETATM    1  C   UNL     1     -11.170   4.998  73.451  1.00  0.00    -0.391 C  
HETATM    2  C   UNL     1     -10.160   6.118  73.659  1.00  0.00    -0.227 C  
ENDROOT
BRANCH   2   3
HETATM    3  C   UNL     1      -8.734   5.662  73.346  1.00  0.00    -0.117 C  
BRANCH   3   4
HETATM    4  C   UNL     1      -8.478   5.544  71.880  1.00  0.00    -0.123 A  
HETATM    5  N   UNL     1      -7.950   4.398  71.411  1.00  0.00    -0.081 NA 
HETATM    6  N   UNL     1      -7.871   4.586  70.073  1.00  0.00    -0.056 NA 
HETATM    7  C   UNL     1      -8.340   5.799  69.679  1.00  0.00    -0.112 A  
HETATM    8  C   UNL     1      -7.363   3.524  69.239  1.00  0.00    -0.049 C  
HETATM    9  C   UNL     1      -8.718   6.446  70.818  1.00  0.00    -0.140 A  
HETATM   10  N   UNL     1      -9.223   7.688  70.732  1.00  0.00    -0.157 NA 
HETATM   11  C   UNL     1      -9.313   8.237  69.452  1.00  0.00    -0.155 C  
HETATM   12  N   UNL     1      -8.968   7.631  68.347  1.00  0.00    -0.129 N  
HETATM   13  O   UNL     1      -8.074   5.763  67.358  1.00  0.00    -0.102 OA 
HETATM   14  H   UNL     1      -9.096   8.107  67.453  1.00  0.00     0.000 HD 
HETATM   15  C   UNL     1      -8.432   6.358  68.365  1.00  0.00    -0.116 C  
BRANCH  11  16
HETATM   16  C   UNL     1      -9.882   9.636  69.295  1.00  0.00    -0.195 A  
HETATM   17  C   UNL     1     -11.670  11.267  69.511  1.00  0.00    -0.415 A  
HETATM   18  C   UNL     1     -11.195   9.960  69.689  1.00  0.00    -0.208 A  
HETATM   19  C   UNL     1      -9.078  10.626  68.693  1.00  0.00    -0.170 A  
HETATM   20  C   UNL     1     -10.895  12.219  68.848  1.00  0.00    -0.238 A  
HETATM   21  C   UNL     1      -9.615  11.885  68.397  1.00  0.00    -0.196 A  
BRANCH  18  22
HETATM   22  O   UNL     1     -11.939   8.975  70.282  1.00  0.00    -0.019 OA 
BRANCH  22  23
HETATM   23  C   UNL     1     -11.885   8.896  71.707  1.00  0.00    -0.358 C  
HETATM   24  C   UNL     1     -13.137   8.164  72.153  1.00  0.00    -0.267 C  
ENDBRANCH  22  23
ENDBRANCH  18  22
BRANCH  21  25
HETATM   25  S   UNL     1      -8.660  13.124  67.536  1.00  0.00    -0.209 S  
HETATM   26  O   UNL     1      -7.898  12.446  66.508  1.00  0.00     0.108 OA 
HETATM   27  O   UNL     1      -7.992  13.908  68.556  1.00  0.00    -0.137 OA 
BRANCH  25  28
HETATM   28  N   UNL     1      -9.777  14.147  66.784  1.00  0.00    -0.267 N  
HETATM   29  C   UNL     1     -10.635  15.027  67.603  1.00  0.00    -0.267 C  
HETATM   30  C   UNL     1      -9.968  16.392  67.811  1.00  0.00    -0.248 C  
HETATM   31  N   UNL     1      -9.589  17.089  66.565  1.00  0.00    -0.266 NA 
HETATM   32  C   UNL     1      -8.934  16.186  65.593  1.00  0.00     0.169 C  
HETATM   33  C   UNL     1     -10.740  17.786  66.001  1.00  0.00    -0.119 C  
HETATM   34  C   UNL     1      -9.486  14.746  65.459  1.00  0.00     0.020 C  
ENDBRANCH  25  28
ENDBRANCH  21  25
ENDBRANCH  11  16
ENDBRANCH   3   4
ENDBRANCH   2   3
TORSDOF 7
ENDMDL
MODEL      228
REMARK 921   NORMALIZED FREE ENERGY PREDICTED BY IDOCK:   -2.84 KCAL/MOL
REMARK 922        TOTAL FREE ENERGY PREDICTED BY IDOCK:   -5.35 KCAL/MOL
REMARK 923 INTER-LIGAND FREE ENERGY PREDICTED BY IDOCK:   -7.58 KCAL/MOL
REMARK 924 INTRA-LIGAND FREE ENERGY PREDICTED BY IDOCK:    2.23 KCAL/MOL
REMARK 927      BINDING AFFINITY PREDICTED BY RF-SCORE:    0.00 PKD
ROOT
HETATM    1  C   UNL     1      -8.975  16.794  67.907  1.00  0.00    -0.219 C  
HETATM    2  C   UNL     1     -10.357  16.842  68.544  1.00  0.00    -0.316 C  
ENDROOT
BRANCH   2   3
HETATM    3  C   UNL     1     -11.175  15.591  68.220  1.00  0.00    -0.343 C  
BRANCH   3   4
HETATM    4  C   UNL     1     -11.840  15.012  69.424  1.00  0.00    -0.329 A  
HETATM    5  N   UNL     1     -12.507  15.839  70.250  1.00  0.00    -0.348 NA 
HETATM    6  N   UNL     1     -13.013  15.028  71.206  1.00  0.00    -0.346 NA 
HETATM    7  C   UNL     1     -12.703  13.719  71.009  1.00  0.00    -0.343 A  
HETATM    8  C   UNL     1     -13.821  15.594  72.259  1.00  0.00    -0.485 C  
HETATM    9  C   UNL     1     -11.934  13.678  69.885  1.00  0.00    -0.348 A  
HETATM   10  N   UNL     1     -11.472  12.495  69.448  1.00  0.00    -0.275 NA 
HETATM   11  C   UNL     1     -11.814  11.373  70.204  1.00  0.00    -0.355 C  
HETATM   12  N   UNL     1     -12.560  11.388  71.277  1.00  0.00    -0.394 N  
HETATM   13  O   UNL     1     -13.739  12.634  72.801  1.00  0.00    -0.371 OA 
HETATM   14  H   UNL     1     -12.778  10.510  71.748  1.00  0.00     0.000 HD 
HETATM   15  C   UNL     1     -13.059  12.572  71.787  1.00  0.00    -0.347 C  
BRANCH  11  16
HETATM   16  C   UNL     1     -11.324  10.008  69.752  1.00  0.00    -0.281 A  
HETATM   17  C   UNL     1     -11.294   7.583  69.884  1.00  0.00    -0.054 A  
HETATM   18  C   UNL     1     -11.789   8.815  70.336  1.00  0.00     0.058 A  
HETATM   19  C   UNL     1     -10.339   9.947  68.745  1.00  0.00    -0.222 A  
HETATM   20  C   UNL     1     -10.266   7.535  68.941  1.00  0.00    -0.214 A  
HETATM   21  C   UNL     1      -9.756   8.720  68.405  1.00  0.00    -0.162 A  
BRANCH  18  22
HETATM   22  O   UNL     1     -12.756   8.915  71.301  1.00  0.00    -0.313 OA 
BRANCH  22  23
HETATM   23  C   UNL     1     -12.454   8.352  72.578  1.00  0.00    -0.277 C  
HETATM   24  C   UNL     1     -10.949   8.162  72.628  1.00  0.00    -0.440 C  
ENDBRANCH  22  23
ENDBRANCH  18  22
BRANCH  21  25
HETATM   25  S   UNL     1      -8.430   8.620  67.214  1.00  0.00    -0.115 S  
HETATM   26  O   UNL     1      -7.422   9.583  67.607  1.00  0.00    -0.090 OA 
HETATM   27  O   UNL     1      -9.047   8.688  65.905  1.00  0.00    -0.189 OA 
BRANCH  25  28
HETATM   28  N   UNL     1      -7.771   7.070  67.366  1.00  0.00    -0.108 N  
HETATM   29  C   UNL     1      -6.313   6.905  67.539  1.00  0.00    -0.045 C  
HETATM   30  C   UNL     1      -5.944   6.888  69.026  1.00  0.00    -0.022 C  
HETATM   31  N   UNL     1      -6.655   5.873  69.828  1.00  0.00    -0.045 NA 
HETATM   32  C   UNL     1      -8.101   5.824  69.516  1.00  0.00    -0.108 C  
HETATM   33  C   UNL     1      -6.006   4.572  69.697  1.00  0.00    -0.018 C  
HETATM   34  C   UNL     1      -8.528   5.985  68.037  1.00  0.00    -0.115 C  
ENDBRANCH  25  28
ENDBRANCH  21  25
ENDBRANCH  11  16
ENDBRANCH   3   4
ENDBRANCH   2   3
TORSDOF 7
ENDMDL
MODEL      229
REMARK 921   NORMALIZED FREE ENERGY PREDICTED BY IDOCK:   -2.52 KCAL/MOL
REMARK 922        TOTAL FREE ENERGY PREDICTED BY IDOCK:   -4.90 KCAL/MOL
REMARK 923 INTER-LIGAND FREE ENERGY PREDICTED BY IDOCK:   -3.63 KCAL/MOL
REMARK 924 INTRA-LIGAND FREE ENERGY PREDICTED BY IDOCK:   -1.27 KCAL/MOL
REMARK 927      BINDING AFFINITY PREDICTED BY RF-SCORE:    0.00 PKD
ROOT
HETATM    1  C   UNL     1      -8.170  13.654  67.412  1.00  0.00    -0.187 C  
HETATM    2  C   UNL     1      -7.426  12.353  67.681  1.00  0.00    -0.138 C  
ENDROOT
BRANCH   2   3
HETATM    3  C   UNL     1      -8.251  11.396  68.543  1.00  0.00    -0.153 C  
BRANCH   3   4
HETATM    4  C   UNL     1      -7.406  10.583  69.467  1.00  0.00    -0.148 A  
HETATM    5  N   UNL     1      -6.646  11.224  70.373  1.00  0.00    -0.202 NA 
HETATM    6  N   UNL     1      -6.038  10.234  71.066  1.00  0.00    -0.300 NA 
HETATM    7  C   UNL     1      -6.394   8.993  70.640  1.00  0.00    -0.049 A  
HETATM    8  C   UNL     1      -5.152  10.572  72.153  1.00  0.00     0.056 C  
HETATM    9  C   UNL     1      -7.255   9.183  69.601  1.00  0.00    -0.061 A  
HETATM   10  N   UNL     1      -7.774   8.115  68.973  1.00  0.00    -0.098 NA 
HETATM   11  C   UNL     1      -7.371   6.862  69.437  1.00  0.00    -0.091 C  
HETATM   12  N   UNL     1      -6.556   6.657  70.438  1.00  0.00    -0.047 N  
HETATM   13  O   UNL     1      -5.194   7.564  72.046  1.00  0.00    -0.035 OA 
HETATM   14  H   UNL     1      -6.341   5.700  70.721  1.00  0.00     0.000 HD 
HETATM   15  C   UNL     1      -5.979   7.711  71.121  1.00  0.00    -0.035 C  
BRANCH  11  16
HETATM   16  C   UNL     1      -7.930   5.619  68.768  1.00  0.00    -0.097 A  
HETATM   17  C   UNL     1      -9.626   3.901  68.498  1.00  0.00    -0.179 A  
HETATM   18  C   UNL     1      -9.164   5.055  69.145  1.00  0.00    -0.110 A  
HETATM   19  C   UNL     1      -7.161   4.989  67.767  1.00  0.00    -0.066 A  
HETATM   20  C   UNL     1      -8.826   3.243  67.562  1.00  0.00    -0.156 A  
HETATM   21  C   UNL     1      -7.572   3.763  67.231  1.00  0.00    -0.075 A  
BRANCH  18  22
HETATM   22  O   UNL     1      -9.888   5.704  70.111  1.00  0.00    -0.170 OA 
BRANCH  22  23
HETATM   23  C   UNL     1     -11.138   6.267  69.710  1.00  0.00    -0.406 C  
HETATM   24  C   UNL     1     -11.582   7.189  70.831  1.00  0.00    -0.350 C  
ENDBRANCH  22  23
ENDBRANCH  18  22
BRANCH  21  25
HETATM   25  S   UNL     1      -6.568   2.885  66.043  1.00  0.00    -0.040 S  
HETATM   26  O   UNL     1      -7.149   1.570  65.875  1.00  0.00    -0.044 OA 
HETATM   27  O   UNL     1      -5.193   3.037  66.476  1.00  0.00    -0.011 OA 
BRANCH  25  28
HETATM   28  N   UNL     1      -6.717   3.725  64.583  1.00  0.00    -0.043 N  
HETATM   29  C   UNL     1      -8.040   3.840  63.935  1.00  0.00    -0.089 C  
HETATM   30  C   UNL     1      -8.760   5.111  64.400  1.00  0.00    -0.088 C  
HETATM   31  N   UNL     1      -7.999   6.361  64.200  1.00  0.00    -0.114 NA 
HETATM   32  C   UNL     1      -6.584   6.228  64.611  1.00  0.00    -0.038 C  
HETATM   33  C   UNL     1      -8.145   6.833  62.827  1.00  0.00    -0.047 C  
HETATM   34  C   UNL     1      -5.860   4.898  64.290  1.00  0.00    -0.017 C  
ENDBRANCH  25  28
ENDBRANCH  21  25
ENDBRANCH  11  16
ENDBRANCH   3   4
ENDBRANCH   2   3
TORSDOF 7
ENDMDL
MODEL      230
REMARK 921   NORMALIZED FREE ENERGY PREDICTED BY IDOCK:   -2.33 KCAL/MOL
REMARK 922        TOTAL FREE ENERGY PREDICTED BY IDOCK:   -4.63 KCAL/MOL
REMARK 923 INTER-LIGAND FREE ENERGY PREDICTED BY IDOCK:   -5.34 KCAL/MOL
REMARK 924 INTRA-LIGAND FREE ENERGY PREDICTED BY IDOCK:    0.71 KCAL/MOL
REMARK 927      BINDING AFFINITY PREDICTED BY RF-SCORE:    0.00 PKD
ROOT
HETATM    1  C   UNL     1      -6.386  15.612  67.620  1.00  0.00    -0.189 C  
HETATM    2  C   UNL     1      -7.641  15.797  68.462  1.00  0.00    -0.138 C  
ENDROOT
BRANCH   2   3
HETATM    3  C   UNL     1      -8.906  15.428  67.685  1.00  0.00    -0.179 C  
BRANCH   3   4
HETATM    4  C   UNL     1      -9.958  14.825  68.554  1.00  0.00    -0.228 A  
HETATM    5  N   UNL     1     -10.923  15.626  69.042  1.00  0.00    -0.246 NA 
HETATM    6  N   UNL     1     -11.725  14.796  69.749  1.00  0.00    -0.292 NA 
HETATM    7  C   UNL     1     -11.311  13.502  69.715  1.00  0.00    -0.091 A  
HETATM    8  C   UNL     1     -12.898  15.330  70.399  1.00  0.00    -0.317 C  
HETATM    9  C   UNL     1     -10.169  13.491  68.973  1.00  0.00     0.042 A  
HETATM   10  N   UNL     1      -9.527  12.328  68.771  1.00  0.00    -0.000 NA 
HETATM   11  C   UNL     1     -10.089  11.195  69.363  1.00  0.00     0.040 C  
HETATM   12  N   UNL     1     -11.189  11.182  70.068  1.00  0.00    -0.451 N  
HETATM   13  O   UNL     1     -12.912  12.380  70.995  1.00  0.00    -0.207 OA 
HETATM   14  H   UNL     1     -11.536  10.296  70.438  1.00  0.00     0.000 HD 
HETATM   15  C   UNL     1     -11.892  12.343  70.321  1.00  0.00    -0.232 C  
BRANCH  11  16
HETATM   16  C   UNL     1      -9.409   9.852  69.163  1.00  0.00    -0.197 A  
HETATM   17  C   UNL     1      -8.420   7.797  70.001  1.00  0.00    -0.135 A  
HETATM   18  C   UNL     1      -9.055   9.023  70.245  1.00  0.00    -0.202 A  
HETATM   19  C   UNL     1      -9.084   9.450  67.851  1.00  0.00    -0.136 A  
HETATM   20  C   UNL     1      -8.037   7.442  68.706  1.00  0.00    -0.128 A  
HETATM   21  C   UNL     1      -8.328   8.292  67.636  1.00  0.00    -0.127 A  
BRANCH  18  22
HETATM   22  O   UNL     1      -9.400   9.442  71.503  1.00  0.00    -0.271 OA 
BRANCH  22  23
HETATM   23  C   UNL     1     -10.319   8.621  72.226  1.00  0.00    -0.306 C  
HETATM   24  C   UNL     1      -9.564   8.065  73.419  1.00  0.00    -0.277 C  
ENDBRANCH  22  23
ENDBRANCH  18  22
BRANCH  21  25
HETATM   25  S   UNL     1      -7.806   7.813  65.997  1.00  0.00    -0.105 S  
HETATM   26  O   UNL     1      -8.780   6.869  65.492  1.00  0.00    -0.124 OA 
HETATM   27  O   UNL     1      -6.408   7.449  66.101  1.00  0.00    -0.040 OA 
BRANCH  25  28
HETATM   28  N   UNL     1      -7.879   9.212  65.048  1.00  0.00    -0.108 N  
HETATM   29  C   UNL     1      -9.040   9.440  64.165  1.00  0.00    -0.080 C  
HETATM   30  C   UNL     1     -10.128  10.234  64.897  1.00  0.00    -0.276 C  
HETATM   31  N   UNL     1      -9.678  11.521  65.465  1.00  0.00    -0.225 NA 
HETATM   32  C   UNL     1      -8.378  11.401  66.163  1.00  0.00    -0.071 C  
HETATM   33  C   UNL     1      -9.672  12.558  64.438  1.00  0.00     0.061 C  
HETATM   34  C   UNL     1      -7.300  10.489  65.532  1.00  0.00    -0.106 C  
ENDBRANCH  25  28
ENDBRANCH  21  25
ENDBRANCH  11  16
ENDBRANCH   3   4
ENDBRANCH   2   3
TORSDOF 7
ENDMDL
MODEL      231
REMARK 921   NORMALIZED FREE ENERGY PREDICTED BY IDOCK:   -2.27 KCAL/MOL
REMARK 922        TOTAL FREE ENERGY PREDICTED BY IDOCK:   -4.54 KCAL/MOL
REMARK 923 INTER-LIGAND FREE ENERGY PREDICTED BY IDOCK:   -4.04 KCAL/MOL
REMARK 924 INTRA-LIGAND FREE ENERGY PREDICTED BY IDOCK:   -0.50 KCAL/MOL
REMARK 927      BINDING AFFINITY PREDICTED BY RF-SCORE:    0.00 PKD
ROOT
HETATM    1  C   UNL     1      -5.158  14.537  67.489  1.00  0.00     0.231 C  
HETATM    2  C   UNL     1      -6.455  14.786  68.246  1.00  0.00    -0.121 C  
ENDROOT
BRANCH   2   3
HETATM    3  C   UNL     1      -7.583  15.226  67.311  1.00  0.00    -0.244 C  
BRANCH   3   4
HETATM    4  C   UNL     1      -8.853  14.481  67.553  1.00  0.00    -0.188 A  
HETATM    5  N   UNL     1     -10.009  15.169  67.558  1.00  0.00    -0.225 NA 
HETATM    6  N   UNL     1     -10.960  14.229  67.766  1.00  0.00    -0.259 NA 
HETATM    7  C   UNL     1     -10.450  12.974  67.879  1.00  0.00    -0.229 A  
HETATM    8  C   UNL     1     -12.348  14.623  67.805  1.00  0.00     0.135 C  
HETATM    9  C   UNL     1      -9.098  13.105  67.767  1.00  0.00    -0.200 A  
HETATM   10  N   UNL     1      -8.323  12.011  67.846  1.00  0.00    -0.145 NA 
HETATM   11  C   UNL     1      -8.978  10.796  68.053  1.00  0.00    -0.139 C  
HETATM   12  N   UNL     1     -10.273  10.647  68.152  1.00  0.00    -0.162 N  
HETATM   13  O   UNL     1     -12.341  11.640  68.201  1.00  0.00    -0.429 OA 
HETATM   14  H   UNL     1     -10.661   9.711  68.277  1.00  0.00     0.000 HD 
HETATM   15  C   UNL     1     -11.127  11.731  68.090  1.00  0.00    -0.243 C  
BRANCH  11  16
HETATM   16  C   UNL     1      -8.152   9.525  68.145  1.00  0.00    -0.102 A  
HETATM   17  C   UNL     1      -7.044   7.605  67.151  1.00  0.00    -0.085 A  
HETATM   18  C   UNL     1      -7.801   8.776  67.005  1.00  0.00    -0.095 A  
HETATM   19  C   UNL     1      -7.767   9.063  69.420  1.00  0.00    -0.083 A  
HETATM   20  C   UNL     1      -6.731   7.116  68.421  1.00  0.00    -0.057 A  
HETATM   21  C   UNL     1      -7.134   7.822  69.557  1.00  0.00    -0.063 A  
BRANCH  18  22
HETATM   22  O   UNL     1      -8.181   9.265  65.783  1.00  0.00    -0.111 OA 
BRANCH  22  23
HETATM   23  C   UNL     1      -7.151   9.809  64.957  1.00  0.00    -0.120 C  
HETATM   24  C   UNL     1      -5.947  10.039  65.852  1.00  0.00    -0.077 C  
ENDBRANCH  22  23
ENDBRANCH  18  22
BRANCH  21  25
HETATM   25  S   UNL     1      -6.731   7.157  71.165  1.00  0.00    -0.052 S  
HETATM   26  O   UNL     1      -6.008   8.182  71.888  1.00  0.00    -0.036 OA 
HETATM   27  O   UNL     1      -6.137   5.856  70.934  1.00  0.00    -0.031 OA 
BRANCH  25  28
HETATM   28  N   UNL     1      -8.205   6.890  71.951  1.00  0.00    -0.104 N  
HETATM   29  C   UNL     1      -9.140   5.872  71.431  1.00  0.00    -0.140 C  
HETATM   30  C   UNL     1      -8.880   4.512  72.089  1.00  0.00    -0.121 C  
HETATM   31  N   UNL     1      -8.927   4.521  73.565  1.00  0.00    -0.101 NA 
HETATM   32  C   UNL     1      -8.200   5.674  74.143  1.00  0.00    -0.108 C  
HETATM   33  C   UNL     1     -10.307   4.434  74.032  1.00  0.00    -0.221 C  
HETATM   34  C   UNL     1      -8.319   7.038  73.422  1.00  0.00    -0.119 C  
ENDBRANCH  25  28
ENDBRANCH  21  25
ENDBRANCH  11  16
ENDBRANCH   3   4
ENDBRANCH   2   3
TORSDOF 7
ENDMDL
MODEL      232
REMARK 921   NORMALIZED FREE ENERGY PREDICTED BY IDOCK:   -2.25 KCAL/MOL
REMARK 922        TOTAL FREE ENERGY PREDICTED BY IDOCK:   -4.52 KCAL/MOL
REMARK 923 INTER-LIGAND FREE ENERGY PREDICTED BY IDOCK:   -4.53 KCAL/MOL
REMARK 924 INTRA-LIGAND FREE ENERGY PREDICTED BY IDOCK:    0.01 KCAL/MOL
REMARK 927      BINDING AFFINITY PREDICTED BY RF-SCORE:    0.00 PKD
ROOT
HETATM    1  C   UNL     1      -5.243  12.867  67.500  1.00  0.00    -0.046 C  
HETATM    2  C   UNL     1      -5.209  11.488  68.144  1.00  0.00    -0.043 C  
ENDROOT
BRANCH   2   3
HETATM    3  C   UNL     1      -5.146  10.374  67.097  1.00  0.00    -0.040 C  
BRANCH   3   4
HETATM    4  C   UNL     1      -6.302  10.406  66.153  1.00  0.00    -0.106 A  
HETATM    5  N   UNL     1      -6.120   9.954  64.899  1.00  0.00    -0.094 NA 
HETATM    6  N   UNL     1      -7.333  10.081  64.315  1.00  0.00    -0.134 NA 
HETATM    7  C   UNL     1      -8.276  10.584  65.155  1.00  0.00    -0.134 A  
HETATM    8  C   UNL     1      -7.506   9.657  62.946  1.00  0.00    -0.116 C  
HETATM    9  C   UNL     1      -7.641  10.822  66.336  1.00  0.00    -0.141 A  
HETATM   10  N   UNL     1      -8.337  11.332  67.365  1.00  0.00    -0.134 NA 
HETATM   11  C   UNL     1      -9.688  11.597  67.135  1.00  0.00    -0.181 C  
HETATM   12  N   UNL     1     -10.319  11.366  66.014  1.00  0.00    -0.242 N  
HETATM   13  O   UNL     1     -10.207  10.643  63.839  1.00  0.00    -0.337 OA 
HETATM   14  H   UNL     1     -11.317  11.569  65.950  1.00  0.00     0.000 HD 
HETATM   15  C   UNL     1      -9.661  10.852  64.913  1.00  0.00    -0.248 C  
BRANCH  11  16
HETATM   16  C   UNL     1     -10.525  12.169  68.265  1.00  0.00    -0.225 A  
HETATM   17  C   UNL     1     -12.293  12.012  69.924  1.00  0.00    -0.143 A  
HETATM   18  C   UNL     1     -11.545  11.428  68.891  1.00  0.00    -0.323 A  
HETATM   19  C   UNL     1     -10.296  13.502  68.664  1.00  0.00    -0.220 A  
HETATM   20  C   UNL     1     -12.109  13.354  70.262  1.00  0.00    -0.419 A  
HETATM   21  C   UNL     1     -11.142  14.113  69.598  1.00  0.00    -0.141 A  
BRANCH  18  22
HETATM   22  O   UNL     1     -11.728  10.132  68.486  1.00  0.00    -0.116 OA 
BRANCH  22  23
HETATM   23  C   UNL     1     -11.035   9.123  69.221  1.00  0.00    -0.061 C  
HETATM   24  C   UNL     1     -11.096   9.526  70.683  1.00  0.00    -0.364 C  
ENDBRANCH  22  23
ENDBRANCH  18  22
BRANCH  21  25
HETATM   25  S   UNL     1     -10.948  15.831  70.043  1.00  0.00    -0.367 S  
HETATM   26  O   UNL     1      -9.571  16.019  70.449  1.00  0.00     0.489 OA 
HETATM   27  O   UNL     1     -12.036  16.145  70.948  1.00  0.00    -0.375 OA 
BRANCH  25  28
HETATM   28  N   UNL     1     -11.213  16.721  68.630  1.00  0.00    -0.250 N  
HETATM   29  C   UNL     1     -10.842  18.150  68.581  1.00  0.00     0.318 C  
HETATM   30  C   UNL     1      -9.407  18.319  68.068  1.00  0.00    -0.284 C  
HETATM   31  N   UNL     1      -9.142  17.693  66.757  1.00  0.00    -0.253 NA 
HETATM   32  C   UNL     1      -9.712  16.331  66.660  1.00  0.00    -0.250 C  
HETATM   33  C   UNL     1      -9.586  18.568  65.676  1.00  0.00     0.580 C  
HETATM   34  C   UNL     1     -11.100  16.081  67.297  1.00  0.00    -0.131 C  
ENDBRANCH  25  28
ENDBRANCH  21  25
ENDBRANCH  11  16
ENDBRANCH   3   4
ENDBRANCH   2   3
TORSDOF 7
ENDMDL
MODEL      233
REMARK 921   NORMALIZED FREE ENERGY PREDICTED BY IDOCK:   -2.20 KCAL/MOL
REMARK 922        TOTAL FREE ENERGY PREDICTED BY IDOCK:   -4.45 KCAL/MOL
REMARK 923 INTER-LIGAND FREE ENERGY PREDICTED BY IDOCK:   -3.83 KCAL/MOL
REMARK 924 INTRA-LIGAND FREE ENERGY PREDICTED BY IDOCK:   -0.62 KCAL/MOL
REMARK 927      BINDING AFFINITY PREDICTED BY RF-SCORE:    0.00 PKD
ROOT
HETATM    1  C   UNL     1      -9.864   3.801  73.998  1.00  0.00    -0.156 C  
HETATM    2  C   UNL     1      -8.701   4.504  73.313  1.00  0.00    -0.100 C  
ENDROOT
BRANCH   2   3
HETATM    3  C   UNL     1      -7.839   3.527  72.511  1.00  0.00    -0.068 C  
BRANCH   3   4
HETATM    4  C   UNL     1      -8.095   3.607  71.043  1.00  0.00    -0.066 A  
HETATM    5  N   UNL     1      -8.705   2.570  70.440  1.00  0.00    -0.064 NA 
HETATM    6  N   UNL     1      -8.822   2.951  69.148  1.00  0.00    -0.085 NA 
HETATM    7  C   UNL     1      -8.320   4.193  68.914  1.00  0.00    -0.078 A  
HETATM    8  C   UNL     1      -9.466   2.069  68.205  1.00  0.00    -0.164 C  
HETATM    9  C   UNL     1      -7.828   4.632  70.106  1.00  0.00    -0.060 A  
HETATM   10  N   UNL     1      -7.260   5.847  70.175  1.00  0.00    -0.070 NA 
HETATM   11  C   UNL     1      -7.205   6.579  68.988  1.00  0.00    -0.091 C  
HETATM   12  N   UNL     1      -7.681   6.182  67.837  1.00  0.00    -0.100 N  
HETATM   13  O   UNL     1      -8.705   4.519  66.632  1.00  0.00    -0.111 OA 
HETATM   14  H   UNL     1      -7.617   6.801  67.028  1.00  0.00     0.000 HD 
HETATM   15  C   UNL     1      -8.268   4.940  67.694  1.00  0.00    -0.105 C  
BRANCH  11  16
HETATM   16  C   UNL     1      -6.578   7.962  69.008  1.00  0.00    -0.044 A  
HETATM   17  C   UNL     1      -5.162   9.666  70.005  1.00  0.00    -0.032 A  
HETATM   18  C   UNL     1      -5.704   8.373  70.033  1.00  0.00    -0.025 A  
HETATM   19  C   UNL     1      -6.923   8.872  67.988  1.00  0.00    -0.078 A  
HETATM   20  C   UNL     1      -5.566  10.584  69.034  1.00  0.00    -0.041 A  
HETATM   21  C   UNL     1      -6.484  10.200  68.052  1.00  0.00    -0.058 A  
BRANCH  18  22
HETATM   22  O   UNL     1      -5.382   7.455  70.998  1.00  0.00    -0.027 OA 
BRANCH  22  23
HETATM   23  C   UNL     1      -5.688   7.805  72.348  1.00  0.00    -0.036 C  
HETATM   24  C   UNL     1      -5.480   6.555  73.183  1.00  0.00    -0.038 C  
ENDBRANCH  22  23
ENDBRANCH  18  22
BRANCH  21  25
HETATM   25  S   UNL     1      -6.991  11.406  66.837  1.00  0.00    -0.130 S  
HETATM   26  O   UNL     1      -7.486  10.679  65.687  1.00  0.00    -0.148 OA 
HETATM   27  O   UNL     1      -5.894  12.343  66.705  1.00  0.00    -0.277 OA 
BRANCH  25  28
HETATM   28  N   UNL     1      -8.282  12.257  67.524  1.00  0.00    -0.159 N  
HETATM   29  C   UNL     1      -8.903  13.373  66.782  1.00  0.00    -0.132 C  
HETATM   30  C   UNL     1     -10.073  12.870  65.928  1.00  0.00    -0.289 C  
HETATM   31  N   UNL     1     -11.112  12.133  66.677  1.00  0.00    -0.289 NA 
HETATM   32  C   UNL     1     -10.533  11.158  67.628  1.00  0.00    -0.196 C  
HETATM   33  C   UNL     1     -12.036  13.064  67.317  1.00  0.00    -0.321 C  
HETATM   34  C   UNL     1      -9.260  11.574  68.404  1.00  0.00    -0.190 C  
ENDBRANCH  25  28
ENDBRANCH  21  25
ENDBRANCH  11  16
ENDBRANCH   3   4
ENDBRANCH   2   3
TORSDOF 7
ENDMDL
MODEL      234
REMARK 921   NORMALIZED FREE ENERGY PREDICTED BY IDOCK:   -2.14 KCAL/MOL
REMARK 922        TOTAL FREE ENERGY PREDICTED BY IDOCK:   -4.36 KCAL/MOL
REMARK 923 INTER-LIGAND FREE ENERGY PREDICTED BY IDOCK:   -3.18 KCAL/MOL
REMARK 924 INTRA-LIGAND FREE ENERGY PREDICTED BY IDOCK:   -1.18 KCAL/MOL
REMARK 927      BINDING AFFINITY PREDICTED BY RF-SCORE:    0.00 PKD
ROOT
HETATM    1  C   UNL     1     -11.069  21.288  69.041  1.00  0.00     1.805 C  
HETATM    2  C   UNL     1     -10.207  20.083  69.390  1.00  0.00    -0.102 C  
ENDROOT
BRANCH   2   3
HETATM    3  C   UNL     1     -10.309  18.986  68.328  1.00  0.00    -0.415 C  
BRANCH   3   4
HETATM    4  C   UNL     1      -9.050  18.828  67.543  1.00  0.00    -0.276 A  
HETATM    5  N   UNL     1      -8.600  19.878  66.833  1.00  0.00    -0.318 NA 
HETATM    6  N   UNL     1      -7.450  19.440  66.272  1.00  0.00    -0.259 NA 
HETATM    7  C   UNL     1      -7.150  18.158  66.610  1.00  0.00    -0.211 A  
HETATM    8  C   UNL     1      -6.677  20.338  65.447  1.00  0.00    -0.285 C  
HETATM    9  C   UNL     1      -8.168  17.730  67.409  1.00  0.00    -0.214 A  
HETATM   10  N   UNL     1      -8.140  16.479  67.897  1.00  0.00    -0.161 NA 
HETATM   11  C   UNL     1      -7.048  15.690  67.528  1.00  0.00    -0.186 C  
HETATM   12  N   UNL     1      -6.056  16.084  66.774  1.00  0.00     0.282 N  
HETATM   13  O   UNL     1      -5.133  17.755  65.501  1.00  0.00    -0.171 OA 
HETATM   14  H   UNL     1      -5.288  15.441  66.581  1.00  0.00     0.000 HD 
HETATM   15  C   UNL     1      -6.028  17.354  66.231  1.00  0.00    -0.196 C  
BRANCH  11  16
HETATM   16  C   UNL     1      -6.962  14.269  68.056  1.00  0.00    -0.149 A  
HETATM   17  C   UNL     1      -5.949  12.546  69.437  1.00  0.00    -0.101 A  
HETATM   18  C   UNL     1      -5.987  13.876  68.993  1.00  0.00    -0.086 A  
HETATM   19  C   UNL     1      -7.862  13.308  67.552  1.00  0.00    -0.173 A  
HETATM   20  C   UNL     1      -6.795  11.587  68.879  1.00  0.00    -0.095 A  
HETATM   21  C   UNL     1      -7.720  11.960  67.900  1.00  0.00    -0.131 A  
BRANCH  18  22
HETATM   22  O   UNL     1      -5.140  14.841  69.469  1.00  0.00    -0.089 OA 
BRANCH  22  23
HETATM   23  C   UNL     1      -5.573  15.568  70.620  1.00  0.00    -0.094 C  
HETATM   24  C   UNL     1      -5.576  17.036  70.235  1.00  0.00    -0.212 C  
ENDBRANCH  22  23
ENDBRANCH  18  22
BRANCH  21  25
HETATM   25  S   UNL     1      -8.774  10.702  67.195  1.00  0.00    -0.130 S  
HETATM   26  O   UNL     1      -8.409  10.565  65.801  1.00  0.00    -0.155 OA 
HETATM   27  O   UNL     1     -10.130  11.041  67.576  1.00  0.00    -0.175 OA 
BRANCH  25  28
HETATM   28  N   UNL     1      -8.388   9.259  67.990  1.00  0.00    -0.119 N  
HETATM   29  C   UNL     1      -9.433   8.531  68.738  1.00  0.00    -0.143 C  
HETATM   30  C   UNL     1     -10.127   7.504  67.835  1.00  0.00    -0.182 C  
HETATM   31  N   UNL     1      -9.218   6.538  67.186  1.00  0.00    -0.125 NA 
HETATM   32  C   UNL     1      -8.015   7.191  66.623  1.00  0.00    -0.111 C  
HETATM   33  C   UNL     1      -8.893   5.449  68.101  1.00  0.00    -0.105 C  
HETATM   34  C   UNL     1      -7.367   8.337  67.438  1.00  0.00    -0.092 C  
ENDBRANCH  25  28
ENDBRANCH  21  25
ENDBRANCH  11  16
ENDBRANCH   3   4
ENDBRANCH   2   3
TORSDOF 7
ENDMDL
MODEL      235
REMARK 921   NORMALIZED FREE ENERGY PREDICTED BY IDOCK:   -2.07 KCAL/MOL
REMARK 922        TOTAL FREE ENERGY PREDICTED BY IDOCK:   -4.27 KCAL/MOL
REMARK 923 INTER-LIGAND FREE ENERGY PREDICTED BY IDOCK:   -4.81 KCAL/MOL
REMARK 924 INTRA-LIGAND FREE ENERGY PREDICTED BY IDOCK:    0.54 KCAL/MOL
REMARK 927      BINDING AFFINITY PREDICTED BY RF-SCORE:    0.00 PKD
ROOT
HETATM    1  C   UNL     1     -10.952  20.959  68.813  1.00  0.00     1.222 C  
HETATM    2  C   UNL     1     -10.069  19.941  69.521  1.00  0.00    -0.085 C  
ENDROOT
BRANCH   2   3
HETATM    3  C   UNL     1     -10.146  18.564  68.859  1.00  0.00    -0.348 C  
BRANCH   3   4
HETATM    4  C   UNL     1      -8.889  18.201  68.141  1.00  0.00    -0.280 A  
HETATM    5  N   UNL     1      -8.182  19.181  67.549  1.00  0.00    -0.278 NA 
HETATM    6  N   UNL     1      -7.106  18.552  67.025  1.00  0.00    -0.196 NA 
HETATM    7  C   UNL     1      -7.099  17.215  67.274  1.00  0.00    -0.165 A  
HETATM    8  C   UNL     1      -6.106  19.323  66.326  1.00  0.00    -0.166 C  
HETATM    9  C   UNL     1      -8.241  16.956  67.971  1.00  0.00    -0.203 A  
HETATM   10  N   UNL     1      -8.505  15.696  68.355  1.00  0.00    -0.159 NA 
HETATM   11  C   UNL     1      -7.571  14.724  67.991  1.00  0.00    -0.125 C  
HETATM   12  N   UNL     1      -6.465  14.953  67.333  1.00  0.00    -0.063 N  
HETATM   13  O   UNL     1      -5.127  16.478  66.261  1.00  0.00    -0.236 OA 
HETATM   14  H   UNL     1      -5.831  14.178  67.135  1.00  0.00     0.000 HD 
HETATM   15  C   UNL     1      -6.138  16.223  66.899  1.00  0.00     0.075 C  
BRANCH  11  16
HETATM   16  C   UNL     1      -7.816  13.283  68.403  1.00  0.00    -0.137 A  
HETATM   17  C   UNL     1      -7.091  11.164  69.343  1.00  0.00    -0.110 A  
HETATM   18  C   UNL     1      -6.810  12.492  68.991  1.00  0.00    -0.089 A  
HETATM   19  C   UNL     1      -9.080  12.715  68.145  1.00  0.00    -0.204 A  
HETATM   20  C   UNL     1      -8.320  10.588  69.017  1.00  0.00    -0.154 A  
HETATM   21  C   UNL     1      -9.298  11.351  68.374  1.00  0.00    -0.194 A  
BRANCH  18  22
HETATM   22  O   UNL     1      -5.601  13.085  69.239  1.00  0.00    -0.074 OA 
BRANCH  22  23
HETATM   23  C   UNL     1      -5.134  13.057  70.589  1.00  0.00    -0.116 C  
HETATM   24  C   UNL     1      -5.860  14.167  71.326  1.00  0.00    -0.206 C  
ENDBRANCH  22  23
ENDBRANCH  18  22
BRANCH  21  25
HETATM   25  S   UNL     1     -10.851  10.575  67.956  1.00  0.00    -0.283 S  
HETATM   26  O   UNL     1     -11.628  10.479  69.173  1.00  0.00    -0.261 OA 
HETATM   27  O   UNL     1     -10.524   9.388  67.191  1.00  0.00    -0.249 OA 
BRANCH  25  28
HETATM   28  N   UNL     1     -11.642  11.635  66.901  1.00  0.00    -0.252 N  
HETATM   29  C   UNL     1     -12.215  12.894  67.420  1.00  0.00    -0.038 C  
HETATM   30  C   UNL     1     -11.193  14.032  67.327  1.00  0.00    -0.312 C  
HETATM   31  N   UNL     1     -10.641  14.258  65.975  1.00  0.00    -0.293 NA 
HETATM   32  C   UNL     1     -10.270  12.993  65.302  1.00  0.00    -0.279 C  
HETATM   33  C   UNL     1     -11.555  15.073  65.181  1.00  0.00    -0.294 C  
HETATM   34  C   UNL     1     -11.203  11.773  65.492  1.00  0.00    -0.258 C  
ENDBRANCH  25  28
ENDBRANCH  21  25
ENDBRANCH  11  16
ENDBRANCH   3   4
ENDBRANCH   2   3
TORSDOF 7
ENDMDL
MODEL      236
REMARK 921   NORMALIZED FREE ENERGY PREDICTED BY IDOCK:   -1.85 KCAL/MOL
REMARK 922        TOTAL FREE ENERGY PREDICTED BY IDOCK:   -3.96 KCAL/MOL
REMARK 923 INTER-LIGAND FREE ENERGY PREDICTED BY IDOCK:   -5.10 KCAL/MOL
REMARK 924 INTRA-LIGAND FREE ENERGY PREDICTED BY IDOCK:    1.14 KCAL/MOL
REMARK 927      BINDING AFFINITY PREDICTED BY RF-SCORE:    0.00 PKD
ROOT
HETATM    1  C   UNL     1      -8.364   8.027  71.213  1.00  0.00    -0.130 C  
HETATM    2  C   UNL     1      -6.955   7.450  71.219  1.00  0.00    -0.055 C  
ENDROOT
BRANCH   2   3
HETATM    3  C   UNL     1      -6.030   8.200  70.258  1.00  0.00    -0.028 C  
BRANCH   3   4
HETATM    4  C   UNL     1      -6.480   8.106  68.838  1.00  0.00    -0.048 A  
HETATM    5  N   UNL     1      -6.224   6.975  68.157  1.00  0.00    -0.033 NA 
HETATM    6  N   UNL     1      -6.773   7.182  66.939  1.00  0.00    -0.058 NA 
HETATM    7  C   UNL     1      -7.376   8.396  66.829  1.00  0.00    -0.083 A  
HETATM    8  C   UNL     1      -6.703   6.139  65.944  1.00  0.00    -0.048 C  
HETATM    9  C   UNL     1      -7.188   9.021  68.024  1.00  0.00    -0.080 A  
HETATM   10  N   UNL     1      -7.681  10.257  68.205  1.00  0.00    -0.091 NA 
HETATM   11  C   UNL     1      -8.355  10.824  67.122  1.00  0.00    -0.126 C  
HETATM   12  N   UNL     1      -8.557  10.238  65.971  1.00  0.00    -0.141 N  
HETATM   13  O   UNL     1      -8.212   8.396  64.646  1.00  0.00    -0.156 OA 
HETATM   14  H   UNL     1      -9.086  10.725  65.247  1.00  0.00     0.000 HD 
HETATM   15  C   UNL     1      -8.067   8.972  65.716  1.00  0.00    -0.109 C  
BRANCH  11  16
HETATM   16  C   UNL     1      -8.939  12.218  67.272  1.00  0.00    -0.187 A  
HETATM   17  C   UNL     1     -10.694  13.861  66.929  1.00  0.00    -0.284 A  
HETATM   18  C   UNL     1     -10.210  12.555  66.769  1.00  0.00    -0.231 A  
HETATM   19  C   UNL     1      -8.157  13.211  67.896  1.00  0.00    -0.159 A  
HETATM   20  C   UNL     1      -9.885  14.856  67.481  1.00  0.00    -0.217 A  
HETATM   21  C   UNL     1      -8.597  14.540  67.922  1.00  0.00    -0.161 A  
BRANCH  18  22
HETATM   22  O   UNL     1     -10.945  11.559  66.183  1.00  0.00    -0.287 OA 
BRANCH  22  23
HETATM   23  C   UNL     1     -11.098  11.622  64.764  1.00  0.00    -0.264 C  
HETATM   24  C   UNL     1     -12.332  12.462  64.493  1.00  0.00    -0.519 C  
ENDBRANCH  22  23
ENDBRANCH  18  22
BRANCH  21  25
HETATM   25  S   UNL     1      -7.584  15.842  68.606  1.00  0.00    -0.161 S  
HETATM   26  O   UNL     1      -6.201  15.467  68.397  1.00  0.00    -0.095 OA 
HETATM   27  O   UNL     1      -8.088  16.096  69.940  1.00  0.00     0.241 OA 
BRANCH  25  28
HETATM   28  N   UNL     1      -7.905  17.225  67.688  1.00  0.00    -0.180 N  
HETATM   29  C   UNL     1      -8.043  17.118  66.221  1.00  0.00    -0.290 C  
HETATM   30  C   UNL     1      -9.507  16.878  65.832  1.00  0.00    -0.113 C  
HETATM   31  N   UNL     1     -10.456  17.886  66.347  1.00  0.00    -0.349 NA 
HETATM   32  C   UNL     1     -10.206  18.218  67.767  1.00  0.00    -0.385 C  
HETATM   33  C   UNL     1     -10.465  19.064  65.485  1.00  0.00     0.018 C  
HETATM   34  C   UNL     1      -8.735  18.325  68.236  1.00  0.00    -0.288 C  
ENDBRANCH  25  28
ENDBRANCH  21  25
ENDBRANCH  11  16
ENDBRANCH   3   4
ENDBRANCH   2   3
TORSDOF 7
ENDMDL
MODEL      237
REMARK 921   NORMALIZED FREE ENERGY PREDICTED BY IDOCK:   -1.62 KCAL/MOL
REMARK 922        TOTAL FREE ENERGY PREDICTED BY IDOCK:   -3.63 KCAL/MOL
REMARK 923 INTER-LIGAND FREE ENERGY PREDICTED BY IDOCK:   -3.64 KCAL/MOL
REMARK 924 INTRA-LIGAND FREE ENERGY PREDICTED BY IDOCK:    0.01 KCAL/MOL
REMARK 927      BINDING AFFINITY PREDICTED BY RF-SCORE:    0.00 PKD
ROOT
HETATM    1  C   UNL     1      -9.052   6.626  74.492  1.00  0.00    -0.221 C  
HETATM    2  C   UNL     1      -7.743   6.763  73.728  1.00  0.00    -0.089 C  
ENDROOT
BRANCH   2   3
HETATM    3  C   UNL     1      -7.159   5.400  73.353  1.00  0.00    -0.086 C  
BRANCH   3   4
HETATM    4  C   UNL     1      -7.677   4.893  72.048  1.00  0.00    -0.100 A  
HETATM    5  N   UNL     1      -7.531   3.586  71.763  1.00  0.00    -0.051 NA 
HETATM    6  N   UNL     1      -8.118   3.436  70.554  1.00  0.00    -0.052 NA 
HETATM    7  C   UNL     1      -8.640   4.594  70.071  1.00  0.00    -0.077 A  
HETATM    8  C   UNL     1      -8.164   2.127  69.948  1.00  0.00    -0.041 C  
HETATM    9  C   UNL     1      -8.357   5.551  70.997  1.00  0.00    -0.121 A  
HETATM   10  N   UNL     1      -8.755   6.816  70.779  1.00  0.00    -0.145 NA 
HETATM   11  C   UNL     1      -9.436   7.058  69.585  1.00  0.00    -0.147 C  
HETATM   12  N   UNL     1      -9.729   6.152  68.689  1.00  0.00    -0.126 N  
HETATM   13  O   UNL     1      -9.571   3.962  68.022  1.00  0.00    -0.174 OA 
HETATM   14  H   UNL     1     -10.255   6.423  67.858  1.00  0.00     0.000 HD 
HETATM   15  C   UNL     1      -9.340   4.836  68.846  1.00  0.00    -0.135 C  
BRANCH  11  16
HETATM   16  C   UNL     1      -9.916   8.468  69.289  1.00  0.00    -0.195 A  
HETATM   17  C   UNL     1     -11.561  10.250  69.418  1.00  0.00    -0.213 A  
HETATM   18  C   UNL     1     -11.167   8.941  69.729  1.00  0.00    -0.006 A  
HETATM   19  C   UNL     1      -9.095   9.309  68.510  1.00  0.00    -0.132 A  
HETATM   20  C   UNL     1     -10.776  11.049  68.585  1.00  0.00    -0.234 A  
HETATM   21  C   UNL     1      -9.564  10.560  68.092  1.00  0.00    -0.154 A  
BRANCH  18  22
HETATM   22  O   UNL     1     -11.929   8.100  70.495  1.00  0.00    -0.114 OA 
BRANCH  22  23
HETATM   23  C   UNL     1     -12.546   8.664  71.654  1.00  0.00    -0.338 C  
HETATM   24  C   UNL     1     -11.447   8.869  72.680  1.00  0.00     0.162 C  
ENDBRANCH  22  23
ENDBRANCH  18  22
BRANCH  21  25
HETATM   25  S   UNL     1      -8.594  11.603  67.014  1.00  0.00    -0.174 S  
HETATM   26  O   UNL     1      -7.538  10.784  66.457  1.00  0.00    -0.126 OA 
HETATM   27  O   UNL     1      -8.283  12.798  67.772  1.00  0.00    -0.150 OA 
BRANCH  25  28
HETATM   28  N   UNL     1      -9.624  12.073  65.757  1.00  0.00    -0.236 N  
HETATM   29  C   UNL     1     -10.725  11.182  65.338  1.00  0.00    -0.192 C  
HETATM   30  C   UNL     1     -12.007  11.505  66.115  1.00  0.00     0.725 C  
HETATM   31  N   UNL     1     -12.446  12.912  66.024  1.00  0.00    -0.491 NA 
HETATM   32  C   UNL     1     -11.324  13.862  66.196  1.00  0.00    -0.320 C  
HETATM   33  C   UNL     1     -13.190  13.136  64.788  1.00  0.00     0.332 C  
HETATM   34  C   UNL     1      -9.965  13.501  65.549  1.00  0.00    -0.219 C  
ENDBRANCH  25  28
ENDBRANCH  21  25
ENDBRANCH  11  16
ENDBRANCH   3   4
ENDBRANCH   2   3
TORSDOF 7
ENDMDL
MODEL      238
REMARK 921   NORMALIZED FREE ENERGY PREDICTED BY IDOCK:   -1.38 KCAL/MOL
REMARK 922        TOTAL FREE ENERGY PREDICTED BY IDOCK:   -3.29 KCAL/MOL
REMARK 923 INTER-LIGAND FREE ENERGY PREDICTED BY IDOCK:   -2.95 KCAL/MOL
REMARK 924 INTRA-LIGAND FREE ENERGY PREDICTED BY IDOCK:   -0.34 KCAL/MOL
REMARK 927      BINDING AFFINITY PREDICTED BY RF-SCORE:    0.00 PKD
ROOT
HETATM    1  C   UNL     1     -11.408  21.203  69.070  1.00  0.00     2.238 C  
HETATM    2  C   UNL     1     -10.277  20.511  69.818  1.00  0.00     0.444 C  
ENDROOT
BRANCH   2   3
HETATM    3  C   UNL     1     -10.067  19.077  69.329  1.00  0.00    -0.120 C  
BRANCH   3   4
HETATM    4  C   UNL     1      -8.835  18.928  68.499  1.00  0.00    -0.352 A  
HETATM    5  N   UNL     1      -8.137  20.033  68.182  1.00  0.00    -0.248 NA 
HETATM    6  N   UNL     1      -7.083  19.575  67.470  1.00  0.00    -0.213 NA 
HETATM    7  C   UNL     1      -7.082  18.222  67.335  1.00  0.00    -0.200 A  
HETATM    8  C   UNL     1      -6.097  20.510  66.983  1.00  0.00    -0.201 C  
HETATM    9  C   UNL     1      -8.204  17.779  67.968  1.00  0.00    -0.248 A  
HETATM   10  N   UNL     1      -8.468  16.462  67.993  1.00  0.00    -0.180 NA 
HETATM   11  C   UNL     1      -7.555  15.630  67.342  1.00  0.00    -0.198 C  
HETATM   12  N   UNL     1      -6.467  16.033  66.740  1.00  0.00     0.117 N  
HETATM   13  O   UNL     1      -5.147  17.796  66.095  1.00  0.00    -0.153 OA 
HETATM   14  H   UNL     1      -5.847  15.344  66.314  1.00  0.00     0.000 HD 
HETATM   15  C   UNL     1      -6.142  17.374  66.668  1.00  0.00    -0.204 C  
BRANCH  11  16
HETATM   16  C   UNL     1      -7.801  14.132  67.343  1.00  0.00    -0.195 A  
HETATM   17  C   UNL     1      -7.087  11.837  67.692  1.00  0.00    -0.107 A  
HETATM   18  C   UNL     1      -6.805  13.210  67.719  1.00  0.00    -0.149 A  
HETATM   19  C   UNL     1      -9.056  13.655  66.910  1.00  0.00    -0.249 A  
HETATM   20  C   UNL     1      -8.304  11.371  67.192  1.00  0.00    -0.155 A  
HETATM   21  C   UNL     1      -9.271  12.280  66.756  1.00  0.00    -0.210 A  
BRANCH  18  22
HETATM   22  O   UNL     1      -5.605  13.713  68.148  1.00  0.00    -0.096 OA 
BRANCH  22  23
HETATM   23  C   UNL     1      -5.258  13.475  69.513  1.00  0.00    -0.084 C  
HETATM   24  C   UNL     1      -5.539  14.762  70.267  1.00  0.00    -0.127 C  
ENDBRANCH  22  23
ENDBRANCH  18  22
BRANCH  21  25
HETATM   25  S   UNL     1     -10.809  11.648  66.105  1.00  0.00    -0.286 S  
HETATM   26  O   UNL     1     -10.485  10.813  64.967  1.00  0.00    -0.293 OA 
HETATM   27  O   UNL     1     -11.692  12.787  65.960  1.00  0.00    -0.372 OA 
BRANCH  25  28
HETATM   28  N   UNL     1     -11.468  10.666  67.315  1.00  0.00    -0.053 N  
HETATM   29  C   UNL     1     -10.755   9.444  67.738  1.00  0.00    -0.229 C  
HETATM   30  C   UNL     1      -9.811   9.747  68.908  1.00  0.00    -0.173 C  
HETATM   31  N   UNL     1     -10.459  10.373  70.078  1.00  0.00    -0.234 NA 
HETATM   32  C   UNL     1     -11.385  11.460  69.691  1.00  0.00    -0.275 C  
HETATM   33  C   UNL     1     -11.096   9.359  70.912  1.00  0.00    -0.319 C  
HETATM   34  C   UNL     1     -12.253  11.254  68.427  1.00  0.00     0.176 C  
ENDBRANCH  25  28
ENDBRANCH  21  25
ENDBRANCH  11  16
ENDBRANCH   3   4
ENDBRANCH   2   3
TORSDOF 7
ENDMDL
MODEL      239
REMARK 921   NORMALIZED FREE ENERGY PREDICTED BY IDOCK:   -1.12 KCAL/MOL
REMARK 922        TOTAL FREE ENERGY PREDICTED BY IDOCK:   -2.92 KCAL/MOL
REMARK 923 INTER-LIGAND FREE ENERGY PREDICTED BY IDOCK:   -2.83 KCAL/MOL
REMARK 924 INTRA-LIGAND FREE ENERGY PREDICTED BY IDOCK:   -0.09 KCAL/MOL
REMARK 927      BINDING AFFINITY PREDICTED BY RF-SCORE:    0.00 PKD
ROOT
HETATM    1  C   UNL     1     -13.251  10.115  72.551  1.00  0.00    -0.005 C  
HETATM    2  C   UNL     1     -13.396  11.182  71.474  1.00  0.00    -0.235 C  
ENDROOT
BRANCH   2   3
HETATM    3  C   UNL     1     -13.786  12.537  72.067  1.00  0.00    -0.251 C  
BRANCH   3   4
HETATM    4  C   UNL     1     -12.896  13.643  71.606  1.00  0.00    -0.338 A  
HETATM    5  N   UNL     1     -13.084  14.874  72.116  1.00  0.00    -0.321 NA 
HETATM    6  N   UNL     1     -12.122  15.629  71.539  1.00  0.00    -0.382 NA 
HETATM    7  C   UNL     1     -11.326  14.921  70.695  1.00  0.00    -0.231 A  
HETATM    8  C   UNL     1     -12.016  17.026  71.887  1.00  0.00     1.190 C  
HETATM    9  C   UNL     1     -11.809  13.647  70.701  1.00  0.00    -0.154 A  
HETATM   10  N   UNL     1     -11.211  12.714  69.942  1.00  0.00     0.055 NA 
HETATM   11  C   UNL     1     -10.121  13.135  69.179  1.00  0.00     0.299 C  
HETATM   12  N   UNL     1      -9.634  14.348  69.168  1.00  0.00    -0.403 N  
HETATM   13  O   UNL     1      -9.800  16.510  69.917  1.00  0.00     0.018 OA 
HETATM   14  H   UNL     1      -8.815  14.553  68.595  1.00  0.00     0.000 HD 
HETATM   15  C   UNL     1     -10.208  15.357  69.916  1.00  0.00    -0.266 C  
BRANCH  11  16
HETATM   16  C   UNL     1      -9.402  12.120  68.307  1.00  0.00    -0.198 A  
HETATM   17  C   UNL     1      -8.942  11.068  66.167  1.00  0.00    -0.203 A  
HETATM   18  C   UNL     1      -9.627  12.032  66.920  1.00  0.00    -0.203 A  
HETATM   19  C   UNL     1      -8.517  11.211  68.922  1.00  0.00    -0.095 A  
HETATM   20  C   UNL     1      -8.125  10.126  66.794  1.00  0.00    -0.119 A  
HETATM   21  C   UNL     1      -7.950  10.169  68.179  1.00  0.00    -0.104 A  
BRANCH  18  22
HETATM   22  O   UNL     1     -10.483  12.941  66.358  1.00  0.00    -0.261 OA 
BRANCH  22  23
HETATM   23  C   UNL     1     -11.864  12.580  66.306  1.00  0.00    -0.390 C  
HETATM   24  C   UNL     1     -12.003  11.270  67.059  1.00  0.00     0.610 C  
ENDBRANCH  22  23
ENDBRANCH  18  22
BRANCH  21  25
HETATM   25  S   UNL     1      -6.912   8.936  68.949  1.00  0.00    -0.066 S  
HETATM   26  O   UNL     1      -5.928   9.637  69.747  1.00  0.00    -0.039 OA 
HETATM   27  O   UNL     1      -6.501   8.030  67.896  1.00  0.00    -0.050 OA 
BRANCH  25  28
HETATM   28  N   UNL     1      -7.913   8.057  69.991  1.00  0.00    -0.104 N  
HETATM   29  C   UNL     1      -8.981   7.202  69.434  1.00  0.00    -0.136 C  
HETATM   30  C   UNL     1      -8.467   5.776  69.201  1.00  0.00    -0.107 C  
HETATM   31  N   UNL     1      -7.883   5.128  70.393  1.00  0.00    -0.073 NA 
HETATM   32  C   UNL     1      -6.979   6.032  71.138  1.00  0.00    -0.068 C  
HETATM   33  C   UNL     1      -8.935   4.564  71.233  1.00  0.00    -0.127 C  
HETATM   34  C   UNL     1      -7.392   7.518  71.270  1.00  0.00    -0.078 C  
ENDBRANCH  25  28
ENDBRANCH  21  25
ENDBRANCH  11  16
ENDBRANCH   3   4
ENDBRANCH   2   3
TORSDOF 7
ENDMDL
MODEL      240
REMARK 921   NORMALIZED FREE ENERGY PREDICTED BY IDOCK:   -0.74 KCAL/MOL
REMARK 922        TOTAL FREE ENERGY PREDICTED BY IDOCK:   -2.40 KCAL/MOL
REMARK 923 INTER-LIGAND FREE ENERGY PREDICTED BY IDOCK:   -1.71 KCAL/MOL
REMARK 924 INTRA-LIGAND FREE ENERGY PREDICTED BY IDOCK:   -0.69 KCAL/MOL
REMARK 927      BINDING AFFINITY PREDICTED BY RF-SCORE:    0.00 PKD
ROOT
HETATM    1  C   UNL     1     -12.328   4.824  73.253  1.00  0.00     0.590 C  
HETATM    2  C   UNL     1     -11.078   5.690  73.315  1.00  0.00    -0.288 C  
ENDROOT
BRANCH   2   3
HETATM    3  C   UNL     1     -11.042   6.718  72.182  1.00  0.00    -0.284 C  
BRANCH   3   4
HETATM    4  C   UNL     1      -9.731   7.425  72.090  1.00  0.00    -0.150 A  
HETATM    5  N   UNL     1      -9.152   7.853  73.226  1.00  0.00    -0.251 NA 
HETATM    6  N   UNL     1      -7.988   8.412  72.822  1.00  0.00    -0.311 NA 
HETATM    7  C   UNL     1      -7.804   8.341  71.477  1.00  0.00    -0.117 A  
HETATM    8  C   UNL     1      -7.087   8.961  73.807  1.00  0.00     0.268 C  
HETATM    9  C   UNL     1      -8.915   7.731  70.976  1.00  0.00    -0.142 A  
HETATM   10  N   UNL     1      -9.013   7.528  69.652  1.00  0.00    -0.141 NA 
HETATM   11  C   UNL     1      -7.947   7.979  68.871  1.00  0.00    -0.118 C  
HETATM   12  N   UNL     1      -6.868   8.555  69.332  1.00  0.00    -0.045 N  
HETATM   13  O   UNL     1      -5.727   9.361  71.152  1.00  0.00    -0.052 OA 
HETATM   14  H   UNL     1      -6.130   8.827  68.682  1.00  0.00     0.000 HD 
HETATM   15  C   UNL     1      -6.709   8.804  70.681  1.00  0.00    -0.048 C  
BRANCH  11  16
HETATM   16  C   UNL     1      -8.002   7.771  67.368  1.00  0.00    -0.119 A  
HETATM   17  C   UNL     1      -8.543   6.456  65.398  1.00  0.00    -0.088 A  
HETATM   18  C   UNL     1      -8.528   6.598  66.793  1.00  0.00    -0.117 A  
HETATM   19  C   UNL     1      -7.465   8.770  66.530  1.00  0.00    -0.085 A  
HETATM   20  C   UNL     1      -7.944   7.416  64.581  1.00  0.00    -0.127 A  
HETATM   21  C   UNL     1      -7.362   8.551  65.151  1.00  0.00    -0.081 A  
BRANCH  18  22
HETATM   22  O   UNL     1      -9.052   5.657  67.640  1.00  0.00    -0.109 OA 
BRANCH  22  23
HETATM   23  C   UNL     1      -8.418   4.377  67.654  1.00  0.00    -0.099 C  
HETATM   24  C   UNL     1      -8.642   3.793  69.036  1.00  0.00    -0.115 C  
ENDBRANCH  22  23
ENDBRANCH  18  22
BRANCH  21  25
HETATM   25  S   UNL     1      -6.588   9.748  64.076  1.00  0.00    -0.125 S  
HETATM   26  O   UNL     1      -6.317   9.086  62.817  1.00  0.00    -0.094 OA 
HETATM   27  O   UNL     1      -5.516  10.353  64.840  1.00  0.00    -0.106 OA 
BRANCH  25  28
HETATM   28  N   UNL     1      -7.740  10.957  63.804  1.00  0.00     0.303 N  
HETATM   29  C   UNL     1      -8.644  10.861  62.640  1.00  0.00    -0.240 C  
HETATM   30  C   UNL     1      -9.935  10.126  63.017  1.00  0.00     0.324 C  
HETATM   31  N   UNL     1     -10.664  10.705  64.164  1.00  0.00    -0.019 NA 
HETATM   32  C   UNL     1      -9.761  11.052  65.285  1.00  0.00    -0.239 C  
HETATM   33  C   UNL     1     -11.483  11.832  63.731  1.00  0.00    -0.420 C  
HETATM   34  C   UNL     1      -8.382  11.663  64.939  1.00  0.00     0.938 C  
ENDBRANCH  25  28
ENDBRANCH  21  25
ENDBRANCH  11  16
ENDBRANCH   3   4
ENDBRANCH   2   3
TORSDOF 7
ENDMDL
MODEL      241
REMARK 921   NORMALIZED FREE ENERGY PREDICTED BY IDOCK:   -0.51 KCAL/MOL
REMARK 922        TOTAL FREE ENERGY PREDICTED BY IDOCK:   -2.06 KCAL/MOL
REMARK 923 INTER-LIGAND FREE ENERGY PREDICTED BY IDOCK:   -0.84 KCAL/MOL
REMARK 924 INTRA-LIGAND FREE ENERGY PREDICTED BY IDOCK:   -1.22 KCAL/MOL
REMARK 927      BINDING AFFINITY PREDICTED BY RF-SCORE:    0.00 PKD
ROOT
HETATM    1  C   UNL     1      -9.306  10.815  63.685  1.00  0.00    -0.301 C  
HETATM    2  C   UNL     1     -10.608  10.047  63.862  1.00  0.00     1.683 C  
ENDROOT
BRANCH   2   3
HETATM    3  C   UNL     1     -10.992   9.913  65.337  1.00  0.00     1.342 C  
BRANCH   3   4
HETATM    4  C   UNL     1     -10.623  11.116  66.138  1.00  0.00    -0.248 A  
HETATM    5  N   UNL     1     -11.167  12.301  65.805  1.00  0.00    -0.323 NA 
HETATM    6  N   UNL     1     -10.672  13.168  66.717  1.00  0.00    -0.266 NA 
HETATM    7  C   UNL     1      -9.848  12.575  67.621  1.00  0.00    -0.202 A  
HETATM    8  C   UNL     1     -11.077  14.553  66.669  1.00  0.00    -0.333 C  
HETATM    9  C   UNL     1      -9.779  11.262  67.264  1.00  0.00    -0.174 A  
HETATM   10  N   UNL     1      -9.021  10.423  67.988  1.00  0.00    -0.128 NA 
HETATM   11  C   UNL     1      -8.335  10.977  69.070  1.00  0.00    -0.085 C  
HETATM   12  N   UNL     1      -8.396  12.231  69.437  1.00  0.00     0.204 N  
HETATM   13  O   UNL     1      -9.214  14.334  69.023  1.00  0.00    -0.098 OA 
HETATM   14  H   UNL     1      -7.877  12.537  70.260  1.00  0.00     0.000 HD 
HETATM   15  C   UNL     1      -9.148  13.149  68.730  1.00  0.00     0.160 C  
BRANCH  11  16
HETATM   16  C   UNL     1      -7.467  10.073  69.928  1.00  0.00    -0.171 A  
HETATM   17  C   UNL     1      -5.315   9.338  70.781  1.00  0.00    -0.030 A  
HETATM   18  C   UNL     1      -6.066  10.208  69.978  1.00  0.00    -0.065 A  
HETATM   19  C   UNL     1      -8.088   9.040  70.659  1.00  0.00    -0.184 A  
HETATM   20  C   UNL     1      -5.929   8.273  71.442  1.00  0.00    -0.037 A  
HETATM   21  C   UNL     1      -7.311   8.097  71.342  1.00  0.00    -0.076 A  
BRANCH  18  22
HETATM   22  O   UNL     1      -5.502  11.232  69.265  1.00  0.00    -0.041 OA 
BRANCH  22  23
HETATM   23  C   UNL     1      -5.188  10.969  67.897  1.00  0.00    -0.039 C  
HETATM   24  C   UNL     1      -5.756  12.120  67.087  1.00  0.00    -0.131 C  
ENDBRANCH  22  23
ENDBRANCH  18  22
BRANCH  21  25
HETATM   25  S   UNL     1      -8.060   6.713  72.187  1.00  0.00    -0.104 S  
HETATM   26  O   UNL     1      -9.324   7.169  72.726  1.00  0.00    -0.136 OA 
HETATM   27  O   UNL     1      -7.041   6.162  73.056  1.00  0.00    -0.079 OA 
BRANCH  25  28
HETATM   28  N   UNL     1      -8.376   5.548  71.002  1.00  0.00    -0.119 N  
HETATM   29  C   UNL     1      -9.732   4.975  70.879  1.00  0.00    -0.190 C  
HETATM   30  C   UNL     1     -10.575   5.786  69.888  1.00  0.00    -0.318 C  
HETATM   31  N   UNL     1      -9.977   5.936  68.546  1.00  0.00    -0.138 NA 
HETATM   32  C   UNL     1      -8.538   6.276  68.608  1.00  0.00    -0.121 C  
HETATM   33  C   UNL     1     -10.242   4.752  67.735  1.00  0.00    -0.013 C  
HETATM   34  C   UNL     1      -7.678   5.586  69.694  1.00  0.00    -0.078 C  
ENDBRANCH  25  28
ENDBRANCH  21  25
ENDBRANCH  11  16
ENDBRANCH   3   4
ENDBRANCH   2   3
TORSDOF 7
ENDMDL
MODEL      242
REMARK 921   NORMALIZED FREE ENERGY PREDICTED BY IDOCK:   -0.24 KCAL/MOL
REMARK 922        TOTAL FREE ENERGY PREDICTED BY IDOCK:   -1.69 KCAL/MOL
REMARK 923 INTER-LIGAND FREE ENERGY PREDICTED BY IDOCK:   -2.76 KCAL/MOL
REMARK 924 INTRA-LIGAND FREE ENERGY PREDICTED BY IDOCK:    1.07 KCAL/MOL
REMARK 927      BINDING AFFINITY PREDICTED BY RF-SCORE:    0.00 PKD
ROOT
HETATM    1  C   UNL     1      -9.281  10.837  63.671  1.00  0.00    -0.268 C  
HETATM    2  C   UNL     1     -10.588  10.106  63.944  1.00  0.00     1.257 C  
ENDROOT
BRANCH   2   3
HETATM    3  C   UNL     1     -10.899  10.038  65.440  1.00  0.00     0.748 C  
BRANCH   3   4
HETATM    4  C   UNL     1     -10.472  11.266  66.172  1.00  0.00    -0.254 A  
HETATM    5  N   UNL     1     -10.974  12.452  65.781  1.00  0.00    -0.288 NA 
HETATM    6  N   UNL     1     -10.434  13.347  66.641  1.00  0.00    -0.277 NA 
HETATM    7  C   UNL     1      -9.622  12.770  67.566  1.00  0.00    -0.192 A  
HETATM    8  C   UNL     1     -10.785  14.742  66.523  1.00  0.00    -0.319 C  
HETATM    9  C   UNL     1      -9.610  11.438  67.279  1.00  0.00    -0.174 A  
HETATM   10  N   UNL     1      -8.876  10.609  68.039  1.00  0.00    -0.127 NA 
HETATM   11  C   UNL     1      -8.155  11.192  69.083  1.00  0.00    -0.024 C  
HETATM   12  N   UNL     1      -8.162  12.465  69.382  1.00  0.00     0.177 N  
HETATM   13  O   UNL     1      -8.903  14.574  68.865  1.00  0.00    -0.170 OA 
HETATM   14  H   UNL     1      -7.622  12.794  70.183  1.00  0.00     0.000 HD 
HETATM   15  C   UNL     1      -8.887  13.373  68.635  1.00  0.00     0.020 C  
BRANCH  11  16
HETATM   16  C   UNL     1      -7.313  10.301  69.978  1.00  0.00    -0.157 A  
HETATM   17  C   UNL     1      -5.181   9.532  70.852  1.00  0.00    -0.039 A  
HETATM   18  C   UNL     1      -5.908  10.387  70.012  1.00  0.00    -0.062 A  
HETATM   19  C   UNL     1      -7.964   9.330  70.766  1.00  0.00    -0.187 A  
HETATM   20  C   UNL     1      -5.827   8.525  71.570  1.00  0.00    -0.043 A  
HETATM   21  C   UNL     1      -7.216   8.394  71.490  1.00  0.00    -0.088 A  
BRANCH  18  22
HETATM   22  O   UNL     1      -5.313  11.353  69.244  1.00  0.00    -0.044 OA 
BRANCH  22  23
HETATM   23  C   UNL     1      -5.702  11.415  67.871  1.00  0.00    -0.044 C  
HETATM   24  C   UNL     1      -5.433  12.833  67.403  1.00  0.00    -0.041 C  
ENDBRANCH  22  23
ENDBRANCH  18  22
BRANCH  21  25
HETATM   25  S   UNL     1      -8.007   7.083  72.409  1.00  0.00    -0.094 S  
HETATM   26  O   UNL     1      -7.276   6.922  73.648  1.00  0.00    -0.078 OA 
HETATM   27  O   UNL     1      -8.160   5.973  71.490  1.00  0.00    -0.112 OA 
BRANCH  25  28
HETATM   28  N   UNL     1      -9.563   7.633  72.777  1.00  0.00    -0.178 N  
HETATM   29  C   UNL     1     -10.286   8.490  71.815  1.00  0.00    -0.282 C  
HETATM   30  C   UNL     1     -11.131   7.637  70.861  1.00  0.00    -0.263 C  
HETATM   31  N   UNL     1     -12.084   6.727  71.526  1.00  0.00    -0.347 NA 
HETATM   32  C   UNL     1     -11.473   6.012  72.669  1.00  0.00    -0.253 C  
HETATM   33  C   UNL     1     -13.301   7.443  71.895  1.00  0.00    -0.231 C  
HETATM   34  C   UNL     1     -10.495   6.799  73.574  1.00  0.00    -0.330 C  
ENDBRANCH  25  28
ENDBRANCH  21  25
ENDBRANCH  11  16
ENDBRANCH   3   4
ENDBRANCH   2   3
TORSDOF 7
ENDMDL
MODEL      243
REMARK 921   NORMALIZED FREE ENERGY PREDICTED BY IDOCK:   -0.14 KCAL/MOL
REMARK 922        TOTAL FREE ENERGY PREDICTED BY IDOCK:   -1.55 KCAL/MOL
REMARK 923 INTER-LIGAND FREE ENERGY PREDICTED BY IDOCK:   -1.55 KCAL/MOL
REMARK 924 INTRA-LIGAND FREE ENERGY PREDICTED BY IDOCK:    0.01 KCAL/MOL
REMARK 927      BINDING AFFINITY PREDICTED BY RF-SCORE:    0.00 PKD
ROOT
HETATM    1  C   UNL     1      -7.802  16.805  68.387  1.00  0.00    -0.214 C  
HETATM    2  C   UNL     1      -7.829  15.472  67.652  1.00  0.00    -0.174 C  
ENDROOT
BRANCH   2   3
HETATM    3  C   UNL     1      -6.573  14.644  67.932  1.00  0.00    -0.177 C  
BRANCH   3   4
HETATM    4  C   UNL     1      -6.770  13.191  67.655  1.00  0.00    -0.160 A  
HETATM    5  N   UNL     1      -5.856  12.551  66.904  1.00  0.00    -0.252 NA 
HETATM    6  N   UNL     1      -6.289  11.270  66.862  1.00  0.00    -0.112 NA 
HETATM    7  C   UNL     1      -7.434  11.074  67.568  1.00  0.00    -0.102 A  
HETATM    8  C   UNL     1      -5.515  10.284  66.146  1.00  0.00    -0.059 C  
HETATM    9  C   UNL     1      -7.779  12.292  68.072  1.00  0.00    -0.132 A  
HETATM   10  N   UNL     1      -8.890  12.403  68.820  1.00  0.00     0.065 NA 
HETATM   11  C   UNL     1      -9.628  11.234  69.018  1.00  0.00    -0.030 C  
HETATM   12  N   UNL     1      -9.308  10.055  68.554  1.00  0.00    -0.141 N  
HETATM   13  O   UNL     1      -7.863   8.793  67.295  1.00  0.00    -0.096 OA 
HETATM   14  H   UNL     1      -9.899   9.253  68.775  1.00  0.00     0.000 HD 
HETATM   15  C   UNL     1      -8.186   9.873  67.769  1.00  0.00    -0.114 C  
BRANCH  11  16
HETATM   16  C   UNL     1     -10.889  11.300  69.861  1.00  0.00     0.004 A  
HETATM   17  C   UNL     1     -13.014  10.404  70.623  1.00  0.00    -0.357 A  
HETATM   18  C   UNL     1     -11.865  10.285  69.829  1.00  0.00    -0.147 A  
HETATM   19  C   UNL     1     -11.103  12.439  70.665  1.00  0.00     1.769 A  
HETATM   20  C   UNL     1     -13.253  11.566  71.357  1.00  0.00    -0.222 A  
HETATM   21  C   UNL     1     -12.318  12.604  71.341  1.00  0.00     0.052 A  
BRANCH  18  22
HETATM   22  O   UNL     1     -11.614   9.189  69.047  1.00  0.00     0.391 OA 
BRANCH  22  23
HETATM   23  C   UNL     1     -11.262   7.981  69.724  1.00  0.00     0.024 C  
HETATM   24  C   UNL     1     -10.442   7.155  68.750  1.00  0.00    -0.217 C  
ENDBRANCH  22  23
ENDBRANCH  18  22
BRANCH  21  25
HETATM   25  S   UNL     1     -12.665  14.084  72.278  1.00  0.00    -0.204 S  
HETATM   26  O   UNL     1     -11.571  14.274  73.206  1.00  0.00     0.599 OA 
HETATM   27  O   UNL     1     -14.027  13.957  72.755  1.00  0.00    -0.697 OA 
BRANCH  25  28
HETATM   28  N   UNL     1     -12.651  15.362  71.170  1.00  0.00    -0.387 N  
HETATM   29  C   UNL     1     -11.461  16.231  71.067  1.00  0.00    -0.302 C  
HETATM   30  C   UNL     1     -10.488  15.693  70.012  1.00  0.00    -0.323 C  
HETATM   31  N   UNL     1     -11.076  15.498  68.671  1.00  0.00    -0.279 NA 
HETATM   32  C   UNL     1     -12.400  14.841  68.730  1.00  0.00     0.016 C  
HETATM   33  C   UNL     1     -11.105  16.760  67.939  1.00  0.00    -0.178 C  
HETATM   34  C   UNL     1     -13.361  15.251  69.873  1.00  0.00     0.604 C  
ENDBRANCH  25  28
ENDBRANCH  21  25
ENDBRANCH  11  16
ENDBRANCH   3   4
ENDBRANCH   2   3
TORSDOF 7
ENDMDL
MODEL      244
REMARK 921   NORMALIZED FREE ENERGY PREDICTED BY IDOCK:    0.04 KCAL/MOL
REMARK 922        TOTAL FREE ENERGY PREDICTED BY IDOCK:   -1.30 KCAL/MOL
REMARK 923 INTER-LIGAND FREE ENERGY PREDICTED BY IDOCK:   -1.12 KCAL/MOL
REMARK 924 INTRA-LIGAND FREE ENERGY PREDICTED BY IDOCK:   -0.18 KCAL/MOL
REMARK 927      BINDING AFFINITY PREDICTED BY RF-SCORE:    0.00 PKD
ROOT
HETATM    1  C   UNL     1     -10.970  16.231  67.107  1.00  0.00    -0.114 C  
HETATM    2  C   UNL     1      -9.459  16.401  67.174  1.00  0.00    -0.238 C  
ENDROOT
BRANCH   2   3
HETATM    3  C   UNL     1      -8.746  15.570  66.106  1.00  0.00    -0.186 C  
BRANCH   3   4
HETATM    4  C   UNL     1      -9.682  14.698  65.338  1.00  0.00    -0.141 A  
HETATM    5  N   UNL     1     -10.500  15.271  64.436  1.00  0.00     0.098 NA 
HETATM    6  N   UNL     1     -11.184  14.237  63.896  1.00  0.00     0.229 NA 
HETATM    7  C   UNL     1     -10.821  13.033  64.412  1.00  0.00    -0.388 A  
HETATM    8  C   UNL     1     -12.150  14.494  62.855  1.00  0.00     2.118 C  
HETATM    9  C   UNL     1      -9.873  13.296  65.354  1.00  0.00    -0.108 A  
HETATM   10  N   UNL     1      -9.328  12.279  66.041  1.00  0.00    -0.190 NA 
HETATM   11  C   UNL     1      -9.795  10.999  65.737  1.00  0.00    -0.235 C  
HETATM   12  N   UNL     1     -10.694  10.723  64.829  1.00  0.00    -0.202 N  
HETATM   13  O   UNL     1     -12.164  11.511  63.253  1.00  0.00    -0.330 OA 
HETATM   14  H   UNL     1     -10.952   9.750  64.660  1.00  0.00     0.000 HD 
HETATM   15  C   UNL     1     -11.302  11.723  64.095  1.00  0.00    -0.352 C  
BRANCH  11  16
HETATM   16  C   UNL     1      -9.209   9.811  66.478  1.00  0.00    -0.194 A  
HETATM   17  C   UNL     1      -8.983   8.403  68.445  1.00  0.00    -0.136 A  
HETATM   18  C   UNL     1      -9.564   9.508  67.807  1.00  0.00    -0.133 A  
HETATM   19  C   UNL     1      -8.247   9.016  65.822  1.00  0.00    -0.120 A  
HETATM   20  C   UNL     1      -7.978   7.667  67.815  1.00  0.00    -0.121 A  
HETATM   21  C   UNL     1      -7.577   8.004  66.520  1.00  0.00    -0.092 A  
BRANCH  18  22
HETATM   22  O   UNL     1     -10.512  10.295  68.405  1.00  0.00    -0.180 OA 
BRANCH  22  23
HETATM   23  C   UNL     1     -11.415   9.647  69.303  1.00  0.00     0.136 C  
HETATM   24  C   UNL     1     -12.136  10.743  70.065  1.00  0.00    -0.423 C  
ENDBRANCH  22  23
ENDBRANCH  18  22
BRANCH  21  25
HETATM   25  S   UNL     1      -6.275   7.052  65.752  1.00  0.00    -0.037 S  
HETATM   26  O   UNL     1      -5.305   6.738  66.781  1.00  0.00    -0.016 OA 
HETATM   27  O   UNL     1      -5.883   7.778  64.561  1.00  0.00    -0.040 OA 
BRANCH  25  28
HETATM   28  N   UNL     1      -6.986   5.607  65.234  1.00  0.00    -0.059 N  
HETATM   29  C   UNL     1      -7.988   4.935  66.086  1.00  0.00    -0.107 C  
HETATM   30  C   UNL     1      -9.403   5.413  65.738  1.00  0.00    -0.118 C  
HETATM   31  N   UNL     1      -9.775   5.257  64.317  1.00  0.00     0.623 NA 
HETATM   32  C   UNL     1      -8.697   5.693  63.403  1.00  0.00     0.191 C  
HETATM   33  C   UNL     1     -10.219   3.891  64.054  1.00  0.00    -0.208 C  
HETATM   34  C   UNL     1      -7.237   5.358  63.794  1.00  0.00    -0.050 C  
ENDBRANCH  25  28
ENDBRANCH  21  25
ENDBRANCH  11  16
ENDBRANCH   3   4
ENDBRANCH   2   3
TORSDOF 7
ENDMDL
MODEL      245
REMARK 921   NORMALIZED FREE ENERGY PREDICTED BY IDOCK:    0.62 KCAL/MOL
REMARK 922        TOTAL FREE ENERGY PREDICTED BY IDOCK:   -0.48 KCAL/MOL
REMARK 923 INTER-LIGAND FREE ENERGY PREDICTED BY IDOCK:   -0.95 KCAL/MOL
REMARK 924 INTRA-LIGAND FREE ENERGY PREDICTED BY IDOCK:    0.47 KCAL/MOL
REMARK 927      BINDING AFFINITY PREDICTED BY RF-SCORE:    0.00 PKD
ROOT
HETATM    1  C   UNL     1      -7.034  20.750  68.050  1.00  0.00    -0.236 C  
HETATM    2  C   UNL     1      -8.401  20.097  67.899  1.00  0.00    -0.253 C  
ENDROOT
BRANCH   2   3
HETATM    3  C   UNL     1      -8.484  19.241  66.634  1.00  0.00    -0.329 C  
BRANCH   3   4
HETATM    4  C   UNL     1      -7.900  17.881  66.822  1.00  0.00    -0.232 A  
HETATM    5  N   UNL     1      -6.669  17.638  66.337  1.00  0.00    -0.230 NA 
HETATM    6  N   UNL     1      -6.413  16.357  66.688  1.00  0.00    -0.267 NA 
HETATM    7  C   UNL     1      -7.429  15.786  67.387  1.00  0.00    -0.194 A  
HETATM    8  C   UNL     1      -5.142  15.769  66.340  1.00  0.00     1.931 C  
HETATM    9  C   UNL     1      -8.407  16.731  67.472  1.00  0.00    -0.188 A  
HETATM   10  N   UNL     1      -9.549  16.439  68.116  1.00  0.00    -0.224 NA 
HETATM   11  C   UNL     1      -9.653  15.154  68.650  1.00  0.00    -0.213 C  
HETATM   12  N   UNL     1      -8.724  14.237  68.590  1.00  0.00    -0.249 N  
HETATM   13  O   UNL     1      -6.644  13.631  67.833  1.00  0.00    -0.121 OA 
HETATM   14  H   UNL     1      -8.884  13.333  69.035  1.00  0.00     0.000 HD 
HETATM   15  C   UNL     1      -7.530  14.468  67.934  1.00  0.00    -0.150 C  
BRANCH  11  16
HETATM   16  C   UNL     1     -10.921  14.771  69.393  1.00  0.00    -0.282 A  
HETATM   17  C   UNL     1     -12.960  15.323  70.592  1.00  0.00    -0.442 A  
HETATM   18  C   UNL     1     -11.809  15.736  69.906  1.00  0.00    -0.344 A  
HETATM   19  C   UNL     1     -11.186  13.403  69.611  1.00  0.00    -0.115 A  
HETATM   20  C   UNL     1     -13.176  13.972  70.868  1.00  0.00    -0.245 A  
HETATM   21  C   UNL     1     -12.263  13.015  70.417  1.00  0.00    -0.310 A  
BRANCH  18  22
HETATM   22  O   UNL     1     -11.524  17.053  69.661  1.00  0.00     0.394 OA 
BRANCH  22  23
HETATM   23  C   UNL     1     -10.783  17.750  70.664  1.00  0.00     1.787 C  
HETATM   24  C   UNL     1     -10.485  19.130  70.108  1.00  0.00     1.313 C  
ENDBRANCH  22  23
ENDBRANCH  18  22
BRANCH  21  25
HETATM   25  S   UNL     1     -12.562  11.298  70.804  1.00  0.00    -0.304 S  
HETATM   26  O   UNL     1     -13.242  10.711  69.668  1.00  0.00     0.039 OA 
HETATM   27  O   UNL     1     -13.165  11.273  72.121  1.00  0.00    -0.481 OA 
BRANCH  25  28
HETATM   28  N   UNL     1     -11.042  10.571  70.947  1.00  0.00    -0.034 N  
HETATM   29  C   UNL     1     -10.896   9.317  71.713  1.00  0.00    -0.288 C  
HETATM   30  C   UNL     1     -11.066   8.100  70.796  1.00  0.00    -0.259 C  
HETATM   31  N   UNL     1     -10.161   8.075  69.629  1.00  0.00    -0.194 NA 
HETATM   32  C   UNL     1     -10.077   9.391  68.956  1.00  0.00    -0.194 C  
HETATM   33  C   UNL     1      -8.852   7.552  70.010  1.00  0.00    -0.144 C  
HETATM   34  C   UNL     1     -10.052  10.657  69.846  1.00  0.00     0.103 C  
ENDBRANCH  25  28
ENDBRANCH  21  25
ENDBRANCH  11  16
ENDBRANCH   3   4
ENDBRANCH   2   3
TORSDOF 7
ENDMDL
MODEL      246
REMARK 921   NORMALIZED FREE ENERGY PREDICTED BY IDOCK:    1.08 KCAL/MOL
REMARK 922        TOTAL FREE ENERGY PREDICTED BY IDOCK:    0.18 KCAL/MOL
REMARK 923 INTER-LIGAND FREE ENERGY PREDICTED BY IDOCK:   -0.42 KCAL/MOL
REMARK 924 INTRA-LIGAND FREE ENERGY PREDICTED BY IDOCK:    0.60 KCAL/MOL
REMARK 927      BINDING AFFINITY PREDICTED BY RF-SCORE:    0.00 PKD
ROOT
HETATM    1  C   UNL     1      -5.144   8.039  68.308  1.00  0.00    -0.032 C  
HETATM    2  C   UNL     1      -5.170   9.446  68.888  1.00  0.00    -0.037 C  
ENDROOT
BRANCH   2   3
HETATM    3  C   UNL     1      -5.275  10.509  67.793  1.00  0.00    -0.037 C  
BRANCH   3   4
HETATM    4  C   UNL     1      -5.961  10.005  66.567  1.00  0.00    -0.060 A  
HETATM    5  N   UNL     1      -5.286   9.179  65.747  1.00  0.00    -0.040 NA 
HETATM    6  N   UNL     1      -6.170   8.879  64.768  1.00  0.00    -0.065 NA 
HETATM    7  C   UNL     1      -7.380   9.473  64.945  1.00  0.00    -0.111 A  
HETATM    8  C   UNL     1      -5.776   7.977  63.712  1.00  0.00    -0.057 C  
HETATM    9  C   UNL     1      -7.272  10.218  66.080  1.00  0.00    -0.128 A  
HETATM   10  N   UNL     1      -8.330  10.929  66.503  1.00  0.00    -0.149 NA 
HETATM   11  C   UNL     1      -9.484  10.856  65.720  1.00  0.00    -0.211 C  
HETATM   12  N   UNL     1      -9.612  10.138  64.635  1.00  0.00    -0.299 N  
HETATM   13  O   UNL     1      -8.629   8.727  63.117  1.00  0.00    -0.170 OA 
HETATM   14  H   UNL     1     -10.507  10.128  64.145  1.00  0.00     0.000 HD 
HETATM   15  C   UNL     1      -8.560   9.393  64.140  1.00  0.00    -0.198 C  
BRANCH  11  16
HETATM   16  C   UNL     1     -10.713  11.634  66.154  1.00  0.00    -0.325 A  
HETATM   17  C   UNL     1     -12.682  12.978  65.688  1.00  0.00    -0.198 A  
HETATM   18  C   UNL     1     -11.566  12.265  65.228  1.00  0.00    -0.355 A  
HETATM   19  C   UNL     1     -10.977  11.761  67.534  1.00  0.00    -0.310 A  
HETATM   20  C   UNL     1     -12.894  13.161  67.055  1.00  0.00     1.263 A  
HETATM   21  C   UNL     1     -12.013  12.591  67.978  1.00  0.00    -0.223 A  
BRANCH  18  22
HETATM   22  O   UNL     1     -11.284  12.106  63.897  1.00  0.00    -0.345 OA 
BRANCH  22  23
HETATM   23  C   UNL     1     -12.290  12.521  62.971  1.00  0.00     0.033 C  
HETATM   24  C   UNL     1     -12.522  14.002  63.211  1.00  0.00     0.493 C  
ENDBRANCH  22  23
ENDBRANCH  18  22
BRANCH  21  25
HETATM   25  S   UNL     1     -12.305  12.862  69.719  1.00  0.00     0.043 S  
HETATM   26  O   UNL     1     -11.999  11.625  70.406  1.00  0.00    -0.357 OA 
HETATM   27  O   UNL     1     -13.619  13.462  69.827  1.00  0.00     1.699 OA 
BRANCH  25  28
HETATM   28  N   UNL     1     -11.189  14.034  70.211  1.00  0.00     0.015 N  
HETATM   29  C   UNL     1      -9.846  14.073  69.596  1.00  0.00     0.711 C  
HETATM   30  C   UNL     1      -9.837  15.000  68.375  1.00  0.00    -0.222 C  
HETATM   31  N   UNL     1     -10.300  16.376  68.641  1.00  0.00    -0.256 NA 
HETATM   32  C   UNL     1     -11.525  16.406  69.471  1.00  0.00    -0.123 C  
HETATM   33  C   UNL     1      -9.219  17.178  69.203  1.00  0.00    -0.042 C  
HETATM   34  C   UNL     1     -11.638  15.384  70.628  1.00  0.00    -0.332 C  
ENDBRANCH  25  28
ENDBRANCH  21  25
ENDBRANCH  11  16
ENDBRANCH   3   4
ENDBRANCH   2   3
TORSDOF 7
ENDMDL
MODEL      247
REMARK 921   NORMALIZED FREE ENERGY PREDICTED BY IDOCK:    1.52 KCAL/MOL
REMARK 922        TOTAL FREE ENERGY PREDICTED BY IDOCK:    0.79 KCAL/MOL
REMARK 923 INTER-LIGAND FREE ENERGY PREDICTED BY IDOCK:   -0.81 KCAL/MOL
REMARK 924 INTRA-LIGAND FREE ENERGY PREDICTED BY IDOCK:    1.60 KCAL/MOL
REMARK 927      BINDING AFFINITY PREDICTED BY RF-SCORE:    0.00 PKD
ROOT
HETATM    1  C   UNL     1      -5.407  15.296  68.317  1.00  0.00    -0.115 C  
HETATM    2  C   UNL     1      -5.544  14.108  69.258  1.00  0.00    -0.082 C  
ENDROOT
BRANCH   2   3
HETATM    3  C   UNL     1      -6.668  14.315  70.276  1.00  0.00     0.034 C  
BRANCH   3   4
HETATM    4  C   UNL     1      -7.992  13.848  69.772  1.00  0.00     0.952 A  
HETATM    5  N   UNL     1      -9.033  14.700  69.814  1.00  0.00     0.334 NA 
HETATM    6  N   UNL     1     -10.059  14.008  69.269  1.00  0.00     0.043 NA 
HETATM    7  C   UNL     1      -9.703  12.757  68.872  1.00  0.00     0.201 A  
HETATM    8  C   UNL     1     -11.348  14.643  69.133  1.00  0.00    -0.281 C  
HETATM    9  C   UNL     1      -8.389  12.617  69.199  1.00  0.00     0.608 A  
HETATM   10  N   UNL     1      -7.762  11.461  68.924  1.00  0.00    -0.130 NA 
HETATM   11  C   UNL     1      -8.530  10.464  68.319  1.00  0.00    -0.123 C  
HETATM   12  N   UNL     1      -9.789  10.582  67.986  1.00  0.00    -0.146 N  
HETATM   13  O   UNL     1     -11.678  11.884  67.978  1.00  0.00    -0.372 OA 
HETATM   14  H   UNL     1     -10.259   9.804  67.523  1.00  0.00     0.000 HD 
HETATM   15  C   UNL     1     -10.495  11.739  68.251  1.00  0.00    -0.206 C  
BRANCH  11  16
HETATM   16  C   UNL     1      -7.872   9.138  67.979  1.00  0.00    -0.100 A  
HETATM   17  C   UNL     1      -6.046   7.813  67.081  1.00  0.00    -0.052 A  
HETATM   18  C   UNL     1      -6.600   9.065  67.380  1.00  0.00    -0.065 A  
HETATM   19  C   UNL     1      -8.585   7.948  68.234  1.00  0.00    -0.124 A  
HETATM   20  C   UNL     1      -6.787   6.645  67.268  1.00  0.00    -0.072 A  
HETATM   21  C   UNL     1      -8.077   6.718  67.802  1.00  0.00    -0.113 A  
BRANCH  18  22
HETATM   22  O   UNL     1      -5.934  10.242  67.162  1.00  0.00    -0.049 OA 
BRANCH  22  23
HETATM   23  C   UNL     1      -6.136  10.871  65.896  1.00  0.00    -0.103 C  
HETATM   24  C   UNL     1      -5.250  10.146  64.900  1.00  0.00    -0.085 C  
ENDBRANCH  22  23
ENDBRANCH  18  22
BRANCH  21  25
HETATM   25  S   UNL     1      -9.003   5.205  68.010  1.00  0.00    -0.112 S  
HETATM   26  O   UNL     1      -9.918   5.102  66.893  1.00  0.00    -0.161 OA 
HETATM   27  O   UNL     1      -9.496   5.210  69.372  1.00  0.00    -0.121 OA 
BRANCH  25  28
HETATM   28  N   UNL     1      -7.882   3.943  67.898  1.00  0.00    -0.074 N  
HETATM   29  C   UNL     1      -8.314   2.620  67.404  1.00  0.00    -0.086 C  
HETATM   30  C   UNL     1      -8.131   2.524  65.884  1.00  0.00    -0.084 C  
HETATM   31  N   UNL     1      -6.762   2.809  65.408  1.00  0.00    -0.039 NA 
HETATM   32  C   UNL     1      -6.178   4.002  66.061  1.00  0.00    -0.032 C  
HETATM   33  C   UNL     1      -5.920   1.625  65.541  1.00  0.00    -0.017 C  
HETATM   34  C   UNL     1      -6.463   4.214  67.567  1.00  0.00    -0.038 C  
ENDBRANCH  25  28
ENDBRANCH  21  25
ENDBRANCH  11  16
ENDBRANCH   3   4
ENDBRANCH   2   3
TORSDOF 7
ENDMDL
MODEL      248
REMARK 921   NORMALIZED FREE ENERGY PREDICTED BY IDOCK:    1.83 KCAL/MOL
REMARK 922        TOTAL FREE ENERGY PREDICTED BY IDOCK:    1.24 KCAL/MOL
REMARK 923 INTER-LIGAND FREE ENERGY PREDICTED BY IDOCK:   -1.01 KCAL/MOL
REMARK 924 INTRA-LIGAND FREE ENERGY PREDICTED BY IDOCK:    2.25 KCAL/MOL
REMARK 927      BINDING AFFINITY PREDICTED BY RF-SCORE:    0.00 PKD
ROOT
HETATM    1  C   UNL     1     -10.910  16.269  67.085  1.00  0.00    -0.190 C  
HETATM    2  C   UNL     1      -9.417  16.523  67.240  1.00  0.00    -0.237 C  
ENDROOT
BRANCH   2   3
HETATM    3  C   UNL     1      -8.585  15.540  66.414  1.00  0.00    -0.292 C  
BRANCH   3   4
HETATM    4  C   UNL     1      -9.416  14.474  65.782  1.00  0.00    -0.123 A  
HETATM    5  N   UNL     1      -9.992  14.730  64.593  1.00  0.00    -0.018 NA 
HETATM    6  N   UNL     1     -10.635  13.584  64.275  1.00  0.00    -0.371 NA 
HETATM    7  C   UNL     1     -10.478  12.610  65.211  1.00  0.00    -0.289 A  
HETATM    8  C   UNL     1     -11.352  13.498  63.025  1.00  0.00     1.310 C  
HETATM    9  C   UNL     1      -9.718  13.157  66.200  1.00  0.00    -0.248 A  
HETATM   10  N   UNL     1      -9.401  12.414  67.273  1.00  0.00    -0.179 NA 
HETATM   11  C   UNL     1      -9.899  11.110  67.298  1.00  0.00    -0.175 C  
HETATM   12  N   UNL     1     -10.620  10.562  66.355  1.00  0.00    -0.190 N  
HETATM   13  O   UNL     1     -11.682  10.809  64.336  1.00  0.00     0.850 OA 
HETATM   14  H   UNL     1     -10.916   9.591  66.452  1.00  0.00     0.000 HD 
HETATM   15  C   UNL     1     -10.989  11.274  65.230  1.00  0.00    -0.137 C  
BRANCH  11  16
HETATM   16  C   UNL     1      -9.568  10.223  68.485  1.00  0.00    -0.165 A  
HETATM   17  C   UNL     1      -9.707   9.640  70.839  1.00  0.00    -0.125 A  
HETATM   18  C   UNL     1     -10.054  10.490  69.779  1.00  0.00    -0.081 A  
HETATM   19  C   UNL     1      -8.709   9.122  68.283  1.00  0.00    -0.129 A  
HETATM   20  C   UNL     1      -8.799   8.599  70.646  1.00  0.00    -0.192 A  
HETATM   21  C   UNL     1      -8.263   8.369  69.376  1.00  0.00    -0.116 A  
BRANCH  18  22
HETATM   22  O   UNL     1     -10.897  11.559  69.931  1.00  0.00    -0.017 OA 
BRANCH  22  23
HETATM   23  C   UNL     1     -12.118  11.528  69.191  1.00  0.00    -0.263 C  
HETATM   24  C   UNL     1     -13.000  12.627  69.754  1.00  0.00     0.991 C  
ENDBRANCH  22  23
ENDBRANCH  18  22
BRANCH  21  25
HETATM   25  S   UNL     1      -7.089   7.039  69.170  1.00  0.00    -0.086 S  
HETATM   26  O   UNL     1      -6.191   7.417  68.099  1.00  0.00    -0.040 OA 
HETATM   27  O   UNL     1      -7.864   5.817  69.090  1.00  0.00    -0.088 OA 
BRANCH  25  28
HETATM   28  N   UNL     1      -6.201   6.963  70.607  1.00  0.00    -0.031 N  
HETATM   29  C   UNL     1      -5.792   8.211  71.284  1.00  0.00    -0.034 C  
HETATM   30  C   UNL     1      -6.850   8.644  72.305  1.00  0.00    -0.037 C  
HETATM   31  N   UNL     1      -7.188   7.620  73.315  1.00  0.00    -0.084 NA 
HETATM   32  C   UNL     1      -7.373   6.280  72.715  1.00  0.00    -0.092 C  
HETATM   33  C   UNL     1      -6.207   7.625  74.395  1.00  0.00    -0.089 C  
HETATM   34  C   UNL     1      -6.414   5.860  71.575  1.00  0.00    -0.049 C  
ENDBRANCH  25  28
ENDBRANCH  21  25
ENDBRANCH  11  16
ENDBRANCH   3   4
ENDBRANCH   2   3
TORSDOF 7
ENDMDL
MODEL      249
REMARK 921   NORMALIZED FREE ENERGY PREDICTED BY IDOCK:    1.91 KCAL/MOL
REMARK 922        TOTAL FREE ENERGY PREDICTED BY IDOCK:    1.35 KCAL/MOL
REMARK 923 INTER-LIGAND FREE ENERGY PREDICTED BY IDOCK:    0.14 KCAL/MOL
REMARK 924 INTRA-LIGAND FREE ENERGY PREDICTED BY IDOCK:    1.21 KCAL/MOL
REMARK 927      BINDING AFFINITY PREDICTED BY RF-SCORE:    0.00 PKD
ROOT
HETATM    1  C   UNL     1      -7.092  11.262  68.387  1.00  0.00    -0.081 C  
HETATM    2  C   UNL     1      -8.152  12.083  67.665  1.00  0.00    -0.155 C  
ENDROOT
BRANCH   2   3
HETATM    3  C   UNL     1      -8.612  11.406  66.373  1.00  0.00    -0.174 C  
BRANCH   3   4
HETATM    4  C   UNL     1      -9.595  12.232  65.611  1.00  0.00    -0.137 A  
HETATM    5  N   UNL     1     -10.070  11.752  64.447  1.00  0.00    -0.271 NA 
HETATM    6  N   UNL     1     -10.944  12.694  64.025  1.00  0.00    -0.376 NA 
HETATM    7  C   UNL     1     -11.048  13.743  64.884  1.00  0.00    -0.362 A  
HETATM    8  C   UNL     1     -11.669  12.487  62.795  1.00  0.00     0.739 C  
HETATM    9  C   UNL     1     -10.180  13.486  65.901  1.00  0.00    -0.301 A  
HETATM   10  N   UNL     1     -10.066  14.368  66.908  1.00  0.00    -0.255 NA 
HETATM   11  C   UNL     1     -10.859  15.514  66.825  1.00  0.00    -0.291 C  
HETATM   12  N   UNL     1     -11.706  15.775  65.865  1.00  0.00     0.402 N  
HETATM   13  O   UNL     1     -12.627  15.132  63.864  1.00  0.00    -0.794 OA 
HETATM   14  H   UNL     1     -12.262  16.630  65.906  1.00  0.00     0.000 HD 
HETATM   15  C   UNL     1     -11.864  14.916  64.795  1.00  0.00    -0.384 C  
BRANCH  11  16
HETATM   16  C   UNL     1     -10.776  16.544  67.939  1.00  0.00    -0.337 A  
HETATM   17  C   UNL     1     -11.197  17.291  70.211  1.00  0.00     1.129 A  
HETATM   18  C   UNL     1     -11.294  16.299  69.225  1.00  0.00    -0.288 A  
HETATM   19  C   UNL     1     -10.199  17.799  67.654  1.00  0.00    -0.359 A  
HETATM   20  C   UNL     1     -10.693  18.554  69.900  1.00  0.00     1.617 A  
HETATM   21  C   UNL     1     -10.237  18.823  68.607  1.00  0.00    -0.313 A  
BRANCH  18  22
HETATM   22  O   UNL     1     -11.833  15.063  69.466  1.00  0.00    -0.298 OA 
BRANCH  22  23
HETATM   23  C   UNL     1     -10.926  14.027  69.845  1.00  0.00     0.107 C  
HETATM   24  C   UNL     1     -11.759  12.780  70.078  1.00  0.00    -0.282 C  
ENDBRANCH  22  23
ENDBRANCH  18  22
BRANCH  21  25
HETATM   25  S   UNL     1      -9.615  20.456  68.241  1.00  0.00     0.081 S  
HETATM   26  O   UNL     1      -8.690  20.813  69.297  1.00  0.00     1.284 OA 
HETATM   27  O   UNL     1     -10.772  21.282  67.960  1.00  0.00     1.171 OA 
BRANCH  25  28
HETATM   28  N   UNL     1      -8.746  20.321  66.796  1.00  0.00    -0.294 N  
HETATM   29  C   UNL     1      -7.534  21.139  66.589  1.00  0.00     0.219 C  
HETATM   30  C   UNL     1      -6.286  20.387  67.066  1.00  0.00    -0.211 C  
HETATM   31  N   UNL     1      -6.096  19.056  66.456  1.00  0.00    -0.165 NA 
HETATM   32  C   UNL     1      -7.351  18.273  66.415  1.00  0.00    -0.248 C  
HETATM   33  C   UNL     1      -5.466  19.181  65.146  1.00  0.00    -0.186 C  
HETATM   34  C   UNL     1      -8.662  19.026  66.079  1.00  0.00    -0.051 C  
ENDBRANCH  25  28
ENDBRANCH  21  25
ENDBRANCH  11  16
ENDBRANCH   3   4
ENDBRANCH   2   3
TORSDOF 7
ENDMDL
MODEL      250
REMARK 921   NORMALIZED FREE ENERGY PREDICTED BY IDOCK:    2.42 KCAL/MOL
REMARK 922        TOTAL FREE ENERGY PREDICTED BY IDOCK:    2.06 KCAL/MOL
REMARK 923 INTER-LIGAND FREE ENERGY PREDICTED BY IDOCK:   -1.16 KCAL/MOL
REMARK 924 INTRA-LIGAND FREE ENERGY PREDICTED BY IDOCK:    3.22 KCAL/MOL
REMARK 927      BINDING AFFINITY PREDICTED BY RF-SCORE:    0.00 PKD
ROOT
HETATM    1  C   UNL     1     -13.328   5.157  72.087  1.00  0.00     2.345 C  
HETATM    2  C   UNL     1     -11.968   5.824  72.233  1.00  0.00    -0.147 C  
ENDROOT
BRANCH   2   3
HETATM    3  C   UNL     1     -11.873   7.107  71.405  1.00  0.00    -0.344 C  
BRANCH   3   4
HETATM    4  C   UNL     1     -11.105   6.918  70.139  1.00  0.00    -0.299 A  
HETATM    5  N   UNL     1     -11.519   5.978  69.271  1.00  0.00    -0.211 NA 
HETATM    6  N   UNL     1     -10.657   6.072  68.234  1.00  0.00    -0.236 NA 
HETATM    7  C   UNL     1      -9.722   7.044  68.407  1.00  0.00    -0.139 A  
HETATM    8  C   UNL     1     -10.828   5.207  67.091  1.00  0.00     0.190 C  
HETATM    9  C   UNL     1      -9.970   7.592  69.629  1.00  0.00    -0.184 A  
HETATM   10  N   UNL     1      -9.188   8.589  70.074  1.00  0.00    -0.153 NA 
HETATM   11  C   UNL     1      -8.149   8.989  69.232  1.00  0.00    -0.105 C  
HETATM   12  N   UNL     1      -7.900   8.485  68.052  1.00  0.00    -0.102 N  
HETATM   13  O   UNL     1      -8.447   6.935  66.452  1.00  0.00    -0.118 OA 
HETATM   14  H   UNL     1      -7.131   8.863  67.498  1.00  0.00     0.000 HD 
HETATM   15  C   UNL     1      -8.659   7.451  67.540  1.00  0.00    -0.122 C  
BRANCH  11  16
HETATM   16  C   UNL     1      -7.236  10.117  69.681  1.00  0.00    -0.127 A  
HETATM   17  C   UNL     1      -5.908  11.270  71.357  1.00  0.00     0.456 A  
HETATM   18  C   UNL     1      -6.739  10.200  70.996  1.00  0.00     0.263 A  
HETATM   19  C   UNL     1      -6.917  11.133  68.757  1.00  0.00    -0.088 A  
HETATM   20  C   UNL     1      -5.658  12.309  70.458  1.00  0.00    -0.168 A  
HETATM   21  C   UNL     1      -6.202  12.263  69.172  1.00  0.00    -0.089 A  
BRANCH  18  22
HETATM   22  O   UNL     1      -7.060   9.187  71.860  1.00  0.00    -0.314 OA 
BRANCH  22  23
HETATM   23  C   UNL     1      -8.446   8.867  71.994  1.00  0.00     0.089 C  
HETATM   24  C   UNL     1      -8.615   8.213  73.352  1.00  0.00    -0.313 C  
ENDBRANCH  22  23
ENDBRANCH  18  22
BRANCH  21  25
HETATM   25  S   UNL     1      -5.877  13.618  68.056  1.00  0.00    -0.134 S  
HETATM   26  O   UNL     1      -5.331  13.054  66.840  1.00  0.00    -0.231 OA 
HETATM   27  O   UNL     1      -5.133  14.604  68.814  1.00  0.00    -0.084 OA 
BRANCH  25  28
HETATM   28  N   UNL     1      -7.379  14.307  67.696  1.00  0.00    -0.165 N  
HETATM   29  C   UNL     1      -8.418  13.496  67.031  1.00  0.00    -0.123 C  
HETATM   30  C   UNL     1      -9.313  12.808  68.069  1.00  0.00    -0.213 C  
HETATM   31  N   UNL     1      -9.945  13.722  69.042  1.00  0.00    -0.022 NA 
HETATM   32  C   UNL     1      -8.994  14.727  69.567  1.00  0.00     0.124 C  
HETATM   33  C   UNL     1     -11.145  14.325  68.471  1.00  0.00    -0.257 C  
HETATM   34  C   UNL     1      -7.972  15.340  68.579  1.00  0.00    -0.141 C  
ENDBRANCH  25  28
ENDBRANCH  21  25
ENDBRANCH  11  16
ENDBRANCH   3   4
ENDBRANCH   2   3
TORSDOF 7
ENDMDL
MODEL      251
REMARK 921   NORMALIZED FREE ENERGY PREDICTED BY IDOCK:    7.91 KCAL/MOL
REMARK 922        TOTAL FREE ENERGY PREDICTED BY IDOCK:    9.79 KCAL/MOL
REMARK 923 INTER-LIGAND FREE ENERGY PREDICTED BY IDOCK:   10.37 KCAL/MOL
REMARK 924 INTRA-LIGAND FREE ENERGY PREDICTED BY IDOCK:   -0.58 KCAL/MOL
REMARK 927      BINDING AFFINITY PREDICTED BY RF-SCORE:    0.00 PKD
ROOT
HETATM    1  C   UNL     1     -10.761  17.423  73.414  1.00  0.00     4.111 C  
HETATM    2  C   UNL     1     -11.051  17.388  71.920  1.00  0.00     1.794 C  
ENDROOT
BRANCH   2   3
HETATM    3  C   UNL     1     -10.882  15.982  71.341  1.00  0.00     0.332 C  
BRANCH   3   4
HETATM    4  C   UNL     1      -9.847  15.923  70.268  1.00  0.00     0.367 A  
HETATM    5  N   UNL     1      -8.921  16.898  70.214  1.00  0.00     2.087 NA 
HETATM    6  N   UNL     1      -8.125  16.551  69.177  1.00  0.00    -0.214 NA 
HETATM    7  C   UNL     1      -8.505  15.389  68.583  1.00  0.00    -0.170 A  
HETATM    8  C   UNL     1      -6.991  17.381  68.848  1.00  0.00    -0.244 C  
HETATM    9  C   UNL     1      -9.619  14.972  69.246  1.00  0.00    -0.180 A  
HETATM   10  N   UNL     1     -10.223  13.834  68.866  1.00  0.00    -0.160 NA 
HETATM   11  C   UNL     1      -9.654  13.157  67.786  1.00  0.00    -0.208 C  
HETATM   12  N   UNL     1      -8.580  13.533  67.143  1.00  0.00    -0.268 N  
HETATM   13  O   UNL     1      -6.923  15.100  66.886  1.00  0.00    -0.148 OA 
HETATM   14  H   UNL     1      -8.225  12.955  66.381  1.00  0.00     0.000 HD 
HETATM   15  C   UNL     1      -7.917  14.698  67.476  1.00  0.00    -0.190 C  
BRANCH  11  16
HETATM   16  C   UNL     1     -10.293  11.861  67.317  1.00  0.00    -0.228 A  
HETATM   17  C   UNL     1     -11.763  10.595  65.856  1.00  0.00     1.651 A  
HETATM   18  C   UNL     1     -11.197  11.819  66.239  1.00  0.00    -0.312 A  
HETATM   19  C   UNL     1      -9.998  10.673  68.018  1.00  0.00    -0.180 A  
HETATM   20  C   UNL     1     -11.523   9.438  66.600  1.00  0.00     2.015 A  
HETATM   21  C   UNL     1     -10.677   9.488  67.711  1.00  0.00    -0.242 A  
BRANCH  18  22
HETATM   22  O   UNL     1     -11.447  12.991  65.574  1.00  0.00    -0.305 OA 
BRANCH  22  23
HETATM   23  C   UNL     1     -12.680  13.076  64.858  1.00  0.00    -0.390 C  
HETATM   24  C   UNL     1     -13.738  13.503  65.858  1.00  0.00     2.618 C  
ENDBRANCH  22  23
ENDBRANCH  18  22
BRANCH  21  25
HETATM   25  S   UNL     1     -10.409   7.994  68.650  1.00  0.00    -0.176 S  
HETATM   26  O   UNL     1     -11.108   6.924  67.970  1.00  0.00    -0.183 OA 
HETATM   27  O   UNL     1     -10.712   8.316  70.030  1.00  0.00    -0.237 OA 
BRANCH  25  28
HETATM   28  N   UNL     1      -8.749   7.677  68.575  1.00  0.00    -0.128 N  
HETATM   29  C   UNL     1      -7.810   8.762  68.224  1.00  0.00    -0.101 C  
HETATM   30  C   UNL     1      -7.317   9.479  69.487  1.00  0.00    -0.077 C  
HETATM   31  N   UNL     1      -6.700   8.597  70.497  1.00  0.00    -0.037 NA 
HETATM   32  C   UNL     1      -7.482   7.360  70.715  1.00  0.00    -0.078 C  
HETATM   33  C   UNL     1      -5.306   8.330  70.157  1.00  0.00    -0.022 C  
HETATM   34  C   UNL     1      -8.123   6.683  69.479  1.00  0.00    -0.126 C  
ENDBRANCH  25  28
ENDBRANCH  21  25
ENDBRANCH  11  16
ENDBRANCH   3   4
ENDBRANCH   2   3
TORSDOF 7
ENDMDL
MODEL      252
REMARK 921   NORMALIZED FREE ENERGY PREDICTED BY IDOCK:   11.12 KCAL/MOL
REMARK 922        TOTAL FREE ENERGY PREDICTED BY IDOCK:   14.32 KCAL/MOL
REMARK 923 INTER-LIGAND FREE ENERGY PREDICTED BY IDOCK:   11.81 KCAL/MOL
REMARK 924 INTRA-LIGAND FREE ENERGY PREDICTED BY IDOCK:    2.51 KCAL/MOL
REMARK 927      BINDING AFFINITY PREDICTED BY RF-SCORE:    0.00 PKD
ROOT
HETATM    1  C   UNL     1      -7.128  10.804  64.879  1.00  0.00     0.248 C  
HETATM    2  C   UNL     1      -8.055  11.595  65.790  1.00  0.00     0.418 C  
ENDROOT
BRANCH   2   3
HETATM    3  C   UNL     1      -7.864  13.104  65.624  1.00  0.00     3.594 C  
BRANCH   3   4
HETATM    4  C   UNL     1      -8.344  13.877  66.806  1.00  0.00     0.109 A  
HETATM    5  N   UNL     1      -7.864  15.119  66.999  1.00  0.00    -0.205 NA 
HETATM    6  N   UNL     1      -8.501  15.560  68.107  1.00  0.00    -0.146 NA 
HETATM    7  C   UNL     1      -9.374  14.650  68.614  1.00  0.00    -0.206 A  
HETATM    8  C   UNL     1      -8.236  16.893  68.593  1.00  0.00    -0.254 C  
HETATM    9  C   UNL     1      -9.282  13.552  67.813  1.00  0.00    -0.213 A  
HETATM   10  N   UNL     1     -10.041  12.476  68.082  1.00  0.00    -0.220 NA 
HETATM   11  C   UNL     1     -10.877  12.565  69.196  1.00  0.00    -0.084 C  
HETATM   12  N   UNL     1     -10.989  13.612  69.970  1.00  0.00    -0.347 N  
HETATM   13  O   UNL     1     -10.287  15.739  70.469  1.00  0.00    -0.188 OA 
HETATM   14  H   UNL     1     -11.650  13.591  70.748  1.00  0.00     0.000 HD 
HETATM   15  C   UNL     1     -10.231  14.747  69.756  1.00  0.00     0.035 C  
BRANCH  11  16
HETATM   16  C   UNL     1     -11.762  11.381  69.544  1.00  0.00    -0.417 A  
HETATM   17  C   UNL     1     -13.734  10.397  70.565  1.00  0.00     0.674 A  
HETATM   18  C   UNL     1     -12.962  11.529  70.264  1.00  0.00     0.259 A  
HETATM   19  C   UNL     1     -11.337  10.090  69.167  1.00  0.00    -0.146 A  
HETATM   20  C   UNL     1     -13.270   9.118  70.254  1.00  0.00     1.049 A  
HETATM   21  C   UNL     1     -12.047   8.962  69.596  1.00  0.00     1.147 A  
BRANCH  18  22
HETATM   22  O   UNL     1     -13.348  12.800  70.600  1.00  0.00     0.343 OA 
BRANCH  22  23
HETATM   23  C   UNL     1     -14.020  13.556  69.592  1.00  0.00     4.893 C  
HETATM   24  C   UNL     1     -12.972  14.429  68.927  1.00  0.00     1.362 C  
ENDBRANCH  22  23
ENDBRANCH  18  22
BRANCH  21  25
HETATM   25  S   UNL     1     -11.476   7.310  69.231  1.00  0.00     0.391 S  
HETATM   26  O   UNL     1     -10.838   7.351  67.932  1.00  0.00    -0.172 OA 
HETATM   27  O   UNL     1     -12.597   6.425  69.477  1.00  0.00     1.329 OA 
BRANCH  25  28
HETATM   28  N   UNL     1     -10.300   6.947  70.391  1.00  0.00    -0.199 N  
HETATM   29  C   UNL     1      -8.869   7.101  70.059  1.00  0.00    -0.142 C  
HETATM   30  C   UNL     1      -8.377   8.506  70.427  1.00  0.00    -0.124 C  
HETATM   31  N   UNL     1      -8.604   8.890  71.835  1.00  0.00    -0.371 NA 
HETATM   32  C   UNL     1      -9.962   8.532  72.303  1.00  0.00    -0.315 C  
HETATM   33  C   UNL     1      -7.552   8.345  72.688  1.00  0.00    -0.077 C  
HETATM   34  C   UNL     1     -10.556   7.183  71.832  1.00  0.00    -0.213 C  
ENDBRANCH  25  28
ENDBRANCH  21  25
ENDBRANCH  11  16
ENDBRANCH   3   4
ENDBRANCH   2   3
TORSDOF 7
ENDMDL
MODEL      253
REMARK 921   NORMALIZED FREE ENERGY PREDICTED BY IDOCK:   12.49 KCAL/MOL
REMARK 922        TOTAL FREE ENERGY PREDICTED BY IDOCK:   16.25 KCAL/MOL
REMARK 923 INTER-LIGAND FREE ENERGY PREDICTED BY IDOCK:   13.90 KCAL/MOL
REMARK 924 INTRA-LIGAND FREE ENERGY PREDICTED BY IDOCK:    2.35 KCAL/MOL
REMARK 927      BINDING AFFINITY PREDICTED BY RF-SCORE:    0.00 PKD
ROOT
HETATM    1  C   UNL     1      -8.788   6.921  73.553  1.00  0.00    -0.161 C  
HETATM    2  C   UNL     1      -7.555   6.058  73.323  1.00  0.00    -0.097 C  
ENDROOT
BRANCH   2   3
HETATM    3  C   UNL     1      -7.899   4.567  73.313  1.00  0.00    -0.091 C  
BRANCH   3   4
HETATM    4  C   UNL     1      -8.899   4.216  72.262  1.00  0.00    -0.107 A  
HETATM    5  N   UNL     1      -9.770   3.221  72.511  1.00  0.00    -0.132 NA 
HETATM    6  N   UNL     1     -10.547   3.168  71.405  1.00  0.00     0.753 NA 
HETATM    7  C   UNL     1     -10.209   4.098  70.474  1.00  0.00     0.169 A  
HETATM    8  C   UNL     1     -11.625   2.210  71.343  1.00  0.00     3.962 C  
HETATM    9  C   UNL     1      -9.142   4.773  70.985  1.00  0.00    -0.132 A  
HETATM   10  N   UNL     1      -8.585   5.763  70.268  1.00  0.00    -0.130 NA 
HETATM   11  C   UNL     1      -9.151   6.023  69.018  1.00  0.00    -0.122 C  
HETATM   12  N   UNL     1     -10.181   5.396  68.514  1.00  0.00    -0.178 N  
HETATM   13  O   UNL     1     -11.744   3.733  68.750  1.00  0.00     8.678 OA 
HETATM   14  H   UNL     1     -10.540   5.676  67.601  1.00  0.00     0.000 HD 
HETATM   15  C   UNL     1     -10.794   4.361  69.194  1.00  0.00     2.004 C  
BRANCH  11  16
HETATM   16  C   UNL     1      -8.566   7.135  68.166  1.00  0.00    -0.129 A  
HETATM   17  C   UNL     1      -8.000   9.463  67.763  1.00  0.00    -0.096 A  
HETATM   18  C   UNL     1      -8.545   8.476  68.597  1.00  0.00    -0.135 A  
HETATM   19  C   UNL     1      -8.070   6.813  66.886  1.00  0.00    -0.109 A  
HETATM   20  C   UNL     1      -7.580   9.148  66.470  1.00  0.00    -0.093 A  
HETATM   21  C   UNL     1      -7.659   7.829  66.015  1.00  0.00    -0.087 A  
BRANCH  18  22
HETATM   22  O   UNL     1      -9.022   8.746  69.852  1.00  0.00    -0.143 OA 
BRANCH  22  23
HETATM   23  C   UNL     1     -10.206   8.056  70.253  1.00  0.00    -0.200 C  
HETATM   24  C   UNL     1     -11.315   9.090  70.322  1.00  0.00    -0.202 C  
ENDBRANCH  22  23
ENDBRANCH  18  22
BRANCH  21  25
HETATM   25  S   UNL     1      -7.129   7.466  64.348  1.00  0.00    -0.066 S  
HETATM   26  O   UNL     1      -7.700   6.186  63.983  1.00  0.00    -0.093 OA 
HETATM   27  O   UNL     1      -5.696   7.673  64.319  1.00  0.00    -0.040 OA 
BRANCH  25  28
HETATM   28  N   UNL     1      -7.817   8.656  63.362  1.00  0.00    -0.144 N  
HETATM   29  C   UNL     1      -9.281   8.852  63.360  1.00  0.00     0.737 C  
HETATM   30  C   UNL     1      -9.688   9.898  64.404  1.00  0.00    -0.107 C  
HETATM   31  N   UNL     1      -9.013  11.204  64.265  1.00  0.00    -0.038 NA 
HETATM   32  C   UNL     1      -7.561  11.062  64.018  1.00  0.00     0.696 C  
HETATM   33  C   UNL     1      -9.680  12.017  63.253  1.00  0.00    -0.136 C  
HETATM   34  C   UNL     1      -7.095   9.920  63.082  1.00  0.00    -0.126 C  
ENDBRANCH  25  28
ENDBRANCH  21  25
ENDBRANCH  11  16
ENDBRANCH   3   4
ENDBRANCH   2   3
TORSDOF 7
ENDMDL
MODEL      254
REMARK 921   NORMALIZED FREE ENERGY PREDICTED BY IDOCK:   16.28 KCAL/MOL
REMARK 922        TOTAL FREE ENERGY PREDICTED BY IDOCK:   21.59 KCAL/MOL
REMARK 923 INTER-LIGAND FREE ENERGY PREDICTED BY IDOCK:   21.13 KCAL/MOL
REMARK 924 INTRA-LIGAND FREE ENERGY PREDICTED BY IDOCK:    0.46 KCAL/MOL
REMARK 927      BINDING AFFINITY PREDICTED BY RF-SCORE:    0.00 PKD
ROOT
HETATM    1  C   UNL     1     -13.746   4.374  72.123  1.00  0.00     4.753 C  
HETATM    2  C   UNL     1     -12.529   4.950  72.833  1.00  0.00     0.524 C  
ENDROOT
BRANCH   2   3
HETATM    3  C   UNL     1     -12.050   6.247  72.177  1.00  0.00    -0.304 C  
BRANCH   3   4
HETATM    4  C   UNL     1     -10.603   6.515  72.425  1.00  0.00    -0.215 A  
HETATM    5  N   UNL     1      -9.894   5.613  73.129  1.00  0.00    -0.165 NA 
HETATM    6  N   UNL     1      -8.639   6.115  73.154  1.00  0.00    -0.118 NA 
HETATM    7  C   UNL     1      -8.524   7.291  72.483  1.00  0.00    -0.108 A  
HETATM    8  C   UNL     1      -7.594   5.375  73.820  1.00  0.00    -0.094 C  
HETATM    9  C   UNL     1      -9.771   7.585  72.020  1.00  0.00    -0.159 A  
HETATM   10  N   UNL     1      -9.962   8.711  71.313  1.00  0.00    -0.222 NA 
HETATM   11  C   UNL     1      -8.842   9.518  71.111  1.00  0.00     0.288 C  
HETATM   12  N   UNL     1      -7.635   9.250  71.535  1.00  0.00     0.106 N  
HETATM   13  O   UNL     1      -6.264   7.837  72.714  1.00  0.00    -0.057 OA 
HETATM   14  H   UNL     1      -6.872   9.891  71.314  1.00  0.00     0.000 HD 
HETATM   15  C   UNL     1      -7.372   8.115  72.277  1.00  0.00    -0.102 C  
BRANCH  11  16
HETATM   16  C   UNL     1      -8.998  10.801  70.313  1.00  0.00     1.456 A  
HETATM   17  C   UNL     1      -9.963  12.102  68.503  1.00  0.00    -0.180 A  
HETATM   18  C   UNL     1      -9.867  10.894  69.208  1.00  0.00    -0.090 A  
HETATM   19  C   UNL     1      -8.210  11.915  70.668  1.00  0.00     5.766 A  
HETATM   20  C   UNL     1      -9.126  13.175  68.815  1.00  0.00     0.153 A  
HETATM   21  C   UNL     1      -8.216  13.065  69.869  1.00  0.00     2.413 A  
BRANCH  18  22
HETATM   22  O   UNL     1     -10.625   9.795  68.903  1.00  0.00    -0.207 OA 
BRANCH  22  23
HETATM   23  C   UNL     1     -10.018   8.803  68.074  1.00  0.00    -0.182 C  
HETATM   24  C   UNL     1     -10.581   7.464  68.509  1.00  0.00    -0.188 C  
ENDBRANCH  22  23
ENDBRANCH  18  22
BRANCH  21  25
HETATM   25  S   UNL     1      -7.150  14.451  70.228  1.00  0.00     0.464 S  
HETATM   26  O   UNL     1      -6.431  14.770  69.012  1.00  0.00    -0.089 OA 
HETATM   27  O   UNL     1      -6.436  14.116  71.444  1.00  0.00     0.056 OA 
BRANCH  25  28
HETATM   28  N   UNL     1      -8.168  15.749  70.600  1.00  0.00     1.807 N  
HETATM   29  C   UNL     1      -7.586  17.057  70.966  1.00  0.00     5.336 C  
HETATM   30  C   UNL     1      -7.407  17.936  69.722  1.00  0.00     0.652 C  
HETATM   31  N   UNL     1      -8.636  18.144  68.931  1.00  0.00    -0.181 NA 
HETATM   32  C   UNL     1      -9.398  16.890  68.737  1.00  0.00    -0.260 C  
HETATM   33  C   UNL     1      -9.444  19.210  69.514  1.00  0.00     0.161 C  
HETATM   34  C   UNL     1      -9.480  15.903  69.927  1.00  0.00     0.113 C  
ENDBRANCH  25  28
ENDBRANCH  21  25
ENDBRANCH  11  16
ENDBRANCH   3   4
ENDBRANCH   2   3
TORSDOF 7
ENDMDL
MODEL      255
REMARK 921   NORMALIZED FREE ENERGY PREDICTED BY IDOCK:   21.50 KCAL/MOL
REMARK 922        TOTAL FREE ENERGY PREDICTED BY IDOCK:   28.95 KCAL/MOL
REMARK 923 INTER-LIGAND FREE ENERGY PREDICTED BY IDOCK:   23.32 KCAL/MOL
REMARK 924 INTRA-LIGAND FREE ENERGY PREDICTED BY IDOCK:    5.63 KCAL/MOL
REMARK 927      BINDING AFFINITY PREDICTED BY RF-SCORE:    0.00 PKD
ROOT
HETATM    1  C   UNL     1      -9.123   6.412  74.488  1.00  0.00    -0.190 C  
HETATM    2  C   UNL     1      -7.947   5.567  74.020  1.00  0.00    -0.107 C  
ENDROOT
BRANCH   2   3
HETATM    3  C   UNL     1      -8.214   4.071  74.202  1.00  0.00    -0.091 C  
BRANCH   3   4
HETATM    4  C   UNL     1      -9.532   3.651  73.643  1.00  0.00    -0.099 A  
HETATM    5  N   UNL     1     -10.205   2.661  74.258  1.00  0.00    -0.124 NA 
HETATM    6  N   UNL     1     -11.350   2.538  73.548  1.00  0.00    -0.214 NA 
HETATM    7  C   UNL     1     -11.431   3.420  72.517  1.00  0.00     0.942 A  
HETATM    8  C   UNL     1     -12.334   1.565  73.956  1.00  0.00     0.213 C  
HETATM    9  C   UNL     1     -10.272   4.135  72.538  1.00  0.00    -0.174 A  
HETATM   10  N   UNL     1     -10.071   5.090  71.616  1.00  0.00    -0.190 NA 
HETATM   11  C   UNL     1     -11.087   5.274  70.676  1.00  0.00     0.248 C  
HETATM   12  N   UNL     1     -12.211   4.608  70.644  1.00  0.00     6.326 N  
HETATM   13  O   UNL     1     -13.504   2.942  71.549  1.00  0.00     9.316 OA 
HETATM   14  H   UNL     1     -12.906   4.833  69.932  1.00  0.00     0.000 HD 
HETATM   15  C   UNL     1     -12.477   3.605  71.557  1.00  0.00     8.306 C  
BRANCH  11  16
HETATM   16  C   UNL     1     -10.916   6.345  69.613  1.00  0.00    -0.420 A  
HETATM   17  C   UNL     1     -10.720   7.069  67.303  1.00  0.00    -0.412 A  
HETATM   18  C   UNL     1     -10.890   6.039  68.239  1.00  0.00    -0.284 A  
HETATM   19  C   UNL     1     -10.735   7.681  70.027  1.00  0.00    -0.245 A  
HETATM   20  C   UNL     1     -10.467   8.376  67.724  1.00  0.00    -0.284 A  
HETATM   21  C   UNL     1     -10.427   8.673  69.088  1.00  0.00    -0.211 A  
BRANCH  18  22
HETATM   22  O   UNL     1     -11.084   4.733  67.877  1.00  0.00     0.881 OA 
BRANCH  22  23
HETATM   23  C   UNL     1     -10.452   3.739  68.685  1.00  0.00     1.554 C  
HETATM   24  C   UNL     1      -9.020   4.192  68.897  1.00  0.00    -0.162 C  
ENDBRANCH  22  23
ENDBRANCH  18  22
BRANCH  21  25
HETATM   25  S   UNL     1     -10.083  10.352  69.590  1.00  0.00    -0.140 S  
HETATM   26  O   UNL     1      -8.944  10.311  70.482  1.00  0.00     0.271 OA 
HETATM   27  O   UNL     1     -11.344  10.917  70.025  1.00  0.00    -0.288 OA 
BRANCH  25  28
HETATM   28  N   UNL     1      -9.631  11.182  68.187  1.00  0.00    -0.173 N  
HETATM   29  C   UNL     1      -8.482  10.706  67.390  1.00  0.00    -0.122 C  
HETATM   30  C   UNL     1      -8.945   9.725  66.307  1.00  0.00    -0.153 C  
HETATM   31  N   UNL     1      -9.990  10.249  65.405  1.00  0.00    -0.294 NA 
HETATM   32  C   UNL     1     -11.060  10.959  66.140  1.00  0.00     0.061 C  
HETATM   33  C   UNL     1      -9.393  11.064  64.351  1.00  0.00    -0.195 C  
HETATM   34  C   UNL     1     -10.648  11.848  67.338  1.00  0.00    -0.225 C  
ENDBRANCH  25  28
ENDBRANCH  21  25
ENDBRANCH  11  16
ENDBRANCH   3   4
ENDBRANCH   2   3
TORSDOF 7
ENDMDL
