MODEL        1
REMARK 921   NORMALIZED FREE ENERGY PREDICTED BY IDOCK:   -6.83 KCAL/MOL
REMARK 922        TOTAL FREE ENERGY PREDICTED BY IDOCK:  -15.19 KCAL/MOL
REMARK 923 INTER-LIGAND FREE ENERGY PREDICTED BY IDOCK:  -12.02 KCAL/MOL
REMARK 924 INTRA-LIGAND FREE ENERGY PREDICTED BY IDOCK:   -3.17 KCAL/MOL
REMARK 927      BINDING AFFINITY PREDICTED BY RF-SCORE:    0.00 PKD
ROOT
HETATM    1  C   UNL     1     -10.764  11.405  64.256  1.00  0.00    -0.420 C  
HETATM    2  C   UNL     1     -10.384  12.113  65.562  1.00  0.00    -0.263 C  
ENDROOT
BRANCH   2   3
HETATM    3  C   UNL     1     -11.521  12.068  66.609  1.00  0.00    -0.411 C  
BRANCH   3   4
HETATM    4  C   UNL     1     -11.173  11.276  67.837  1.00  0.00    -0.353 A  
HETATM    5  C   UNL     1     -12.105  11.153  68.873  1.00  0.00    -0.276 A  
HETATM    6  C   UNL     1      -8.692   8.572  70.752  1.00  0.00    -0.160 A  
HETATM    7  C   UNL     1      -9.934  10.666  67.975  1.00  0.00    -0.180 A  
HETATM    8  C   UNL     1      -9.682   9.933  69.127  1.00  0.00    -0.204 A  
HETATM    9  C   UNL     1     -11.855  10.380  70.034  1.00  0.00    -0.351 A  
HETATM   10  C   UNL     1     -10.606   9.768  70.185  1.00  0.00    -0.285 A  
HETATM   11  C   UNL     1      -8.397   9.227  69.407  1.00  0.00    -0.127 A  
HETATM   12  N   UNL     1     -10.031   8.997  71.180  1.00  0.00    -0.268 NA 
BRANCH  12  13
HETATM   13  C   UNL     1     -10.579   8.464  72.412  1.00  0.00    -0.335 C  
BRANCH  13  14
HETATM   14  C   UNL     1     -10.739   6.943  72.348  1.00  0.00    -0.257 C  
BRANCH  14  15
HETATM   15  C   UNL     1     -12.110   6.498  71.859  1.00  0.00    -0.339 C  
HETATM   16  O   UNL     1     -12.258   6.859  70.485  1.00  0.00    -0.569 OA 
HETATM   17  H   UNL     1     -13.114   6.581  70.180  1.00  0.00     0.000 HD 
ENDBRANCH  14  15
ENDBRANCH  13  14
ENDBRANCH  12  13
BRANCH   9  18
HETATM   18  C   UNL     1     -12.991  10.358  70.992  1.00  0.00    -0.399 C  
HETATM   19  N   UNL     1     -13.125  11.466  71.799  1.00  0.00    -0.471 N  
HETATM   20  O   UNL     1     -13.755   9.410  71.132  1.00  0.00    -0.304 OA 
HETATM   21  H2  UNL     1     -12.482  12.255  71.743  1.00  0.00     0.000 HD 
HETATM   22  H1  UNL     1     -13.905  11.451  72.457  1.00  0.00     0.000 HD 
ENDBRANCH   9  18
ENDBRANCH   3   4
ENDBRANCH   2   3
BRANCH   2  23
HETATM   23  N   UNL     1      -9.996  13.499  65.243  1.00  0.00    -0.516 NA 
HETATM   24  H   UNL     1      -9.238  13.509  64.562  1.00  0.00     0.000 HD 
BRANCH  23  25
HETATM   25  C   UNL     1     -11.111  14.345  64.790  1.00  0.00    -0.394 C  
BRANCH  25  26
HETATM   26  C   UNL     1     -10.924  15.850  65.080  1.00  0.00    -0.412 C  
BRANCH  26  27
HETATM   27  O   UNL     1     -10.387  16.097  66.386  1.00  0.00    -0.296 OA 
BRANCH  27  28
HETATM   28  C   UNL     1     -10.296  17.406  66.786  1.00  0.00    -0.305 A  
HETATM   29  C   UNL     1     -10.026  18.981  68.607  1.00  0.00    -0.482 A  
HETATM   30  C   UNL     1     -10.515  18.497  65.926  1.00  0.00    -0.379 A  
HETATM   31  C   UNL     1     -10.046  17.666  68.143  1.00  0.00    -0.347 A  
HETATM   32  C   UNL     1     -10.256  20.054  67.743  1.00  0.00    -0.549 A  
HETATM   33  C   UNL     1     -10.504  19.806  66.398  1.00  0.00    -0.618 A  
BRANCH  31  34
HETATM   34  O   UNL     1      -9.929  16.728  69.135  1.00  0.00    -0.267 OA 
BRANCH  34  35
HETATM   35  C   UNL     1     -11.147  16.202  69.674  1.00  0.00    -0.344 C  
HETATM   36  C   UNL     1     -11.320  14.714  69.387  1.00  0.00    -0.284 C  
HETATM   37  F   UNL     1     -10.228  14.144  68.835  1.00  0.00    -0.225 F  
HETATM   38  F   UNL     1     -11.616  14.029  70.516  1.00  0.00    -0.332 F  
HETATM   39  F   UNL     1     -12.353  14.513  68.525  1.00  0.00    -0.300 F  
ENDBRANCH  34  35
ENDBRANCH  31  34
ENDBRANCH  27  28
ENDBRANCH  26  27
ENDBRANCH  25  26
ENDBRANCH  23  25
ENDBRANCH   2  23
TORSDOF 13
ENDMDL
MODEL        2
REMARK 921   NORMALIZED FREE ENERGY PREDICTED BY IDOCK:   -6.67 KCAL/MOL
REMARK 922        TOTAL FREE ENERGY PREDICTED BY IDOCK:  -14.91 KCAL/MOL
REMARK 923 INTER-LIGAND FREE ENERGY PREDICTED BY IDOCK:  -13.17 KCAL/MOL
REMARK 924 INTRA-LIGAND FREE ENERGY PREDICTED BY IDOCK:   -1.74 KCAL/MOL
REMARK 927      BINDING AFFINITY PREDICTED BY RF-SCORE:    0.00 PKD
ROOT
HETATM    1  C   UNL     1     -14.277  15.214  71.712  1.00  0.00    -0.674 C  
HETATM    2  C   UNL     1     -13.259  14.156  71.267  1.00  0.00    -0.329 C  
ENDROOT
BRANCH   2   3
HETATM    3  C   UNL     1     -13.493  12.789  71.950  1.00  0.00    -0.452 C  
BRANCH   3   4
HETATM    4  C   UNL     1     -12.681  11.675  71.354  1.00  0.00    -0.445 A  
HETATM    5  C   UNL     1     -12.644  10.426  71.985  1.00  0.00    -0.265 A  
HETATM    6  C   UNL     1      -9.909   9.400  68.337  1.00  0.00    -0.160 A  
HETATM    7  C   UNL     1     -11.953  11.857  70.187  1.00  0.00    -0.413 A  
HETATM    8  C   UNL     1     -11.238  10.781  69.679  1.00  0.00    -0.355 A  
HETATM    9  C   UNL     1     -11.936   9.323  71.447  1.00  0.00    -0.424 A  
HETATM   10  C   UNL     1     -11.194   9.500  70.275  1.00  0.00    -0.261 A  
HETATM   11  C   UNL     1     -10.414  10.836  68.435  1.00  0.00    -0.207 A  
HETATM   12  N   UNL     1     -10.380   8.671  69.522  1.00  0.00    -0.211 NA 
BRANCH  12  13
HETATM   13  C   UNL     1     -10.083   7.258  69.644  1.00  0.00    -0.194 C  
BRANCH  13  14
HETATM   14  C   UNL     1     -11.132   6.396  68.937  1.00  0.00    -0.420 C  
BRANCH  14  15
HETATM   15  C   UNL     1     -10.581   5.625  67.746  1.00  0.00    -0.200 C  
HETATM   16  O   UNL     1     -11.186   6.117  66.549  1.00  0.00    -0.741 OA 
HETATM   17  H   UNL     1     -10.842   5.636  65.805  1.00  0.00     0.000 HD 
ENDBRANCH  14  15
ENDBRANCH  13  14
ENDBRANCH  12  13
BRANCH   9  18
HETATM   18  C   UNL     1     -12.056   8.085  72.260  1.00  0.00    -0.341 C  
HETATM   19  N   UNL     1     -13.247   7.402  72.155  1.00  0.00    -0.517 N  
HETATM   20  O   UNL     1     -11.195   7.686  73.037  1.00  0.00    -0.384 OA 
HETATM   21  H2  UNL     1     -14.003   7.727  71.553  1.00  0.00     0.000 HD 
HETATM   22  H1  UNL     1     -13.329   6.552  72.713  1.00  0.00     0.000 HD 
ENDBRANCH   9  18
ENDBRANCH   3   4
ENDBRANCH   2   3
BRANCH   2  23
HETATM   23  N   UNL     1     -11.905  14.673  71.539  1.00  0.00    -0.417 NA 
HETATM   24  H   UNL     1     -11.233  13.907  71.583  1.00  0.00     0.000 HD 
BRANCH  23  25
HETATM   25  C   UNL     1     -11.455  15.704  70.590  1.00  0.00    -0.375 C  
BRANCH  25  26
HETATM   26  C   UNL     1     -10.409  15.210  69.567  1.00  0.00    -0.243 C  
BRANCH  26  27
HETATM   27  O   UNL     1     -10.393  16.000  68.370  1.00  0.00    -0.238 OA 
BRANCH  27  28
HETATM   28  C   UNL     1     -10.845  15.400  67.222  1.00  0.00    -0.316 A  
HETATM   29  C   UNL     1     -11.006  15.457  64.806  1.00  0.00    -0.411 A  
HETATM   30  C   UNL     1     -11.694  14.279  67.213  1.00  0.00    -0.422 A  
HETATM   31  C   UNL     1     -10.502  15.986  65.993  1.00  0.00    -0.345 A  
HETATM   32  C   UNL     1     -11.857  14.349  64.814  1.00  0.00    -0.439 A  
HETATM   33  C   UNL     1     -12.201  13.763  66.026  1.00  0.00    -0.495 A  
BRANCH  31  34
HETATM   34  O   UNL     1      -9.788  17.144  65.823  1.00  0.00    -0.530 OA 
BRANCH  34  35
HETATM   35  C   UNL     1     -10.525  18.371  65.876  1.00  0.00    -0.321 C  
HETATM   36  C   UNL     1      -9.962  19.348  66.903  1.00  0.00    -0.369 C  
HETATM   37  F   UNL     1      -8.791  18.946  67.440  1.00  0.00    -0.273 F  
HETATM   38  F   UNL     1      -9.768  20.572  66.359  1.00  0.00    -0.482 F  
HETATM   39  F   UNL     1     -10.837  19.512  67.932  1.00  0.00    -0.506 F  
ENDBRANCH  34  35
ENDBRANCH  31  34
ENDBRANCH  27  28
ENDBRANCH  26  27
ENDBRANCH  25  26
ENDBRANCH  23  25
ENDBRANCH   2  23
TORSDOF 13
ENDMDL
MODEL        3
REMARK 921   NORMALIZED FREE ENERGY PREDICTED BY IDOCK:   -6.59 KCAL/MOL
REMARK 922        TOTAL FREE ENERGY PREDICTED BY IDOCK:  -14.77 KCAL/MOL
REMARK 923 INTER-LIGAND FREE ENERGY PREDICTED BY IDOCK:  -11.08 KCAL/MOL
REMARK 924 INTRA-LIGAND FREE ENERGY PREDICTED BY IDOCK:   -3.69 KCAL/MOL
REMARK 927      BINDING AFFINITY PREDICTED BY RF-SCORE:    0.00 PKD
ROOT
HETATM    1  C   UNL     1     -11.380  11.596  64.324  1.00  0.00    -0.361 C  
HETATM    2  C   UNL     1     -10.828  12.733  65.193  1.00  0.00    -0.291 C  
ENDROOT
BRANCH   2   3
HETATM    3  C   UNL     1     -11.623  12.909  66.507  1.00  0.00    -0.425 C  
BRANCH   3   4
HETATM    4  C   UNL     1     -11.177  11.987  67.605  1.00  0.00    -0.343 A  
HETATM    5  C   UNL     1     -12.013  11.756  68.703  1.00  0.00    -0.299 A  
HETATM    6  C   UNL     1      -8.483   8.968  69.970  1.00  0.00    -0.145 A  
HETATM    7  C   UNL     1      -9.940  11.359  67.562  1.00  0.00    -0.201 A  
HETATM    8  C   UNL     1      -9.596  10.503  68.600  1.00  0.00    -0.171 A  
HETATM    9  C   UNL     1     -11.670  10.860  69.746  1.00  0.00    -0.413 A  
HETATM   10  C   UNL     1     -10.422  10.228  69.714  1.00  0.00    -0.259 A  
HETATM   11  C   UNL     1      -8.302   9.764  68.682  1.00  0.00    -0.111 A  
HETATM   12  N   UNL     1      -9.771   9.351  70.563  1.00  0.00    -0.256 NA 
BRANCH  12  13
HETATM   13  C   UNL     1     -10.212   8.690  71.775  1.00  0.00    -0.308 C  
BRANCH  13  14
HETATM   14  C   UNL     1      -9.900   7.191  71.748  1.00  0.00    -0.171 C  
BRANCH  14  15
HETATM   15  C   UNL     1     -11.040   6.344  71.202  1.00  0.00    -0.291 C  
HETATM   16  O   UNL     1     -11.937   7.181  70.471  1.00  0.00    -0.488 OA 
HETATM   17  H   UNL     1     -12.649   6.652  70.130  1.00  0.00     0.000 HD 
ENDBRANCH  14  15
ENDBRANCH  13  14
ENDBRANCH  12  13
BRANCH   9  18
HETATM   18  C   UNL     1     -12.714  10.740  70.796  1.00  0.00    -0.360 C  
HETATM   19  N   UNL     1     -13.508   9.616  70.737  1.00  0.00    -0.596 N  
HETATM   20  O   UNL     1     -12.932  11.592  71.650  1.00  0.00    -0.437 OA 
HETATM   21  H2  UNL     1     -13.386   8.908  70.014  1.00  0.00     0.000 HD 
HETATM   22  H1  UNL     1     -14.226   9.534  71.458  1.00  0.00     0.000 HD 
ENDBRANCH   9  18
ENDBRANCH   3   4
ENDBRANCH   2   3
BRANCH   2  23
HETATM   23  N   UNL     1     -10.824  13.970  64.391  1.00  0.00    -0.601 NA 
HETATM   24  H   UNL     1     -11.146  13.781  63.442  1.00  0.00     0.000 HD 
BRANCH  23  25
HETATM   25  C   UNL     1     -11.593  15.074  64.988  1.00  0.00    -0.332 C  
BRANCH  25  26
HETATM   26  C   UNL     1     -10.885  16.445  64.928  1.00  0.00    -0.250 C  
BRANCH  26  27
HETATM   27  O   UNL     1     -10.510  16.929  66.224  1.00  0.00    -0.313 OA 
BRANCH  27  28
HETATM   28  C   UNL     1      -9.691  16.126  66.977  1.00  0.00    -0.230 A  
HETATM   29  C   UNL     1      -9.323  14.956  69.065  1.00  0.00    -0.179 A  
HETATM   30  C   UNL     1      -8.388  15.767  66.591  1.00  0.00    -0.319 A  
HETATM   31  C   UNL     1     -10.154  15.705  68.234  1.00  0.00    -0.218 A  
HETATM   32  C   UNL     1      -8.026  14.615  68.672  1.00  0.00    -0.141 A  
HETATM   33  C   UNL     1      -7.560  15.028  67.429  1.00  0.00    -0.233 A  
BRANCH  31  34
HETATM   34  O   UNL     1     -11.343  16.060  68.815  1.00  0.00    -0.344 OA 
BRANCH  34  35
HETATM   35  C   UNL     1     -11.360  16.158  70.245  1.00  0.00    -0.353 C  
HETATM   36  C   UNL     1     -12.389  15.231  70.882  1.00  0.00    -0.377 C  
HETATM   37  F   UNL     1     -12.962  14.381  70.004  1.00  0.00    -0.352 F  
HETATM   38  F   UNL     1     -11.834  14.490  71.870  1.00  0.00    -0.383 F  
HETATM   39  F   UNL     1     -13.392  15.952  71.451  1.00  0.00    -0.528 F  
ENDBRANCH  34  35
ENDBRANCH  31  34
ENDBRANCH  27  28
ENDBRANCH  26  27
ENDBRANCH  25  26
ENDBRANCH  23  25
ENDBRANCH   2  23
TORSDOF 13
ENDMDL
MODEL        4
REMARK 921   NORMALIZED FREE ENERGY PREDICTED BY IDOCK:   -6.58 KCAL/MOL
REMARK 922        TOTAL FREE ENERGY PREDICTED BY IDOCK:  -14.75 KCAL/MOL
REMARK 923 INTER-LIGAND FREE ENERGY PREDICTED BY IDOCK:  -11.96 KCAL/MOL
REMARK 924 INTRA-LIGAND FREE ENERGY PREDICTED BY IDOCK:   -2.79 KCAL/MOL
REMARK 927      BINDING AFFINITY PREDICTED BY RF-SCORE:    0.00 PKD
ROOT
HETATM    1  C   UNL     1     -12.009  15.795  68.790  1.00  0.00    -0.226 C  
HETATM    2  C   UNL     1     -11.381  14.603  69.523  1.00  0.00    -0.280 C  
ENDROOT
BRANCH   2   3
HETATM    3  C   UNL     1     -12.388  13.886  70.451  1.00  0.00    -0.433 C  
BRANCH   3   4
HETATM    4  C   UNL     1     -12.163  12.404  70.548  1.00  0.00    -0.382 A  
HETATM    5  C   UNL     1     -11.179  11.797  69.761  1.00  0.00    -0.166 A  
HETATM    6  C   UNL     1     -12.656   7.983  72.023  1.00  0.00    -0.312 A  
HETATM    7  C   UNL     1     -12.921  11.614  71.402  1.00  0.00    -0.426 A  
HETATM    8  C   UNL     1     -12.650  10.253  71.458  1.00  0.00    -0.544 A  
HETATM    9  C   UNL     1     -10.887  10.412  69.842  1.00  0.00    -0.353 A  
HETATM   10  C   UNL     1     -11.650   9.607  70.694  1.00  0.00    -0.299 A  
HETATM   11  C   UNL     1     -13.383   9.288  72.328  1.00  0.00    -0.547 A  
HETATM   12  N   UNL     1     -11.658   8.253  70.980  1.00  0.00    -0.276 NA 
BRANCH  12  13
HETATM   13  C   UNL     1     -10.785   7.180  70.547  1.00  0.00    -0.238 C  
BRANCH  13  14
HETATM   14  C   UNL     1     -11.490   6.238  69.568  1.00  0.00    -0.387 C  
BRANCH  14  15
HETATM   15  C   UNL     1     -10.778   6.113  68.228  1.00  0.00    -0.290 C  
HETATM   16  O   UNL     1     -11.533   6.802  67.230  1.00  0.00    -0.752 OA 
HETATM   17  H   UNL     1     -11.089   6.724  66.394  1.00  0.00     0.000 HD 
ENDBRANCH  14  15
ENDBRANCH  13  14
ENDBRANCH  12  13
BRANCH   9  18
HETATM   18  C   UNL     1      -9.786   9.982  68.942  1.00  0.00    -0.181 C  
HETATM   19  N   UNL     1      -8.506  10.208  69.397  1.00  0.00    -0.162 N  
HETATM   20  O   UNL     1      -9.957   9.502  67.827  1.00  0.00    -0.158 OA 
HETATM   21  H2  UNL     1      -8.325  10.646  70.300  1.00  0.00     0.000 HD 
HETATM   22  H1  UNL     1      -7.750   9.913  68.779  1.00  0.00     0.000 HD 
ENDBRANCH   9  18
ENDBRANCH   3   4
ENDBRANCH   2   3
BRANCH   2  23
HETATM   23  N   UNL     1     -10.205  15.085  70.269  1.00  0.00    -0.504 NA 
HETATM   24  H   UNL     1      -9.830  14.345  70.862  1.00  0.00     0.000 HD 
BRANCH  23  25
HETATM   25  C   UNL     1      -9.146  15.652  69.418  1.00  0.00    -0.278 C  
BRANCH  25  26
HETATM   26  C   UNL     1      -8.282  14.597  68.694  1.00  0.00    -0.159 C  
BRANCH  26  27
HETATM   27  O   UNL     1      -8.221  14.812  67.278  1.00  0.00    -0.188 OA 
BRANCH  27  28
HETATM   28  C   UNL     1      -9.298  14.395  66.537  1.00  0.00    -0.278 A  
HETATM   29  C   UNL     1     -11.113  14.984  65.045  1.00  0.00    -0.421 A  
HETATM   30  C   UNL     1      -9.814  13.088  66.585  1.00  0.00    -0.252 A  
HETATM   31  C   UNL     1      -9.966  15.347  65.749  1.00  0.00    -0.362 A  
HETATM   32  C   UNL     1     -11.619  13.684  65.110  1.00  0.00    -0.333 A  
HETATM   33  C   UNL     1     -10.964  12.736  65.888  1.00  0.00    -0.303 A  
BRANCH  31  34
HETATM   34  O   UNL     1      -9.673  16.684  65.680  1.00  0.00    -0.530 OA 
BRANCH  34  35
HETATM   35  C   UNL     1     -10.783  17.582  65.555  1.00  0.00    -0.062 C  
HETATM   36  C   UNL     1     -10.471  18.974  66.094  1.00  0.00    -0.467 C  
HETATM   37  F   UNL     1      -9.174  19.144  66.426  1.00  0.00    -0.306 F  
HETATM   38  F   UNL     1     -10.794  19.931  65.193  1.00  0.00    -0.548 F  
HETATM   39  F   UNL     1     -11.205  19.226  67.212  1.00  0.00    -0.553 F  
ENDBRANCH  34  35
ENDBRANCH  31  34
ENDBRANCH  27  28
ENDBRANCH  26  27
ENDBRANCH  25  26
ENDBRANCH  23  25
ENDBRANCH   2  23
TORSDOF 13
ENDMDL
MODEL        5
REMARK 921   NORMALIZED FREE ENERGY PREDICTED BY IDOCK:   -6.51 KCAL/MOL
REMARK 922        TOTAL FREE ENERGY PREDICTED BY IDOCK:  -14.62 KCAL/MOL
REMARK 923 INTER-LIGAND FREE ENERGY PREDICTED BY IDOCK:  -12.33 KCAL/MOL
REMARK 924 INTRA-LIGAND FREE ENERGY PREDICTED BY IDOCK:   -2.29 KCAL/MOL
REMARK 927      BINDING AFFINITY PREDICTED BY RF-SCORE:    0.00 PKD
ROOT
HETATM    1  C   UNL     1     -14.383  15.226  71.774  1.00  0.00    -0.678 C  
HETATM    2  C   UNL     1     -13.294  14.186  71.484  1.00  0.00    -0.351 C  
ENDROOT
BRANCH   2   3
HETATM    3  C   UNL     1     -13.557  12.843  72.202  1.00  0.00    -0.589 C  
BRANCH   3   4
HETATM    4  C   UNL     1     -12.865  11.674  71.560  1.00  0.00    -0.469 A  
HETATM    5  C   UNL     1     -12.071  11.873  70.425  1.00  0.00    -0.421 A  
HETATM    6  C   UNL     1     -11.433   7.265  70.873  1.00  0.00    -0.292 A  
HETATM    7  C   UNL     1     -13.003  10.389  72.064  1.00  0.00    -0.499 A  
HETATM    8  C   UNL     1     -12.322   9.355  71.435  1.00  0.00    -0.439 A  
HETATM    9  C   UNL     1     -11.356  10.820  69.803  1.00  0.00    -0.372 A  
HETATM   10  C   UNL     1     -11.494   9.520  70.300  1.00  0.00    -0.206 A  
HETATM   11  C   UNL     1     -12.379   7.928  71.869  1.00  0.00    -0.350 A  
HETATM   12  N   UNL     1     -10.985   8.290  69.921  1.00  0.00    -0.212 NA 
BRANCH  12  13
HETATM   13  C   UNL     1     -10.025   7.929  68.897  1.00  0.00    -0.190 C  
BRANCH  13  14
HETATM   14  C   UNL     1     -10.715   7.519  67.594  1.00  0.00    -0.266 C  
BRANCH  14  15
HETATM   15  C   UNL     1     -10.942   6.018  67.474  1.00  0.00    -0.234 C  
HETATM   16  O   UNL     1     -11.229   5.695  66.112  1.00  0.00    -0.763 OA 
HETATM   17  H   UNL     1     -11.371   4.758  66.038  1.00  0.00     0.000 HD 
ENDBRANCH  14  15
ENDBRANCH  13  14
ENDBRANCH  12  13
BRANCH   9  18
HETATM   18  C   UNL     1     -10.551  11.257  68.632  1.00  0.00    -0.202 C  
HETATM   19  N   UNL     1     -11.132  11.080  67.397  1.00  0.00    -0.296 N  
HETATM   20  O   UNL     1      -9.410  11.700  68.708  1.00  0.00    -0.152 OA 
HETATM   21  H2  UNL     1     -12.061  10.673  67.292  1.00  0.00     0.000 HD 
HETATM   22  H1  UNL     1     -10.580  11.379  66.593  1.00  0.00     0.000 HD 
ENDBRANCH   9  18
ENDBRANCH   3   4
ENDBRANCH   2   3
BRANCH   2  23
HETATM   23  N   UNL     1     -11.991  14.759  71.866  1.00  0.00    -0.345 NA 
HETATM   24  H   UNL     1     -11.303  14.020  72.007  1.00  0.00     0.000 HD 
BRANCH  23  25
HETATM   25  C   UNL     1     -11.481  15.769  70.925  1.00  0.00    -0.403 C  
BRANCH  25  26
HETATM   26  C   UNL     1     -10.572  15.199  69.815  1.00  0.00    -0.252 C  
BRANCH  26  27
HETATM   27  O   UNL     1     -11.308  14.793  68.653  1.00  0.00    -0.259 OA 
BRANCH  27  28
HETATM   28  C   UNL     1     -11.100  15.509  67.502  1.00  0.00    -0.305 A  
HETATM   29  C   UNL     1     -11.094  15.541  65.080  1.00  0.00    -0.411 A  
HETATM   30  C   UNL     1     -10.563  16.809  67.481  1.00  0.00    -0.309 A  
HETATM   31  C   UNL     1     -11.367  14.880  66.276  1.00  0.00    -0.306 A  
HETATM   32  C   UNL     1     -10.550  16.828  65.075  1.00  0.00    -0.060 A  
HETATM   33  C   UNL     1     -10.283  17.459  66.285  1.00  0.00    -0.344 A  
BRANCH  31  34
HETATM   34  O   UNL     1     -11.778  13.583  66.109  1.00  0.00    -0.335 OA 
BRANCH  34  35
HETATM   35  C   UNL     1     -12.790  13.347  65.122  1.00  0.00    -0.316 C  
HETATM   36  C   UNL     1     -12.314  12.421  64.007  1.00  0.00    -0.488 C  
HETATM   37  F   UNL     1     -11.106  11.870  64.246  1.00  0.00    -0.333 F  
HETATM   38  F   UNL     1     -13.193  11.413  63.801  1.00  0.00    -0.291 F  
HETATM   39  F   UNL     1     -12.217  13.101  62.833  1.00  0.00    -0.589 F  
ENDBRANCH  34  35
ENDBRANCH  31  34
ENDBRANCH  27  28
ENDBRANCH  26  27
ENDBRANCH  25  26
ENDBRANCH  23  25
ENDBRANCH   2  23
TORSDOF 13
ENDMDL
MODEL        6
REMARK 921   NORMALIZED FREE ENERGY PREDICTED BY IDOCK:   -6.50 KCAL/MOL
REMARK 922        TOTAL FREE ENERGY PREDICTED BY IDOCK:  -14.61 KCAL/MOL
REMARK 923 INTER-LIGAND FREE ENERGY PREDICTED BY IDOCK:  -12.83 KCAL/MOL
REMARK 924 INTRA-LIGAND FREE ENERGY PREDICTED BY IDOCK:   -1.79 KCAL/MOL
REMARK 927      BINDING AFFINITY PREDICTED BY RF-SCORE:    0.00 PKD
ROOT
HETATM    1  C   UNL     1     -14.001  15.146  71.206  1.00  0.00    -0.548 C  
HETATM    2  C   UNL     1     -13.012  13.989  71.015  1.00  0.00    -0.308 C  
ENDROOT
BRANCH   2   3
HETATM    3  C   UNL     1     -13.375  12.757  71.874  1.00  0.00    -0.510 C  
BRANCH   3   4
HETATM    4  C   UNL     1     -12.783  11.474  71.362  1.00  0.00    -0.469 A  
HETATM    5  C   UNL     1     -11.904  11.499  70.274  1.00  0.00    -0.431 A  
HETATM    6  C   UNL     1     -11.824   6.896  71.079  1.00  0.00    -0.364 A  
HETATM    7  C   UNL     1     -13.097  10.253  71.942  1.00  0.00    -0.568 A  
HETATM    8  C   UNL     1     -12.501   9.107  71.433  1.00  0.00    -0.396 A  
HETATM    9  C   UNL     1     -11.277  10.330  69.776  1.00  0.00    -0.339 A  
HETATM   10  C   UNL     1     -11.593   9.094  70.350  1.00  0.00    -0.146 A  
HETATM   11  C   UNL     1     -12.747   7.732  71.959  1.00  0.00    -0.285 A  
HETATM   12  N   UNL     1     -11.205   7.791  70.092  1.00  0.00    -0.210 NA 
BRANCH  12  13
HETATM   13  C   UNL     1     -10.232   7.250  69.163  1.00  0.00    -0.197 C  
BRANCH  13  14
HETATM   14  C   UNL     1     -10.828   6.129  68.309  1.00  0.00    -0.387 C  
BRANCH  14  15
HETATM   15  C   UNL     1     -10.992   6.505  66.843  1.00  0.00    -0.338 C  
HETATM   16  O   UNL     1     -11.396   5.351  66.105  1.00  0.00    -0.735 OA 
HETATM   17  H   UNL     1     -11.499   5.586  65.190  1.00  0.00     0.000 HD 
ENDBRANCH  14  15
ENDBRANCH  13  14
ENDBRANCH  12  13
BRANCH   9  18
HETATM   18  C   UNL     1     -10.358  10.586  68.636  1.00  0.00    -0.185 C  
HETATM   19  N   UNL     1     -10.746  10.075  67.418  1.00  0.00    -0.280 N  
HETATM   20  O   UNL     1      -9.281  11.162  68.737  1.00  0.00    -0.180 OA 
HETATM   21  H2  UNL     1     -11.613   9.552  67.304  1.00  0.00     0.000 HD 
HETATM   22  H1  UNL     1     -10.115  10.251  66.635  1.00  0.00     0.000 HD 
ENDBRANCH   9  18
ENDBRANCH   3   4
ENDBRANCH   2   3
BRANCH   2  23
HETATM   23  N   UNL     1     -11.657  14.482  71.320  1.00  0.00    -0.512 NA 
HETATM   24  H   UNL     1     -10.958  13.944  70.809  1.00  0.00     0.000 HD 
BRANCH  23  25
HETATM   25  C   UNL     1     -11.476  15.924  71.082  1.00  0.00    -0.419 C  
BRANCH  25  26
HETATM   26  C   UNL     1     -10.749  16.262  69.762  1.00  0.00    -0.345 C  
BRANCH  26  27
HETATM   27  O   UNL     1     -11.608  16.161  68.619  1.00  0.00    -0.376 OA 
BRANCH  27  28
HETATM   28  C   UNL     1     -11.143  15.432  67.554  1.00  0.00    -0.315 A  
HETATM   29  C   UNL     1     -10.154  15.434  65.342  1.00  0.00    -0.394 A  
HETATM   30  C   UNL     1     -11.283  14.037  67.447  1.00  0.00    -0.328 A  
HETATM   31  C   UNL     1     -10.566  16.128  66.479  1.00  0.00    -0.268 A  
HETATM   32  C   UNL     1     -10.310  14.049  65.247  1.00  0.00    -0.403 A  
HETATM   33  C   UNL     1     -10.880  13.352  66.305  1.00  0.00    -0.294 A  
BRANCH  31  34
HETATM   34  O   UNL     1     -10.460  17.490  66.365  1.00  0.00    -0.334 OA 
BRANCH  34  35
HETATM   35  C   UNL     1      -9.335  18.106  67.003  1.00  0.00    -0.270 C  
HETATM   36  C   UNL     1      -9.704  19.406  67.710  1.00  0.00    -0.335 C  
HETATM   37  F   UNL     1     -11.033  19.639  67.747  1.00  0.00    -0.528 F  
HETATM   38  F   UNL     1      -9.248  19.415  68.985  1.00  0.00    -0.395 F  
HETATM   39  F   UNL     1      -9.131  20.468  67.082  1.00  0.00    -0.434 F  
ENDBRANCH  34  35
ENDBRANCH  31  34
ENDBRANCH  27  28
ENDBRANCH  26  27
ENDBRANCH  25  26
ENDBRANCH  23  25
ENDBRANCH   2  23
TORSDOF 13
ENDMDL
MODEL        7
REMARK 921   NORMALIZED FREE ENERGY PREDICTED BY IDOCK:   -6.50 KCAL/MOL
REMARK 922        TOTAL FREE ENERGY PREDICTED BY IDOCK:  -14.60 KCAL/MOL
REMARK 923 INTER-LIGAND FREE ENERGY PREDICTED BY IDOCK:  -12.37 KCAL/MOL
REMARK 924 INTRA-LIGAND FREE ENERGY PREDICTED BY IDOCK:   -2.23 KCAL/MOL
REMARK 927      BINDING AFFINITY PREDICTED BY RF-SCORE:    0.00 PKD
ROOT
HETATM    1  C   UNL     1     -12.440  11.944  63.748  1.00  0.00    -0.537 C  
HETATM    2  C   UNL     1     -11.415  12.659  64.638  1.00  0.00    -0.330 C  
ENDROOT
BRANCH   2   3
HETATM    3  C   UNL     1     -11.921  12.847  66.086  1.00  0.00    -0.491 C  
BRANCH   3   4
HETATM    4  C   UNL     1     -11.463  11.769  67.026  1.00  0.00    -0.368 A  
HETATM    5  C   UNL     1     -10.599  10.768  66.568  1.00  0.00    -0.279 A  
HETATM    6  C   UNL     1     -10.954   9.351  71.008  1.00  0.00    -0.338 A  
HETATM    7  C   UNL     1     -11.886  11.736  68.347  1.00  0.00    -0.347 A  
HETATM    8  C   UNL     1     -11.410  10.723  69.169  1.00  0.00    -0.348 A  
HETATM    9  C   UNL     1     -10.094   9.752  67.418  1.00  0.00    -0.259 A  
HETATM   10  C   UNL     1     -10.521   9.708  68.749  1.00  0.00    -0.215 A  
HETATM   11  C   UNL     1     -11.781  10.567  70.606  1.00  0.00    -0.453 A  
HETATM   12  N   UNL     1     -10.264   8.855  69.810  1.00  0.00    -0.195 NA 
BRANCH  12  13
HETATM   13  C   UNL     1      -9.359   7.730  69.933  1.00  0.00    -0.157 C  
BRANCH  13  14
HETATM   14  C   UNL     1     -10.115   6.399  69.981  1.00  0.00    -0.208 C  
BRANCH  14  15
HETATM   15  C   UNL     1     -10.324   5.770  68.611  1.00  0.00    -0.221 C  
HETATM   16  O   UNL     1     -11.523   6.290  68.035  1.00  0.00    -0.549 OA 
HETATM   17  H   UNL     1     -11.654   5.897  67.180  1.00  0.00     0.000 HD 
ENDBRANCH  14  15
ENDBRANCH  13  14
ENDBRANCH  12  13
BRANCH   9  18
HETATM   18  C   UNL     1      -9.169   8.810  66.736  1.00  0.00    -0.169 C  
HETATM   19  N   UNL     1      -9.759   7.820  65.983  1.00  0.00    -0.446 N  
HETATM   20  O   UNL     1      -7.949   8.838  66.853  1.00  0.00    -0.097 OA 
HETATM   21  H2  UNL     1     -10.771   7.738  65.898  1.00  0.00     0.000 HD 
HETATM   22  H1  UNL     1      -9.123   7.173  65.514  1.00  0.00     0.000 HD 
ENDBRANCH   9  18
ENDBRANCH   3   4
ENDBRANCH   2   3
BRANCH   2  23
HETATM   23  N   UNL     1     -11.075  13.949  64.010  1.00  0.00    -0.547 NA 
HETATM   24  H   UNL     1     -11.088  13.866  62.994  1.00  0.00     0.000 HD 
BRANCH  23  25
HETATM   25  C   UNL     1     -11.921  15.071  64.449  1.00  0.00    -0.353 C  
BRANCH  25  26
HETATM   26  C   UNL     1     -11.139  16.355  64.798  1.00  0.00    -0.235 C  
BRANCH  26  27
HETATM   27  O   UNL     1     -10.574  16.315  66.116  1.00  0.00    -0.312 OA 
BRANCH  27  28
HETATM   28  C   UNL     1     -10.369  17.518  66.743  1.00  0.00    -0.314 A  
HETATM   29  C   UNL     1     -10.149  18.733  68.827  1.00  0.00    -0.407 A  
HETATM   30  C   UNL     1     -10.325  18.749  66.065  1.00  0.00    -0.467 A  
HETATM   31  C   UNL     1     -10.276  17.524  68.144  1.00  0.00    -0.359 A  
HETATM   32  C   UNL     1     -10.117  19.949  68.141  1.00  0.00    -0.569 A  
HETATM   33  C   UNL     1     -10.208  19.952  66.754  1.00  0.00    -0.603 A  
BRANCH  31  34
HETATM   34  O   UNL     1     -10.418  16.437  68.966  1.00  0.00    -0.248 OA 
BRANCH  34  35
HETATM   35  C   UNL     1     -11.724  15.853  69.044  1.00  0.00    -0.370 C  
HETATM   36  C   UNL     1     -12.102  15.457  70.468  1.00  0.00    -0.371 C  
HETATM   37  F   UNL     1     -11.218  15.881  71.396  1.00  0.00    -0.368 F  
HETATM   38  F   UNL     1     -13.319  15.945  70.805  1.00  0.00    -0.503 F  
HETATM   39  F   UNL     1     -12.179  14.104  70.581  1.00  0.00    -0.338 F  
ENDBRANCH  34  35
ENDBRANCH  31  34
ENDBRANCH  27  28
ENDBRANCH  26  27
ENDBRANCH  25  26
ENDBRANCH  23  25
ENDBRANCH   2  23
TORSDOF 13
ENDMDL
MODEL        8
REMARK 921   NORMALIZED FREE ENERGY PREDICTED BY IDOCK:   -6.43 KCAL/MOL
REMARK 922        TOTAL FREE ENERGY PREDICTED BY IDOCK:  -14.49 KCAL/MOL
REMARK 923 INTER-LIGAND FREE ENERGY PREDICTED BY IDOCK:  -12.20 KCAL/MOL
REMARK 924 INTRA-LIGAND FREE ENERGY PREDICTED BY IDOCK:   -2.28 KCAL/MOL
REMARK 927      BINDING AFFINITY PREDICTED BY RF-SCORE:    0.00 PKD
ROOT
HETATM    1  C   UNL     1     -10.674  14.320  65.423  1.00  0.00    -0.353 C  
HETATM    2  C   UNL     1     -11.903  13.857  66.217  1.00  0.00    -0.408 C  
ENDROOT
BRANCH   2   3
HETATM    3  C   UNL     1     -11.904  14.397  67.665  1.00  0.00    -0.412 C  
BRANCH   3   4
HETATM    4  C   UNL     1     -10.785  15.358  67.948  1.00  0.00    -0.286 A  
HETATM    5  C   UNL     1     -10.973  16.728  67.734  1.00  0.00    -0.217 A  
HETATM    6  C   UNL     1      -6.578  16.907  69.314  1.00  0.00    -0.232 A  
HETATM    7  C   UNL     1      -9.554  14.915  68.411  1.00  0.00    -0.209 A  
HETATM    8  C   UNL     1      -8.567  15.857  68.671  1.00  0.00    -0.198 A  
HETATM    9  C   UNL     1      -9.973  17.687  68.027  1.00  0.00    -0.326 A  
HETATM   10  C   UNL     1      -8.727  17.250  68.488  1.00  0.00    -0.273 A  
HETATM   11  C   UNL     1      -7.201  15.523  69.172  1.00  0.00    -0.174 A  
HETATM   12  N   UNL     1      -7.549  17.894  68.824  1.00  0.00    -0.285 NA 
BRANCH  12  13
HETATM   13  C   UNL     1      -7.221  19.304  68.905  1.00  0.00    -0.358 C  
BRANCH  13  14
HETATM   14  C   UNL     1      -6.263  19.727  67.788  1.00  0.00    -0.233 C  
BRANCH  14  15
HETATM   15  C   UNL     1      -6.959  20.401  66.615  1.00  0.00    -0.258 C  
HETATM   16  O   UNL     1      -7.975  21.273  67.112  1.00  0.00    -0.693 OA 
HETATM   17  H   UNL     1      -8.410  21.695  66.379  1.00  0.00     0.000 HD 
ENDBRANCH  14  15
ENDBRANCH  13  14
ENDBRANCH  12  13
BRANCH   9  18
HETATM   18  C   UNL     1     -10.392  19.087  67.756  1.00  0.00    -0.417 C  
HETATM   19  N   UNL     1     -10.410  19.936  68.840  1.00  0.00    -0.586 N  
HETATM   20  O   UNL     1     -10.764  19.494  66.661  1.00  0.00    -0.457 OA 
HETATM   21  H2  UNL     1     -10.150  19.623  69.774  1.00  0.00     0.000 HD 
HETATM   22  H1  UNL     1     -10.698  20.898  68.653  1.00  0.00     0.000 HD 
ENDBRANCH   9  18
ENDBRANCH   3   4
ENDBRANCH   2   3
BRANCH   2  23
HETATM   23  N   UNL     1     -11.947  12.384  66.186  1.00  0.00    -0.608 NA 
HETATM   24  H   UNL     1     -12.184  12.053  65.252  1.00  0.00     0.000 HD 
BRANCH  23  25
HETATM   25  C   UNL     1     -10.716  11.737  66.668  1.00  0.00    -0.263 C  
BRANCH  25  26
HETATM   26  C   UNL     1     -10.935  10.744  67.830  1.00  0.00    -0.297 C  
BRANCH  26  27
HETATM   27  O   UNL     1     -10.766  11.354  69.116  1.00  0.00    -0.216 OA 
BRANCH  27  28
HETATM   28  C   UNL     1     -11.606  10.940  70.118  1.00  0.00    -0.338 A  
HETATM   29  C   UNL     1     -13.208  11.543  71.831  1.00  0.00    -0.479 A  
HETATM   30  C   UNL     1     -11.658   9.616  70.590  1.00  0.00    -0.371 A  
HETATM   31  C   UNL     1     -12.400  11.906  70.755  1.00  0.00    -0.320 A  
HETATM   32  C   UNL     1     -13.241  10.226  72.296  1.00  0.00    -0.324 A  
HETATM   33  C   UNL     1     -12.459   9.263  71.671  1.00  0.00    -0.448 A  
BRANCH  31  34
HETATM   34  O   UNL     1     -12.386  13.254  70.505  1.00  0.00    -0.342 OA 
BRANCH  34  35
HETATM   35  C   UNL     1     -12.136  14.116  71.621  1.00  0.00    -0.107 C  
HETATM   36  C   UNL     1     -12.854  15.455  71.498  1.00  0.00    -0.429 C  
HETATM   37  F   UNL     1     -13.713  15.511  70.458  1.00  0.00    -0.345 F  
HETATM   38  F   UNL     1     -13.549  15.744  72.623  1.00  0.00    -0.505 F  
HETATM   39  F   UNL     1     -11.955  16.463  71.325  1.00  0.00    -0.435 F  
ENDBRANCH  34  35
ENDBRANCH  31  34
ENDBRANCH  27  28
ENDBRANCH  26  27
ENDBRANCH  25  26
ENDBRANCH  23  25
ENDBRANCH   2  23
TORSDOF 13
ENDMDL
MODEL        9
REMARK 921   NORMALIZED FREE ENERGY PREDICTED BY IDOCK:   -6.37 KCAL/MOL
REMARK 922        TOTAL FREE ENERGY PREDICTED BY IDOCK:  -14.38 KCAL/MOL
REMARK 923 INTER-LIGAND FREE ENERGY PREDICTED BY IDOCK:  -11.63 KCAL/MOL
REMARK 924 INTRA-LIGAND FREE ENERGY PREDICTED BY IDOCK:   -2.75 KCAL/MOL
REMARK 927      BINDING AFFINITY PREDICTED BY RF-SCORE:    0.00 PKD
ROOT
HETATM    1  C   UNL     1     -12.648  12.375  64.576  1.00  0.00    -0.477 C  
HETATM    2  C   UNL     1     -11.119  12.409  64.456  1.00  0.00    -0.316 C  
ENDROOT
BRANCH   2   3
HETATM    3  C   UNL     1     -10.417  11.805  65.694  1.00  0.00    -0.308 C  
BRANCH   3   4
HETATM    4  C   UNL     1     -10.951  12.325  66.998  1.00  0.00    -0.314 A  
HETATM    5  C   UNL     1     -11.339  11.428  67.999  1.00  0.00    -0.372 A  
HETATM    6  C   UNL     1     -12.245  15.400  70.290  1.00  0.00    -0.380 A  
HETATM    7  C   UNL     1     -11.078  13.687  67.233  1.00  0.00    -0.309 A  
HETATM    8  C   UNL     1     -11.561  14.103  68.467  1.00  0.00    -0.351 A  
HETATM    9  C   UNL     1     -11.804  11.857  69.267  1.00  0.00    -0.379 A  
HETATM   10  C   UNL     1     -11.942  13.228  69.510  1.00  0.00    -0.307 A  
HETATM   11  C   UNL     1     -11.748  15.532  68.854  1.00  0.00    -0.385 A  
HETATM   12  N   UNL     1     -12.390  13.969  70.590  1.00  0.00    -0.353 NA 
BRANCH  12  13
HETATM   13  C   UNL     1     -12.797  13.566  71.921  1.00  0.00    -0.272 C  
BRANCH  13  14
HETATM   14  C   UNL     1     -13.328  14.751  72.733  1.00  0.00    -0.581 C  
BRANCH  14  15
HETATM   15  C   UNL     1     -12.449  15.114  73.921  1.00  0.00    -0.579 C  
HETATM   16  O   UNL     1     -12.833  16.399  74.413  1.00  0.00    -0.888 OA 
HETATM   17  H   UNL     1     -12.284  16.626  75.155  1.00  0.00     0.000 HD 
ENDBRANCH  14  15
ENDBRANCH  13  14
ENDBRANCH  12  13
BRANCH   9  18
HETATM   18  C   UNL     1     -12.132  10.741  70.191  1.00  0.00    -0.346 C  
HETATM   19  N   UNL     1     -11.075   9.954  70.591  1.00  0.00    -0.317 N  
HETATM   20  O   UNL     1     -13.268  10.461  70.557  1.00  0.00    -0.300 OA 
HETATM   21  H2  UNL     1     -10.122  10.128  70.271  1.00  0.00     0.000 HD 
HETATM   22  H1  UNL     1     -11.300   9.187  71.225  1.00  0.00     0.000 HD 
ENDBRANCH   9  18
ENDBRANCH   3   4
ENDBRANCH   2   3
BRANCH   2  23
HETATM   23  N   UNL     1     -10.703  13.804  64.223  1.00  0.00    -0.586 NA 
HETATM   24  H   UNL     1     -10.105  13.866  63.400  1.00  0.00     0.000 HD 
BRANCH  23  25
HETATM   25  C   UNL     1     -11.822  14.755  64.123  1.00  0.00    -0.214 C  
BRANCH  25  26
HETATM   26  C   UNL     1     -11.452  16.209  64.485  1.00  0.00    -0.230 C  
BRANCH  26  27
HETATM   27  O   UNL     1     -10.123  16.326  65.010  1.00  0.00    -0.484 OA 
BRANCH  27  28
HETATM   28  C   UNL     1      -9.943  17.181  66.067  1.00  0.00    -0.253 A  
HETATM   29  C   UNL     1      -8.770  17.674  68.129  1.00  0.00    -0.265 A  
HETATM   30  C   UNL     1     -10.761  18.298  66.311  1.00  0.00    -0.182 A  
HETATM   31  C   UNL     1      -8.935  16.878  66.997  1.00  0.00    -0.215 A  
HETATM   32  C   UNL     1      -9.598  18.775  68.363  1.00  0.00    -0.409 A  
HETATM   33  C   UNL     1     -10.599  19.082  67.448  1.00  0.00    -0.559 A  
BRANCH  31  34
HETATM   34  O   UNL     1      -8.129  15.769  66.979  1.00  0.00    -0.192 OA 
BRANCH  34  35
HETATM   35  C   UNL     1      -7.718  15.248  68.249  1.00  0.00    -0.112 C  
HETATM   36  C   UNL     1      -7.442  13.749  68.204  1.00  0.00    -0.124 C  
HETATM   37  F   UNL     1      -7.470  13.235  66.956  1.00  0.00    -0.134 F  
HETATM   38  F   UNL     1      -6.234  13.458  68.742  1.00  0.00    -0.075 F  
HETATM   39  F   UNL     1      -8.369  13.072  68.935  1.00  0.00    -0.063 F  
ENDBRANCH  34  35
ENDBRANCH  31  34
ENDBRANCH  27  28
ENDBRANCH  26  27
ENDBRANCH  25  26
ENDBRANCH  23  25
ENDBRANCH   2  23
TORSDOF 13
ENDMDL
MODEL       10
REMARK 921   NORMALIZED FREE ENERGY PREDICTED BY IDOCK:   -6.37 KCAL/MOL
REMARK 922        TOTAL FREE ENERGY PREDICTED BY IDOCK:  -14.38 KCAL/MOL
REMARK 923 INTER-LIGAND FREE ENERGY PREDICTED BY IDOCK:  -12.20 KCAL/MOL
REMARK 924 INTRA-LIGAND FREE ENERGY PREDICTED BY IDOCK:   -2.18 KCAL/MOL
REMARK 927      BINDING AFFINITY PREDICTED BY RF-SCORE:    0.00 PKD
ROOT
HETATM    1  C   UNL     1     -12.651  13.248  64.933  1.00  0.00    -0.444 C  
HETATM    2  C   UNL     1     -11.853  14.154  65.879  1.00  0.00    -0.384 C  
ENDROOT
BRANCH   2   3
HETATM    3  C   UNL     1     -10.488  14.570  65.284  1.00  0.00    -0.411 C  
BRANCH   3   4
HETATM    4  C   UNL     1      -9.899  15.791  65.931  1.00  0.00    -0.381 A  
HETATM    5  C   UNL     1      -8.544  15.809  66.279  1.00  0.00    -0.307 A  
HETATM    6  C   UNL     1      -9.641  20.128  67.687  1.00  0.00    -0.402 A  
HETATM    7  C   UNL     1     -10.676  16.908  66.204  1.00  0.00    -0.109 A  
HETATM    8  C   UNL     1     -10.066  18.011  66.787  1.00  0.00    -0.357 A  
HETATM    9  C   UNL     1      -7.920  16.946  66.848  1.00  0.00    -0.248 A  
HETATM   10  C   UNL     1      -8.696  18.075  67.133  1.00  0.00    -0.243 A  
HETATM   11  C   UNL     1     -10.778  19.276  67.133  1.00  0.00    -0.584 A  
HETATM   12  N   UNL     1      -8.424  19.305  67.706  1.00  0.00    -0.297 NA 
BRANCH  12  13
HETATM   13  C   UNL     1      -7.176  19.902  68.138  1.00  0.00    -0.295 C  
BRANCH  13  14
HETATM   14  C   UNL     1      -6.750  21.049  67.218  1.00  0.00    -0.430 C  
BRANCH  14  15
HETATM   15  C   UNL     1      -6.298  20.585  65.841  1.00  0.00    -0.230 C  
HETATM   16  O   UNL     1      -7.411  20.622  64.946  1.00  0.00    -0.443 OA 
HETATM   17  H   UNL     1      -7.129  20.333  64.086  1.00  0.00     0.000 HD 
ENDBRANCH  14  15
ENDBRANCH  13  14
ENDBRANCH  12  13
BRANCH   9  18
HETATM   18  C   UNL     1      -6.469  16.761  67.111  1.00  0.00    -0.190 C  
HETATM   19  N   UNL     1      -6.123  16.435  68.403  1.00  0.00    -0.117 N  
HETATM   20  O   UNL     1      -5.590  16.934  66.274  1.00  0.00    -0.336 OA 
HETATM   21  H2  UNL     1      -6.823  16.327  69.137  1.00  0.00     0.000 HD 
HETATM   22  H1  UNL     1      -5.127  16.308  68.584  1.00  0.00     0.000 HD 
ENDBRANCH   9  18
ENDBRANCH   3   4
ENDBRANCH   2   3
BRANCH   2  23
HETATM   23  N   UNL     1     -11.692  13.454  67.166  1.00  0.00    -0.357 NA 
HETATM   24  H   UNL     1     -12.552  12.968  67.418  1.00  0.00     0.000 HD 
BRANCH  23  25
HETATM   25  C   UNL     1     -10.545  12.533  67.209  1.00  0.00    -0.227 C  
BRANCH  25  26
HETATM   26  C   UNL     1     -10.843  11.180  67.891  1.00  0.00    -0.235 C  
BRANCH  26  27
HETATM   27  O   UNL     1     -10.452  11.160  69.270  1.00  0.00    -0.214 OA 
BRANCH  27  28
HETATM   28  C   UNL     1     -11.352  10.641  70.166  1.00  0.00    -0.323 A  
HETATM   29  C   UNL     1     -13.105  11.054  71.785  1.00  0.00    -0.554 A  
HETATM   30  C   UNL     1     -11.390   9.283  70.530  1.00  0.00    -0.306 A  
HETATM   31  C   UNL     1     -12.230  11.528  70.809  1.00  0.00    -0.363 A  
HETATM   32  C   UNL     1     -13.125   9.704  72.143  1.00  0.00    -0.520 A  
HETATM   33  C   UNL     1     -12.259   8.819  71.512  1.00  0.00    -0.382 A  
BRANCH  31  34
HETATM   34  O   UNL     1     -12.247  12.891  70.664  1.00  0.00    -0.372 OA 
BRANCH  34  35
HETATM   35  C   UNL     1     -13.250  13.605  71.397  1.00  0.00    -0.283 C  
HETATM   36  C   UNL     1     -12.665  14.734  72.239  1.00  0.00    -0.332 C  
HETATM   37  F   UNL     1     -11.354  14.954  72.007  1.00  0.00    -0.434 F  
HETATM   38  F   UNL     1     -13.322  15.898  72.022  1.00  0.00    -0.501 F  
HETATM   39  F   UNL     1     -12.794  14.455  73.564  1.00  0.00    -0.586 F  
ENDBRANCH  34  35
ENDBRANCH  31  34
ENDBRANCH  27  28
ENDBRANCH  26  27
ENDBRANCH  25  26
ENDBRANCH  23  25
ENDBRANCH   2  23
TORSDOF 13
ENDMDL
MODEL       11
REMARK 921   NORMALIZED FREE ENERGY PREDICTED BY IDOCK:   -6.33 KCAL/MOL
REMARK 922        TOTAL FREE ENERGY PREDICTED BY IDOCK:  -14.30 KCAL/MOL
REMARK 923 INTER-LIGAND FREE ENERGY PREDICTED BY IDOCK:  -10.75 KCAL/MOL
REMARK 924 INTRA-LIGAND FREE ENERGY PREDICTED BY IDOCK:   -3.56 KCAL/MOL
REMARK 927      BINDING AFFINITY PREDICTED BY RF-SCORE:    0.00 PKD
ROOT
HETATM    1  C   UNL     1     -12.585  11.849  63.733  1.00  0.00    -0.509 C  
HETATM    2  C   UNL     1     -11.556  12.616  64.573  1.00  0.00    -0.345 C  
ENDROOT
BRANCH   2   3
HETATM    3  C   UNL     1     -12.035  12.845  66.025  1.00  0.00    -0.505 C  
BRANCH   3   4
HETATM    4  C   UNL     1     -11.497  11.836  66.999  1.00  0.00    -0.368 A  
HETATM    5  C   UNL     1     -10.524  10.920  66.586  1.00  0.00    -0.307 A  
HETATM    6  C   UNL     1     -10.862   9.552  71.042  1.00  0.00    -0.353 A  
HETATM    7  C   UNL     1     -11.953  11.784  68.309  1.00  0.00    -0.236 A  
HETATM    8  C   UNL     1     -11.401  10.839  69.164  1.00  0.00    -0.348 A  
HETATM    9  C   UNL     1      -9.943   9.976  67.469  1.00  0.00    -0.232 A  
HETATM   10  C   UNL     1     -10.402   9.911  68.789  1.00  0.00    -0.203 A  
HETATM   11  C   UNL     1     -11.796  10.671  70.593  1.00  0.00    -0.463 A  
HETATM   12  N   UNL     1     -10.091   9.109  69.873  1.00  0.00    -0.192 NA 
BRANCH  12  13
HETATM   13  C   UNL     1      -9.081   8.083  70.044  1.00  0.00    -0.152 C  
BRANCH  13  14
HETATM   14  C   UNL     1      -9.512   6.755  69.416  1.00  0.00    -0.147 C  
BRANCH  14  15
HETATM   15  C   UNL     1     -10.742   6.145  70.073  1.00  0.00    -0.305 C  
HETATM   16  O   UNL     1     -11.910   6.586  69.380  1.00  0.00    -0.636 OA 
HETATM   17  H   UNL     1     -12.678   6.204  69.790  1.00  0.00     0.000 HD 
ENDBRANCH  14  15
ENDBRANCH  13  14
ENDBRANCH  12  13
BRANCH   9  18
HETATM   18  C   UNL     1      -8.908   9.121  66.832  1.00  0.00    -0.123 C  
HETATM   19  N   UNL     1      -9.360   8.217  65.897  1.00  0.00    -0.398 N  
HETATM   20  O   UNL     1      -7.719   9.142  67.130  1.00  0.00    -0.097 OA 
HETATM   21  H2  UNL     1     -10.347   8.139  65.656  1.00  0.00     0.000 HD 
HETATM   22  H1  UNL     1      -8.649   7.629  65.459  1.00  0.00     0.000 HD 
ENDBRANCH   9  18
ENDBRANCH   3   4
ENDBRANCH   2   3
BRANCH   2  23
HETATM   23  N   UNL     1     -11.258  13.889  63.893  1.00  0.00    -0.527 NA 
HETATM   24  H   UNL     1     -11.461  13.818  62.896  1.00  0.00     0.000 HD 
BRANCH  23  25
HETATM   25  C   UNL     1     -11.941  15.056  64.477  1.00  0.00    -0.371 C  
BRANCH  25  26
HETATM   26  C   UNL     1     -11.018  16.265  64.738  1.00  0.00    -0.272 C  
BRANCH  26  27
HETATM   27  O   UNL     1     -10.854  16.543  66.135  1.00  0.00    -0.197 OA 
BRANCH  27  28
HETATM   28  C   UNL     1     -10.097  15.659  66.862  1.00  0.00    -0.263 A  
HETATM   29  C   UNL     1      -9.640  14.632  69.007  1.00  0.00    -0.145 A  
HETATM   30  C   UNL     1      -8.963  15.005  66.351  1.00  0.00    -0.286 A  
HETATM   31  C   UNL     1     -10.431  15.458  68.211  1.00  0.00    -0.241 A  
HETATM   32  C   UNL     1      -8.509  13.997  68.488  1.00  0.00    -0.143 A  
HETATM   33  C   UNL     1      -8.172  14.190  67.153  1.00  0.00    -0.166 A  
BRANCH  31  34
HETATM   34  O   UNL     1     -11.426  16.103  68.900  1.00  0.00    -0.352 OA 
BRANCH  34  35
HETATM   35  C   UNL     1     -12.517  15.298  69.363  1.00  0.00    -0.037 C  
HETATM   36  C   UNL     1     -12.695  15.370  70.876  1.00  0.00    -0.461 C  
HETATM   37  F   UNL     1     -11.912  16.298  71.465  1.00  0.00    -0.445 F  
HETATM   38  F   UNL     1     -13.979  15.646  71.204  1.00  0.00    -0.550 F  
HETATM   39  F   UNL     1     -12.394  14.173  71.448  1.00  0.00    -0.370 F  
ENDBRANCH  34  35
ENDBRANCH  31  34
ENDBRANCH  27  28
ENDBRANCH  26  27
ENDBRANCH  25  26
ENDBRANCH  23  25
ENDBRANCH   2  23
TORSDOF 13
ENDMDL
MODEL       12
REMARK 921   NORMALIZED FREE ENERGY PREDICTED BY IDOCK:   -6.32 KCAL/MOL
REMARK 922        TOTAL FREE ENERGY PREDICTED BY IDOCK:  -14.29 KCAL/MOL
REMARK 923 INTER-LIGAND FREE ENERGY PREDICTED BY IDOCK:  -11.47 KCAL/MOL
REMARK 924 INTRA-LIGAND FREE ENERGY PREDICTED BY IDOCK:   -2.82 KCAL/MOL
REMARK 927      BINDING AFFINITY PREDICTED BY RF-SCORE:    0.00 PKD
ROOT
HETATM    1  C   UNL     1     -11.069  11.914  63.334  1.00  0.00    -0.463 C  
HETATM    2  C   UNL     1     -10.701  12.488  64.709  1.00  0.00    -0.302 C  
ENDROOT
BRANCH   2   3
HETATM    3  C   UNL     1     -11.825  12.289  65.750  1.00  0.00    -0.417 C  
BRANCH   3   4
HETATM    4  C   UNL     1     -11.390  11.516  66.962  1.00  0.00    -0.340 A  
HETATM    5  C   UNL     1     -11.902  11.848  68.221  1.00  0.00    -0.343 A  
HETATM    6  C   UNL     1      -9.200   8.268  69.535  1.00  0.00    -0.158 A  
HETATM    7  C   UNL     1     -10.475  10.476  66.864  1.00  0.00    -0.303 A  
HETATM    8  C   UNL     1     -10.129   9.789  68.020  1.00  0.00    -0.204 A  
HETATM    9  C   UNL     1     -11.567  11.126  69.393  1.00  0.00    -0.388 A  
HETATM   10  C   UNL     1     -10.641  10.081  69.305  1.00  0.00    -0.227 A  
HETATM   11  C   UNL     1      -9.162   8.653  68.061  1.00  0.00    -0.147 A  
HETATM   12  N   UNL     1     -10.077   9.220  70.230  1.00  0.00    -0.203 NA 
BRANCH  12  13
HETATM   13  C   UNL     1     -10.332   9.039  71.646  1.00  0.00    -0.350 C  
BRANCH  13  14
HETATM   14  C   UNL     1     -11.005   7.694  71.931  1.00  0.00    -0.282 C  
BRANCH  14  15
HETATM   15  C   UNL     1     -12.403   7.578  71.339  1.00  0.00    -0.345 C  
HETATM   16  O   UNL     1     -12.320   6.938  70.065  1.00  0.00    -0.619 OA 
HETATM   17  H   UNL     1     -13.192   6.865  69.696  1.00  0.00     0.000 HD 
ENDBRANCH  14  15
ENDBRANCH  13  14
ENDBRANCH  12  13
BRANCH   9  18
HETATM   18  C   UNL     1     -12.247  11.626  70.616  1.00  0.00    -0.366 C  
HETATM   19  N   UNL     1     -12.000  12.938  70.954  1.00  0.00    -0.420 N  
HETATM   20  O   UNL     1     -12.950  10.935  71.345  1.00  0.00    -0.394 OA 
HETATM   21  H2  UNL     1     -11.385  13.532  70.398  1.00  0.00     0.000 HD 
HETATM   22  H1  UNL     1     -12.467  13.282  71.794  1.00  0.00     0.000 HD 
ENDBRANCH   9  18
ENDBRANCH   3   4
ENDBRANCH   2   3
BRANCH   2  23
HETATM   23  N   UNL     1     -10.362  13.912  64.541  1.00  0.00    -0.652 NA 
HETATM   24  H   UNL     1     -10.028  14.091  63.594  1.00  0.00     0.000 HD 
BRANCH  23  25
HETATM   25  C   UNL     1     -11.456  14.834  64.887  1.00  0.00    -0.412 C  
BRANCH  25  26
HETATM   26  C   UNL     1     -11.103  16.328  64.721  1.00  0.00    -0.281 C  
BRANCH  26  27
HETATM   27  O   UNL     1      -9.883  16.683  65.385  1.00  0.00    -0.538 OA 
BRANCH  27  28
HETATM   28  C   UNL     1      -9.969  17.614  66.389  1.00  0.00    -0.334 A  
HETATM   29  C   UNL     1     -10.390  18.072  68.730  1.00  0.00    -0.294 A  
HETATM   30  C   UNL     1      -9.899  19.001  66.171  1.00  0.00    -0.370 A  
HETATM   31  C   UNL     1     -10.215  17.156  67.694  1.00  0.00    -0.329 A  
HETATM   32  C   UNL     1     -10.328  19.448  68.495  1.00  0.00    -0.413 A  
HETATM   33  C   UNL     1     -10.084  19.909  67.207  1.00  0.00    -0.569 A  
BRANCH  31  34
HETATM   34  O   UNL     1     -10.430  15.854  68.064  1.00  0.00    -0.258 OA 
BRANCH  34  35
HETATM   35  C   UNL     1      -9.496  15.283  68.988  1.00  0.00    -0.232 C  
HETATM   36  C   UNL     1      -8.627  14.205  68.350  1.00  0.00    -0.176 C  
HETATM   37  F   UNL     1      -8.782  14.112  67.012  1.00  0.00    -0.196 F  
HETATM   38  F   UNL     1      -7.315  14.423  68.599  1.00  0.00    -0.098 F  
HETATM   39  F   UNL     1      -8.926  12.984  68.871  1.00  0.00    -0.049 F  
ENDBRANCH  34  35
ENDBRANCH  31  34
ENDBRANCH  27  28
ENDBRANCH  26  27
ENDBRANCH  25  26
ENDBRANCH  23  25
ENDBRANCH   2  23
TORSDOF 13
ENDMDL
MODEL       13
REMARK 921   NORMALIZED FREE ENERGY PREDICTED BY IDOCK:   -6.31 KCAL/MOL
REMARK 922        TOTAL FREE ENERGY PREDICTED BY IDOCK:  -14.27 KCAL/MOL
REMARK 923 INTER-LIGAND FREE ENERGY PREDICTED BY IDOCK:  -12.43 KCAL/MOL
REMARK 924 INTRA-LIGAND FREE ENERGY PREDICTED BY IDOCK:   -1.83 KCAL/MOL
REMARK 927      BINDING AFFINITY PREDICTED BY RF-SCORE:    0.00 PKD
ROOT
HETATM    1  C   UNL     1     -14.320  15.286  71.474  1.00  0.00    -0.633 C  
HETATM    2  C   UNL     1     -13.271  14.196  71.218  1.00  0.00    -0.329 C  
ENDROOT
BRANCH   2   3
HETATM    3  C   UNL     1     -13.541  12.915  72.039  1.00  0.00    -0.499 C  
BRANCH   3   4
HETATM    4  C   UNL     1     -12.862  11.695  71.485  1.00  0.00    -0.469 A  
HETATM    5  C   UNL     1     -12.036  11.808  70.361  1.00  0.00    -0.422 A  
HETATM    6  C   UNL     1     -11.517   7.222  71.099  1.00  0.00    -0.283 A  
HETATM    7  C   UNL     1     -13.042  10.445  72.061  1.00  0.00    -0.521 A  
HETATM    8  C   UNL     1     -12.370   9.361  71.512  1.00  0.00    -0.452 A  
HETATM    9  C   UNL     1     -11.330  10.703  69.822  1.00  0.00    -0.371 A  
HETATM   10  C   UNL     1     -11.511   9.439  70.392  1.00  0.00    -0.223 A  
HETATM   11  C   UNL     1     -12.472   7.964  72.029  1.00  0.00    -0.338 A  
HETATM   12  N   UNL     1     -11.022   8.177  70.100  1.00  0.00    -0.245 NA 
BRANCH  12  13
HETATM   13  C   UNL     1     -10.046   7.734  69.124  1.00  0.00    -0.196 C  
BRANCH  13  14
HETATM   14  C   UNL     1     -10.427   6.381  68.518  1.00  0.00    -0.265 C  
BRANCH  14  15
HETATM   15  C   UNL     1     -10.947   6.480  67.091  1.00  0.00    -0.408 C  
HETATM   16  O   UNL     1     -11.108   7.857  66.746  1.00  0.00    -0.321 OA 
HETATM   17  H   UNL     1     -11.433   7.919  65.855  1.00  0.00     0.000 HD 
ENDBRANCH  14  15
ENDBRANCH  13  14
ENDBRANCH  12  13
BRANCH   9  18
HETATM   18  C   UNL     1     -10.487  11.051  68.649  1.00  0.00    -0.192 C  
HETATM   19  N   UNL     1      -9.423  11.890  68.893  1.00  0.00    -0.410 N  
HETATM   20  O   UNL     1     -10.718  10.684  67.502  1.00  0.00    -0.232 OA 
HETATM   21  H2  UNL     1      -9.226  12.252  69.826  1.00  0.00     0.000 HD 
HETATM   22  H1  UNL     1      -8.844  12.129  68.088  1.00  0.00     0.000 HD 
ENDBRANCH   9  18
ENDBRANCH   3   4
ENDBRANCH   2   3
BRANCH   2  23
HETATM   23  N   UNL     1     -11.939  14.757  71.510  1.00  0.00    -0.345 NA 
HETATM   24  H   UNL     1     -11.219  14.045  71.393  1.00  0.00     0.000 HD 
BRANCH  23  25
HETATM   25  C   UNL     1     -11.610  15.960  70.728  1.00  0.00    -0.410 C  
BRANCH  25  26
HETATM   26  C   UNL     1     -10.901  15.669  69.387  1.00  0.00    -0.264 C  
BRANCH  26  27
HETATM   27  O   UNL     1     -11.295  16.575  68.348  1.00  0.00    -0.348 OA 
BRANCH  27  28
HETATM   28  C   UNL     1     -10.401  17.557  68.005  1.00  0.00    -0.368 A  
HETATM   29  C   UNL     1      -9.002  18.550  66.295  1.00  0.00    -0.219 A  
HETATM   30  C   UNL     1      -9.837  18.452  68.931  1.00  0.00    -0.350 A  
HETATM   31  C   UNL     1      -9.970  17.620  66.670  1.00  0.00    -0.328 A  
HETATM   32  C   UNL     1      -8.443  19.426  67.229  1.00  0.00    -0.325 A  
HETATM   33  C   UNL     1      -8.864  19.370  68.552  1.00  0.00    -0.411 A  
BRANCH  31  34
HETATM   34  O   UNL     1     -10.323  16.755  65.668  1.00  0.00    -0.500 OA 
BRANCH  34  35
HETATM   35  C   UNL     1      -9.812  15.419  65.757  1.00  0.00    -0.364 C  
HETATM   36  C   UNL     1     -10.856  14.368  65.395  1.00  0.00    -0.344 C  
HETATM   37  F   UNL     1     -11.997  14.892  64.902  1.00  0.00    -0.365 F  
HETATM   38  F   UNL     1     -10.374  13.495  64.480  1.00  0.00    -0.389 F  
HETATM   39  F   UNL     1     -11.195  13.637  66.492  1.00  0.00    -0.295 F  
ENDBRANCH  34  35
ENDBRANCH  31  34
ENDBRANCH  27  28
ENDBRANCH  26  27
ENDBRANCH  25  26
ENDBRANCH  23  25
ENDBRANCH   2  23
TORSDOF 13
ENDMDL
MODEL       14
REMARK 921   NORMALIZED FREE ENERGY PREDICTED BY IDOCK:   -6.30 KCAL/MOL
REMARK 922        TOTAL FREE ENERGY PREDICTED BY IDOCK:  -14.26 KCAL/MOL
REMARK 923 INTER-LIGAND FREE ENERGY PREDICTED BY IDOCK:  -12.47 KCAL/MOL
REMARK 924 INTRA-LIGAND FREE ENERGY PREDICTED BY IDOCK:   -1.79 KCAL/MOL
REMARK 927      BINDING AFFINITY PREDICTED BY RF-SCORE:    0.00 PKD
ROOT
HETATM    1  C   UNL     1     -14.337  15.325  71.869  1.00  0.00    -0.691 C  
HETATM    2  C   UNL     1     -13.244  14.303  71.529  1.00  0.00    -0.348 C  
ENDROOT
BRANCH   2   3
HETATM    3  C   UNL     1     -13.504  12.925  72.179  1.00  0.00    -0.619 C  
BRANCH   3   4
HETATM    4  C   UNL     1     -12.796  11.794  71.489  1.00  0.00    -0.450 A  
HETATM    5  C   UNL     1     -12.768  10.526  72.080  1.00  0.00    -0.327 A  
HETATM    6  C   UNL     1     -10.385   9.492  68.195  1.00  0.00    -0.208 A  
HETATM    7  C   UNL     1     -12.155  11.980  70.272  1.00  0.00    -0.395 A  
HETATM    8  C   UNL     1     -11.535  10.889  69.678  1.00  0.00    -0.377 A  
HETATM    9  C   UNL     1     -12.159   9.409  71.456  1.00  0.00    -0.456 A  
HETATM   10  C   UNL     1     -11.505   9.589  70.233  1.00  0.00    -0.206 A  
HETATM   11  C   UNL     1     -10.811  10.945  68.374  1.00  0.00    -0.266 A  
HETATM   12  N   UNL     1     -10.794   8.748  69.394  1.00  0.00    -0.166 NA 
BRANCH  12  13
HETATM   13  C   UNL     1     -10.556   7.319  69.452  1.00  0.00    -0.229 C  
BRANCH  13  14
HETATM   14  C   UNL     1      -9.062   6.992  69.379  1.00  0.00    -0.145 C  
BRANCH  14  15
HETATM   15  C   UNL     1      -8.334   7.181  70.702  1.00  0.00    -0.126 C  
HETATM   16  O   UNL     1      -8.583   8.501  71.189  1.00  0.00    -0.137 OA 
HETATM   17  H   UNL     1      -8.128   8.619  72.015  1.00  0.00     0.000 HD 
ENDBRANCH  14  15
ENDBRANCH  13  14
ENDBRANCH  12  13
BRANCH   9  18
HETATM   18  C   UNL     1     -12.272   8.153  72.242  1.00  0.00    -0.346 C  
HETATM   19  N   UNL     1     -13.438   7.438  72.078  1.00  0.00    -0.536 N  
HETATM   20  O   UNL     1     -11.431   7.765  73.044  1.00  0.00    -0.372 OA 
HETATM   21  H2  UNL     1     -14.180   7.752  71.454  1.00  0.00     0.000 HD 
HETATM   22  H1  UNL     1     -13.515   6.575  72.618  1.00  0.00     0.000 HD 
ENDBRANCH   9  18
ENDBRANCH   3   4
ENDBRANCH   2   3
BRANCH   2  23
HETATM   23  N   UNL     1     -11.943  14.861  71.940  1.00  0.00    -0.364 NA 
HETATM   24  H   UNL     1     -11.220  14.144  71.904  1.00  0.00     0.000 HD 
BRANCH  23  25
HETATM   25  C   UNL     1     -11.532  16.051  71.177  1.00  0.00    -0.419 C  
BRANCH  25  26
HETATM   26  C   UNL     1     -11.142  15.760  69.712  1.00  0.00    -0.322 C  
BRANCH  26  27
HETATM   27  O   UNL     1     -10.023  16.541  69.274  1.00  0.00    -0.263 OA 
BRANCH  27  28
HETATM   28  C   UNL     1     -10.232  17.395  68.221  1.00  0.00    -0.362 A  
HETATM   29  C   UNL     1     -10.548  17.670  65.835  1.00  0.00    -0.203 A  
HETATM   30  C   UNL     1     -10.199  18.796  68.338  1.00  0.00    -0.413 A  
HETATM   31  C   UNL     1     -10.413  16.838  66.945  1.00  0.00    -0.269 A  
HETATM   32  C   UNL     1     -10.502  19.060  65.966  1.00  0.00    -0.530 A  
HETATM   33  C   UNL     1     -10.324  19.621  67.225  1.00  0.00    -0.577 A  
BRANCH  31  34
HETATM   34  O   UNL     1     -10.354  15.504  66.633  1.00  0.00    -0.272 OA 
BRANCH  34  35
HETATM   35  C   UNL     1     -10.543  15.154  65.257  1.00  0.00    -0.411 C  
HETATM   36  C   UNL     1     -11.848  14.401  65.020  1.00  0.00    -0.400 C  
HETATM   37  F   UNL     1     -12.648  14.357  66.106  1.00  0.00    -0.441 F  
HETATM   38  F   UNL     1     -12.557  14.957  64.009  1.00  0.00    -0.499 F  
HETATM   39  F   UNL     1     -11.596  13.114  64.658  1.00  0.00    -0.325 F  
ENDBRANCH  34  35
ENDBRANCH  31  34
ENDBRANCH  27  28
ENDBRANCH  26  27
ENDBRANCH  25  26
ENDBRANCH  23  25
ENDBRANCH   2  23
TORSDOF 13
ENDMDL
MODEL       15
REMARK 921   NORMALIZED FREE ENERGY PREDICTED BY IDOCK:   -6.27 KCAL/MOL
REMARK 922        TOTAL FREE ENERGY PREDICTED BY IDOCK:  -14.21 KCAL/MOL
REMARK 923 INTER-LIGAND FREE ENERGY PREDICTED BY IDOCK:  -11.14 KCAL/MOL
REMARK 924 INTRA-LIGAND FREE ENERGY PREDICTED BY IDOCK:   -3.06 KCAL/MOL
REMARK 927      BINDING AFFINITY PREDICTED BY RF-SCORE:    0.00 PKD
ROOT
HETATM    1  C   UNL     1     -10.942  11.345  64.124  1.00  0.00    -0.411 C  
HETATM    2  C   UNL     1     -10.452  12.273  65.243  1.00  0.00    -0.282 C  
ENDROOT
BRANCH   2   3
HETATM    3  C   UNL     1     -11.476  12.398  66.394  1.00  0.00    -0.427 C  
BRANCH   3   4
HETATM    4  C   UNL     1     -11.119  11.584  67.604  1.00  0.00    -0.324 A  
HETATM    5  C   UNL     1     -12.035  11.462  68.656  1.00  0.00    -0.317 A  
HETATM    6  C   UNL     1      -8.633   8.797  70.435  1.00  0.00    -0.163 A  
HETATM    7  C   UNL     1      -9.889  10.951  67.711  1.00  0.00    -0.194 A  
HETATM    8  C   UNL     1      -9.629  10.198  68.848  1.00  0.00    -0.186 A  
HETATM    9  C   UNL     1     -11.776  10.669  69.801  1.00  0.00    -0.385 A  
HETATM   10  C   UNL     1     -10.536  10.033  69.920  1.00  0.00    -0.274 A  
HETATM   11  C   UNL     1      -8.351   9.466  69.094  1.00  0.00    -0.125 A  
HETATM   12  N   UNL     1      -9.956   9.239  70.895  1.00  0.00    -0.283 NA 
BRANCH  12  13
HETATM   13  C   UNL     1     -10.490   8.699  72.129  1.00  0.00    -0.340 C  
BRANCH  13  14
HETATM   14  C   UNL     1     -10.496   7.168  72.119  1.00  0.00    -0.231 C  
BRANCH  14  15
HETATM   15  C   UNL     1     -11.781   6.570  71.564  1.00  0.00    -0.324 C  
HETATM   16  O   UNL     1     -12.023   7.106  70.262  1.00  0.00    -0.545 OA 
HETATM   17  H   UNL     1     -12.825   6.733  69.916  1.00  0.00     0.000 HD 
ENDBRANCH  14  15
ENDBRANCH  13  14
ENDBRANCH  12  13
BRANCH   9  18
HETATM   18  C   UNL     1     -12.895  10.653  70.780  1.00  0.00    -0.352 C  
HETATM   19  N   UNL     1     -13.811   9.635  70.638  1.00  0.00    -0.428 N  
HETATM   20  O   UNL     1     -13.066  11.507  71.643  1.00  0.00    -0.452 OA 
HETATM   21  H2  UNL     1     -13.726   8.933  69.903  1.00  0.00     0.000 HD 
HETATM   22  H1  UNL     1     -14.579   9.624  71.309  1.00  0.00     0.000 HD 
ENDBRANCH   9  18
ENDBRANCH   3   4
ENDBRANCH   2   3
BRANCH   2  23
HETATM   23  N   UNL     1     -10.136  13.586  64.652  1.00  0.00    -0.630 NA 
HETATM   24  H   UNL     1     -10.036  13.508  63.641  1.00  0.00     0.000 HD 
BRANCH  23  25
HETATM   25  C   UNL     1     -11.098  14.646  64.997  1.00  0.00    -0.394 C  
BRANCH  25  26
HETATM   26  C   UNL     1     -10.461  16.036  65.209  1.00  0.00    -0.358 C  
BRANCH  26  27
HETATM   27  O   UNL     1     -10.602  16.506  66.556  1.00  0.00    -0.292 OA 
BRANCH  27  28
HETATM   28  C   UNL     1     -10.092  17.748  66.839  1.00  0.00    -0.342 A  
HETATM   29  C   UNL     1      -8.665  19.107  68.247  1.00  0.00    -0.375 A  
HETATM   30  C   UNL     1     -10.519  18.927  66.202  1.00  0.00    -0.521 A  
HETATM   31  C   UNL     1      -9.148  17.855  67.873  1.00  0.00    -0.260 A  
HETATM   32  C   UNL     1      -9.107  20.270  67.612  1.00  0.00    -0.423 A  
HETATM   33  C   UNL     1     -10.041  20.174  66.587  1.00  0.00    -0.584 A  
BRANCH  31  34
HETATM   34  O   UNL     1      -8.712  16.832  68.674  1.00  0.00    -0.237 OA 
BRANCH  34  35
HETATM   35  C   UNL     1      -7.700  15.974  68.134  1.00  0.00    -0.133 C  
HETATM   36  C   UNL     1      -8.155  14.522  68.037  1.00  0.00    -0.139 C  
HETATM   37  F   UNL     1      -9.465  14.349  68.315  1.00  0.00    -0.182 F  
HETATM   38  F   UNL     1      -7.927  14.018  66.802  1.00  0.00    -0.120 F  
HETATM   39  F   UNL     1      -7.457  13.745  68.910  1.00  0.00    -0.109 F  
ENDBRANCH  34  35
ENDBRANCH  31  34
ENDBRANCH  27  28
ENDBRANCH  26  27
ENDBRANCH  25  26
ENDBRANCH  23  25
ENDBRANCH   2  23
TORSDOF 13
ENDMDL
MODEL       16
REMARK 921   NORMALIZED FREE ENERGY PREDICTED BY IDOCK:   -6.21 KCAL/MOL
REMARK 922        TOTAL FREE ENERGY PREDICTED BY IDOCK:  -14.10 KCAL/MOL
REMARK 923 INTER-LIGAND FREE ENERGY PREDICTED BY IDOCK:  -11.38 KCAL/MOL
REMARK 924 INTRA-LIGAND FREE ENERGY PREDICTED BY IDOCK:   -2.73 KCAL/MOL
REMARK 927      BINDING AFFINITY PREDICTED BY RF-SCORE:    0.00 PKD
ROOT
HETATM    1  C   UNL     1     -10.532  11.175  63.545  1.00  0.00    -0.422 C  
HETATM    2  C   UNL     1     -10.296  12.195  64.667  1.00  0.00    -0.297 C  
ENDROOT
BRANCH   2   3
HETATM    3  C   UNL     1     -11.385  12.129  65.761  1.00  0.00    -0.402 C  
BRANCH   3   4
HETATM    4  C   UNL     1     -10.946  11.401  67.000  1.00  0.00    -0.347 A  
HETATM    5  C   UNL     1     -11.730  11.461  68.157  1.00  0.00    -0.355 A  
HETATM    6  C   UNL     1      -8.356   8.672  69.794  1.00  0.00    -0.123 A  
HETATM    7  C   UNL     1      -9.766  10.671  67.027  1.00  0.00    -0.207 A  
HETATM    8  C   UNL     1      -9.427  10.005  68.198  1.00  0.00    -0.148 A  
HETATM    9  C   UNL     1     -11.395  10.757  69.340  1.00  0.00    -0.351 A  
HETATM   10  C   UNL     1     -10.204  10.024  69.379  1.00  0.00    -0.222 A  
HETATM   11  C   UNL     1      -8.192   9.185  68.368  1.00  0.00    -0.115 A  
HETATM   12  N   UNL     1      -9.573   9.274  70.356  1.00  0.00    -0.225 NA 
BRANCH  12  13
HETATM   13  C   UNL     1      -9.990   8.901  71.693  1.00  0.00    -0.327 C  
BRANCH  13  14
HETATM   14  C   UNL     1     -10.171   7.386  71.827  1.00  0.00    -0.212 C  
BRANCH  14  15
HETATM   15  C   UNL     1     -11.608   6.927  71.627  1.00  0.00    -0.287 C  
HETATM   16  O   UNL     1     -12.086   7.416  70.373  1.00  0.00    -0.521 OA 
HETATM   17  H   UNL     1     -12.983   7.130  70.248  1.00  0.00     0.000 HD 
ENDBRANCH  14  15
ENDBRANCH  13  14
ENDBRANCH  12  13
BRANCH   9  18
HETATM   18  C   UNL     1     -12.381  10.934  70.438  1.00  0.00    -0.351 C  
HETATM   19  N   UNL     1     -13.337   9.950  70.560  1.00  0.00    -0.595 N  
HETATM   20  O   UNL     1     -12.416  11.909  71.181  1.00  0.00    -0.348 OA 
HETATM   21  H2  UNL     1     -13.367   9.147  69.933  1.00  0.00     0.000 HD 
HETATM   22  H1  UNL     1     -14.014  10.072  71.314  1.00  0.00     0.000 HD 
ENDBRANCH   9  18
ENDBRANCH   3   4
ENDBRANCH   2   3
BRANCH   2  23
HETATM   23  N   UNL     1     -10.213  13.537  64.063  1.00  0.00    -0.713 NA 
HETATM   24  H   UNL     1     -10.269  13.476  63.047  1.00  0.00     0.000 HD 
BRANCH  23  25
HETATM   25  C   UNL     1     -11.210  14.489  64.580  1.00  0.00    -0.353 C  
BRANCH  25  26
HETATM   26  C   UNL     1     -10.615  15.826  65.072  1.00  0.00    -0.371 C  
BRANCH  26  27
HETATM   27  O   UNL     1     -10.345  15.824  66.480  1.00  0.00    -0.278 OA 
BRANCH  27  28
HETATM   28  C   UNL     1      -9.052  15.579  66.866  1.00  0.00    -0.241 A  
HETATM   29  C   UNL     1      -6.789  16.411  67.103  1.00  0.00    -0.238 A  
HETATM   30  C   UNL     1      -8.584  14.311  67.253  1.00  0.00    -0.229 A  
HETATM   31  C   UNL     1      -8.130  16.636  66.797  1.00  0.00    -0.246 A  
HETATM   32  C   UNL     1      -6.338  15.143  67.476  1.00  0.00    -0.109 A  
HETATM   33  C   UNL     1      -7.243  14.090  67.547  1.00  0.00    -0.183 A  
BRANCH  31  34
HETATM   34  O   UNL     1      -8.387  17.899  66.330  1.00  0.00    -0.366 OA 
BRANCH  34  35
HETATM   35  C   UNL     1      -8.970  18.825  67.255  1.00  0.00    -0.274 C  
HETATM   36  C   UNL     1     -10.236  19.476  66.710  1.00  0.00    -0.435 C  
HETATM   37  F   UNL     1     -10.657  18.940  65.545  1.00  0.00    -0.475 F  
HETATM   38  F   UNL     1     -11.254  19.386  67.597  1.00  0.00    -0.507 F  
HETATM   39  F   UNL     1     -10.030  20.803  66.486  1.00  0.00    -0.505 F  
ENDBRANCH  34  35
ENDBRANCH  31  34
ENDBRANCH  27  28
ENDBRANCH  26  27
ENDBRANCH  25  26
ENDBRANCH  23  25
ENDBRANCH   2  23
TORSDOF 13
ENDMDL
MODEL       17
REMARK 921   NORMALIZED FREE ENERGY PREDICTED BY IDOCK:   -6.17 KCAL/MOL
REMARK 922        TOTAL FREE ENERGY PREDICTED BY IDOCK:  -14.02 KCAL/MOL
REMARK 923 INTER-LIGAND FREE ENERGY PREDICTED BY IDOCK:  -11.67 KCAL/MOL
REMARK 924 INTRA-LIGAND FREE ENERGY PREDICTED BY IDOCK:   -2.35 KCAL/MOL
REMARK 927      BINDING AFFINITY PREDICTED BY RF-SCORE:    0.00 PKD
ROOT
HETATM    1  C   UNL     1     -10.358  10.826  64.265  1.00  0.00    -0.401 C  
HETATM    2  C   UNL     1     -10.049  11.708  65.481  1.00  0.00    -0.246 C  
ENDROOT
BRANCH   2   3
HETATM    3  C   UNL     1     -11.216  11.745  66.494  1.00  0.00    -0.380 C  
BRANCH   3   4
HETATM    4  C   UNL     1     -10.911  11.041  67.785  1.00  0.00    -0.323 A  
HETATM    5  C   UNL     1     -11.852  11.048  68.821  1.00  0.00    -0.352 A  
HETATM    6  C   UNL     1      -8.575   8.469  70.930  1.00  0.00    -0.158 A  
HETATM    7  C   UNL     1      -9.704  10.386  67.982  1.00  0.00    -0.166 A  
HETATM    8  C   UNL     1      -9.492   9.738  69.192  1.00  0.00    -0.191 A  
HETATM    9  C   UNL     1     -11.643  10.362  70.043  1.00  0.00    -0.378 A  
HETATM   10  C   UNL     1     -10.427   9.705  70.253  1.00  0.00    -0.283 A  
HETATM   11  C   UNL     1      -8.244   8.996  69.538  1.00  0.00    -0.114 A  
HETATM   12  N   UNL     1      -9.893   8.992  71.312  1.00  0.00    -0.288 NA 
BRANCH  12  13
HETATM   13  C   UNL     1     -10.470   8.589  72.579  1.00  0.00    -0.233 C  
BRANCH  13  14
HETATM   14  C   UNL     1     -10.662   7.072  72.656  1.00  0.00    -0.291 C  
BRANCH  14  15
HETATM   15  C   UNL     1     -11.673   6.537  71.651  1.00  0.00    -0.324 C  
HETATM   16  O   UNL     1     -12.991   6.861  72.095  1.00  0.00    -0.536 OA 
HETATM   17  H   UNL     1     -13.622   6.527  71.468  1.00  0.00     0.000 HD 
ENDBRANCH  14  15
ENDBRANCH  13  14
ENDBRANCH  12  13
BRANCH   9  18
HETATM   18  C   UNL     1     -12.783  10.474  70.991  1.00  0.00    -0.408 C  
HETATM   19  N   UNL     1     -12.917  11.681  71.639  1.00  0.00    -0.427 N  
HETATM   20  O   UNL     1     -13.549   9.555  71.257  1.00  0.00    -0.360 OA 
HETATM   21  H2  UNL     1     -12.271  12.454  71.477  1.00  0.00     0.000 HD 
HETATM   22  H1  UNL     1     -13.699  11.758  72.290  1.00  0.00     0.000 HD 
ENDBRANCH   9  18
ENDBRANCH   3   4
ENDBRANCH   2   3
BRANCH   2  23
HETATM   23  N   UNL     1      -9.705  13.058  65.000  1.00  0.00    -0.517 NA 
HETATM   24  H   UNL     1      -9.096  13.002  64.184  1.00  0.00     0.000 HD 
BRANCH  23  25
HETATM   25  C   UNL     1     -10.872  13.909  64.717  1.00  0.00    -0.419 C  
BRANCH  25  26
HETATM   26  C   UNL     1     -10.828  15.293  65.401  1.00  0.00    -0.387 C  
BRANCH  26  27
HETATM   27  O   UNL     1      -9.974  15.311  66.553  1.00  0.00    -0.246 OA 
BRANCH  27  28
HETATM   28  C   UNL     1     -10.580  15.451  67.776  1.00  0.00    -0.274 A  
HETATM   29  C   UNL     1     -10.683  16.627  69.891  1.00  0.00    -0.204 A  
HETATM   30  C   UNL     1     -11.549  14.560  68.269  1.00  0.00    -0.358 A  
HETATM   31  C   UNL     1     -10.152  16.498  68.608  1.00  0.00    -0.255 A  
HETATM   32  C   UNL     1     -11.638  15.728  70.371  1.00  0.00    -0.376 A  
HETATM   33  C   UNL     1     -12.067  14.689  69.553  1.00  0.00    -0.335 A  
BRANCH  31  34
HETATM   34  O   UNL     1      -9.139  17.380  68.337  1.00  0.00    -0.259 OA 
BRANCH  34  35
HETATM   35  C   UNL     1      -9.384  18.348  67.309  1.00  0.00    -0.270 C  
HETATM   36  C   UNL     1      -9.984  19.640  67.853  1.00  0.00    -0.411 C  
HETATM   37  F   UNL     1     -10.014  19.693  69.201  1.00  0.00    -0.466 F  
HETATM   38  F   UNL     1      -9.299  20.721  67.413  1.00  0.00    -0.509 F  
HETATM   39  F   UNL     1     -11.266  19.787  67.421  1.00  0.00    -0.524 F  
ENDBRANCH  34  35
ENDBRANCH  31  34
ENDBRANCH  27  28
ENDBRANCH  26  27
ENDBRANCH  25  26
ENDBRANCH  23  25
ENDBRANCH   2  23
TORSDOF 13
ENDMDL
MODEL       18
REMARK 921   NORMALIZED FREE ENERGY PREDICTED BY IDOCK:   -6.15 KCAL/MOL
REMARK 922        TOTAL FREE ENERGY PREDICTED BY IDOCK:  -13.99 KCAL/MOL
REMARK 923 INTER-LIGAND FREE ENERGY PREDICTED BY IDOCK:  -11.47 KCAL/MOL
REMARK 924 INTRA-LIGAND FREE ENERGY PREDICTED BY IDOCK:   -2.51 KCAL/MOL
REMARK 927      BINDING AFFINITY PREDICTED BY RF-SCORE:    0.00 PKD
ROOT
HETATM    1  C   UNL     1      -8.905  15.874  68.841  1.00  0.00    -0.225 C  
HETATM    2  C   UNL     1      -9.390  15.717  67.395  1.00  0.00    -0.210 C  
ENDROOT
BRANCH   2   3
HETATM    3  C   UNL     1     -10.918  15.499  67.308  1.00  0.00    -0.303 C  
BRANCH   3   4
HETATM    4  C   UNL     1     -11.457  14.595  68.379  1.00  0.00    -0.335 A  
HETATM    5  C   UNL     1     -11.137  13.233  68.367  1.00  0.00    -0.299 A  
HETATM    6  C   UNL     1     -13.745  13.258  72.245  1.00  0.00    -0.589 A  
HETATM    7  C   UNL     1     -12.279  15.080  69.386  1.00  0.00    -0.234 A  
HETATM    8  C   UNL     1     -12.728  14.195  70.358  1.00  0.00    -0.341 A  
HETATM    9  C   UNL     1     -11.574  12.339  69.376  1.00  0.00    -0.378 A  
HETATM   10  C   UNL     1     -12.409  12.818  70.391  1.00  0.00    -0.247 A  
HETATM   11  C   UNL     1     -13.615  14.580  71.495  1.00  0.00    -0.465 A  
HETATM   12  N   UNL     1     -13.032  12.229  71.477  1.00  0.00    -0.354 NA 
BRANCH  12  13
HETATM   13  C   UNL     1     -12.953  10.882  72.008  1.00  0.00    -0.313 C  
BRANCH  13  14
HETATM   14  C   UNL     1     -13.873   9.921  71.251  1.00  0.00    -0.050 C  
BRANCH  14  15
HETATM   15  C   UNL     1     -14.091   8.598  71.970  1.00  0.00    -0.453 C  
HETATM   16  O   UNL     1     -14.153   8.834  73.377  1.00  0.00    -1.167 OA 
HETATM   17  H   UNL     1     -14.289   8.008  73.826  1.00  0.00     0.000 HD 
ENDBRANCH  14  15
ENDBRANCH  13  14
ENDBRANCH  12  13
BRANCH   9  18
HETATM   18  C   UNL     1     -11.095  10.945  69.186  1.00  0.00    -0.245 C  
HETATM   19  N   UNL     1     -11.293  10.400  67.937  1.00  0.00    -0.461 N  
HETATM   20  O   UNL     1     -10.599  10.261  70.074  1.00  0.00    -0.271 OA 
HETATM   21  H2  UNL     1     -11.743  10.923  67.186  1.00  0.00     0.000 HD 
HETATM   22  H1  UNL     1     -10.964   9.443  67.807  1.00  0.00     0.000 HD 
ENDBRANCH   9  18
ENDBRANCH   3   4
ENDBRANCH   2   3
BRANCH   2  23
HETATM   23  N   UNL     1      -8.648  14.605  66.775  1.00  0.00    -0.385 NA 
HETATM   24  H   UNL     1      -8.408  14.829  65.810  1.00  0.00     0.000 HD 
BRANCH  23  25
HETATM   25  C   UNL     1      -7.449  14.193  67.523  1.00  0.00    -0.174 C  
BRANCH  25  26
HETATM   26  C   UNL     1      -7.075  12.704  67.352  1.00  0.00    -0.138 C  
BRANCH  26  27
HETATM   27  O   UNL     1      -8.226  11.851  67.295  1.00  0.00    -0.154 OA 
BRANCH  27  28
HETATM   28  C   UNL     1      -8.348  11.044  66.192  1.00  0.00    -0.163 A  
HETATM   29  C   UNL     1      -9.637  10.428  64.235  1.00  0.00    -0.377 A  
HETATM   30  C   UNL     1      -7.498   9.956  65.926  1.00  0.00    -0.108 A  
HETATM   31  C   UNL     1      -9.428  11.274  65.323  1.00  0.00    -0.221 A  
HETATM   32  C   UNL     1      -8.790   9.344  63.990  1.00  0.00    -0.210 A  
HETATM   33  C   UNL     1      -7.719   9.110  64.845  1.00  0.00    -0.110 A  
BRANCH  31  34
HETATM   34  O   UNL     1     -10.415  12.209  65.494  1.00  0.00    -0.248 OA 
BRANCH  34  35
HETATM   35  C   UNL     1     -10.776  12.985  64.346  1.00  0.00    -0.394 C  
HETATM   36  C   UNL     1     -12.259  13.342  64.324  1.00  0.00    -0.392 C  
HETATM   37  F   UNL     1     -12.908  13.010  65.460  1.00  0.00    -0.518 F  
HETATM   38  F   UNL     1     -12.441  14.667  64.118  1.00  0.00    -0.503 F  
HETATM   39  F   UNL     1     -12.888  12.698  63.303  1.00  0.00    -0.438 F  
ENDBRANCH  34  35
ENDBRANCH  31  34
ENDBRANCH  27  28
ENDBRANCH  26  27
ENDBRANCH  25  26
ENDBRANCH  23  25
ENDBRANCH   2  23
TORSDOF 13
ENDMDL
MODEL       19
REMARK 921   NORMALIZED FREE ENERGY PREDICTED BY IDOCK:   -6.13 KCAL/MOL
REMARK 922        TOTAL FREE ENERGY PREDICTED BY IDOCK:  -13.95 KCAL/MOL
REMARK 923 INTER-LIGAND FREE ENERGY PREDICTED BY IDOCK:  -10.90 KCAL/MOL
REMARK 924 INTRA-LIGAND FREE ENERGY PREDICTED BY IDOCK:   -3.05 KCAL/MOL
REMARK 927      BINDING AFFINITY PREDICTED BY RF-SCORE:    0.00 PKD
ROOT
HETATM    1  C   UNL     1     -12.175  12.055  63.506  1.00  0.00    -0.653 C  
HETATM    2  C   UNL     1     -11.324  12.799  64.543  1.00  0.00    -0.334 C  
ENDROOT
BRANCH   2   3
HETATM    3  C   UNL     1     -11.998  12.845  65.933  1.00  0.00    -0.504 C  
BRANCH   3   4
HETATM    4  C   UNL     1     -11.481  11.803  66.884  1.00  0.00    -0.364 A  
HETATM    5  C   UNL     1     -10.631  10.795  66.416  1.00  0.00    -0.266 A  
HETATM    6  C   UNL     1     -10.747   9.522  70.911  1.00  0.00    -0.333 A  
HETATM    7  C   UNL     1     -11.837  11.810  68.225  1.00  0.00    -0.340 A  
HETATM    8  C   UNL     1     -11.310  10.829  69.054  1.00  0.00    -0.349 A  
HETATM    9  C   UNL     1     -10.073   9.812  67.271  1.00  0.00    -0.261 A  
HETATM   10  C   UNL     1     -10.432   9.808  68.623  1.00  0.00    -0.208 A  
HETATM   11  C   UNL     1     -11.606  10.717  70.513  1.00  0.00    -0.444 A  
HETATM   12  N   UNL     1     -10.113   8.993  69.696  1.00  0.00    -0.190 NA 
BRANCH  12  13
HETATM   13  C   UNL     1      -9.191   7.881  69.810  1.00  0.00    -0.150 C  
BRANCH  13  14
HETATM   14  C   UNL     1      -9.919   6.574  70.136  1.00  0.00    -0.190 C  
BRANCH  14  15
HETATM   15  C   UNL     1     -10.938   6.168  69.080  1.00  0.00    -0.381 C  
HETATM   16  O   UNL     1     -12.239   6.582  69.501  1.00  0.00    -0.359 OA 
HETATM   17  H   UNL     1     -12.875   6.329  68.842  1.00  0.00     0.000 HD 
ENDBRANCH  14  15
ENDBRANCH  13  14
ENDBRANCH  12  13
BRANCH   9  18
HETATM   18  C   UNL     1      -9.173   8.857  66.574  1.00  0.00    -0.183 C  
HETATM   19  N   UNL     1      -9.786   7.798  65.942  1.00  0.00    -0.412 N  
HETATM   20  O   UNL     1      -7.950   8.932  66.583  1.00  0.00    -0.102 OA 
HETATM   21  H2  UNL     1     -10.798   7.677  65.951  1.00  0.00     0.000 HD 
HETATM   22  H1  UNL     1      -9.168   7.141  65.463  1.00  0.00     0.000 HD 
ENDBRANCH   9  18
ENDBRANCH   3   4
ENDBRANCH   2   3
BRANCH   2  23
HETATM   23  N   UNL     1     -11.047  14.153  64.030  1.00  0.00    -0.504 NA 
HETATM   24  H   UNL     1     -10.850  14.123  63.030  1.00  0.00     0.000 HD 
BRANCH  23  25
HETATM   25  C   UNL     1     -12.107  15.133  64.319  1.00  0.00    -0.261 C  
BRANCH  25  26
HETATM   26  C   UNL     1     -11.594  16.567  64.569  1.00  0.00     0.163 C  
BRANCH  26  27
HETATM   27  O   UNL     1     -10.341  16.590  65.266  1.00  0.00    -0.596 OA 
BRANCH  27  28
HETATM   28  C   UNL     1     -10.221  17.477  66.305  1.00  0.00    -0.355 A  
HETATM   29  C   UNL     1     -10.172  17.835  68.701  1.00  0.00    -0.377 A  
HETATM   30  C   UNL     1     -10.186  18.872  66.136  1.00  0.00    -0.485 A  
HETATM   31  C   UNL     1     -10.210  16.964  67.612  1.00  0.00    -0.306 A  
HETATM   32  C   UNL     1     -10.149  19.219  68.516  1.00  0.00    -0.513 A  
HETATM   33  C   UNL     1     -10.159  19.735  67.226  1.00  0.00    -0.549 A  
BRANCH  31  34
HETATM   34  O   UNL     1     -10.357  15.647  67.962  1.00  0.00    -0.238 OA 
BRANCH  34  35
HETATM   35  C   UNL     1      -9.319  15.073  68.767  1.00  0.00    -0.200 C  
HETATM   36  C   UNL     1      -8.547  13.982  68.032  1.00  0.00    -0.179 C  
HETATM   37  F   UNL     1      -8.870  13.882  66.725  1.00  0.00    -0.231 F  
HETATM   38  F   UNL     1      -7.212  14.189  68.112  1.00  0.00    -0.090 F  
HETATM   39  F   UNL     1      -8.789  12.767  68.596  1.00  0.00    -0.161 F  
ENDBRANCH  34  35
ENDBRANCH  31  34
ENDBRANCH  27  28
ENDBRANCH  26  27
ENDBRANCH  25  26
ENDBRANCH  23  25
ENDBRANCH   2  23
TORSDOF 13
ENDMDL
MODEL       20
REMARK 921   NORMALIZED FREE ENERGY PREDICTED BY IDOCK:   -6.12 KCAL/MOL
REMARK 922        TOTAL FREE ENERGY PREDICTED BY IDOCK:  -13.94 KCAL/MOL
REMARK 923 INTER-LIGAND FREE ENERGY PREDICTED BY IDOCK:  -10.77 KCAL/MOL
REMARK 924 INTRA-LIGAND FREE ENERGY PREDICTED BY IDOCK:   -3.16 KCAL/MOL
REMARK 927      BINDING AFFINITY PREDICTED BY RF-SCORE:    0.00 PKD
ROOT
HETATM    1  C   UNL     1     -11.082   7.740  72.581  1.00  0.00    -0.433 C  
HETATM    2  C   UNL     1     -11.737   8.494  71.416  1.00  0.00    -0.294 C  
ENDROOT
BRANCH   2   3
HETATM    3  C   UNL     1     -12.857   9.448  71.887  1.00  0.00    -0.497 C  
BRANCH   3   4
HETATM    4  C   UNL     1     -12.694  10.856  71.390  1.00  0.00    -0.539 A  
HETATM    5  C   UNL     1     -11.964  11.101  70.222  1.00  0.00    -0.460 A  
HETATM    6  C   UNL     1     -13.172  15.513  71.179  1.00  0.00    -0.507 A  
HETATM    7  C   UNL     1     -13.246  11.931  72.073  1.00  0.00    -0.461 A  
HETATM    8  C   UNL     1     -13.074  13.206  71.550  1.00  0.00    -0.404 A  
HETATM    9  C   UNL     1     -11.815  12.401  69.677  1.00  0.00    -0.380 A  
HETATM   10  C   UNL     1     -12.362  13.491  70.362  1.00  0.00    -0.327 A  
HETATM   11  C   UNL     1     -13.613  14.448  72.178  1.00  0.00    -0.529 A  
HETATM   12  N   UNL     1     -12.370  14.857  70.139  1.00  0.00    -0.328 NA 
BRANCH  12  13
HETATM   13  C   UNL     1     -11.875  15.646  69.028  1.00  0.00    -0.364 C  
BRANCH  13  14
HETATM   14  C   UNL     1     -10.767  16.607  69.468  1.00  0.00    -0.306 C  
BRANCH  14  15
HETATM   15  C   UNL     1      -9.366  16.095  69.166  1.00  0.00    -0.238 C  
HETATM   16  O   UNL     1      -9.171  14.844  69.828  1.00  0.00    -0.444 OA 
HETATM   17  H   UNL     1      -8.296  14.525  69.639  1.00  0.00     0.000 HD 
ENDBRANCH  14  15
ENDBRANCH  13  14
ENDBRANCH  12  13
BRANCH   9  18
HETATM   18  C   UNL     1     -11.029  12.431  68.416  1.00  0.00    -0.241 C  
HETATM   19  N   UNL     1     -11.717  12.118  67.264  1.00  0.00    -0.330 N  
HETATM   20  O   UNL     1      -9.826  12.660  68.360  1.00  0.00    -0.226 OA 
HETATM   21  H2  UNL     1     -12.708  11.879  67.277  1.00  0.00     0.000 HD 
HETATM   22  H1  UNL     1     -11.177  12.139  66.398  1.00  0.00     0.000 HD 
ENDBRANCH   9  18
ENDBRANCH   3   4
ENDBRANCH   2   3
BRANCH   2  23
HETATM   23  N   UNL     1     -12.240   7.503  70.447  1.00  0.00    -0.507 NA 
HETATM   24  H   UNL     1     -12.685   7.970  69.657  1.00  0.00     0.000 HD 
BRANCH  23  25
HETATM   25  C   UNL     1     -11.220   6.551  69.978  1.00  0.00    -0.393 C  
BRANCH  25  26
HETATM   26  C   UNL     1     -10.573   6.930  68.628  1.00  0.00    -0.223 C  
BRANCH  26  27
HETATM   27  O   UNL     1     -10.710   8.324  68.323  1.00  0.00    -0.142 OA 
BRANCH  27  28
HETATM   28  C   UNL     1      -9.558   9.066  68.267  1.00  0.00    -0.145 A  
HETATM   29  C   UNL     1      -7.898  10.176  66.895  1.00  0.00    -0.107 A  
HETATM   30  C   UNL     1      -8.767   9.359  69.392  1.00  0.00    -0.157 A  
HETATM   31  C   UNL     1      -9.106   9.489  67.006  1.00  0.00    -0.134 A  
HETATM   32  C   UNL     1      -7.118  10.451  68.021  1.00  0.00    -0.082 A  
HETATM   33  C   UNL     1      -7.558  10.035  69.273  1.00  0.00    -0.109 A  
BRANCH  31  34
HETATM   34  O   UNL     1      -9.685   9.191  65.801  1.00  0.00    -0.274 OA 
BRANCH  34  35
HETATM   35  C   UNL     1      -9.785  10.258  64.850  1.00  0.00    -0.320 C  
HETATM   36  C   UNL     1      -9.068   9.942  63.541  1.00  0.00    -0.256 C  
HETATM   37  F   UNL     1      -8.627   8.669  63.463  1.00  0.00    -0.184 F  
HETATM   38  F   UNL     1      -9.873  10.166  62.476  1.00  0.00    -0.306 F  
HETATM   39  F   UNL     1      -7.983  10.749  63.386  1.00  0.00    -0.129 F  
ENDBRANCH  34  35
ENDBRANCH  31  34
ENDBRANCH  27  28
ENDBRANCH  26  27
ENDBRANCH  25  26
ENDBRANCH  23  25
ENDBRANCH   2  23
TORSDOF 13
ENDMDL
MODEL       21
REMARK 921   NORMALIZED FREE ENERGY PREDICTED BY IDOCK:   -6.12 KCAL/MOL
REMARK 922        TOTAL FREE ENERGY PREDICTED BY IDOCK:  -13.94 KCAL/MOL
REMARK 923 INTER-LIGAND FREE ENERGY PREDICTED BY IDOCK:  -11.16 KCAL/MOL
REMARK 924 INTRA-LIGAND FREE ENERGY PREDICTED BY IDOCK:   -2.78 KCAL/MOL
REMARK 927      BINDING AFFINITY PREDICTED BY RF-SCORE:    0.00 PKD
ROOT
HETATM    1  C   UNL     1     -10.649  18.230  67.328  1.00  0.00    -0.406 C  
HETATM    2  C   UNL     1     -10.249  17.006  68.162  1.00  0.00    -0.322 C  
ENDROOT
BRANCH   2   3
HETATM    3  C   UNL     1     -10.966  16.966  69.530  1.00  0.00    -0.053 C  
BRANCH   3   4
HETATM    4  C   UNL     1     -11.493  15.607  69.891  1.00  0.00    -0.344 A  
HETATM    5  C   UNL     1     -11.246  14.518  69.047  1.00  0.00    -0.289 A  
HETATM    6  C   UNL     1     -13.636  12.250  72.362  1.00  0.00    -0.069 A  
HETATM    7  C   UNL     1     -12.233  15.404  71.047  1.00  0.00    -0.431 A  
HETATM    8  C   UNL     1     -12.675  14.118  71.332  1.00  0.00    -0.439 A  
HETATM    9  C   UNL     1     -11.675  13.204  69.356  1.00  0.00    -0.386 A  
HETATM   10  C   UNL     1     -12.428  12.991  70.516  1.00  0.00    -0.231 A  
HETATM   11  C   UNL     1     -13.478  13.757  72.537  1.00  0.00    -0.682 A  
HETATM   12  N   UNL     1     -13.021  11.875  71.082  1.00  0.00    -0.250 NA 
BRANCH  12  13
HETATM   13  C   UNL     1     -12.985  10.477  70.701  1.00  0.00    -0.285 C  
BRANCH  13  14
HETATM   14  C   UNL     1     -12.041   9.671  71.596  1.00  0.00    -0.481 C  
BRANCH  14  15
HETATM   15  C   UNL     1     -12.482   8.229  71.799  1.00  0.00    -0.332 C  
HETATM   16  O   UNL     1     -11.881   7.718  72.990  1.00  0.00    -0.617 OA 
HETATM   17  H   UNL     1     -12.156   6.817  73.116  1.00  0.00     0.000 HD 
ENDBRANCH  14  15
ENDBRANCH  13  14
ENDBRANCH  12  13
BRANCH   9  18
HETATM   18  C   UNL     1     -11.281  12.194  68.340  1.00  0.00    -0.265 C  
HETATM   19  N   UNL     1      -9.939  11.892  68.273  1.00  0.00    -0.198 N  
HETATM   20  O   UNL     1     -12.058  11.676  67.546  1.00  0.00    -0.611 OA 
HETATM   21  H2  UNL     1      -9.255  12.336  68.886  1.00  0.00     0.000 HD 
HETATM   22  H1  UNL     1      -9.668  11.199  67.575  1.00  0.00     0.000 HD 
ENDBRANCH   9  18
ENDBRANCH   3   4
ENDBRANCH   2   3
BRANCH   2  23
HETATM   23  N   UNL     1      -8.783  17.010  68.318  1.00  0.00    -0.233 NA 
HETATM   24  H   UNL     1      -8.529  16.995  69.305  1.00  0.00     0.000 HD 
BRANCH  23  25
HETATM   25  C   UNL     1      -8.099  15.929  67.590  1.00  0.00    -0.144 C  
BRANCH  25  26
HETATM   26  C   UNL     1      -8.752  15.562  66.240  1.00  0.00    -0.248 C  
BRANCH  26  27
HETATM   27  O   UNL     1      -9.267  14.224  66.223  1.00  0.00    -0.244 OA 
BRANCH  27  28
HETATM   28  C   UNL     1     -10.301  13.965  65.359  1.00  0.00    -0.348 A  
HETATM   29  C   UNL     1     -11.363  12.405  63.840  1.00  0.00    -0.502 A  
HETATM   30  C   UNL     1     -11.241  14.932  64.960  1.00  0.00    -0.408 A  
HETATM   31  C   UNL     1     -10.377  12.686  64.785  1.00  0.00    -0.312 A  
HETATM   32  C   UNL     1     -12.283  13.380  63.446  1.00  0.00    -0.419 A  
HETATM   33  C   UNL     1     -12.215  14.649  64.010  1.00  0.00    -0.226 A  
BRANCH  31  34
HETATM   34  O   UNL     1      -9.480  11.666  64.967  1.00  0.00    -0.205 OA 
BRANCH  34  35
HETATM   35  C   UNL     1      -9.955  10.336  64.726  1.00  0.00    -0.321 C  
HETATM   36  C   UNL     1      -9.269   9.301  65.612  1.00  0.00    -0.231 C  
HETATM   37  F   UNL     1      -8.478   9.846  66.561  1.00  0.00    -0.121 F  
HETATM   38  F   UNL     1     -10.176   8.512  66.234  1.00  0.00    -0.350 F  
HETATM   39  F   UNL     1      -8.485   8.480  64.863  1.00  0.00    -0.155 F  
ENDBRANCH  34  35
ENDBRANCH  31  34
ENDBRANCH  27  28
ENDBRANCH  26  27
ENDBRANCH  25  26
ENDBRANCH  23  25
ENDBRANCH   2  23
TORSDOF 13
ENDMDL
MODEL       22
REMARK 921   NORMALIZED FREE ENERGY PREDICTED BY IDOCK:   -6.08 KCAL/MOL
REMARK 922        TOTAL FREE ENERGY PREDICTED BY IDOCK:  -13.86 KCAL/MOL
REMARK 923 INTER-LIGAND FREE ENERGY PREDICTED BY IDOCK:  -11.97 KCAL/MOL
REMARK 924 INTRA-LIGAND FREE ENERGY PREDICTED BY IDOCK:   -1.90 KCAL/MOL
REMARK 927      BINDING AFFINITY PREDICTED BY RF-SCORE:    0.00 PKD
ROOT
HETATM    1  C   UNL     1     -14.399  14.919  71.711  1.00  0.00    -0.668 C  
HETATM    2  C   UNL     1     -13.192  13.975  71.624  1.00  0.00    -0.368 C  
ENDROOT
BRANCH   2   3
HETATM    3  C   UNL     1     -13.498  12.575  72.203  1.00  0.00    -0.523 C  
BRANCH   3   4
HETATM    4  C   UNL     1     -12.825  11.458  71.457  1.00  0.00    -0.508 A  
HETATM    5  C   UNL     1     -12.893  10.151  71.951  1.00  0.00    -0.526 A  
HETATM    6  C   UNL     1     -10.404   9.267  68.096  1.00  0.00    -0.215 A  
HETATM    7  C   UNL     1     -12.122  11.695  70.284  1.00  0.00    -0.443 A  
HETATM    8  C   UNL     1     -11.538  10.617  69.634  1.00  0.00    -0.368 A  
HETATM    9  C   UNL     1     -12.320   9.049  71.269  1.00  0.00    -0.361 A  
HETATM   10  C   UNL     1     -11.604   9.280  70.089  1.00  0.00    -0.045 A  
HETATM   11  C   UNL     1     -10.756  10.726  68.367  1.00  0.00    -0.255 A  
HETATM   12  N   UNL     1     -10.906   8.463  69.217  1.00  0.00    -0.122 NA 
BRANCH  12  13
HETATM   13  C   UNL     1     -10.749   7.022  69.176  1.00  0.00    -0.218 C  
BRANCH  13  14
HETATM   14  C   UNL     1      -9.372   6.618  68.645  1.00  0.00    -0.129 C  
BRANCH  14  15
HETATM   15  C   UNL     1      -9.435   5.730  67.411  1.00  0.00    -0.112 C  
HETATM   16  O   UNL     1     -10.786   5.657  66.954  1.00  0.00    -0.409 OA 
HETATM   17  H   UNL     1     -10.826   5.103  66.183  1.00  0.00     0.000 HD 
ENDBRANCH  14  15
ENDBRANCH  13  14
ENDBRANCH  12  13
BRANCH   9  18
HETATM   18  C   UNL     1     -12.537   7.747  71.952  1.00  0.00    -0.311 C  
HETATM   19  N   UNL     1     -11.593   7.389  72.889  1.00  0.00    -0.581 N  
HETATM   20  O   UNL     1     -13.453   6.976  71.690  1.00  0.00    -0.365 OA 
HETATM   21  H2  UNL     1     -10.792   7.984  73.102  1.00  0.00     0.000 HD 
HETATM   22  H1  UNL     1     -11.741   6.495  73.358  1.00  0.00     0.000 HD 
ENDBRANCH   9  18
ENDBRANCH   3   4
ENDBRANCH   2   3
BRANCH   2  23
HETATM   23  N   UNL     1     -12.056  14.611  72.314  1.00  0.00    -0.263 NA 
HETATM   24  H   UNL     1     -11.388  13.907  72.627  1.00  0.00     0.000 HD 
BRANCH  23  25
HETATM   25  C   UNL     1     -11.377  15.649  71.520  1.00  0.00    -0.381 C  
BRANCH  25  26
HETATM   26  C   UNL     1     -10.648  15.115  70.269  1.00  0.00    -0.166 C  
BRANCH  26  27
HETATM   27  O   UNL     1     -11.510  15.024  69.126  1.00  0.00    -0.268 OA 
BRANCH  27  28
HETATM   28  C   UNL     1     -11.142  15.732  68.011  1.00  0.00    -0.337 A  
HETATM   29  C   UNL     1     -10.902  15.783  65.601  1.00  0.00    -0.316 A  
HETATM   30  C   UNL     1     -10.516  16.990  68.060  1.00  0.00    -0.353 A  
HETATM   31  C   UNL     1     -11.335  15.133  66.755  1.00  0.00    -0.248 A  
HETATM   32  C   UNL     1     -10.271  17.028  65.667  1.00  0.00    -0.196 A  
HETATM   33  C   UNL     1     -10.077  17.629  66.906  1.00  0.00    -0.331 A  
BRANCH  31  34
HETATM   34  O   UNL     1     -11.818  13.870  66.531  1.00  0.00    -0.370 OA 
BRANCH  34  35
HETATM   35  C   UNL     1     -12.789  13.726  65.488  1.00  0.00    -0.419 C  
HETATM   36  C   UNL     1     -12.367  12.707  64.434  1.00  0.00    -0.446 C  
HETATM   37  F   UNL     1     -11.255  12.019  64.766  1.00  0.00    -0.335 F  
HETATM   38  F   UNL     1     -13.352  11.809  64.199  1.00  0.00    -0.436 F  
HETATM   39  F   UNL     1     -12.114  13.327  63.249  1.00  0.00    -0.570 F  
ENDBRANCH  34  35
ENDBRANCH  31  34
ENDBRANCH  27  28
ENDBRANCH  26  27
ENDBRANCH  25  26
ENDBRANCH  23  25
ENDBRANCH   2  23
TORSDOF 13
ENDMDL
MODEL       23
REMARK 921   NORMALIZED FREE ENERGY PREDICTED BY IDOCK:   -6.08 KCAL/MOL
REMARK 922        TOTAL FREE ENERGY PREDICTED BY IDOCK:  -13.86 KCAL/MOL
REMARK 923 INTER-LIGAND FREE ENERGY PREDICTED BY IDOCK:  -10.61 KCAL/MOL
REMARK 924 INTRA-LIGAND FREE ENERGY PREDICTED BY IDOCK:   -3.25 KCAL/MOL
REMARK 927      BINDING AFFINITY PREDICTED BY RF-SCORE:    0.00 PKD
ROOT
HETATM    1  C   UNL     1     -10.840   7.988  72.472  1.00  0.00    -0.415 C  
HETATM    2  C   UNL     1     -11.764   8.399  71.318  1.00  0.00    -0.285 C  
ENDROOT
BRANCH   2   3
HETATM    3  C   UNL     1     -12.886   9.359  71.776  1.00  0.00    -0.484 C  
BRANCH   3   4
HETATM    4  C   UNL     1     -12.684  10.776  71.321  1.00  0.00    -0.546 A  
HETATM    5  C   UNL     1     -12.018  11.033  70.117  1.00  0.00    -0.443 A  
HETATM    6  C   UNL     1     -12.939  15.456  71.312  1.00  0.00    -0.473 A  
HETATM    7  C   UNL     1     -13.136  11.848  72.077  1.00  0.00    -0.441 A  
HETATM    8  C   UNL     1     -12.934  13.133  71.591  1.00  0.00    -0.429 A  
HETATM    9  C   UNL     1     -11.839  12.344  69.611  1.00  0.00    -0.380 A  
HETATM   10  C   UNL     1     -12.286  13.431  70.370  1.00  0.00    -0.345 A  
HETATM   11  C   UNL     1     -13.368  14.374  72.298  1.00  0.00    -0.512 A  
HETATM   12  N   UNL     1     -12.239  14.803  70.198  1.00  0.00    -0.321 NA 
BRANCH  12  13
HETATM   13  C   UNL     1     -11.776  15.612  69.087  1.00  0.00    -0.390 C  
BRANCH  13  14
HETATM   14  C   UNL     1     -10.719  16.626  69.528  1.00  0.00    -0.306 C  
BRANCH  14  15
HETATM   15  C   UNL     1      -9.294  16.193  69.214  1.00  0.00    -0.227 C  
HETATM   16  O   UNL     1      -9.015  14.970  69.898  1.00  0.00    -0.451 OA 
HETATM   17  H   UNL     1      -8.125  14.699  69.701  1.00  0.00     0.000 HD 
ENDBRANCH  14  15
ENDBRANCH  13  14
ENDBRANCH  12  13
BRANCH   9  18
HETATM   18  C   UNL     1     -11.135  12.387  68.303  1.00  0.00    -0.243 C  
HETATM   19  N   UNL     1     -11.809  11.844  67.233  1.00  0.00    -0.233 N  
HETATM   20  O   UNL     1      -9.997  12.818  68.148  1.00  0.00    -0.218 OA 
HETATM   21  H2  UNL     1     -12.738  11.436  67.332  1.00  0.00     0.000 HD 
HETATM   22  H1  UNL     1     -11.326  11.873  66.334  1.00  0.00     0.000 HD 
ENDBRANCH   9  18
ENDBRANCH   3   4
ENDBRANCH   2   3
BRANCH   2  23
HETATM   23  N   UNL     1     -12.314   7.176  70.706  1.00  0.00    -0.567 NA 
HETATM   24  H   UNL     1     -12.979   7.412  69.971  1.00  0.00     0.000 HD 
BRANCH  23  25
HETATM   25  C   UNL     1     -11.290   6.247  70.199  1.00  0.00    -0.406 C  
BRANCH  25  26
HETATM   26  C   UNL     1     -11.031   6.358  68.681  1.00  0.00    -0.330 C  
BRANCH  26  27
HETATM   27  O   UNL     1      -9.639   6.509  68.370  1.00  0.00    -0.124 OA 
BRANCH  27  28
HETATM   28  C   UNL     1      -8.964   7.519  69.008  1.00  0.00    -0.131 A  
HETATM   29  C   UNL     1      -8.484   9.889  69.158  1.00  0.00    -0.148 A  
HETATM   30  C   UNL     1      -7.991   7.299  69.998  1.00  0.00    -0.117 A  
HETATM   31  C   UNL     1      -9.207   8.839  68.593  1.00  0.00    -0.141 A  
HETATM   32  C   UNL     1      -7.512   9.653  70.133  1.00  0.00    -0.157 A  
HETATM   33  C   UNL     1      -7.266   8.350  70.549  1.00  0.00    -0.042 A  
BRANCH  31  34
HETATM   34  O   UNL     1     -10.029   9.223  67.566  1.00  0.00    -0.178 OA 
BRANCH  34  35
HETATM   35  C   UNL     1      -9.676   8.770  66.253  1.00  0.00    -0.272 C  
HETATM   36  C   UNL     1      -9.137   9.893  65.373  1.00  0.00    -0.196 C  
HETATM   37  F   UNL     1      -8.936  11.049  66.040  1.00  0.00    -0.172 F  
HETATM   38  F   UNL     1      -7.964   9.542  64.795  1.00  0.00    -0.107 F  
HETATM   39  F   UNL     1     -10.006  10.163  64.361  1.00  0.00    -0.379 F  
ENDBRANCH  34  35
ENDBRANCH  31  34
ENDBRANCH  27  28
ENDBRANCH  26  27
ENDBRANCH  25  26
ENDBRANCH  23  25
ENDBRANCH   2  23
TORSDOF 13
ENDMDL
MODEL       24
REMARK 921   NORMALIZED FREE ENERGY PREDICTED BY IDOCK:   -6.04 KCAL/MOL
REMARK 922        TOTAL FREE ENERGY PREDICTED BY IDOCK:  -13.80 KCAL/MOL
REMARK 923 INTER-LIGAND FREE ENERGY PREDICTED BY IDOCK:  -10.69 KCAL/MOL
REMARK 924 INTRA-LIGAND FREE ENERGY PREDICTED BY IDOCK:   -3.11 KCAL/MOL
REMARK 927      BINDING AFFINITY PREDICTED BY RF-SCORE:    0.00 PKD
ROOT
HETATM    1  C   UNL     1     -11.482   7.883  72.746  1.00  0.00    -0.428 C  
HETATM    2  C   UNL     1     -12.068   8.584  71.513  1.00  0.00    -0.304 C  
ENDROOT
BRANCH   2   3
HETATM    3  C   UNL     1     -13.148   9.624  71.886  1.00  0.00    -0.530 C  
BRANCH   3   4
HETATM    4  C   UNL     1     -12.871  10.997  71.342  1.00  0.00    -0.548 A  
HETATM    5  C   UNL     1     -12.255  11.140  70.094  1.00  0.00    -0.417 A  
HETATM    6  C   UNL     1     -12.794  15.675  71.083  1.00  0.00    -0.480 A  
HETATM    7  C   UNL     1     -13.205  12.137  72.059  1.00  0.00    -0.496 A  
HETATM    8  C   UNL     1     -12.938  13.376  71.492  1.00  0.00    -0.429 A  
HETATM    9  C   UNL     1     -12.011  12.406  69.507  1.00  0.00    -0.324 A  
HETATM   10  C   UNL     1     -12.338  13.561  70.225  1.00  0.00    -0.300 A  
HETATM   11  C   UNL     1     -13.245  14.681  72.148  1.00  0.00    -0.450 A  
HETATM   12  N   UNL     1     -12.204  14.915  69.974  1.00  0.00    -0.328 NA 
BRANCH  12  13
HETATM   13  C   UNL     1     -11.745  15.628  68.797  1.00  0.00    -0.370 C  
BRANCH  13  14
HETATM   14  C   UNL     1     -10.687  16.677  69.148  1.00  0.00    -0.342 C  
BRANCH  14  15
HETATM   15  C   UNL     1      -9.260  16.160  69.033  1.00  0.00    -0.252 C  
HETATM   16  O   UNL     1      -9.175  14.877  69.655  1.00  0.00    -0.434 OA 
HETATM   17  H   UNL     1      -8.284  14.554  69.582  1.00  0.00     0.000 HD 
ENDBRANCH  14  15
ENDBRANCH  13  14
ENDBRANCH  12  13
BRANCH   9  18
HETATM   18  C   UNL     1     -11.377  12.328  68.165  1.00  0.00    -0.295 C  
HETATM   19  N   UNL     1     -10.024  12.580  68.118  1.00  0.00    -0.219 N  
HETATM   20  O   UNL     1     -11.990  12.114  67.125  1.00  0.00    -0.580 OA 
HETATM   21  H2  UNL     1      -9.488  12.806  68.955  1.00  0.00     0.000 HD 
HETATM   22  H1  UNL     1      -9.589  12.527  67.196  1.00  0.00     0.000 HD 
ENDBRANCH   9  18
ENDBRANCH   3   4
ENDBRANCH   2   3
BRANCH   2  23
HETATM   23  N   UNL     1     -12.598   7.554  70.602  1.00  0.00    -0.544 NA 
HETATM   24  H   UNL     1     -12.769   7.949  69.678  1.00  0.00     0.000 HD 
BRANCH  23  25
HETATM   25  C   UNL     1     -11.756   6.350  70.502  1.00  0.00    -0.317 C  
BRANCH  25  26
HETATM   26  C   UNL     1     -10.989   6.221  69.168  1.00  0.00    -0.377 C  
BRANCH  26  27
HETATM   27  O   UNL     1      -9.750   6.942  69.173  1.00  0.00    -0.154 OA 
BRANCH  27  28
HETATM   28  C   UNL     1      -9.541   7.828  68.147  1.00  0.00    -0.151 A  
HETATM   29  C   UNL     1      -8.058   9.422  67.084  1.00  0.00    -0.102 A  
HETATM   30  C   UNL     1     -10.535   8.198  67.225  1.00  0.00    -0.379 A  
HETATM   31  C   UNL     1      -8.287   8.455  68.062  1.00  0.00    -0.128 A  
HETATM   32  C   UNL     1      -9.059   9.786  66.181  1.00  0.00    -0.198 A  
HETATM   33  C   UNL     1     -10.303   9.170  66.258  1.00  0.00    -0.166 A  
BRANCH  31  34
HETATM   34  O   UNL     1      -7.249   8.304  68.945  1.00  0.00    -0.074 OA 
BRANCH  34  35
HETATM   35  C   UNL     1      -7.162   9.259  70.009  1.00  0.00    -0.078 C  
HETATM   36  C   UNL     1      -7.505   8.655  71.366  1.00  0.00    -0.105 C  
HETATM   37  F   UNL     1      -7.657   7.314  71.334  1.00  0.00    -0.079 F  
HETATM   38  F   UNL     1      -6.551   8.939  72.284  1.00  0.00    -0.091 F  
HETATM   39  F   UNL     1      -8.669   9.177  71.839  1.00  0.00    -0.219 F  
ENDBRANCH  34  35
ENDBRANCH  31  34
ENDBRANCH  27  28
ENDBRANCH  26  27
ENDBRANCH  25  26
ENDBRANCH  23  25
ENDBRANCH   2  23
TORSDOF 13
ENDMDL
MODEL       25
REMARK 921   NORMALIZED FREE ENERGY PREDICTED BY IDOCK:   -6.03 KCAL/MOL
REMARK 922        TOTAL FREE ENERGY PREDICTED BY IDOCK:  -13.78 KCAL/MOL
REMARK 923 INTER-LIGAND FREE ENERGY PREDICTED BY IDOCK:  -11.45 KCAL/MOL
REMARK 924 INTRA-LIGAND FREE ENERGY PREDICTED BY IDOCK:   -2.33 KCAL/MOL
REMARK 927      BINDING AFFINITY PREDICTED BY RF-SCORE:    0.00 PKD
ROOT
HETATM    1  C   UNL     1      -8.898   8.034  66.617  1.00  0.00    -0.166 C  
HETATM    2  C   UNL     1     -10.397   8.341  66.720  1.00  0.00    -0.290 C  
ENDROOT
BRANCH   2   3
HETATM    3  C   UNL     1     -10.708   9.403  67.799  1.00  0.00    -0.290 C  
BRANCH   3   4
HETATM    4  C   UNL     1     -10.493  10.814  67.331  1.00  0.00    -0.268 A  
HETATM    5  C   UNL     1     -11.439  11.423  66.499  1.00  0.00    -0.093 A  
HETATM    6  C   UNL     1      -8.473  15.017  66.863  1.00  0.00    -0.236 A  
HETATM    7  C   UNL     1      -9.363  11.531  67.698  1.00  0.00    -0.171 A  
HETATM    8  C   UNL     1      -9.233  12.838  67.246  1.00  0.00    -0.203 A  
HETATM    9  C   UNL     1     -11.316  12.766  66.064  1.00  0.00    -0.363 A  
HETATM   10  C   UNL     1     -10.177  13.495  66.424  1.00  0.00    -0.291 A  
HETATM   11  C   UNL     1      -8.074  13.722  67.564  1.00  0.00    -0.192 A  
HETATM   12  N   UNL     1      -9.733  14.776  66.148  1.00  0.00    -0.296 NA 
BRANCH  12  13
HETATM   13  C   UNL     1     -10.363  15.874  65.441  1.00  0.00    -0.372 C  
BRANCH  13  14
HETATM   14  C   UNL     1      -9.832  17.229  65.915  1.00  0.00    -0.148 C  
BRANCH  14  15
HETATM   15  C   UNL     1     -10.659  17.845  67.035  1.00  0.00    -0.279 C  
HETATM   16  O   UNL     1     -11.037  16.821  67.957  1.00  0.00    -0.336 OA 
HETATM   17  H   UNL     1     -11.552  17.206  68.656  1.00  0.00     0.000 HD 
ENDBRANCH  14  15
ENDBRANCH  13  14
ENDBRANCH  12  13
BRANCH   9  18
HETATM   18  C   UNL     1     -12.447  13.223  65.215  1.00  0.00    -0.489 C  
HETATM   19  N   UNL     1     -12.671  12.503  64.063  1.00  0.00    -0.728 N  
HETATM   20  O   UNL     1     -13.132  14.211  65.454  1.00  0.00    -0.743 OA 
HETATM   21  H2  UNL     1     -12.093  11.702  63.808  1.00  0.00     0.000 HD 
HETATM   22  H1  UNL     1     -13.447  12.816  63.480  1.00  0.00     0.000 HD 
ENDBRANCH   9  18
ENDBRANCH   3   4
ENDBRANCH   2   3
BRANCH   2  23
HETATM   23  N   UNL     1     -11.113   7.079  66.980  1.00  0.00    -0.622 NA 
HETATM   24  H   UNL     1     -11.742   6.859  66.208  1.00  0.00     0.000 HD 
BRANCH  23  25
HETATM   25  C   UNL     1     -10.229   5.937  67.267  1.00  0.00    -0.200 C  
BRANCH  25  26
HETATM   26  C   UNL     1     -10.299   5.433  68.725  1.00  0.00    -0.170 C  
BRANCH  26  27
HETATM   27  O   UNL     1     -11.277   6.134  69.504  1.00  0.00    -0.389 OA 
BRANCH  27  28
HETATM   28  C   UNL     1     -11.047   6.229  70.853  1.00  0.00    -0.306 A  
HETATM   29  C   UNL     1     -11.091   7.602  72.849  1.00  0.00    -0.448 A  
HETATM   30  C   UNL     1     -10.427   5.219  71.609  1.00  0.00    -0.280 A  
HETATM   31  C   UNL     1     -11.381   7.432  71.496  1.00  0.00    -0.256 A  
HETATM   32  C   UNL     1     -10.464   6.592  73.584  1.00  0.00    -0.353 A  
HETATM   33  C   UNL     1     -10.130   5.398  72.956  1.00  0.00    -0.201 A  
BRANCH  31  34
HETATM   34  O   UNL     1     -11.879   8.557  70.892  1.00  0.00    -0.281 OA 
BRANCH  34  35
HETATM   35  C   UNL     1     -11.601   9.810  71.530  1.00  0.00    -0.353 C  
HETATM   36  C   UNL     1     -12.448  10.949  70.974  1.00  0.00    -0.411 C  
HETATM   37  F   UNL     1     -13.407  10.538  70.117  1.00  0.00    -0.298 F  
HETATM   38  F   UNL     1     -13.054  11.640  71.969  1.00  0.00    -0.560 F  
HETATM   39  F   UNL     1     -11.668  11.838  70.301  1.00  0.00    -0.370 F  
ENDBRANCH  34  35
ENDBRANCH  31  34
ENDBRANCH  27  28
ENDBRANCH  26  27
ENDBRANCH  25  26
ENDBRANCH  23  25
ENDBRANCH   2  23
TORSDOF 13
ENDMDL
MODEL       26
REMARK 921   NORMALIZED FREE ENERGY PREDICTED BY IDOCK:   -6.02 KCAL/MOL
REMARK 922        TOTAL FREE ENERGY PREDICTED BY IDOCK:  -13.77 KCAL/MOL
REMARK 923 INTER-LIGAND FREE ENERGY PREDICTED BY IDOCK:  -11.38 KCAL/MOL
REMARK 924 INTRA-LIGAND FREE ENERGY PREDICTED BY IDOCK:   -2.39 KCAL/MOL
REMARK 927      BINDING AFFINITY PREDICTED BY RF-SCORE:    0.00 PKD
ROOT
HETATM    1  C   UNL     1     -11.806  12.018  63.376  1.00  0.00    -0.542 C  
HETATM    2  C   UNL     1     -10.937  12.099  64.638  1.00  0.00    -0.312 C  
ENDROOT
BRANCH   2   3
HETATM    3  C   UNL     1     -11.780  12.258  65.924  1.00  0.00    -0.451 C  
BRANCH   3   4
HETATM    4  C   UNL     1     -11.401  11.293  67.011  1.00  0.00    -0.262 A  
HETATM    5  C   UNL     1     -10.550  10.220  66.723  1.00  0.00    -0.252 A  
HETATM    6  C   UNL     1     -11.155   9.375  71.280  1.00  0.00    -0.376 A  
HETATM    7  C   UNL     1     -11.885  11.436  68.303  1.00  0.00    -0.320 A  
HETATM    8  C   UNL     1     -11.481  10.520  69.266  1.00  0.00    -0.323 A  
HETATM    9  C   UNL     1     -10.118   9.305  67.715  1.00  0.00    -0.253 A  
HETATM   10  C   UNL     1     -10.607   9.437  69.019  1.00  0.00    -0.213 A  
HETATM   11  C   UNL     1     -11.923  10.554  70.691  1.00  0.00    -0.455 A  
HETATM   12  N   UNL     1     -10.427   8.717  70.187  1.00  0.00    -0.211 NA 
BRANCH  12  13
HETATM   13  C   UNL     1      -9.566   7.591  70.493  1.00  0.00    -0.168 C  
BRANCH  13  14
HETATM   14  C   UNL     1     -10.364   6.294  70.643  1.00  0.00    -0.254 C  
BRANCH  14  15
HETATM   15  C   UNL     1     -10.690   5.625  69.315  1.00  0.00    -0.280 C  
HETATM   16  O   UNL     1     -11.643   6.424  68.610  1.00  0.00    -0.528 OA 
HETATM   17  H   UNL     1     -11.846   6.007  67.781  1.00  0.00     0.000 HD 
ENDBRANCH  14  15
ENDBRANCH  13  14
ENDBRANCH  12  13
BRANCH   9  18
HETATM   18  C   UNL     1      -9.193   8.261  67.201  1.00  0.00    -0.144 C  
HETATM   19  N   UNL     1      -9.754   7.303  66.386  1.00  0.00    -0.385 N  
HETATM   20  O   UNL     1      -8.008   8.183  67.503  1.00  0.00    -0.118 OA 
HETATM   21  H2  UNL     1     -10.745   7.309  66.150  1.00  0.00     0.000 HD 
HETATM   22  H1  UNL     1      -9.119   6.586  66.033  1.00  0.00     0.000 HD 
ENDBRANCH   9  18
ENDBRANCH   3   4
ENDBRANCH   2   3
BRANCH   2  23
HETATM   23  N   UNL     1      -9.984  13.212  64.473  1.00  0.00    -0.622 NA 
HETATM   24  H   UNL     1      -9.550  13.177  63.551  1.00  0.00     0.000 HD 
BRANCH  23  25
HETATM   25  C   UNL     1     -10.566  14.541  64.721  1.00  0.00    -0.377 C  
BRANCH  25  26
HETATM   26  C   UNL     1      -9.857  15.346  65.832  1.00  0.00    -0.356 C  
BRANCH  26  27
HETATM   27  O   UNL     1     -10.717  16.318  66.442  1.00  0.00    -0.278 OA 
BRANCH  27  28
HETATM   28  C   UNL     1     -11.050  16.116  67.758  1.00  0.00    -0.254 A  
HETATM   29  C   UNL     1     -10.723  16.743  70.075  1.00  0.00    -0.056 A  
HETATM   30  C   UNL     1     -11.871  15.064  68.199  1.00  0.00    -0.286 A  
HETATM   31  C   UNL     1     -10.476  16.962  68.721  1.00  0.00    -0.343 A  
HETATM   32  C   UNL     1     -11.533  15.686  70.498  1.00  0.00    -0.380 A  
HETATM   33  C   UNL     1     -12.105  14.844  69.552  1.00  0.00    -0.315 A  
BRANCH  31  34
HETATM   34  O   UNL     1      -9.565  17.957  68.479  1.00  0.00    -0.301 OA 
BRANCH  34  35
HETATM   35  C   UNL     1     -10.088  19.233  68.093  1.00  0.00    -0.412 C  
HETATM   36  C   UNL     1      -9.660  19.640  66.687  1.00  0.00    -0.380 C  
HETATM   37  F   UNL     1      -9.018  18.660  66.016  1.00  0.00    -0.284 F  
HETATM   38  F   UNL     1     -10.723  20.021  65.942  1.00  0.00    -0.540 F  
HETATM   39  F   UNL     1      -8.816  20.706  66.736  1.00  0.00    -0.351 F  
ENDBRANCH  34  35
ENDBRANCH  31  34
ENDBRANCH  27  28
ENDBRANCH  26  27
ENDBRANCH  25  26
ENDBRANCH  23  25
ENDBRANCH   2  23
TORSDOF 13
ENDMDL
MODEL       27
REMARK 921   NORMALIZED FREE ENERGY PREDICTED BY IDOCK:   -6.02 KCAL/MOL
REMARK 922        TOTAL FREE ENERGY PREDICTED BY IDOCK:  -13.77 KCAL/MOL
REMARK 923 INTER-LIGAND FREE ENERGY PREDICTED BY IDOCK:  -11.32 KCAL/MOL
REMARK 924 INTRA-LIGAND FREE ENERGY PREDICTED BY IDOCK:   -2.45 KCAL/MOL
REMARK 927      BINDING AFFINITY PREDICTED BY RF-SCORE:    0.00 PKD
ROOT
HETATM    1  C   UNL     1     -10.551   9.080  71.829  1.00  0.00    -0.426 C  
HETATM    2  C   UNL     1     -12.048   8.833  71.597  1.00  0.00    -0.337 C  
ENDROOT
BRANCH   2   3
HETATM    3  C   UNL     1     -12.889  10.118  71.767  1.00  0.00    -0.554 C  
BRANCH   3   4
HETATM    4  C   UNL     1     -12.535  11.200  70.786  1.00  0.00    -0.479 A  
HETATM    5  C   UNL     1     -12.675  12.543  71.152  1.00  0.00    -0.340 A  
HETATM    6  C   UNL     1     -11.016  13.207  66.833  1.00  0.00    -0.276 A  
HETATM    7  C   UNL     1     -12.077  10.897  69.512  1.00  0.00    -0.380 A  
HETATM    8  C   UNL     1     -11.750  11.943  68.660  1.00  0.00    -0.380 A  
HETATM    9  C   UNL     1     -12.313  13.608  70.289  1.00  0.00    -0.392 A  
HETATM   10  C   UNL     1     -11.857  13.312  69.001  1.00  0.00    -0.321 A  
HETATM   11  C   UNL     1     -11.246  11.763  67.267  1.00  0.00    -0.364 A  
HETATM   12  N   UNL     1     -11.466  14.085  67.921  1.00  0.00    -0.298 NA 
BRANCH  12  13
HETATM   13  C   UNL     1     -11.302  15.518  67.783  1.00  0.00    -0.286 C  
BRANCH  13  14
HETATM   14  C   UNL     1      -9.830  15.906  67.621  1.00  0.00    -0.233 C  
BRANCH  14  15
HETATM   15  C   UNL     1      -9.161  16.307  68.928  1.00  0.00    -0.249 C  
HETATM   16  O   UNL     1      -9.089  15.167  69.787  1.00  0.00    -0.444 OA 
HETATM   17  H   UNL     1      -8.671  15.418  70.603  1.00  0.00     0.000 HD 
ENDBRANCH  14  15
ENDBRANCH  13  14
ENDBRANCH  12  13
BRANCH   9  18
HETATM   18  C   UNL     1     -12.513  14.954  70.887  1.00  0.00    -0.330 C  
HETATM   19  N   UNL     1     -13.787  15.470  70.807  1.00  0.00    -0.865 N  
HETATM   20  O   UNL     1     -11.616  15.627  71.382  1.00  0.00    -0.356 OA 
HETATM   21  H2  UNL     1     -14.549  14.958  70.363  1.00  0.00     0.000 HD 
HETATM   22  H1  UNL     1     -13.924  16.394  71.218  1.00  0.00     0.000 HD 
ENDBRANCH   9  18
ENDBRANCH   3   4
ENDBRANCH   2   3
BRANCH   2  23
HETATM   23  N   UNL     1     -12.491   7.770  72.516  1.00  0.00    -0.554 NA 
HETATM   24  H   UNL     1     -13.444   7.944  72.832  1.00  0.00     0.000 HD 
BRANCH  23  25
HETATM   25  C   UNL     1     -12.369   6.410  71.964  1.00  0.00    -0.216 C  
BRANCH  25  26
HETATM   26  C   UNL     1     -11.485   5.462  72.804  1.00  0.00    -0.268 C  
BRANCH  26  27
HETATM   27  O   UNL     1     -10.124   5.434  72.353  1.00  0.00    -0.173 OA 
BRANCH  27  28
HETATM   28  C   UNL     1      -9.790   4.466  71.440  1.00  0.00    -0.192 A  
HETATM   29  C   UNL     1      -9.264   3.907  69.143  1.00  0.00    -0.222 A  
HETATM   30  C   UNL     1      -9.771   3.091  71.737  1.00  0.00    -0.231 A  
HETATM   31  C   UNL     1      -9.528   4.866  70.120  1.00  0.00    -0.172 A  
HETATM   32  C   UNL     1      -9.259   2.545  69.451  1.00  0.00    -0.194 A  
HETATM   33  C   UNL     1      -9.518   2.140  70.755  1.00  0.00    -0.197 A  
BRANCH  31  34
HETATM   34  O   UNL     1      -9.620   6.143  69.632  1.00  0.00    -0.146 OA 
BRANCH  34  35
HETATM   35  C   UNL     1     -10.829   6.486  68.943  1.00  0.00    -0.301 C  
HETATM   36  C   UNL     1     -10.568   7.054  67.552  1.00  0.00    -0.280 C  
HETATM   37  F   UNL     1      -9.276   6.968  67.171  1.00  0.00    -0.126 F  
HETATM   38  F   UNL     1     -11.316   6.422  66.618  1.00  0.00    -0.425 F  
HETATM   39  F   UNL     1     -10.911   8.369  67.503  1.00  0.00    -0.315 F  
ENDBRANCH  34  35
ENDBRANCH  31  34
ENDBRANCH  27  28
ENDBRANCH  26  27
ENDBRANCH  25  26
ENDBRANCH  23  25
ENDBRANCH   2  23
TORSDOF 13
ENDMDL
MODEL       28
REMARK 921   NORMALIZED FREE ENERGY PREDICTED BY IDOCK:   -5.98 KCAL/MOL
REMARK 922        TOTAL FREE ENERGY PREDICTED BY IDOCK:  -13.69 KCAL/MOL
REMARK 923 INTER-LIGAND FREE ENERGY PREDICTED BY IDOCK:  -10.71 KCAL/MOL
REMARK 924 INTRA-LIGAND FREE ENERGY PREDICTED BY IDOCK:   -2.98 KCAL/MOL
REMARK 927      BINDING AFFINITY PREDICTED BY RF-SCORE:    0.00 PKD
ROOT
HETATM    1  C   UNL     1      -7.707   5.736  65.972  1.00  0.00    -0.095 C  
HETATM    2  C   UNL     1      -8.617   6.966  65.866  1.00  0.00    -0.145 C  
ENDROOT
BRANCH   2   3
HETATM    3  C   UNL     1      -8.203   8.091  66.842  1.00  0.00    -0.115 C  
BRANCH   3   4
HETATM    4  C   UNL     1      -9.123   9.278  66.814  1.00  0.00    -0.170 A  
HETATM    5  C   UNL     1      -9.428   9.893  65.595  1.00  0.00    -0.295 A  
HETATM    6  C   UNL     1     -12.032  12.607  68.369  1.00  0.00    -0.221 A  
HETATM    7  C   UNL     1      -9.675   9.790  67.980  1.00  0.00    -0.165 A  
HETATM    8  C   UNL     1     -10.533  10.878  67.882  1.00  0.00    -0.227 A  
HETATM    9  C   UNL     1     -10.326  10.985  65.498  1.00  0.00    -0.321 A  
HETATM   10  C   UNL     1     -10.882  11.512  66.668  1.00  0.00    -0.287 A  
HETATM   11  C   UNL     1     -11.196  11.528  69.051  1.00  0.00    -0.324 A  
HETATM   12  N   UNL     1     -11.739  12.567  66.931  1.00  0.00    -0.432 NA 
BRANCH  12  13
HETATM   13  C   UNL     1     -12.453  13.461  66.042  1.00  0.00    -0.369 C  
BRANCH  13  14
HETATM   14  C   UNL     1     -11.650  14.733  65.754  1.00  0.00    -0.290 C  
BRANCH  14  15
HETATM   15  C   UNL     1     -11.873  15.287  64.354  1.00  0.00    -0.281 C  
HETATM   16  O   UNL     1     -12.346  14.240  63.506  1.00  0.00    -1.080 OA 
HETATM   17  H   UNL     1     -12.485  14.586  62.632  1.00  0.00     0.000 HD 
ENDBRANCH  14  15
ENDBRANCH  13  14
ENDBRANCH  12  13
BRANCH   9  18
HETATM   18  C   UNL     1     -10.532  11.465  64.106  1.00  0.00    -0.363 C  
HETATM   19  N   UNL     1      -9.419  11.961  63.465  1.00  0.00    -0.565 N  
HETATM   20  O   UNL     1     -11.620  11.491  63.541  1.00  0.00    -0.397 OA 
HETATM   21  H2  UNL     1      -8.507  11.997  63.918  1.00  0.00     0.000 HD 
HETATM   22  H1  UNL     1      -9.561  12.291  62.509  1.00  0.00     0.000 HD 
ENDBRANCH   9  18
ENDBRANCH   3   4
ENDBRANCH   2   3
BRANCH   2  23
HETATM   23  N   UNL     1     -10.008   6.536  66.094  1.00  0.00    -0.409 NA 
HETATM   24  H   UNL     1     -10.391   6.103  65.254  1.00  0.00     0.000 HD 
BRANCH  23  25
HETATM   25  C   UNL     1     -10.179   5.647  67.256  1.00  0.00    -0.206 C  
BRANCH  25  26
HETATM   26  C   UNL     1     -10.984   6.270  68.417  1.00  0.00    -0.325 C  
BRANCH  26  27
HETATM   27  O   UNL     1     -10.487   5.879  69.704  1.00  0.00    -0.221 OA 
BRANCH  27  28
HETATM   28  C   UNL     1      -9.705   6.787  70.371  1.00  0.00    -0.175 A  
HETATM   29  C   UNL     1      -9.591   8.788  71.732  1.00  0.00    -0.371 A  
HETATM   30  C   UNL     1      -8.301   6.805  70.297  1.00  0.00    -0.134 A  
HETATM   31  C   UNL     1     -10.346   7.798  71.105  1.00  0.00    -0.200 A  
HETATM   32  C   UNL     1      -8.198   8.798  71.641  1.00  0.00    -0.171 A  
HETATM   33  C   UNL     1      -7.554   7.801  70.917  1.00  0.00    -0.079 A  
BRANCH  31  34
HETATM   34  O   UNL     1     -11.700   8.000  71.185  1.00  0.00    -0.281 OA 
BRANCH  34  35
HETATM   35  C   UNL     1     -12.177   8.740  72.315  1.00  0.00    -0.358 C  
HETATM   36  C   UNL     1     -13.436   9.540  72.001  1.00  0.00    -0.443 C  
HETATM   37  F   UNL     1     -13.954   9.270  70.784  1.00  0.00    -0.279 F  
HETATM   38  F   UNL     1     -14.403   9.311  72.920  1.00  0.00    -0.375 F  
HETATM   39  F   UNL     1     -13.173  10.874  72.035  1.00  0.00    -0.538 F  
ENDBRANCH  34  35
ENDBRANCH  31  34
ENDBRANCH  27  28
ENDBRANCH  26  27
ENDBRANCH  25  26
ENDBRANCH  23  25
ENDBRANCH   2  23
TORSDOF 13
ENDMDL
MODEL       29
REMARK 921   NORMALIZED FREE ENERGY PREDICTED BY IDOCK:   -5.97 KCAL/MOL
REMARK 922        TOTAL FREE ENERGY PREDICTED BY IDOCK:  -13.68 KCAL/MOL
REMARK 923 INTER-LIGAND FREE ENERGY PREDICTED BY IDOCK:  -10.96 KCAL/MOL
REMARK 924 INTRA-LIGAND FREE ENERGY PREDICTED BY IDOCK:   -2.72 KCAL/MOL
REMARK 927      BINDING AFFINITY PREDICTED BY RF-SCORE:    0.00 PKD
ROOT
HETATM    1  C   UNL     1      -8.292  14.189  67.485  1.00  0.00    -0.194 C  
HETATM    2  C   UNL     1      -9.044  12.865  67.297  1.00  0.00    -0.208 C  
ENDROOT
BRANCH   2   3
HETATM    3  C   UNL     1      -8.276  11.662  67.891  1.00  0.00    -0.141 C  
BRANCH   3   4
HETATM    4  C   UNL     1      -9.070  10.884  68.901  1.00  0.00    -0.151 A  
HETATM    5  C   UNL     1      -8.434   9.925  69.697  1.00  0.00    -0.198 A  
HETATM    6  C   UNL     1     -12.744   9.481  71.450  1.00  0.00    -0.358 A  
HETATM    7  C   UNL     1     -10.434  11.088  69.058  1.00  0.00    -0.242 A  
HETATM    8  C   UNL     1     -11.106  10.348  70.022  1.00  0.00    -0.379 A  
HETATM    9  C   UNL     1      -9.119   9.193  70.699  1.00  0.00    -0.307 A  
HETATM   10  C   UNL     1     -10.495   9.387  70.860  1.00  0.00    -0.310 A  
HETATM   11  C   UNL     1     -12.568  10.465  70.298  1.00  0.00    -0.262 A  
HETATM   12  N   UNL     1     -11.450   8.828  71.690  1.00  0.00    -0.292 NA 
BRANCH  12  13
HETATM   13  C   UNL     1     -11.331   7.881  72.781  1.00  0.00    -0.393 C  
BRANCH  13  14
HETATM   14  C   UNL     1     -11.598   6.447  72.317  1.00  0.00    -0.341 C  
BRANCH  14  15
HETATM   15  C   UNL     1     -11.006   5.391  73.240  1.00  0.00    -0.307 C  
HETATM   16  O   UNL     1      -9.582   5.501  73.225  1.00  0.00    -0.145 OA 
HETATM   17  H   UNL     1      -9.213   4.842  73.802  1.00  0.00     0.000 HD 
ENDBRANCH  14  15
ENDBRANCH  13  14
ENDBRANCH  12  13
BRANCH   9  18
HETATM   18  C   UNL     1      -8.248   8.251  71.448  1.00  0.00    -0.131 C  
HETATM   19  N   UNL     1      -8.215   6.955  70.983  1.00  0.00    -0.117 N  
HETATM   20  O   UNL     1      -7.622   8.548  72.459  1.00  0.00    -0.250 OA 
HETATM   21  H2  UNL     1      -8.758   6.659  70.172  1.00  0.00     0.000 HD 
HETATM   22  H1  UNL     1      -7.618   6.307  71.498  1.00  0.00     0.000 HD 
ENDBRANCH   9  18
ENDBRANCH   3   4
ENDBRANCH   2   3
BRANCH   2  23
HETATM   23  N   UNL     1      -9.308  12.682  65.859  1.00  0.00    -0.446 NA 
HETATM   24  H   UNL     1      -9.317  11.691  65.620  1.00  0.00     0.000 HD 
BRANCH  23  25
HETATM   25  C   UNL     1     -10.539  13.339  65.387  1.00  0.00    -0.296 C  
BRANCH  25  26
HETATM   26  C   UNL     1     -11.679  13.370  66.427  1.00  0.00    -0.368 C  
BRANCH  26  27
HETATM   27  O   UNL     1     -11.961  14.696  66.896  1.00  0.00    -0.373 OA 
BRANCH  27  28
HETATM   28  C   UNL     1     -11.872  14.910  68.248  1.00  0.00    -0.278 A  
HETATM   29  C   UNL     1     -11.084  16.321  70.053  1.00  0.00    -0.351 A  
HETATM   30  C   UNL     1     -12.282  13.973  69.212  1.00  0.00    -0.319 A  
HETATM   31  C   UNL     1     -11.268  16.099  68.689  1.00  0.00    -0.369 A  
HETATM   32  C   UNL     1     -11.487  15.376  70.998  1.00  0.00    -0.407 A  
HETATM   33  C   UNL     1     -12.086  14.196  70.571  1.00  0.00    -0.420 A  
BRANCH  31  34
HETATM   34  O   UNL     1     -10.706  17.062  67.891  1.00  0.00    -0.356 OA 
BRANCH  34  35
HETATM   35  C   UNL     1      -9.983  18.107  68.551  1.00  0.00    -0.395 C  
HETATM   36  C   UNL     1     -10.298  19.486  67.982  1.00  0.00    -0.445 C  
HETATM   37  F   UNL     1     -11.312  19.480  67.091  1.00  0.00    -0.540 F  
HETATM   38  F   UNL     1     -10.618  20.360  68.965  1.00  0.00    -0.493 F  
HETATM   39  F   UNL     1      -9.211  19.997  67.344  1.00  0.00    -0.376 F  
ENDBRANCH  34  35
ENDBRANCH  31  34
ENDBRANCH  27  28
ENDBRANCH  26  27
ENDBRANCH  25  26
ENDBRANCH  23  25
ENDBRANCH   2  23
TORSDOF 13
ENDMDL
MODEL       30
REMARK 921   NORMALIZED FREE ENERGY PREDICTED BY IDOCK:   -5.94 KCAL/MOL
REMARK 922        TOTAL FREE ENERGY PREDICTED BY IDOCK:  -13.63 KCAL/MOL
REMARK 923 INTER-LIGAND FREE ENERGY PREDICTED BY IDOCK:  -11.34 KCAL/MOL
REMARK 924 INTRA-LIGAND FREE ENERGY PREDICTED BY IDOCK:   -2.28 KCAL/MOL
REMARK 927      BINDING AFFINITY PREDICTED BY RF-SCORE:    0.00 PKD
ROOT
HETATM    1  C   UNL     1      -9.135   7.973  66.416  1.00  0.00    -0.226 C  
HETATM    2  C   UNL     1     -10.504   8.451  66.916  1.00  0.00    -0.289 C  
ENDROOT
BRANCH   2   3
HETATM    3  C   UNL     1     -10.385   9.546  68.000  1.00  0.00    -0.260 C  
BRANCH   3   4
HETATM    4  C   UNL     1     -10.477  10.942  67.453  1.00  0.00    -0.263 A  
HETATM    5  C   UNL     1      -9.557  11.913  67.864  1.00  0.00    -0.193 A  
HETATM    6  C   UNL     1     -12.015  14.555  64.894  1.00  0.00    -0.422 A  
HETATM    7  C   UNL     1     -11.468  11.299  66.549  1.00  0.00     0.016 A  
HETATM    8  C   UNL     1     -11.486  12.601  66.068  1.00  0.00    -0.414 A  
HETATM    9  C   UNL     1      -9.562  13.233  67.349  1.00  0.00    -0.223 A  
HETATM   10  C   UNL     1     -10.561  13.603  66.442  1.00  0.00    -0.284 A  
HETATM   11  C   UNL     1     -12.491  13.120  65.094  1.00  0.00    -0.539 A  
HETATM   12  N   UNL     1     -10.875  14.784  65.792  1.00  0.00    -0.318 NA 
BRANCH  12  13
HETATM   13  C   UNL     1     -10.195  16.063  65.755  1.00  0.00    -0.377 C  
BRANCH  13  14
HETATM   14  C   UNL     1     -10.580  16.943  66.947  1.00  0.00    -0.214 C  
BRANCH  14  15
HETATM   15  C   UNL     1     -10.238  18.413  66.751  1.00  0.00    -0.388 C  
HETATM   16  O   UNL     1     -10.733  18.844  65.482  1.00  0.00    -0.556 OA 
HETATM   17  H   UNL     1     -10.520  19.762  65.360  1.00  0.00     0.000 HD 
ENDBRANCH  14  15
ENDBRANCH  13  14
ENDBRANCH  12  13
BRANCH   9  18
HETATM   18  C   UNL     1      -8.479  14.091  67.897  1.00  0.00    -0.170 C  
HETATM   19  N   UNL     1      -8.623  14.485  69.208  1.00  0.00    -0.380 N  
HETATM   20  O   UNL     1      -7.525  14.497  67.243  1.00  0.00    -0.191 OA 
HETATM   21  H2  UNL     1      -9.426  14.205  69.771  1.00  0.00     0.000 HD 
HETATM   22  H1  UNL     1      -7.880  15.075  69.585  1.00  0.00     0.000 HD 
ENDBRANCH   9  18
ENDBRANCH   3   4
ENDBRANCH   2   3
BRANCH   2  23
HETATM   23  N   UNL     1     -11.252   7.280  67.408  1.00  0.00    -0.553 NA 
HETATM   24  H   UNL     1     -12.071   7.109  66.825  1.00  0.00     0.000 HD 
BRANCH  23  25
HETATM   25  C   UNL     1     -10.441   6.058  67.533  1.00  0.00    -0.240 C  
BRANCH  25  26
HETATM   26  C   UNL     1     -10.334   5.514  68.974  1.00  0.00    -0.233 C  
BRANCH  26  27
HETATM   27  O   UNL     1     -11.410   5.956  69.812  1.00  0.00    -0.371 OA 
BRANCH  27  28
HETATM   28  C   UNL     1     -11.120   6.173  71.135  1.00  0.00    -0.298 A  
HETATM   29  C   UNL     1     -10.989   7.743  72.975  1.00  0.00    -0.442 A  
HETATM   30  C   UNL     1     -10.541   5.203  71.973  1.00  0.00    -0.266 A  
HETATM   31  C   UNL     1     -11.345   7.457  71.658  1.00  0.00    -0.256 A  
HETATM   32  C   UNL     1     -10.405   6.772  73.792  1.00  0.00    -0.397 A  
HETATM   33  C   UNL     1     -10.179   5.499  73.283  1.00  0.00    -0.216 A  
BRANCH  31  34
HETATM   34  O   UNL     1     -11.787   8.547  70.955  1.00  0.00    -0.284 OA 
BRANCH  34  35
HETATM   35  C   UNL     1     -11.598   9.829  71.565  1.00  0.00    -0.353 C  
HETATM   36  C   UNL     1     -12.622  10.857  71.096  1.00  0.00    -0.428 C  
HETATM   37  F   UNL     1     -13.604  10.328  70.335  1.00  0.00    -0.334 F  
HETATM   38  F   UNL     1     -13.206  11.481  72.145  1.00  0.00    -0.598 F  
HETATM   39  F   UNL     1     -12.020  11.824  70.352  1.00  0.00    -0.384 F  
ENDBRANCH  34  35
ENDBRANCH  31  34
ENDBRANCH  27  28
ENDBRANCH  26  27
ENDBRANCH  25  26
ENDBRANCH  23  25
ENDBRANCH   2  23
TORSDOF 13
ENDMDL
MODEL       31
REMARK 921   NORMALIZED FREE ENERGY PREDICTED BY IDOCK:   -5.93 KCAL/MOL
REMARK 922        TOTAL FREE ENERGY PREDICTED BY IDOCK:  -13.60 KCAL/MOL
REMARK 923 INTER-LIGAND FREE ENERGY PREDICTED BY IDOCK:  -11.02 KCAL/MOL
REMARK 924 INTRA-LIGAND FREE ENERGY PREDICTED BY IDOCK:   -2.58 KCAL/MOL
REMARK 927      BINDING AFFINITY PREDICTED BY RF-SCORE:    0.00 PKD
ROOT
HETATM    1  C   UNL     1      -8.161   5.014  66.633  1.00  0.00    -0.108 C  
HETATM    2  C   UNL     1      -8.887   6.253  66.093  1.00  0.00    -0.153 C  
ENDROOT
BRANCH   2   3
HETATM    3  C   UNL     1      -8.351   7.564  66.710  1.00  0.00    -0.126 C  
BRANCH   3   4
HETATM    4  C   UNL     1      -9.119   8.784  66.287  1.00  0.00    -0.240 A  
HETATM    5  C   UNL     1      -9.831   9.523  67.238  1.00  0.00    -0.228 A  
HETATM    6  C   UNL     1     -10.815  12.146  63.497  1.00  0.00    -0.458 A  
HETATM    7  C   UNL     1      -9.148   9.193  64.961  1.00  0.00    -0.215 A  
HETATM    8  C   UNL     1      -9.863  10.340  64.639  1.00  0.00    -0.396 A  
HETATM    9  C   UNL     1     -10.535  10.708  66.909  1.00  0.00    -0.304 A  
HETATM   10  C   UNL     1     -10.576  11.124  65.574  1.00  0.00    -0.225 A  
HETATM   11  C   UNL     1      -9.978  10.893  63.257  1.00  0.00    -0.399 A  
HETATM   12  N   UNL     1     -11.184  12.180  64.918  1.00  0.00    -0.316 NA 
BRANCH  12  13
HETATM   13  C   UNL     1     -11.939  13.310  65.422  1.00  0.00    -0.395 C  
BRANCH  13  14
HETATM   14  C   UNL     1     -11.021  14.399  65.982  1.00  0.00    -0.316 C  
BRANCH  14  15
HETATM   15  C   UNL     1     -10.849  15.588  65.047  1.00  0.00    -0.450 C  
HETATM   16  O   UNL     1     -11.789  15.482  63.977  1.00  0.00    -0.908 OA 
HETATM   17  H   UNL     1     -11.682  16.224  63.393  1.00  0.00     0.000 HD 
ENDBRANCH  14  15
ENDBRANCH  13  14
ENDBRANCH  12  13
BRANCH   9  18
HETATM   18  C   UNL     1     -11.195  11.352  68.074  1.00  0.00    -0.281 C  
HETATM   19  N   UNL     1     -10.357  11.906  69.016  1.00  0.00    -0.404 N  
HETATM   20  O   UNL     1     -12.407  11.364  68.259  1.00  0.00    -0.506 OA 
HETATM   21  H2  UNL     1      -9.342  11.876  68.919  1.00  0.00     0.000 HD 
HETATM   22  H1  UNL     1     -10.810  12.348  69.817  1.00  0.00     0.000 HD 
ENDBRANCH   9  18
ENDBRANCH   3   4
ENDBRANCH   2   3
BRANCH   2  23
HETATM   23  N   UNL     1     -10.331   6.088  66.338  1.00  0.00    -0.420 NA 
HETATM   24  H   UNL     1     -10.780   5.642  65.539  1.00  0.00     0.000 HD 
BRANCH  23  25
HETATM   25  C   UNL     1     -10.650   5.367  67.581  1.00  0.00    -0.113 C  
BRANCH  25  26
HETATM   26  C   UNL     1     -11.256   6.253  68.690  1.00  0.00    -0.238 C  
BRANCH  26  27
HETATM   27  O   UNL     1     -10.336   6.502  69.761  1.00  0.00    -0.180 OA 
BRANCH  27  28
HETATM   28  C   UNL     1     -10.394   5.658  70.841  1.00  0.00    -0.238 A  
HETATM   29  C   UNL     1     -11.390   5.141  72.988  1.00  0.00    -0.381 A  
HETATM   30  C   UNL     1      -9.501   4.591  71.042  1.00  0.00    -0.229 A  
HETATM   31  C   UNL     1     -11.350   5.924  71.835  1.00  0.00    -0.247 A  
HETATM   32  C   UNL     1     -10.489   4.090  73.178  1.00  0.00    -0.251 A  
HETATM   33  C   UNL     1      -9.540   3.820  72.199  1.00  0.00    -0.212 A  
BRANCH  31  34
HETATM   34  O   UNL     1     -12.214   6.987  71.859  1.00  0.00    -0.314 OA 
BRANCH  34  35
HETATM   35  C   UNL     1     -11.758   8.176  72.517  1.00  0.00    -0.394 C  
HETATM   36  C   UNL     1     -11.481   9.314  71.541  1.00  0.00    -0.384 C  
HETATM   37  F   UNL     1     -11.874   9.047  70.278  1.00  0.00    -0.213 F  
HETATM   38  F   UNL     1     -12.097  10.454  71.931  1.00  0.00    -0.409 F  
HETATM   39  F   UNL     1     -10.148   9.587  71.494  1.00  0.00    -0.367 F  
ENDBRANCH  34  35
ENDBRANCH  31  34
ENDBRANCH  27  28
ENDBRANCH  26  27
ENDBRANCH  25  26
ENDBRANCH  23  25
ENDBRANCH   2  23
TORSDOF 13
ENDMDL
MODEL       32
REMARK 921   NORMALIZED FREE ENERGY PREDICTED BY IDOCK:   -5.91 KCAL/MOL
REMARK 922        TOTAL FREE ENERGY PREDICTED BY IDOCK:  -13.58 KCAL/MOL
REMARK 923 INTER-LIGAND FREE ENERGY PREDICTED BY IDOCK:  -10.99 KCAL/MOL
REMARK 924 INTRA-LIGAND FREE ENERGY PREDICTED BY IDOCK:   -2.59 KCAL/MOL
REMARK 927      BINDING AFFINITY PREDICTED BY RF-SCORE:    0.00 PKD
ROOT
HETATM    1  C   UNL     1     -12.434   9.802  71.502  1.00  0.00    -0.495 C  
HETATM    2  C   UNL     1     -11.400  10.368  70.521  1.00  0.00    -0.341 C  
ENDROOT
BRANCH   2   3
HETATM    3  C   UNL     1     -12.046  10.870  69.209  1.00  0.00    -0.332 C  
BRANCH   3   4
HETATM    4  C   UNL     1     -11.711  12.297  68.884  1.00  0.00    -0.380 A  
HETATM    5  C   UNL     1     -12.081  13.317  69.768  1.00  0.00    -0.355 A  
HETATM    6  C   UNL     1      -9.952  15.967  66.560  1.00  0.00    -0.279 A  
HETATM    7  C   UNL     1     -11.046  12.634  67.713  1.00  0.00    -0.287 A  
HETATM    8  C   UNL     1     -10.750  13.970  67.482  1.00  0.00    -0.271 A  
HETATM    9  C   UNL     1     -11.752  14.677  69.541  1.00  0.00    -0.366 A  
HETATM   10  C   UNL     1     -11.088  15.026  68.360  1.00  0.00    -0.278 A  
HETATM   11  C   UNL     1     -10.041  14.473  66.268  1.00  0.00    -0.308 A  
HETATM   12  N   UNL     1     -10.662  16.227  67.819  1.00  0.00    -0.323 NA 
BRANCH  12  13
HETATM   13  C   UNL     1     -10.676  17.574  68.355  1.00  0.00    -0.280 C  
BRANCH  13  14
HETATM   14  C   UNL     1     -10.307  18.610  67.290  1.00  0.00    -0.440 C  
BRANCH  14  15
HETATM   15  C   UNL     1      -9.018  19.359  67.593  1.00  0.00    -0.304 C  
HETATM   16  O   UNL     1      -8.206  18.562  68.458  1.00  0.00    -0.324 OA 
HETATM   17  H   UNL     1      -7.401  19.030  68.648  1.00  0.00     0.000 HD 
ENDBRANCH  14  15
ENDBRANCH  13  14
ENDBRANCH  12  13
BRANCH   9  18
HETATM   18  C   UNL     1     -12.212  15.590  70.619  1.00  0.00    -0.402 C  
HETATM   19  N   UNL     1     -13.575  15.754  70.734  1.00  0.00    -0.711 N  
HETATM   20  O   UNL     1     -11.461  16.226  71.350  1.00  0.00    -0.422 OA 
HETATM   21  H2  UNL     1     -14.229  15.276  70.115  1.00  0.00     0.000 HD 
HETATM   22  H1  UNL     1     -13.891  16.381  71.475  1.00  0.00     0.000 HD 
ENDBRANCH   9  18
ENDBRANCH   3   4
ENDBRANCH   2   3
BRANCH   2  23
HETATM   23  N   UNL     1     -10.387   9.329  70.264  1.00  0.00    -0.211 NA 
HETATM   24  H   UNL     1      -9.847   9.140  71.108  1.00  0.00     0.000 HD 
BRANCH  23  25
HETATM   25  C   UNL     1     -10.935   8.080  69.710  1.00  0.00    -0.137 C  
BRANCH  25  26
HETATM   26  C   UNL     1     -10.279   7.632  68.386  1.00  0.00    -0.198 C  
BRANCH  26  27
HETATM   27  O   UNL     1     -10.529   8.545  67.310  1.00  0.00    -0.276 OA 
BRANCH  27  28
HETATM   28  C   UNL     1      -9.440   9.170  66.757  1.00  0.00    -0.175 A  
HETATM   29  C   UNL     1      -8.587  10.728  65.109  1.00  0.00    -0.133 A  
HETATM   30  C   UNL     1      -8.111   8.850  67.085  1.00  0.00    -0.103 A  
HETATM   31  C   UNL     1      -9.667  10.127  65.755  1.00  0.00    -0.245 A  
HETATM   32  C   UNL     1      -7.272  10.391  65.438  1.00  0.00    -0.121 A  
HETATM   33  C   UNL     1      -7.038   9.445  66.430  1.00  0.00    -0.088 A  
BRANCH  31  34
HETATM   34  O   UNL     1     -10.886  10.472  65.231  1.00  0.00    -0.053 OA 
BRANCH  34  35
HETATM   35  C   UNL     1     -10.877  11.185  63.988  1.00  0.00    -0.281 C  
HETATM   36  C   UNL     1     -12.066  12.128  63.847  1.00  0.00    -0.488 C  
HETATM   37  F   UNL     1     -12.801  12.239  64.974  1.00  0.00    -0.498 F  
HETATM   38  F   UNL     1     -11.666  13.372  63.493  1.00  0.00    -0.449 F  
HETATM   39  F   UNL     1     -12.904  11.694  62.867  1.00  0.00    -0.636 F  
ENDBRANCH  34  35
ENDBRANCH  31  34
ENDBRANCH  27  28
ENDBRANCH  26  27
ENDBRANCH  25  26
ENDBRANCH  23  25
ENDBRANCH   2  23
TORSDOF 13
ENDMDL
MODEL       33
REMARK 921   NORMALIZED FREE ENERGY PREDICTED BY IDOCK:   -5.89 KCAL/MOL
REMARK 922        TOTAL FREE ENERGY PREDICTED BY IDOCK:  -13.54 KCAL/MOL
REMARK 923 INTER-LIGAND FREE ENERGY PREDICTED BY IDOCK:  -11.17 KCAL/MOL
REMARK 924 INTRA-LIGAND FREE ENERGY PREDICTED BY IDOCK:   -2.37 KCAL/MOL
REMARK 927      BINDING AFFINITY PREDICTED BY RF-SCORE:    0.00 PKD
ROOT
HETATM    1  C   UNL     1     -12.437  12.615  64.082  1.00  0.00    -0.488 C  
HETATM    2  C   UNL     1     -11.999  13.784  64.972  1.00  0.00    -0.383 C  
ENDROOT
BRANCH   2   3
HETATM    3  C   UNL     1     -10.524  14.182  64.738  1.00  0.00    -0.432 C  
BRANCH   3   4
HETATM    4  C   UNL     1     -10.086  15.367  65.552  1.00  0.00    -0.405 A  
HETATM    5  C   UNL     1      -9.112  15.209  66.543  1.00  0.00    -0.328 A  
HETATM    6  C   UNL     1      -9.810  19.804  67.034  1.00  0.00    -0.392 A  
HETATM    7  C   UNL     1     -10.637  16.624  65.348  1.00  0.00    -0.254 A  
HETATM    8  C   UNL     1     -10.175  17.682  66.121  1.00  0.00    -0.345 A  
HETATM    9  C   UNL     1      -8.624  16.296  67.310  1.00  0.00    -0.199 A  
HETATM   10  C   UNL     1      -9.178  17.566  67.116  1.00  0.00    -0.243 A  
HETATM   11  C   UNL     1     -10.677  19.083  66.008  1.00  0.00    -0.417 A  
HETATM   12  N   UNL     1      -8.969  18.802  67.703  1.00  0.00    -0.278 NA 
BRANCH  12  13
HETATM   13  C   UNL     1      -8.004  19.239  68.691  1.00  0.00    -0.370 C  
BRANCH  13  14
HETATM   14  C   UNL     1      -6.964  20.186  68.086  1.00  0.00    -0.326 C  
BRANCH  14  15
HETATM   15  C   UNL     1      -5.741  19.469  67.532  1.00  0.00    -0.182 C  
HETATM   16  O   UNL     1      -6.137  18.652  66.428  1.00  0.00    -0.153 OA 
HETATM   17  H   UNL     1      -5.373  18.205  66.082  1.00  0.00     0.000 HD 
ENDBRANCH  14  15
ENDBRANCH  13  14
ENDBRANCH  12  13
BRANCH   9  18
HETATM   18  C   UNL     1      -7.570  15.912  68.285  1.00  0.00    -0.135 C  
HETATM   19  N   UNL     1      -6.278  15.901  67.809  1.00  0.00    -0.133 N  
HETATM   20  O   UNL     1      -7.794  15.562  69.438  1.00  0.00    -0.217 OA 
HETATM   21  H2  UNL     1      -6.057  16.143  66.843  1.00  0.00     0.000 HD 
HETATM   22  H1  UNL     1      -5.554  15.638  68.478  1.00  0.00     0.000 HD 
ENDBRANCH   9  18
ENDBRANCH   3   4
ENDBRANCH   2   3
BRANCH   2  23
HETATM   23  N   UNL     1     -12.244  13.414  66.378  1.00  0.00    -0.399 NA 
HETATM   24  H   UNL     1     -13.239  13.472  66.594  1.00  0.00     0.000 HD 
BRANCH  23  25
HETATM   25  C   UNL     1     -11.709  12.095  66.753  1.00  0.00    -0.305 C  
BRANCH  25  26
HETATM   26  C   UNL     1     -10.843  12.102  68.031  1.00  0.00    -0.222 C  
BRANCH  26  27
HETATM   27  O   UNL     1     -11.404  11.305  69.082  1.00  0.00    -0.231 OA 
BRANCH  27  28
HETATM   28  C   UNL     1     -12.043  11.971  70.097  1.00  0.00    -0.298 A  
HETATM   29  C   UNL     1     -13.534  11.860  72.002  1.00  0.00    -0.336 A  
HETATM   30  C   UNL     1     -12.038  13.370  70.231  1.00  0.00    -0.419 A  
HETATM   31  C   UNL     1     -12.804  11.216  71.004  1.00  0.00    -0.329 A  
HETATM   32  C   UNL     1     -13.529  13.252  72.116  1.00  0.00    -0.655 A  
HETATM   33  C   UNL     1     -12.778  14.006  71.222  1.00  0.00    -0.439 A  
BRANCH  31  34
HETATM   34  O   UNL     1     -13.014   9.863  70.950  1.00  0.00    -0.335 OA 
BRANCH  34  35
HETATM   35  C   UNL     1     -12.564   9.093  72.071  1.00  0.00    -0.390 C  
HETATM   36  C   UNL     1     -11.307   8.288  71.759  1.00  0.00    -0.288 C  
HETATM   37  F   UNL     1     -10.766   8.580  70.557  1.00  0.00    -0.204 F  
HETATM   38  F   UNL     1     -10.353   8.486  72.699  1.00  0.00    -0.369 F  
HETATM   39  F   UNL     1     -11.583   6.956  71.759  1.00  0.00    -0.269 F  
ENDBRANCH  34  35
ENDBRANCH  31  34
ENDBRANCH  27  28
ENDBRANCH  26  27
ENDBRANCH  25  26
ENDBRANCH  23  25
ENDBRANCH   2  23
TORSDOF 13
ENDMDL
MODEL       34
REMARK 921   NORMALIZED FREE ENERGY PREDICTED BY IDOCK:   -5.88 KCAL/MOL
REMARK 922        TOTAL FREE ENERGY PREDICTED BY IDOCK:  -13.52 KCAL/MOL
REMARK 923 INTER-LIGAND FREE ENERGY PREDICTED BY IDOCK:  -10.16 KCAL/MOL
REMARK 924 INTRA-LIGAND FREE ENERGY PREDICTED BY IDOCK:   -3.36 KCAL/MOL
REMARK 927      BINDING AFFINITY PREDICTED BY RF-SCORE:    0.00 PKD
ROOT
HETATM    1  C   UNL     1     -10.464   8.707  72.006  1.00  0.00    -0.422 C  
HETATM    2  C   UNL     1     -11.687   8.540  71.094  1.00  0.00    -0.281 C  
ENDROOT
BRANCH   2   3
HETATM    3  C   UNL     1     -12.847   9.482  71.487  1.00  0.00    -0.464 C  
BRANCH   3   4
HETATM    4  C   UNL     1     -12.640  10.903  71.044  1.00  0.00    -0.517 A  
HETATM    5  C   UNL     1     -11.963  11.168  69.849  1.00  0.00    -0.439 A  
HETATM    6  C   UNL     1     -12.896  15.582  71.069  1.00  0.00    -0.482 A  
HETATM    7  C   UNL     1     -13.101  11.969  71.804  1.00  0.00    -0.460 A  
HETATM    8  C   UNL     1     -12.894  13.258  71.330  1.00  0.00    -0.411 A  
HETATM    9  C   UNL     1     -11.779  12.484  69.355  1.00  0.00    -0.383 A  
HETATM   10  C   UNL     1     -12.234  13.565  70.118  1.00  0.00    -0.330 A  
HETATM   11  C   UNL     1     -13.335  14.493  72.042  1.00  0.00    -0.461 A  
HETATM   12  N   UNL     1     -12.185  14.938  69.957  1.00  0.00    -0.328 NA 
BRANCH  12  13
HETATM   13  C   UNL     1     -11.711  15.755  68.857  1.00  0.00    -0.394 C  
BRANCH  13  14
HETATM   14  C   UNL     1     -10.634  16.743  69.310  1.00  0.00    -0.336 C  
BRANCH  14  15
HETATM   15  C   UNL     1      -9.215  16.238  69.085  1.00  0.00    -0.235 C  
HETATM   16  O   UNL     1      -9.046  14.996  69.770  1.00  0.00    -0.448 OA 
HETATM   17  H   UNL     1      -8.161  14.681  69.630  1.00  0.00     0.000 HD 
ENDBRANCH  14  15
ENDBRANCH  13  14
ENDBRANCH  12  13
BRANCH   9  18
HETATM   18  C   UNL     1     -11.062  12.537  68.055  1.00  0.00    -0.245 C  
HETATM   19  N   UNL     1     -11.818  12.275  66.934  1.00  0.00    -0.328 N  
HETATM   20  O   UNL     1      -9.858  12.740  67.940  1.00  0.00    -0.209 OA 
HETATM   21  H2  UNL     1     -12.812  12.057  66.993  1.00  0.00     0.000 HD 
HETATM   22  H1  UNL     1     -11.325  12.311  66.041  1.00  0.00     0.000 HD 
ENDBRANCH   9  18
ENDBRANCH   3   4
ENDBRANCH   2   3
BRANCH   2  23
HETATM   23  N   UNL     1     -12.102   7.126  71.129  1.00  0.00    -0.342 NA 
HETATM   24  H   UNL     1     -11.869   6.663  70.251  1.00  0.00     0.000 HD 
BRANCH  23  25
HETATM   25  C   UNL     1     -11.560   6.370  72.271  1.00  0.00    -0.299 C  
BRANCH  25  26
HETATM   26  C   UNL     1     -10.897   5.030  71.886  1.00  0.00    -0.048 C  
BRANCH  26  27
HETATM   27  O   UNL     1      -9.658   5.209  71.186  1.00  0.00    -0.153 OA 
BRANCH  27  28
HETATM   28  C   UNL     1      -9.521   4.558  69.986  1.00  0.00    -0.177 A  
HETATM   29  C   UNL     1      -9.644   4.664  67.569  1.00  0.00    -0.198 A  
HETATM   30  C   UNL     1      -9.290   3.175  69.875  1.00  0.00    -0.228 A  
HETATM   31  C   UNL     1      -9.695   5.302  68.808  1.00  0.00    -0.146 A  
HETATM   32  C   UNL     1      -9.425   3.287  67.475  1.00  0.00    -0.209 A  
HETATM   33  C   UNL     1      -9.251   2.544  68.637  1.00  0.00    -0.239 A  
BRANCH  31  34
HETATM   34  O   UNL     1     -10.042   6.626  68.735  1.00  0.00    -0.147 OA 
BRANCH  34  35
HETATM   35  C   UNL     1      -8.970   7.576  68.744  1.00  0.00    -0.129 C  
HETATM   36  C   UNL     1      -9.373   8.918  68.144  1.00  0.00    -0.142 C  
HETATM   37  F   UNL     1     -10.693   9.013  67.877  1.00  0.00    -0.276 F  
HETATM   38  F   UNL     1      -9.046   9.941  68.968  1.00  0.00    -0.134 F  
HETATM   39  F   UNL     1      -8.714   9.133  66.973  1.00  0.00    -0.119 F  
ENDBRANCH  34  35
ENDBRANCH  31  34
ENDBRANCH  27  28
ENDBRANCH  26  27
ENDBRANCH  25  26
ENDBRANCH  23  25
ENDBRANCH   2  23
TORSDOF 13
ENDMDL
MODEL       35
REMARK 921   NORMALIZED FREE ENERGY PREDICTED BY IDOCK:   -5.88 KCAL/MOL
REMARK 922        TOTAL FREE ENERGY PREDICTED BY IDOCK:  -13.52 KCAL/MOL
REMARK 923 INTER-LIGAND FREE ENERGY PREDICTED BY IDOCK:  -11.11 KCAL/MOL
REMARK 924 INTRA-LIGAND FREE ENERGY PREDICTED BY IDOCK:   -2.41 KCAL/MOL
REMARK 927      BINDING AFFINITY PREDICTED BY RF-SCORE:    0.00 PKD
ROOT
HETATM    1  C   UNL     1      -9.689   9.496  65.821  1.00  0.00    -0.357 C  
HETATM    2  C   UNL     1     -10.546   9.720  67.073  1.00  0.00    -0.199 C  
ENDROOT
BRANCH   2   3
HETATM    3  C   UNL     1      -9.781  10.475  68.183  1.00  0.00    -0.166 C  
BRANCH   3   4
HETATM    4  C   UNL     1     -10.646  11.413  68.976  1.00  0.00    -0.224 A  
HETATM    5  C   UNL     1     -10.642  12.781  68.680  1.00  0.00    -0.256 A  
HETATM    6  C   UNL     1     -13.780  12.867  72.142  1.00  0.00    -0.414 A  
HETATM    7  C   UNL     1     -11.450  10.954  70.009  1.00  0.00    -0.411 A  
HETATM    8  C   UNL     1     -12.240  11.870  70.690  1.00  0.00    -0.424 A  
HETATM    9  C   UNL     1     -11.471  13.708  69.359  1.00  0.00    -0.343 A  
HETATM   10  C   UNL     1     -12.279  13.255  70.407  1.00  0.00    -0.332 A  
HETATM   11  C   UNL     1     -13.150  11.516  71.819  1.00  0.00    -0.503 A  
HETATM   12  N   UNL     1     -13.155  13.878  71.279  1.00  0.00    -0.330 NA 
BRANCH  12  13
HETATM   13  C   UNL     1     -13.621  15.248  71.349  1.00  0.00    -0.514 C  
BRANCH  13  14
HETATM   14  C   UNL     1     -13.876  15.686  72.793  1.00  0.00    -0.628 C  
BRANCH  14  15
HETATM   15  C   UNL     1     -12.603  15.992  73.568  1.00  0.00    -0.575 C  
HETATM   16  O   UNL     1     -11.472  15.710  72.742  1.00  0.00    -0.401 OA 
HETATM   17  H   UNL     1     -10.677  15.901  73.226  1.00  0.00     0.000 HD 
ENDBRANCH  14  15
ENDBRANCH  13  14
ENDBRANCH  12  13
BRANCH   9  18
HETATM   18  C   UNL     1     -11.331  15.104  68.867  1.00  0.00    -0.301 C  
HETATM   19  N   UNL     1     -10.636  15.968  69.683  1.00  0.00    -0.286 N  
HETATM   20  O   UNL     1     -11.837  15.522  67.831  1.00  0.00    -0.240 OA 
HETATM   21  H2  UNL     1     -10.240  15.668  70.573  1.00  0.00     0.000 HD 
HETATM   22  H1  UNL     1     -10.540  16.926  69.345  1.00  0.00     0.000 HD 
ENDBRANCH   9  18
ENDBRANCH   3   4
ENDBRANCH   2   3
BRANCH   2  23
HETATM   23  N   UNL     1     -11.031   8.410  67.544  1.00  0.00    -0.466 NA 
HETATM   24  H   UNL     1     -12.050   8.379  67.525  1.00  0.00     0.000 HD 
BRANCH  23  25
HETATM   25  C   UNL     1     -10.465   7.263  66.815  1.00  0.00    -0.241 C  
BRANCH  25  26
HETATM   26  C   UNL     1      -9.509   6.388  67.654  1.00  0.00    -0.119 C  
BRANCH  26  27
HETATM   27  O   UNL     1      -9.873   6.348  69.041  1.00  0.00    -0.136 OA 
BRANCH  27  28
HETATM   28  C   UNL     1      -9.813   5.128  69.666  1.00  0.00    -0.216 A  
HETATM   29  C   UNL     1      -9.921   3.878  71.738  1.00  0.00    -0.234 A  
HETATM   30  C   UNL     1      -9.453   3.937  69.011  1.00  0.00    -0.240 A  
HETATM   31  C   UNL     1     -10.051   5.083  71.049  1.00  0.00    -0.227 A  
HETATM   32  C   UNL     1      -9.552   2.705  71.076  1.00  0.00    -0.210 A  
HETATM   33  C   UNL     1      -9.315   2.740  69.706  1.00  0.00    -0.199 A  
BRANCH  31  34
HETATM   34  O   UNL     1     -10.295   6.160  71.860  1.00  0.00    -0.201 OA 
BRANCH  34  35
HETATM   35  C   UNL     1     -11.625   6.294  72.374  1.00  0.00    -0.282 C  
HETATM   36  C   UNL     1     -12.371   7.476  71.765  1.00  0.00    -0.326 C  
HETATM   37  F   UNL     1     -11.708   8.063  70.746  1.00  0.00    -0.284 F  
HETATM   38  F   UNL     1     -13.587   7.102  71.303  1.00  0.00    -0.428 F  
HETATM   39  F   UNL     1     -12.588   8.437  72.704  1.00  0.00    -0.393 F  
ENDBRANCH  34  35
ENDBRANCH  31  34
ENDBRANCH  27  28
ENDBRANCH  26  27
ENDBRANCH  25  26
ENDBRANCH  23  25
ENDBRANCH   2  23
TORSDOF 13
ENDMDL
MODEL       36
REMARK 921   NORMALIZED FREE ENERGY PREDICTED BY IDOCK:   -5.88 KCAL/MOL
REMARK 922        TOTAL FREE ENERGY PREDICTED BY IDOCK:  -13.51 KCAL/MOL
REMARK 923 INTER-LIGAND FREE ENERGY PREDICTED BY IDOCK:  -11.03 KCAL/MOL
REMARK 924 INTRA-LIGAND FREE ENERGY PREDICTED BY IDOCK:   -2.48 KCAL/MOL
REMARK 927      BINDING AFFINITY PREDICTED BY RF-SCORE:    0.00 PKD
ROOT
HETATM    1  C   UNL     1     -10.748   7.704  67.097  1.00  0.00    -0.361 C  
HETATM    2  C   UNL     1      -9.754   8.867  66.983  1.00  0.00    -0.190 C  
ENDROOT
BRANCH   2   3
HETATM    3  C   UNL     1      -9.906   9.643  65.654  1.00  0.00    -0.369 C  
BRANCH   3   4
HETATM    4  C   UNL     1      -9.954  11.133  65.833  1.00  0.00    -0.285 A  
HETATM    5  C   UNL     1     -11.020  11.864  65.297  1.00  0.00    -0.354 A  
HETATM    6  C   UNL     1      -8.709  15.419  67.264  1.00  0.00    -0.196 A  
HETATM    7  C   UNL     1      -8.953  11.811  66.515  1.00  0.00    -0.196 A  
HETATM    8  C   UNL     1      -9.067  13.187  66.662  1.00  0.00    -0.180 A  
HETATM    9  C   UNL     1     -11.147  13.265  65.474  1.00  0.00    -0.299 A  
HETATM   10  C   UNL     1     -10.139  13.957  66.154  1.00  0.00    -0.308 A  
HETATM   11  C   UNL     1      -8.068  14.040  67.370  1.00  0.00    -0.199 A  
HETATM   12  N   UNL     1      -9.933  15.290  66.462  1.00  0.00    -0.254 NA 
BRANCH  12  13
HETATM   13  C   UNL     1     -10.767  16.458  66.258  1.00  0.00    -0.161 C  
BRANCH  13  14
HETATM   14  C   UNL     1     -10.333  17.626  67.147  1.00  0.00    -0.343 C  
BRANCH  14  15
HETATM   15  C   UNL     1     -10.264  18.956  66.411  1.00  0.00    -0.426 C  
HETATM   16  O   UNL     1     -10.786  19.985  67.253  1.00  0.00    -0.362 OA 
HETATM   17  H   UNL     1     -10.743  20.815  66.793  1.00  0.00     0.000 HD 
ENDBRANCH  14  15
ENDBRANCH  13  14
ENDBRANCH  12  13
BRANCH   9  18
HETATM   18  C   UNL     1     -12.369  13.836  64.850  1.00  0.00    -0.405 C  
HETATM   19  N   UNL     1     -12.247  14.245  63.541  1.00  0.00    -1.080 N  
HETATM   20  O   UNL     1     -13.429  14.006  65.442  1.00  0.00    -0.679 OA 
HETATM   21  H2  UNL     1     -11.369  14.161  63.029  1.00  0.00     0.000 HD 
HETATM   22  H1  UNL     1     -13.086  14.638  63.112  1.00  0.00     0.000 HD 
ENDBRANCH   9  18
ENDBRANCH   3   4
ENDBRANCH   2   3
BRANCH   2  23
HETATM   23  N   UNL     1      -8.391   8.331  67.145  1.00  0.00    -0.122 NA 
HETATM   24  H   UNL     1      -7.738   8.825  66.538  1.00  0.00     0.000 HD 
BRANCH  23  25
HETATM   25  C   UNL     1      -7.907   8.333  68.536  1.00  0.00    -0.121 C  
BRANCH  25  26
HETATM   26  C   UNL     1      -8.244   9.619  69.322  1.00  0.00    -0.123 C  
BRANCH  26  27
HETATM   27  O   UNL     1      -8.914   9.348  70.560  1.00  0.00    -0.235 OA 
BRANCH  27  28
HETATM   28  C   UNL     1     -10.221   9.750  70.663  1.00  0.00    -0.220 A  
HETATM   29  C   UNL     1     -12.415   9.370  71.617  1.00  0.00    -0.460 A  
HETATM   30  C   UNL     1     -10.782  10.776  69.882  1.00  0.00    -0.202 A  
HETATM   31  C   UNL     1     -11.061   9.047  71.542  1.00  0.00    -0.349 A  
HETATM   32  C   UNL     1     -12.960  10.385  70.827  1.00  0.00    -0.422 A  
HETATM   33  C   UNL     1     -12.135  11.086  69.954  1.00  0.00    -0.435 A  
BRANCH  31  34
HETATM   34  O   UNL     1     -10.712   7.950  72.285  1.00  0.00    -0.241 OA 
BRANCH  34  35
HETATM   35  C   UNL     1     -11.421   6.735  72.016  1.00  0.00    -0.282 C  
HETATM   36  C   UNL     1     -10.858   5.984  70.814  1.00  0.00    -0.292 C  
HETATM   37  F   UNL     1      -9.709   6.511  70.341  1.00  0.00    -0.168 F  
HETATM   38  F   UNL     1     -10.623   4.686  71.114  1.00  0.00    -0.237 F  
HETATM   39  F   UNL     1     -11.751   5.992  69.787  1.00  0.00    -0.473 F  
ENDBRANCH  34  35
ENDBRANCH  31  34
ENDBRANCH  27  28
ENDBRANCH  26  27
ENDBRANCH  25  26
ENDBRANCH  23  25
ENDBRANCH   2  23
TORSDOF 13
ENDMDL
MODEL       37
REMARK 921   NORMALIZED FREE ENERGY PREDICTED BY IDOCK:   -5.86 KCAL/MOL
REMARK 922        TOTAL FREE ENERGY PREDICTED BY IDOCK:  -13.48 KCAL/MOL
REMARK 923 INTER-LIGAND FREE ENERGY PREDICTED BY IDOCK:   -9.93 KCAL/MOL
REMARK 924 INTRA-LIGAND FREE ENERGY PREDICTED BY IDOCK:   -3.55 KCAL/MOL
REMARK 927      BINDING AFFINITY PREDICTED BY RF-SCORE:    0.00 PKD
ROOT
HETATM    1  C   UNL     1      -7.576  15.489  69.437  1.00  0.00    -0.225 C  
HETATM    2  C   UNL     1      -8.564  14.797  68.490  1.00  0.00    -0.168 C  
ENDROOT
BRANCH   2   3
HETATM    3  C   UNL     1      -7.850  13.981  67.388  1.00  0.00    -0.188 C  
BRANCH   3   4
HETATM    4  C   UNL     1      -8.152  12.511  67.442  1.00  0.00    -0.180 A  
HETATM    5  C   UNL     1      -8.032  11.820  68.652  1.00  0.00    -0.116 A  
HETATM    6  C   UNL     1      -9.456   8.248  65.996  1.00  0.00    -0.119 A  
HETATM    7  C   UNL     1      -8.540  11.812  66.307  1.00  0.00    -0.062 A  
HETATM    8  C   UNL     1      -8.822  10.458  66.429  1.00  0.00    -0.159 A  
HETATM    9  C   UNL     1      -8.348  10.444  68.777  1.00  0.00    -0.134 A  
HETATM   10  C   UNL     1      -8.734   9.730  67.638  1.00  0.00    -0.125 A  
HETATM   11  C   UNL     1      -9.250   9.587  65.295  1.00  0.00    -0.307 A  
HETATM   12  N   UNL     1      -9.066   8.407  67.403  1.00  0.00    -0.136 NA 
BRANCH  12  13
HETATM   13  C   UNL     1      -9.223   7.287  68.308  1.00  0.00    -0.133 C  
BRANCH  13  14
HETATM   14  C   UNL     1     -10.679   6.822  68.385  1.00  0.00    -0.284 C  
BRANCH  14  15
HETATM   15  C   UNL     1     -11.057   6.230  69.736  1.00  0.00    -0.406 C  
HETATM   16  O   UNL     1     -12.335   6.735  70.127  1.00  0.00    -0.614 OA 
HETATM   17  H   UNL     1     -12.570   6.365  70.971  1.00  0.00     0.000 HD 
ENDBRANCH  14  15
ENDBRANCH  13  14
ENDBRANCH  12  13
BRANCH   9  18
HETATM   18  C   UNL     1      -8.181   9.917  70.157  1.00  0.00    -0.136 C  
HETATM   19  N   UNL     1      -9.295   9.342  70.726  1.00  0.00    -0.259 N  
HETATM   20  O   UNL     1      -7.149  10.017  70.811  1.00  0.00    -0.324 OA 
HETATM   21  H2  UNL     1     -10.183   9.281  70.229  1.00  0.00     0.000 HD 
HETATM   22  H1  UNL     1      -9.180   8.980  71.673  1.00  0.00     0.000 HD 
ENDBRANCH   9  18
ENDBRANCH   3   4
ENDBRANCH   2   3
BRANCH   2  23
HETATM   23  N   UNL     1      -9.452  15.824  67.915  1.00  0.00    -0.211 NA 
HETATM   24  H   UNL     1     -10.165  15.393  67.328  1.00  0.00     0.000 HD 
BRANCH  23  25
HETATM   25  C   UNL     1     -10.071  16.710  68.915  1.00  0.00    -0.274 C  
BRANCH  25  26
HETATM   26  C   UNL     1     -11.211  16.054  69.723  1.00  0.00    -0.344 C  
BRANCH  26  27
HETATM   27  O   UNL     1     -12.092  15.276  68.901  1.00  0.00    -0.286 OA 
BRANCH  27  28
HETATM   28  C   UNL     1     -11.980  13.911  68.986  1.00  0.00    -0.364 A  
HETATM   29  C   UNL     1     -11.872  11.786  67.828  1.00  0.00    -0.266 A  
HETATM   30  C   UNL     1     -12.015  13.203  70.200  1.00  0.00    -0.381 A  
HETATM   31  C   UNL     1     -11.904  13.180  67.790  1.00  0.00    -0.348 A  
HETATM   32  C   UNL     1     -11.917  11.097  69.042  1.00  0.00    -0.389 A  
HETATM   33  C   UNL     1     -11.992  11.813  70.231  1.00  0.00    -0.429 A  
BRANCH  31  34
HETATM   34  O   UNL     1     -11.979  13.697  66.523  1.00  0.00    -0.381 OA 
BRANCH  34  35
HETATM   35  C   UNL     1     -12.243  12.771  65.462  1.00  0.00    -0.463 C  
HETATM   36  C   UNL     1     -11.469  13.103  64.190  1.00  0.00    -0.403 C  
HETATM   37  F   UNL     1     -10.565  14.092  64.355  1.00  0.00    -0.420 F  
HETATM   38  F   UNL     1     -10.812  12.018  63.720  1.00  0.00    -0.314 F  
HETATM   39  F   UNL     1     -12.320  13.501  63.206  1.00  0.00    -0.578 F  
ENDBRANCH  34  35
ENDBRANCH  31  34
ENDBRANCH  27  28
ENDBRANCH  26  27
ENDBRANCH  25  26
ENDBRANCH  23  25
ENDBRANCH   2  23
TORSDOF 13
ENDMDL
MODEL       38
REMARK 921   NORMALIZED FREE ENERGY PREDICTED BY IDOCK:   -5.85 KCAL/MOL
REMARK 922        TOTAL FREE ENERGY PREDICTED BY IDOCK:  -13.47 KCAL/MOL
REMARK 923 INTER-LIGAND FREE ENERGY PREDICTED BY IDOCK:  -11.01 KCAL/MOL
REMARK 924 INTRA-LIGAND FREE ENERGY PREDICTED BY IDOCK:   -2.46 KCAL/MOL
REMARK 927      BINDING AFFINITY PREDICTED BY RF-SCORE:    0.00 PKD
ROOT
HETATM    1  C   UNL     1      -8.506   8.590  70.576  1.00  0.00    -0.143 C  
HETATM    2  C   UNL     1      -9.945   8.226  70.966  1.00  0.00    -0.187 C  
ENDROOT
BRANCH   2   3
HETATM    3  C   UNL     1     -10.754   7.669  69.773  1.00  0.00    -0.243 C  
BRANCH   3   4
HETATM    4  C   UNL     1     -10.403   8.308  68.460  1.00  0.00    -0.230 A  
HETATM    5  C   UNL     1     -10.837   9.608  68.180  1.00  0.00    -0.241 A  
HETATM    6  C   UNL     1      -8.500   8.828  64.209  1.00  0.00    -0.114 A  
HETATM    7  C   UNL     1      -9.660   7.630  67.504  1.00  0.00    -0.178 A  
HETATM    8  C   UNL     1      -9.353   8.284  66.318  1.00  0.00    -0.267 A  
HETATM    9  C   UNL     1     -10.497  10.282  66.981  1.00  0.00    -0.304 A  
HETATM   10  C   UNL     1      -9.754   9.604  66.009  1.00  0.00    -0.264 A  
HETATM   11  C   UNL     1      -8.563   7.677  65.207  1.00  0.00    -0.044 A  
HETATM   12  N   UNL     1      -9.296   9.939  64.746  1.00  0.00    -0.262 NA 
BRANCH  12  13
HETATM   13  C   UNL     1      -9.352  11.186  64.010  1.00  0.00    -0.170 C  
BRANCH  13  14
HETATM   14  C   UNL     1     -10.720  11.395  63.356  1.00  0.00    -0.405 C  
BRANCH  14  15
HETATM   15  C   UNL     1     -11.231  12.826  63.462  1.00  0.00    -0.373 C  
HETATM   16  O   UNL     1     -10.200  13.652  64.005  1.00  0.00    -0.701 OA 
HETATM   17  H   UNL     1     -10.519  14.544  64.071  1.00  0.00     0.000 HD 
ENDBRANCH  14  15
ENDBRANCH  13  14
ENDBRANCH  12  13
BRANCH   9  18
HETATM   18  C   UNL     1     -11.035  11.665  66.902  1.00  0.00    -0.292 C  
HETATM   19  N   UNL     1     -10.112  12.682  67.007  1.00  0.00    -0.223 N  
HETATM   20  O   UNL     1     -12.227  11.936  66.807  1.00  0.00    -0.489 OA 
HETATM   21  H2  UNL     1      -9.117  12.496  67.132  1.00  0.00     0.000 HD 
HETATM   22  H1  UNL     1     -10.481  13.632  66.953  1.00  0.00     0.000 HD 
ENDBRANCH   9  18
ENDBRANCH   3   4
ENDBRANCH   2   3
BRANCH   2  23
HETATM   23  N   UNL     1     -10.585   9.421  71.545  1.00  0.00    -0.327 NA 
HETATM   24  H   UNL     1     -10.311  10.257  71.031  1.00  0.00     0.000 HD 
BRANCH  23  25
HETATM   25  C   UNL     1     -12.051   9.329  71.640  1.00  0.00    -0.379 C  
BRANCH  25  26
HETATM   26  C   UNL     1     -12.807  10.413  70.842  1.00  0.00    -0.392 C  
BRANCH  26  27
HETATM   27  O   UNL     1     -12.036  11.610  70.672  1.00  0.00    -0.368 OA 
BRANCH  27  28
HETATM   28  C   UNL     1     -12.635  12.793  71.024  1.00  0.00    -0.271 A  
HETATM   29  C   UNL     1     -12.722  15.201  70.776  1.00  0.00    -0.463 A  
HETATM   30  C   UNL     1     -13.605  12.901  72.036  1.00  0.00    -0.499 A  
HETATM   31  C   UNL     1     -12.199  13.968  70.391  1.00  0.00    -0.363 A  
HETATM   32  C   UNL     1     -13.678  15.293  71.790  1.00  0.00    -0.605 A  
HETATM   33  C   UNL     1     -14.116  14.135  72.422  1.00  0.00    -0.570 A  
BRANCH  31  34
HETATM   34  O   UNL     1     -11.184  14.060  69.474  1.00  0.00    -0.245 OA 
BRANCH  34  35
HETATM   35  C   UNL     1     -10.350  15.223  69.548  1.00  0.00    -0.262 C  
HETATM   36  C   UNL     1     -10.457  16.098  68.304  1.00  0.00    -0.276 C  
HETATM   37  F   UNL     1     -11.430  15.707  67.454  1.00  0.00    -0.317 F  
HETATM   38  F   UNL     1     -10.692  17.390  68.633  1.00  0.00    -0.338 F  
HETATM   39  F   UNL     1      -9.289  16.078  67.607  1.00  0.00    -0.207 F  
ENDBRANCH  34  35
ENDBRANCH  31  34
ENDBRANCH  27  28
ENDBRANCH  26  27
ENDBRANCH  25  26
ENDBRANCH  23  25
ENDBRANCH   2  23
TORSDOF 13
ENDMDL
MODEL       39
REMARK 921   NORMALIZED FREE ENERGY PREDICTED BY IDOCK:   -5.85 KCAL/MOL
REMARK 922        TOTAL FREE ENERGY PREDICTED BY IDOCK:  -13.47 KCAL/MOL
REMARK 923 INTER-LIGAND FREE ENERGY PREDICTED BY IDOCK:  -11.13 KCAL/MOL
REMARK 924 INTRA-LIGAND FREE ENERGY PREDICTED BY IDOCK:   -2.34 KCAL/MOL
REMARK 927      BINDING AFFINITY PREDICTED BY RF-SCORE:    0.00 PKD
ROOT
HETATM    1  C   UNL     1      -8.975   9.548  63.133  1.00  0.00    -0.217 C  
HETATM    2  C   UNL     1      -9.520  10.192  64.414  1.00  0.00    -0.308 C  
ENDROOT
BRANCH   2   3
HETATM    3  C   UNL     1     -10.677  11.177  64.133  1.00  0.00    -0.415 C  
BRANCH   3   4
HETATM    4  C   UNL     1     -10.854  12.215  65.204  1.00  0.00    -0.343 A  
HETATM    5  C   UNL     1     -10.520  13.548  64.943  1.00  0.00    -0.417 A  
HETATM    6  C   UNL     1     -12.009  14.093  69.340  1.00  0.00    -0.337 A  
HETATM    7  C   UNL     1     -11.337  11.879  66.461  1.00  0.00    -0.403 A  
HETATM    8  C   UNL     1     -11.494  12.889  67.401  1.00  0.00    -0.388 A  
HETATM    9  C   UNL     1     -10.709  14.580  65.896  1.00  0.00    -0.308 A  
HETATM   10  C   UNL     1     -11.188  14.250  67.168  1.00  0.00    -0.322 A  
HETATM   11  C   UNL     1     -12.002  12.671  68.787  1.00  0.00    -0.279 A  
HETATM   12  N   UNL     1     -11.446  14.981  68.314  1.00  0.00    -0.320 NA 
BRANCH  12  13
HETATM   13  C   UNL     1     -11.394  16.407  68.570  1.00  0.00    -0.289 C  
BRANCH  13  14
HETATM   14  C   UNL     1      -9.983  16.861  68.954  1.00  0.00    -0.279 C  
BRANCH  14  15
HETATM   15  C   UNL     1      -9.686  18.304  68.574  1.00  0.00    -0.362 C  
HETATM   16  O   UNL     1     -10.287  18.589  67.309  1.00  0.00    -0.359 OA 
HETATM   17  H   UNL     1     -10.101  19.490  67.072  1.00  0.00     0.000 HD 
ENDBRANCH  14  15
ENDBRANCH  13  14
ENDBRANCH  12  13
BRANCH   9  18
HETATM   18  C   UNL     1     -10.318  15.926  65.402  1.00  0.00    -0.372 C  
HETATM   19  N   UNL     1     -11.257  16.592  64.646  1.00  0.00    -0.362 N  
HETATM   20  O   UNL     1      -9.216  16.432  65.581  1.00  0.00    -0.465 OA 
HETATM   21  H2  UNL     1     -12.168  16.184  64.438  1.00  0.00     0.000 HD 
HETATM   22  H1  UNL     1     -10.989  17.516  64.307  1.00  0.00     0.000 HD 
ENDBRANCH   9  18
ENDBRANCH   3   4
ENDBRANCH   2   3
BRANCH   2  23
HETATM   23  N   UNL     1      -8.403  10.852  65.112  1.00  0.00    -0.363 NA 
HETATM   24  H   UNL     1      -8.629  11.827  65.306  1.00  0.00     0.000 HD 
BRANCH  23  25
HETATM   25  C   UNL     1      -7.974  10.166  66.342  1.00  0.00    -0.120 C  
BRANCH  25  26
HETATM   26  C   UNL     1      -8.982   9.124  66.871  1.00  0.00    -0.123 C  
BRANCH  26  27
HETATM   27  O   UNL     1      -9.011   9.062  68.303  1.00  0.00    -0.133 OA 
BRANCH  27  28
HETATM   28  C   UNL     1      -9.623   7.971  68.867  1.00  0.00    -0.152 A  
HETATM   29  C   UNL     1     -11.346   7.121  70.342  1.00  0.00    -0.325 A  
HETATM   30  C   UNL     1      -9.143   6.656  68.734  1.00  0.00    -0.131 A  
HETATM   31  C   UNL     1     -10.744   8.192  69.684  1.00  0.00    -0.195 A  
HETATM   32  C   UNL     1     -10.852   5.822  70.208  1.00  0.00    -0.373 A  
HETATM   33  C   UNL     1      -9.743   5.594  69.401  1.00  0.00    -0.208 A  
BRANCH  31  34
HETATM   34  O   UNL     1     -11.269   9.413  70.018  1.00  0.00    -0.240 OA 
BRANCH  34  35
HETATM   35  C   UNL     1     -11.566   9.632  71.403  1.00  0.00    -0.400 C  
HETATM   36  C   UNL     1     -13.010  10.064  71.629  1.00  0.00    -0.449 C  
HETATM   37  F   UNL     1     -13.773   9.995  70.518  1.00  0.00    -0.347 F  
HETATM   38  F   UNL     1     -13.603   9.309  72.583  1.00  0.00    -0.470 F  
HETATM   39  F   UNL     1     -13.058  11.352  72.066  1.00  0.00    -0.557 F  
ENDBRANCH  34  35
ENDBRANCH  31  34
ENDBRANCH  27  28
ENDBRANCH  26  27
ENDBRANCH  25  26
ENDBRANCH  23  25
ENDBRANCH   2  23
TORSDOF 13
ENDMDL
MODEL       40
REMARK 921   NORMALIZED FREE ENERGY PREDICTED BY IDOCK:   -5.83 KCAL/MOL
REMARK 922        TOTAL FREE ENERGY PREDICTED BY IDOCK:  -13.42 KCAL/MOL
REMARK 923 INTER-LIGAND FREE ENERGY PREDICTED BY IDOCK:  -11.01 KCAL/MOL
REMARK 924 INTRA-LIGAND FREE ENERGY PREDICTED BY IDOCK:   -2.41 KCAL/MOL
REMARK 927      BINDING AFFINITY PREDICTED BY RF-SCORE:    0.00 PKD
ROOT
HETATM    1  C   UNL     1     -13.322  10.211  71.938  1.00  0.00    -0.505 C  
HETATM    2  C   UNL     1     -11.981  10.409  71.219  1.00  0.00    -0.330 C  
ENDROOT
BRANCH   2   3
HETATM    3  C   UNL     1     -12.155  10.615  69.697  1.00  0.00    -0.312 C  
BRANCH   3   4
HETATM    4  C   UNL     1     -11.827  12.008  69.240  1.00  0.00    -0.377 A  
HETATM    5  C   UNL     1     -12.180  13.103  70.037  1.00  0.00    -0.323 A  
HETATM    6  C   UNL     1     -10.115  15.455  66.566  1.00  0.00    -0.271 A  
HETATM    7  C   UNL     1     -11.185  12.239  68.032  1.00  0.00    -0.321 A  
HETATM    8  C   UNL     1     -10.894  13.549  67.676  1.00  0.00    -0.273 A  
HETATM    9  C   UNL     1     -11.856  14.437  69.684  1.00  0.00    -0.372 A  
HETATM   10  C   UNL     1     -11.215  14.679  68.464  1.00  0.00    -0.271 A  
HETATM   11  C   UNL     1     -10.209  13.941  66.410  1.00  0.00    -0.292 A  
HETATM   12  N   UNL     1     -10.801  15.826  67.811  1.00  0.00    -0.310 NA 
BRANCH  12  13
HETATM   13  C   UNL     1     -10.805  17.215  68.225  1.00  0.00    -0.314 C  
BRANCH  13  14
HETATM   14  C   UNL     1     -10.307  18.139  67.110  1.00  0.00    -0.391 C  
BRANCH  14  15
HETATM   15  C   UNL     1     -10.516  19.617  67.409  1.00  0.00    -0.467 C  
HETATM   16  O   UNL     1     -10.295  19.849  68.801  1.00  0.00    -0.543 OA 
HETATM   17  H   UNL     1     -10.426  20.772  68.987  1.00  0.00     0.000 HD 
ENDBRANCH  14  15
ENDBRANCH  13  14
ENDBRANCH  12  13
BRANCH   9  18
HETATM   18  C   UNL     1     -12.296  15.442  70.686  1.00  0.00    -0.403 C  
HETATM   19  N   UNL     1     -13.653  15.661  70.770  1.00  0.00    -0.809 N  
HETATM   20  O   UNL     1     -11.531  16.104  71.378  1.00  0.00    -0.421 OA 
HETATM   21  H2  UNL     1     -14.317  15.162  70.179  1.00  0.00     0.000 HD 
HETATM   22  H1  UNL     1     -13.955  16.352  71.457  1.00  0.00     0.000 HD 
ENDBRANCH   9  18
ENDBRANCH   3   4
ENDBRANCH   2   3
BRANCH   2  23
HETATM   23  N   UNL     1     -11.121   9.250  71.515  1.00  0.00    -0.354 NA 
HETATM   24  H   UNL     1     -10.279   9.546  72.009  1.00  0.00     0.000 HD 
BRANCH  23  25
HETATM   25  C   UNL     1     -11.800   8.171  72.252  1.00  0.00    -0.382 C  
BRANCH  25  26
HETATM   26  C   UNL     1     -12.079   6.907  71.410  1.00  0.00    -0.364 C  
BRANCH  26  27
HETATM   27  O   UNL     1     -11.537   6.996  70.086  1.00  0.00    -0.282 OA 
BRANCH  27  28
HETATM   28  C   UNL     1     -10.339   6.369  69.858  1.00  0.00    -0.196 A  
HETATM   29  C   UNL     1      -8.045   6.542  69.100  1.00  0.00    -0.112 A  
HETATM   30  C   UNL     1     -10.157   4.979  69.967  1.00  0.00    -0.342 A  
HETATM   31  C   UNL     1      -9.257   7.150  69.421  1.00  0.00    -0.148 A  
HETATM   32  C   UNL     1      -7.883   5.158  69.203  1.00  0.00    -0.081 A  
HETATM   33  C   UNL     1      -8.948   4.377  69.636  1.00  0.00    -0.152 A  
BRANCH  31  34
HETATM   34  O   UNL     1      -9.292   8.493  69.147  1.00  0.00    -0.152 OA 
BRANCH  34  35
HETATM   35  C   UNL     1      -8.738   8.911  67.894  1.00  0.00    -0.129 C  
HETATM   36  C   UNL     1      -9.750   8.841  66.755  1.00  0.00    -0.221 C  
HETATM   37  F   UNL     1     -11.005   8.565  67.168  1.00  0.00    -0.334 F  
HETATM   38  F   UNL     1      -9.791  10.004  66.064  1.00  0.00    -0.243 F  
HETATM   39  F   UNL     1      -9.401   7.871  65.868  1.00  0.00    -0.213 F  
ENDBRANCH  34  35
ENDBRANCH  31  34
ENDBRANCH  27  28
ENDBRANCH  26  27
ENDBRANCH  25  26
ENDBRANCH  23  25
ENDBRANCH   2  23
TORSDOF 13
ENDMDL
MODEL       41
REMARK 921   NORMALIZED FREE ENERGY PREDICTED BY IDOCK:   -5.82 KCAL/MOL
REMARK 922        TOTAL FREE ENERGY PREDICTED BY IDOCK:  -13.41 KCAL/MOL
REMARK 923 INTER-LIGAND FREE ENERGY PREDICTED BY IDOCK:  -10.69 KCAL/MOL
REMARK 924 INTRA-LIGAND FREE ENERGY PREDICTED BY IDOCK:   -2.73 KCAL/MOL
REMARK 927      BINDING AFFINITY PREDICTED BY RF-SCORE:    0.00 PKD
ROOT
HETATM    1  C   UNL     1      -8.708  12.625  66.890  1.00  0.00    -0.175 C  
HETATM    2  C   UNL     1      -9.960  12.261  66.082  1.00  0.00    -0.243 C  
ENDROOT
BRANCH   2   3
HETATM    3  C   UNL     1     -10.172  10.733  65.982  1.00  0.00    -0.310 C  
BRANCH   3   4
HETATM    4  C   UNL     1     -10.529  10.091  67.291  1.00  0.00    -0.313 A  
HETATM    5  C   UNL     1      -9.958   8.863  67.643  1.00  0.00    -0.248 A  
HETATM    6  C   UNL     1     -12.522   9.521  71.494  1.00  0.00    -0.376 A  
HETATM    7  C   UNL     1     -11.429  10.686  68.165  1.00  0.00    -0.303 A  
HETATM    8  C   UNL     1     -11.702  10.049  69.368  1.00  0.00    -0.012 A  
HETATM    9  C   UNL     1     -10.218   8.231  68.884  1.00  0.00    -0.222 A  
HETATM   10  C   UNL     1     -11.128   8.820  69.768  1.00  0.00    -0.073 A  
HETATM   11  C   UNL     1     -12.645  10.574  70.399  1.00  0.00    -0.364 A  
HETATM   12  N   UNL     1     -11.628   8.462  71.008  1.00  0.00    -0.276 NA 
BRANCH  12  13
HETATM   13  C   UNL     1     -11.296   7.361  71.890  1.00  0.00    -0.260 C  
BRANCH  13  14
HETATM   14  C   UNL     1     -10.419   7.816  73.059  1.00  0.00    -0.432 C  
BRANCH  14  15
HETATM   15  C   UNL     1      -8.929   7.775  72.751  1.00  0.00    -0.181 C  
HETATM   16  O   UNL     1      -8.595   8.876  71.904  1.00  0.00    -0.347 OA 
HETATM   17  H   UNL     1      -7.665   8.850  71.712  1.00  0.00     0.000 HD 
ENDBRANCH  14  15
ENDBRANCH  13  14
ENDBRANCH  12  13
BRANCH   9  18
HETATM   18  C   UNL     1      -9.484   6.951  69.067  1.00  0.00    -0.137 C  
HETATM   19  N   UNL     1      -8.182   7.056  69.503  1.00  0.00    -0.130 N  
HETATM   20  O   UNL     1      -9.948   5.848  68.803  1.00  0.00    -0.135 OA 
HETATM   21  H2  UNL     1      -7.747   7.959  69.690  1.00  0.00     0.000 HD 
HETATM   22  H1  UNL     1      -7.677   6.178  69.628  1.00  0.00     0.000 HD 
ENDBRANCH   9  18
ENDBRANCH   3   4
ENDBRANCH   2   3
BRANCH   2  23
HETATM   23  N   UNL     1      -9.850  12.882  64.750  1.00  0.00    -0.548 NA 
HETATM   24  H   UNL     1      -9.570  12.191  64.055  1.00  0.00     0.000 HD 
BRANCH  23  25
HETATM   25  C   UNL     1     -11.065  13.590  64.316  1.00  0.00    -0.351 C  
BRANCH  25  26
HETATM   26  C   UNL     1     -11.912  14.164  65.473  1.00  0.00    -0.391 C  
BRANCH  26  27
HETATM   27  O   UNL     1     -11.273  15.267  66.129  1.00  0.00    -0.318 OA 
BRANCH  27  28
HETATM   28  C   UNL     1     -11.364  15.316  67.497  1.00  0.00    -0.297 A  
HETATM   29  C   UNL     1     -10.721  16.416  69.557  1.00  0.00    -0.325 A  
HETATM   30  C   UNL     1     -11.998  14.327  68.269  1.00  0.00    -0.346 A  
HETATM   31  C   UNL     1     -10.722  16.372  68.164  1.00  0.00    -0.336 A  
HETATM   32  C   UNL     1     -11.347  15.420  70.311  1.00  0.00    -0.332 A  
HETATM   33  C   UNL     1     -11.984  14.371  69.659  1.00  0.00    -0.385 A  
BRANCH  31  34
HETATM   34  O   UNL     1      -9.961  17.350  67.579  1.00  0.00    -0.280 OA 
BRANCH  34  35
HETATM   35  C   UNL     1     -10.562  18.644  67.446  1.00  0.00    -0.441 C  
HETATM   36  C   UNL     1      -9.786  19.727  68.188  1.00  0.00    -0.398 C  
HETATM   37  F   UNL     1      -8.603  19.300  68.679  1.00  0.00    -0.360 F  
HETATM   38  F   UNL     1      -9.539  20.788  67.385  1.00  0.00    -0.551 F  
HETATM   39  F   UNL     1     -10.509  20.194  69.241  1.00  0.00    -0.489 F  
ENDBRANCH  34  35
ENDBRANCH  31  34
ENDBRANCH  27  28
ENDBRANCH  26  27
ENDBRANCH  25  26
ENDBRANCH  23  25
ENDBRANCH   2  23
TORSDOF 13
ENDMDL
MODEL       42
REMARK 921   NORMALIZED FREE ENERGY PREDICTED BY IDOCK:   -5.82 KCAL/MOL
REMARK 922        TOTAL FREE ENERGY PREDICTED BY IDOCK:  -13.41 KCAL/MOL
REMARK 923 INTER-LIGAND FREE ENERGY PREDICTED BY IDOCK:  -11.11 KCAL/MOL
REMARK 924 INTRA-LIGAND FREE ENERGY PREDICTED BY IDOCK:   -2.30 KCAL/MOL
REMARK 927      BINDING AFFINITY PREDICTED BY RF-SCORE:    0.00 PKD
ROOT
HETATM    1  C   UNL     1      -9.549   9.292  69.799  1.00  0.00    -0.203 C  
HETATM    2  C   UNL     1      -9.669   9.764  68.345  1.00  0.00    -0.149 C  
ENDROOT
BRANCH   2   3
HETATM    3  C   UNL     1     -11.061  10.357  68.031  1.00  0.00    -0.359 C  
BRANCH   3   4
HETATM    4  C   UNL     1     -11.041  11.841  67.800  1.00  0.00    -0.302 A  
HETATM    5  C   UNL     1     -11.403  12.712  68.834  1.00  0.00    -0.345 A  
HETATM    6  C   UNL     1     -10.407  15.925  65.589  1.00  0.00    -0.390 A  
HETATM    7  C   UNL     1     -10.679  12.375  66.571  1.00  0.00    -0.265 A  
HETATM    8  C   UNL     1     -10.664  13.756  66.428  1.00  0.00    -0.281 A  
HETATM    9  C   UNL     1     -11.358  14.121  68.692  1.00  0.00    -0.306 A  
HETATM   10  C   UNL     1     -11.001  14.668  67.455  1.00  0.00    -0.298 A  
HETATM   11  C   UNL     1     -10.295  14.464  65.167  1.00  0.00    -0.447 A  
HETATM   12  N   UNL     1     -10.896  15.961  66.974  1.00  0.00    -0.293 NA 
BRANCH  12  13
HETATM   13  C   UNL     1     -11.036  17.242  67.638  1.00  0.00    -0.133 C  
BRANCH  13  14
HETATM   14  C   UNL     1      -9.907  18.203  67.256  1.00  0.00    -0.316 C  
BRANCH  14  15
HETATM   15  C   UNL     1      -9.318  18.949  68.445  1.00  0.00    -0.350 C  
HETATM   16  O   UNL     1     -10.358  19.670  69.107  1.00  0.00    -0.617 OA 
HETATM   17  H   UNL     1      -9.991  20.136  69.850  1.00  0.00     0.000 HD 
ENDBRANCH  14  15
ENDBRANCH  13  14
ENDBRANCH  12  13
BRANCH   9  18
HETATM   18  C   UNL     1     -11.752  14.856  69.922  1.00  0.00    -0.305 C  
HETATM   19  N   UNL     1     -12.939  15.553  69.859  1.00  0.00    -0.580 N  
HETATM   20  O   UNL     1     -11.068  14.916  70.937  1.00  0.00    -0.220 OA 
HETATM   21  H2  UNL     1     -13.513  15.563  69.017  1.00  0.00     0.000 HD 
HETATM   22  H1  UNL     1     -13.209  16.058  70.704  1.00  0.00     0.000 HD 
ENDBRANCH   9  18
ENDBRANCH   3   4
ENDBRANCH   2   3
BRANCH   2  23
HETATM   23  N   UNL     1      -9.351   8.628  67.461  1.00  0.00    -0.135 NA 
HETATM   24  H   UNL     1      -8.657   8.021  67.895  1.00  0.00     0.000 HD 
BRANCH  23  25
HETATM   25  C   UNL     1     -10.527   7.850  67.038  1.00  0.00    -0.349 C  
BRANCH  25  26
HETATM   26  C   UNL     1     -10.656   6.473  67.724  1.00  0.00    -0.259 C  
BRANCH  26  27
HETATM   27  O   UNL     1     -11.655   6.460  68.752  1.00  0.00    -0.182 OA 
BRANCH  27  28
HETATM   28  C   UNL     1     -11.267   6.020  69.992  1.00  0.00    -0.355 A  
HETATM   29  C   UNL     1     -11.405   6.282  72.396  1.00  0.00    -0.333 A  
HETATM   30  C   UNL     1     -10.283   5.037  70.195  1.00  0.00    -0.329 A  
HETATM   31  C   UNL     1     -11.830   6.642  71.118  1.00  0.00    -0.360 A  
HETATM   32  C   UNL     1     -10.419   5.311  72.582  1.00  0.00    -0.265 A  
HETATM   33  C   UNL     1      -9.856   4.690  71.472  1.00  0.00    -0.259 A  
BRANCH  31  34
HETATM   34  O   UNL     1     -12.709   7.694  71.103  1.00  0.00    -0.290 OA 
BRANCH  34  35
HETATM   35  C   UNL     1     -12.509   8.717  72.086  1.00  0.00    -0.389 C  
HETATM   36  C   UNL     1     -12.849  10.107  71.560  1.00  0.00    -0.443 C  
HETATM   37  F   UNL     1     -13.429  10.093  70.341  1.00  0.00    -0.352 F  
HETATM   38  F   UNL     1     -13.682  10.759  72.405  1.00  0.00    -0.394 F  
HETATM   39  F   UNL     1     -11.724  10.866  71.458  1.00  0.00    -0.258 F  
ENDBRANCH  34  35
ENDBRANCH  31  34
ENDBRANCH  27  28
ENDBRANCH  26  27
ENDBRANCH  25  26
ENDBRANCH  23  25
ENDBRANCH   2  23
TORSDOF 13
ENDMDL
MODEL       43
REMARK 921   NORMALIZED FREE ENERGY PREDICTED BY IDOCK:   -5.81 KCAL/MOL
REMARK 922        TOTAL FREE ENERGY PREDICTED BY IDOCK:  -13.39 KCAL/MOL
REMARK 923 INTER-LIGAND FREE ENERGY PREDICTED BY IDOCK:  -10.86 KCAL/MOL
REMARK 924 INTRA-LIGAND FREE ENERGY PREDICTED BY IDOCK:   -2.52 KCAL/MOL
REMARK 927      BINDING AFFINITY PREDICTED BY RF-SCORE:    0.00 PKD
ROOT
HETATM    1  C   UNL     1     -11.745  12.055  65.440  1.00  0.00    -0.317 C  
HETATM    2  C   UNL     1     -10.427  12.652  65.949  1.00  0.00    -0.274 C  
ENDROOT
BRANCH   2   3
HETATM    3  C   UNL     1     -10.553  13.225  67.379  1.00  0.00    -0.250 C  
BRANCH   3   4
HETATM    4  C   UNL     1     -10.711  12.169  68.436  1.00  0.00    -0.252 A  
HETATM    5  C   UNL     1      -9.741  11.170  68.572  1.00  0.00    -0.196 A  
HETATM    6  C   UNL     1     -12.558   9.828  72.051  1.00  0.00    -0.347 A  
HETATM    7  C   UNL     1     -11.811  12.155  69.282  1.00  0.00    -0.370 A  
HETATM    8  C   UNL     1     -11.887  11.162  70.250  1.00  0.00    -0.455 A  
HETATM    9  C   UNL     1      -9.809  10.176  69.579  1.00  0.00    -0.255 A  
HETATM   10  C   UNL     1     -10.917  10.150  70.433  1.00  0.00    -0.319 A  
HETATM   11  C   UNL     1     -13.010  11.027  71.224  1.00  0.00    -0.472 A  
HETATM   12  N   UNL     1     -11.309   9.320  71.468  1.00  0.00    -0.361 NA 
BRANCH  12  13
HETATM   13  C   UNL     1     -10.635   8.207  72.108  1.00  0.00    -0.290 C  
BRANCH  13  14
HETATM   14  C   UNL     1     -11.447   6.914  71.997  1.00  0.00    -0.310 C  
BRANCH  14  15
HETATM   15  C   UNL     1     -11.183   6.142  70.712  1.00  0.00    -0.306 C  
HETATM   16  O   UNL     1     -11.788   6.831  69.618  1.00  0.00    -0.633 OA 
HETATM   17  H   UNL     1     -11.623   6.349  68.816  1.00  0.00     0.000 HD 
ENDBRANCH  14  15
ENDBRANCH  13  14
ENDBRANCH  12  13
BRANCH   9  18
HETATM   18  C   UNL     1      -8.660   9.234  69.565  1.00  0.00    -0.147 C  
HETATM   19  N   UNL     1      -8.851   8.056  68.877  1.00  0.00    -0.141 N  
HETATM   20  O   UNL     1      -7.606   9.423  70.162  1.00  0.00    -0.094 OA 
HETATM   21  H2  UNL     1      -9.729   7.843  68.406  1.00  0.00     0.000 HD 
HETATM   22  H1  UNL     1      -8.062   7.408  68.867  1.00  0.00     0.000 HD 
ENDBRANCH   9  18
ENDBRANCH   3   4
ENDBRANCH   2   3
BRANCH   2  23
HETATM   23  N   UNL     1      -9.983  13.679  64.990  1.00  0.00    -0.592 NA 
HETATM   24  H   UNL     1      -9.452  13.254  64.231  1.00  0.00     0.000 HD 
BRANCH  23  25
HETATM   25  C   UNL     1     -11.073  14.512  64.456  1.00  0.00    -0.268 C  
BRANCH  25  26
HETATM   26  C   UNL     1     -11.104  15.951  65.015  1.00  0.00    -0.360 C  
BRANCH  26  27
HETATM   27  O   UNL     1      -9.845  16.353  65.572  1.00  0.00    -0.522 OA 
BRANCH  27  28
HETATM   28  C   UNL     1      -9.864  17.386  66.475  1.00  0.00    -0.304 A  
HETATM   29  C   UNL     1      -9.324  18.174  68.701  1.00  0.00    -0.309 A  
HETATM   30  C   UNL     1     -10.524  18.606  66.245  1.00  0.00    -0.468 A  
HETATM   31  C   UNL     1      -9.257  17.181  67.724  1.00  0.00    -0.241 A  
HETATM   32  C   UNL     1      -9.992  19.377  68.462  1.00  0.00    -0.520 A  
HETATM   33  C   UNL     1     -10.595  19.588  67.228  1.00  0.00    -0.610 A  
BRANCH  31  34
HETATM   34  O   UNL     1      -8.678  16.017  68.158  1.00  0.00    -0.169 OA 
BRANCH  34  35
HETATM   35  C   UNL     1      -7.716  15.410  67.286  1.00  0.00    -0.213 C  
HETATM   36  C   UNL     1      -7.114  14.139  67.875  1.00  0.00    -0.160 C  
HETATM   37  F   UNL     1      -7.717  13.736  69.014  1.00  0.00    -0.124 F  
HETATM   38  F   UNL     1      -7.176  13.114  66.992  1.00  0.00    -0.124 F  
HETATM   39  F   UNL     1      -5.798  14.325  68.165  1.00  0.00    -0.090 F  
ENDBRANCH  34  35
ENDBRANCH  31  34
ENDBRANCH  27  28
ENDBRANCH  26  27
ENDBRANCH  25  26
ENDBRANCH  23  25
ENDBRANCH   2  23
TORSDOF 13
ENDMDL
MODEL       44
REMARK 921   NORMALIZED FREE ENERGY PREDICTED BY IDOCK:   -5.80 KCAL/MOL
REMARK 922        TOTAL FREE ENERGY PREDICTED BY IDOCK:  -13.37 KCAL/MOL
REMARK 923 INTER-LIGAND FREE ENERGY PREDICTED BY IDOCK:  -11.05 KCAL/MOL
REMARK 924 INTRA-LIGAND FREE ENERGY PREDICTED BY IDOCK:   -2.33 KCAL/MOL
REMARK 927      BINDING AFFINITY PREDICTED BY RF-SCORE:    0.00 PKD
ROOT
HETATM    1  C   UNL     1      -7.522  12.210  67.430  1.00  0.00    -0.156 C  
HETATM    2  C   UNL     1      -8.624  12.979  68.169  1.00  0.00    -0.188 C  
ENDROOT
BRANCH   2   3
HETATM    3  C   UNL     1     -10.041  12.538  67.737  1.00  0.00    -0.218 C  
BRANCH   3   4
HETATM    4  C   UNL     1     -10.610  11.435  68.584  1.00  0.00    -0.229 A  
HETATM    5  C   UNL     1     -10.296  10.103  68.295  1.00  0.00    -0.215 A  
HETATM    6  C   UNL     1     -12.998   9.344  72.032  1.00  0.00    -0.423 A  
HETATM    7  C   UNL     1     -11.455  11.708  69.651  1.00  0.00    -0.359 A  
HETATM    8  C   UNL     1     -11.931  10.645  70.405  1.00  0.00    -0.436 A  
HETATM    9  C   UNL     1     -10.761   9.023  69.085  1.00  0.00    -0.176 A  
HETATM   10  C   UNL     1     -11.619   9.288  70.158  1.00  0.00    -0.045 A  
HETATM   11  C   UNL     1     -12.844  10.792  71.577  1.00  0.00    -0.567 A  
HETATM   12  N   UNL     1     -12.271   8.491  71.083  1.00  0.00    -0.271 NA 
BRANCH  12  13
HETATM   13  C   UNL     1     -12.211   7.063  71.323  1.00  0.00    -0.377 C  
BRANCH  13  14
HETATM   14  C   UNL     1     -10.833   6.632  71.833  1.00  0.00    -0.267 C  
BRANCH  14  15
HETATM   15  C   UNL     1     -10.537   7.101  73.250  1.00  0.00    -0.364 C  
HETATM   16  O   UNL     1      -9.849   8.352  73.195  1.00  0.00    -0.198 OA 
HETATM   17  H   UNL     1      -9.664   8.645  74.080  1.00  0.00     0.000 HD 
ENDBRANCH  14  15
ENDBRANCH  13  14
ENDBRANCH  12  13
BRANCH   9  18
HETATM   18  C   UNL     1     -10.284   7.695  68.620  1.00  0.00    -0.199 C  
HETATM   19  N   UNL     1     -11.178   6.952  67.882  1.00  0.00    -0.558 N  
HETATM   20  O   UNL     1      -9.188   7.221  68.900  1.00  0.00    -0.142 OA 
HETATM   21  H2  UNL     1     -12.115   7.295  67.667  1.00  0.00     0.000 HD 
HETATM   22  H1  UNL     1     -10.851   6.040  67.563  1.00  0.00     0.000 HD 
ENDBRANCH   9  18
ENDBRANCH   3   4
ENDBRANCH   2   3
BRANCH   2  23
HETATM   23  N   UNL     1      -8.414  14.421  67.947  1.00  0.00    -0.155 NA 
HETATM   24  H   UNL     1      -9.300  14.886  67.757  1.00  0.00     0.000 HD 
BRANCH  23  25
HETATM   25  C   UNL     1      -7.697  15.098  69.040  1.00  0.00    -0.177 C  
BRANCH  25  26
HETATM   26  C   UNL     1      -7.881  16.631  69.064  1.00  0.00    -0.215 C  
BRANCH  26  27
HETATM   27  O   UNL     1      -9.261  17.021  69.081  1.00  0.00    -0.201 OA 
BRANCH  27  28
HETATM   28  C   UNL     1      -9.664  17.930  68.137  1.00  0.00    -0.320 A  
HETATM   29  C   UNL     1     -10.651  18.324  65.960  1.00  0.00    -0.318 A  
HETATM   30  C   UNL     1      -9.409  19.310  68.228  1.00  0.00    -0.407 A  
HETATM   31  C   UNL     1     -10.297  17.444  66.981  1.00  0.00    -0.318 A  
HETATM   32  C   UNL     1     -10.381  19.691  66.060  1.00  0.00    -0.620 A  
HETATM   33  C   UNL     1      -9.754  20.181  67.200  1.00  0.00    -0.576 A  
BRANCH  31  34
HETATM   34  O   UNL     1     -10.515  16.126  66.676  1.00  0.00    -0.301 OA 
BRANCH  34  35
HETATM   35  C   UNL     1     -10.624  15.794  65.286  1.00  0.00    -0.423 C  
HETATM   36  C   UNL     1     -11.604  14.654  65.032  1.00  0.00    -0.385 C  
HETATM   37  F   UNL     1     -12.302  14.291  66.129  1.00  0.00    -0.419 F  
HETATM   38  F   UNL     1     -12.495  14.980  64.067  1.00  0.00    -0.510 F  
HETATM   39  F   UNL     1     -10.944  13.547  64.597  1.00  0.00    -0.315 F  
ENDBRANCH  34  35
ENDBRANCH  31  34
ENDBRANCH  27  28
ENDBRANCH  26  27
ENDBRANCH  25  26
ENDBRANCH  23  25
ENDBRANCH   2  23
TORSDOF 13
ENDMDL
MODEL       45
REMARK 921   NORMALIZED FREE ENERGY PREDICTED BY IDOCK:   -5.80 KCAL/MOL
REMARK 922        TOTAL FREE ENERGY PREDICTED BY IDOCK:  -13.37 KCAL/MOL
REMARK 923 INTER-LIGAND FREE ENERGY PREDICTED BY IDOCK:  -10.73 KCAL/MOL
REMARK 924 INTRA-LIGAND FREE ENERGY PREDICTED BY IDOCK:   -2.63 KCAL/MOL
REMARK 927      BINDING AFFINITY PREDICTED BY RF-SCORE:    0.00 PKD
ROOT
HETATM    1  C   UNL     1      -8.432  16.568  68.613  1.00  0.00    -0.243 C  
HETATM    2  C   UNL     1      -8.990  16.297  67.210  1.00  0.00    -0.195 C  
ENDROOT
BRANCH   2   3
HETATM    3  C   UNL     1     -10.524  16.103  67.214  1.00  0.00    -0.309 C  
BRANCH   3   4
HETATM    4  C   UNL     1     -10.984  14.985  68.105  1.00  0.00    -0.281 A  
HETATM    5  C   UNL     1     -11.494  15.272  69.376  1.00  0.00    -0.329 A  
HETATM    6  C   UNL     1     -11.988  10.626  69.504  1.00  0.00    -0.247 A  
HETATM    7  C   UNL     1     -10.905  13.660  67.698  1.00  0.00    -0.268 A  
HETATM    8  C   UNL     1     -11.364  12.675  68.562  1.00  0.00    -0.333 A  
HETATM    9  C   UNL     1     -11.988  14.265  70.242  1.00  0.00    -0.398 A  
HETATM   10  C   UNL     1     -11.906  12.927  69.843  1.00  0.00    -0.303 A  
HETATM   11  C   UNL     1     -11.340  11.214  68.255  1.00  0.00    -0.365 A  
HETATM   12  N   UNL     1     -12.248  11.726  70.441  1.00  0.00    -0.348 NA 
BRANCH  12  13
HETATM   13  C   UNL     1     -12.919  11.440  71.694  1.00  0.00    -0.418 C  
BRANCH  13  14
HETATM   14  C   UNL     1     -13.820  10.208  71.585  1.00  0.00    -0.017 C  
BRANCH  14  15
HETATM   15  C   UNL     1     -13.303   9.007  72.364  1.00  0.00    -0.460 C  
HETATM   16  O   UNL     1     -14.348   8.506  73.200  1.00  0.00    -0.973 OA 
HETATM   17  H   UNL     1     -14.025   7.756  73.686  1.00  0.00     0.000 HD 
ENDBRANCH  14  15
ENDBRANCH  13  14
ENDBRANCH  12  13
BRANCH   9  18
HETATM   18  C   UNL     1     -12.513  14.792  71.529  1.00  0.00    -0.339 C  
HETATM   19  N   UNL     1     -13.874  14.993  71.592  1.00  0.00    -0.434 N  
HETATM   20  O   UNL     1     -11.810  15.098  72.485  1.00  0.00    -0.390 OA 
HETATM   21  H2  UNL     1     -14.486  14.793  70.801  1.00  0.00     0.000 HD 
HETATM   22  H1  UNL     1     -14.235  15.355  72.476  1.00  0.00     0.000 HD 
ENDBRANCH   9  18
ENDBRANCH   3   4
ENDBRANCH   2   3
BRANCH   2  23
HETATM   23  N   UNL     1      -8.297  15.122  66.653  1.00  0.00    -0.385 NA 
HETATM   24  H   UNL     1      -7.912  15.337  65.734  1.00  0.00     0.000 HD 
BRANCH  23  25
HETATM   25  C   UNL     1      -7.255  14.568  67.533  1.00  0.00    -0.187 C  
BRANCH  25  26
HETATM   26  C   UNL     1      -7.240  13.025  67.605  1.00  0.00    -0.151 C  
BRANCH  26  27
HETATM   27  O   UNL     1      -7.498  12.412  66.335  1.00  0.00     0.364 OA 
BRANCH  27  28
HETATM   28  C   UNL     1      -8.128  11.194  66.347  1.00  0.00    -0.159 A  
HETATM   29  C   UNL     1      -9.835   9.758  65.403  1.00  0.00    -0.365 A  
HETATM   30  C   UNL     1      -7.893  10.208  67.322  1.00  0.00    -0.103 A  
HETATM   31  C   UNL     1      -9.114  10.950  65.378  1.00  0.00    -0.198 A  
HETATM   32  C   UNL     1      -9.598   8.793  66.385  1.00  0.00    -0.316 A  
HETATM   33  C   UNL     1      -8.624   9.025  67.348  1.00  0.00    -0.115 A  
BRANCH  31  34
HETATM   34  O   UNL     1      -9.552  11.841  64.432  1.00  0.00    -0.175 OA 
BRANCH  34  35
HETATM   35  C   UNL     1     -10.886  11.660  63.943  1.00  0.00    -0.405 C  
HETATM   36  C   UNL     1     -11.732  12.923  64.071  1.00  0.00    -0.434 C  
HETATM   37  F   UNL     1     -11.025  14.006  64.458  1.00  0.00    -0.362 F  
HETATM   38  F   UNL     1     -12.341  13.225  62.901  1.00  0.00    -0.577 F  
HETATM   39  F   UNL     1     -12.719  12.742  64.990  1.00  0.00    -0.515 F  
ENDBRANCH  34  35
ENDBRANCH  31  34
ENDBRANCH  27  28
ENDBRANCH  26  27
ENDBRANCH  25  26
ENDBRANCH  23  25
ENDBRANCH   2  23
TORSDOF 13
ENDMDL
MODEL       46
REMARK 921   NORMALIZED FREE ENERGY PREDICTED BY IDOCK:   -5.79 KCAL/MOL
REMARK 922        TOTAL FREE ENERGY PREDICTED BY IDOCK:  -13.35 KCAL/MOL
REMARK 923 INTER-LIGAND FREE ENERGY PREDICTED BY IDOCK:  -10.68 KCAL/MOL
REMARK 924 INTRA-LIGAND FREE ENERGY PREDICTED BY IDOCK:   -2.67 KCAL/MOL
REMARK 927      BINDING AFFINITY PREDICTED BY RF-SCORE:    0.00 PKD
ROOT
HETATM    1  C   UNL     1     -10.180  19.138  68.683  1.00  0.00    -0.407 C  
HETATM    2  C   UNL     1     -10.369  17.778  68.000  1.00  0.00    -0.393 C  
ENDROOT
BRANCH   2   3
HETATM    3  C   UNL     1      -9.638  16.638  68.745  1.00  0.00    -0.254 C  
BRANCH   3   4
HETATM    4  C   UNL     1     -10.568  15.670  69.420  1.00  0.00    -0.253 A  
HETATM    5  C   UNL     1     -10.734  14.383  68.897  1.00  0.00    -0.260 A  
HETATM    6  C   UNL     1     -13.588  13.968  72.574  1.00  0.00    -0.566 A  
HETATM    7  C   UNL     1     -11.282  16.029  70.556  1.00  0.00    -0.397 A  
HETATM    8  C   UNL     1     -12.111  15.081  71.142  1.00  0.00    -0.375 A  
HETATM    9  C   UNL     1     -11.559  13.411  69.515  1.00  0.00    -0.352 A  
HETATM   10  C   UNL     1     -12.287  13.765  70.656  1.00  0.00    -0.375 A  
HETATM   11  C   UNL     1     -12.933  15.329  72.363  1.00  0.00    -0.473 A  
HETATM   12  N   UNL     1     -13.189  13.095  71.463  1.00  0.00    -0.324 NA 
BRANCH  12  13
HETATM   13  C   UNL     1     -13.635  11.715  71.456  1.00  0.00     0.382 C  
BRANCH  13  14
HETATM   14  C   UNL     1     -12.708  10.818  72.280  1.00  0.00     0.186 C  
BRANCH  14  15
HETATM   15  C   UNL     1     -12.998   9.333  72.116  1.00  0.00    -0.424 C  
HETATM   16  O   UNL     1     -14.046   8.959  73.013  1.00  0.00    -1.075 OA 
HETATM   17  H   UNL     1     -14.228   8.032  72.910  1.00  0.00     0.000 HD 
ENDBRANCH  14  15
ENDBRANCH  13  14
ENDBRANCH  12  13
BRANCH   9  18
HETATM   18  C   UNL     1     -11.567  12.102  68.811  1.00  0.00    -0.327 C  
HETATM   19  N   UNL     1     -10.647  11.174  69.246  1.00  0.00    -0.335 N  
HETATM   20  O   UNL     1     -12.290  11.838  67.858  1.00  0.00    -0.399 OA 
HETATM   21  H2  UNL     1      -9.998  11.374  70.007  1.00  0.00     0.000 HD 
HETATM   22  H1  UNL     1     -10.652  10.275  68.763  1.00  0.00     0.000 HD 
ENDBRANCH   9  18
ENDBRANCH   3   4
ENDBRANCH   2   3
BRANCH   2  23
HETATM   23  N   UNL     1      -9.913  17.892  66.603  1.00  0.00    -0.337 NA 
HETATM   24  H   UNL     1      -9.112  18.520  66.539  1.00  0.00     0.000 HD 
BRANCH  23  25
HETATM   25  C   UNL     1      -9.610  16.601  65.963  1.00  0.00    -0.266 C  
BRANCH  25  26
HETATM   26  C   UNL     1     -10.767  16.026  65.117  1.00  0.00    -0.409 C  
BRANCH  26  27
HETATM   27  O   UNL     1     -11.414  14.915  65.752  1.00  0.00    -0.342 OA 
BRANCH  27  28
HETATM   28  C   UNL     1     -11.460  13.737  65.050  1.00  0.00    -0.332 A  
HETATM   29  C   UNL     1     -10.450  11.585  64.586  1.00  0.00    -0.356 A  
HETATM   30  C   UNL     1     -12.378  13.486  64.014  1.00  0.00    -0.391 A  
HETATM   31  C   UNL     1     -10.490  12.762  65.331  1.00  0.00    -0.286 A  
HETATM   32  C   UNL     1     -11.362  11.354  63.553  1.00  0.00    -0.257 A  
HETATM   33  C   UNL     1     -12.326  12.313  63.268  1.00  0.00    -0.518 A  
BRANCH  31  34
HETATM   34  O   UNL     1      -9.454  12.890  66.219  1.00  0.00    -0.254 OA 
BRANCH  34  35
HETATM   35  C   UNL     1      -8.521  11.804  66.285  1.00  0.00    -0.022 C  
HETATM   36  C   UNL     1      -7.520  11.961  67.424  1.00  0.00    -0.148 C  
HETATM   37  F   UNL     1      -7.802  12.992  68.249  1.00  0.00    -0.113 F  
HETATM   38  F   UNL     1      -7.454  10.838  68.176  1.00  0.00    -0.083 F  
HETATM   39  F   UNL     1      -6.270  12.176  66.932  1.00  0.00    -0.146 F  
ENDBRANCH  34  35
ENDBRANCH  31  34
ENDBRANCH  27  28
ENDBRANCH  26  27
ENDBRANCH  25  26
ENDBRANCH  23  25
ENDBRANCH   2  23
TORSDOF 13
ENDMDL
MODEL       47
REMARK 921   NORMALIZED FREE ENERGY PREDICTED BY IDOCK:   -5.78 KCAL/MOL
REMARK 922        TOTAL FREE ENERGY PREDICTED BY IDOCK:  -13.34 KCAL/MOL
REMARK 923 INTER-LIGAND FREE ENERGY PREDICTED BY IDOCK:  -10.86 KCAL/MOL
REMARK 924 INTRA-LIGAND FREE ENERGY PREDICTED BY IDOCK:   -2.48 KCAL/MOL
REMARK 927      BINDING AFFINITY PREDICTED BY RF-SCORE:    0.00 PKD
ROOT
HETATM    1  C   UNL     1     -11.677  15.608  68.539  1.00  0.00    -0.339 C  
HETATM    2  C   UNL     1     -11.984  14.233  67.931  1.00  0.00    -0.329 C  
ENDROOT
BRANCH   2   3
HETATM    3  C   UNL     1     -10.796  13.254  68.061  1.00  0.00    -0.261 C  
BRANCH   3   4
HETATM    4  C   UNL     1     -11.126  12.010  68.836  1.00  0.00    -0.298 A  
HETATM    5  C   UNL     1     -10.608  10.777  68.427  1.00  0.00    -0.228 A  
HETATM    6  C   UNL     1     -12.947   9.290  72.190  1.00  0.00    -0.424 A  
HETATM    7  C   UNL     1     -11.948  12.054  69.953  1.00  0.00    -0.391 A  
HETATM    8  C   UNL     1     -12.200  10.871  70.636  1.00  0.00    -0.472 A  
HETATM    9  C   UNL     1     -10.844   9.577  69.143  1.00  0.00    -0.194 A  
HETATM   10  C   UNL     1     -11.677   9.610  70.266  1.00  0.00    -0.155 A  
HETATM   11  C   UNL     1     -13.062  10.772  71.850  1.00  0.00    -0.557 A  
HETATM   12  N   UNL     1     -12.137   8.647  71.148  1.00  0.00    -0.284 NA 
BRANCH  12  13
HETATM   13  C   UNL     1     -11.826   7.236  71.267  1.00  0.00    -0.307 C  
BRANCH  13  14
HETATM   14  C   UNL     1     -11.212   6.906  72.631  1.00  0.00    -0.297 C  
BRANCH  14  15
HETATM   15  C   UNL     1      -9.727   7.227  72.721  1.00  0.00    -0.162 C  
HETATM   16  O   UNL     1      -9.548   8.642  72.643  1.00  0.00    -0.254 OA 
HETATM   17  H   UNL     1      -8.620   8.842  72.699  1.00  0.00     0.000 HD 
ENDBRANCH  14  15
ENDBRANCH  13  14
ENDBRANCH  12  13
BRANCH   9  18
HETATM   18  C   UNL     1     -10.175   8.389  68.553  1.00  0.00    -0.201 C  
HETATM   19  N   UNL     1     -10.797   7.821  67.463  1.00  0.00    -0.519 N  
HETATM   20  O   UNL     1      -9.160   7.873  69.008  1.00  0.00    -0.145 OA 
HETATM   21  H2  UNL     1     -11.666   8.195  67.083  1.00  0.00     0.000 HD 
HETATM   22  H1  UNL     1     -10.337   7.005  67.058  1.00  0.00     0.000 HD 
ENDBRANCH   9  18
ENDBRANCH   3   4
ENDBRANCH   2   3
BRANCH   2  23
HETATM   23  N   UNL     1     -12.377  14.425  66.524  1.00  0.00    -0.484 NA 
HETATM   24  H   UNL     1     -12.908  15.289  66.416  1.00  0.00     0.000 HD 
BRANCH  23  25
HETATM   25  C   UNL     1     -11.251  14.388  65.576  1.00  0.00    -0.330 C  
BRANCH  25  26
HETATM   26  C   UNL     1     -10.788  15.778  65.088  1.00  0.00    -0.428 C  
BRANCH  26  27
HETATM   27  O   UNL     1      -9.593  16.222  65.744  1.00  0.00    -0.422 OA 
BRANCH  27  28
HETATM   28  C   UNL     1      -9.555  17.532  66.151  1.00  0.00    -0.182 A  
HETATM   29  C   UNL     1      -8.459  19.237  67.478  1.00  0.00    -0.324 A  
HETATM   30  C   UNL     1     -10.560  18.468  65.849  1.00  0.00    -0.336 A  
HETATM   31  C   UNL     1      -8.494  17.937  66.976  1.00  0.00    -0.236 A  
HETATM   32  C   UNL     1      -9.471  20.152  67.178  1.00  0.00    -0.537 A  
HETATM   33  C   UNL     1     -10.525  19.760  66.362  1.00  0.00    -0.618 A  
BRANCH  31  34
HETATM   34  O   UNL     1      -7.499  17.129  67.463  1.00  0.00    -0.156 OA 
BRANCH  34  35
HETATM   35  C   UNL     1      -7.454  16.945  68.883  1.00  0.00    -0.238 C  
HETATM   36  C   UNL     1      -7.678  15.492  69.290  1.00  0.00    -0.223 C  
HETATM   37  F   UNL     1      -7.706  14.639  68.245  1.00  0.00    -0.104 F  
HETATM   38  F   UNL     1      -6.716  15.069  70.142  1.00  0.00    -0.166 F  
HETATM   39  F   UNL     1      -8.864  15.360  69.944  1.00  0.00    -0.258 F  
ENDBRANCH  34  35
ENDBRANCH  31  34
ENDBRANCH  27  28
ENDBRANCH  26  27
ENDBRANCH  25  26
ENDBRANCH  23  25
ENDBRANCH   2  23
TORSDOF 13
ENDMDL
MODEL       48
REMARK 921   NORMALIZED FREE ENERGY PREDICTED BY IDOCK:   -5.78 KCAL/MOL
REMARK 922        TOTAL FREE ENERGY PREDICTED BY IDOCK:  -13.34 KCAL/MOL
REMARK 923 INTER-LIGAND FREE ENERGY PREDICTED BY IDOCK:  -10.80 KCAL/MOL
REMARK 924 INTRA-LIGAND FREE ENERGY PREDICTED BY IDOCK:   -2.54 KCAL/MOL
REMARK 927      BINDING AFFINITY PREDICTED BY RF-SCORE:    0.00 PKD
ROOT
HETATM    1  C   UNL     1     -11.112   8.277  72.566  1.00  0.00    -0.439 C  
HETATM    2  C   UNL     1     -11.579   8.903  71.246  1.00  0.00    -0.304 C  
ENDROOT
BRANCH   2   3
HETATM    3  C   UNL     1     -12.588  10.053  71.464  1.00  0.00    -0.525 C  
BRANCH   3   4
HETATM    4  C   UNL     1     -12.359  11.230  70.560  1.00  0.00    -0.446 A  
HETATM    5  C   UNL     1     -12.451  12.529  71.071  1.00  0.00    -0.353 A  
HETATM    6  C   UNL     1     -11.346  13.636  66.667  1.00  0.00    -0.326 A  
HETATM    7  C   UNL     1     -12.064  11.060  69.214  1.00  0.00    -0.363 A  
HETATM    8  C   UNL     1     -11.845  12.189  68.437  1.00  0.00    -0.360 A  
HETATM    9  C   UNL     1     -12.199  13.678  70.281  1.00  0.00    -0.423 A  
HETATM   10  C   UNL     1     -11.908  13.516  68.922  1.00  0.00    -0.345 A  
HETATM   11  C   UNL     1     -11.521  12.154  66.980  1.00  0.00    -0.415 A  
HETATM   12  N   UNL     1     -11.655  14.397  67.885  1.00  0.00    -0.327 NA 
BRANCH  12  13
HETATM   13  C   UNL     1     -11.509  15.839  67.870  1.00  0.00    -0.221 C  
BRANCH  13  14
HETATM   14  C   UNL     1     -10.161  16.264  67.281  1.00  0.00    -0.279 C  
BRANCH  14  15
HETATM   15  C   UNL     1     -10.250  17.497  66.394  1.00  0.00    -0.354 C  
HETATM   16  O   UNL     1     -10.632  17.100  65.076  1.00  0.00    -0.704 OA 
HETATM   17  H   UNL     1     -10.687  17.870  64.522  1.00  0.00     0.000 HD 
ENDBRANCH  14  15
ENDBRANCH  13  14
ENDBRANCH  12  13
BRANCH   9  18
HETATM   18  C   UNL     1     -12.321  14.956  71.030  1.00  0.00    -0.324 C  
HETATM   19  N   UNL     1     -13.517  15.625  70.897  1.00  0.00    -0.769 N  
HETATM   20  O   UNL     1     -11.419  15.454  71.693  1.00  0.00    -0.373 OA 
HETATM   21  H2  UNL     1     -14.275  15.264  70.318  1.00  0.00     0.000 HD 
HETATM   22  H1  UNL     1     -13.602  16.502  71.411  1.00  0.00     0.000 HD 
ENDBRANCH   9  18
ENDBRANCH   3   4
ENDBRANCH   2   3
BRANCH   2  23
HETATM   23  N   UNL     1     -12.147   7.836  70.402  1.00  0.00    -0.475 NA 
HETATM   24  H   UNL     1     -12.052   8.072  69.415  1.00  0.00     0.000 HD 
BRANCH  23  25
HETATM   25  C   UNL     1     -11.592   6.499  70.670  1.00  0.00    -0.381 C  
BRANCH  25  26
HETATM   26  C   UNL     1     -10.937   5.828  69.444  1.00  0.00    -0.282 C  
BRANCH  26  27
HETATM   27  O   UNL     1     -11.096   6.596  68.244  1.00  0.00    -0.255 OA 
BRANCH  27  28
HETATM   28  C   UNL     1     -10.126   6.461  67.284  1.00  0.00    -0.163 A  
HETATM   29  C   UNL     1      -8.506   7.537  65.839  1.00  0.00    -0.153 A  
HETATM   30  C   UNL     1      -9.833   5.245  66.641  1.00  0.00    -0.198 A  
HETATM   31  C   UNL     1      -9.443   7.615  66.869  1.00  0.00    -0.172 A  
HETATM   32  C   UNL     1      -8.234   6.324  65.203  1.00  0.00    -0.138 A  
HETATM   33  C   UNL     1      -8.905   5.176  65.607  1.00  0.00    -0.146 A  
BRANCH  31  34
HETATM   34  O   UNL     1      -9.685   8.894  67.300  1.00  0.00    -0.161 OA 
BRANCH  34  35
HETATM   35  C   UNL     1      -8.598   9.823  67.208  1.00  0.00    -0.128 C  
HETATM   36  C   UNL     1      -8.322  10.531  68.530  1.00  0.00    -0.129 C  
HETATM   37  F   UNL     1      -9.029  10.033  69.565  1.00  0.00    -0.157 F  
HETATM   38  F   UNL     1      -7.010  10.463  68.857  1.00  0.00    -0.057 F  
HETATM   39  F   UNL     1      -8.632  11.853  68.435  1.00  0.00    -0.151 F  
ENDBRANCH  34  35
ENDBRANCH  31  34
ENDBRANCH  27  28
ENDBRANCH  26  27
ENDBRANCH  25  26
ENDBRANCH  23  25
ENDBRANCH   2  23
TORSDOF 13
ENDMDL
MODEL       49
REMARK 921   NORMALIZED FREE ENERGY PREDICTED BY IDOCK:   -5.76 KCAL/MOL
REMARK 922        TOTAL FREE ENERGY PREDICTED BY IDOCK:  -13.30 KCAL/MOL
REMARK 923 INTER-LIGAND FREE ENERGY PREDICTED BY IDOCK:  -11.08 KCAL/MOL
REMARK 924 INTRA-LIGAND FREE ENERGY PREDICTED BY IDOCK:   -2.22 KCAL/MOL
REMARK 927      BINDING AFFINITY PREDICTED BY RF-SCORE:    0.00 PKD
ROOT
HETATM    1  C   UNL     1      -9.070  11.214  62.965  1.00  0.00    -0.285 C  
HETATM    2  C   UNL     1      -9.888  11.032  64.250  1.00  0.00    -0.303 C  
ENDROOT
BRANCH   2   3
HETATM    3  C   UNL     1      -9.707   9.627  64.868  1.00  0.00    -0.174 C  
BRANCH   3   4
HETATM    4  C   UNL     1     -10.033   9.570  66.333  1.00  0.00    -0.339 A  
HETATM    5  C   UNL     1      -9.547   8.517  67.115  1.00  0.00    -0.232 A  
HETATM    6  C   UNL     1     -11.796  10.848  70.483  1.00  0.00    -0.360 A  
HETATM    7  C   UNL     1     -10.822  10.542  66.934  1.00  0.00    -0.252 A  
HETATM    8  C   UNL     1     -11.071  10.441  68.297  1.00  0.00    -0.338 A  
HETATM    9  C   UNL     1      -9.780   8.434  68.510  1.00  0.00    -0.169 A  
HETATM   10  C   UNL     1     -10.579   9.405  69.123  1.00  0.00    -0.218 A  
HETATM   11  C   UNL     1     -11.899  11.413  69.070  1.00  0.00    -0.415 A  
HETATM   12  N   UNL     1     -11.027   9.599  70.418  1.00  0.00    -0.275 NA 
BRANCH  12  13
HETATM   13  C   UNL     1     -10.734   8.887  71.647  1.00  0.00    -0.347 C  
BRANCH  13  14
HETATM   14  C   UNL     1     -12.012   8.412  72.343  1.00  0.00    -0.451 C  
BRANCH  14  15
HETATM   15  C   UNL     1     -12.522   7.074  71.826  1.00  0.00    -0.356 C  
HETATM   16  O   UNL     1     -12.657   7.142  70.405  1.00  0.00    -0.612 OA 
HETATM   17  H   UNL     1     -12.975   6.307  70.082  1.00  0.00     0.000 HD 
ENDBRANCH  14  15
ENDBRANCH  13  14
ENDBRANCH  12  13
BRANCH   9  18
HETATM   18  C   UNL     1      -9.147   7.252  69.151  1.00  0.00    -0.137 C  
HETATM   19  N   UNL     1      -9.967   6.168  69.369  1.00  0.00    -0.159 N  
HETATM   20  O   UNL     1      -7.982   7.218  69.533  1.00  0.00    -0.122 OA 
HETATM   21  H2  UNL     1     -10.952   6.176  69.106  1.00  0.00     0.000 HD 
HETATM   22  H1  UNL     1      -9.532   5.356  69.810  1.00  0.00     0.000 HD 
ENDBRANCH   9  18
ENDBRANCH   3   4
ENDBRANCH   2   3
BRANCH   2  23
HETATM   23  N   UNL     1     -11.302  11.311  63.944  1.00  0.00    -0.457 NA 
HETATM   24  H   UNL     1     -11.882  11.165  64.770  1.00  0.00     0.000 HD 
BRANCH  23  25
HETATM   25  C   UNL     1     -11.540  12.648  63.375  1.00  0.00    -0.469 C  
BRANCH  25  26
HETATM   26  C   UNL     1     -11.860  13.735  64.423  1.00  0.00    -0.427 C  
BRANCH  26  27
HETATM   27  O   UNL     1     -10.791  14.677  64.584  1.00  0.00    -0.385 OA 
BRANCH  27  28
HETATM   28  C   UNL     1     -10.205  14.750  65.822  1.00  0.00    -0.338 A  
HETATM   29  C   UNL     1      -9.264  16.142  67.567  1.00  0.00    -0.210 A  
HETATM   30  C   UNL     1      -9.796  13.622  66.555  1.00  0.00    -0.295 A  
HETATM   31  C   UNL     1      -9.931  16.023  66.349  1.00  0.00    -0.295 A  
HETATM   32  C   UNL     1      -8.854  15.012  68.279  1.00  0.00    -0.172 A  
HETATM   33  C   UNL     1      -9.121  13.749  67.765  1.00  0.00    -0.193 A  
BRANCH  31  34
HETATM   34  O   UNL     1     -10.152  17.220  65.719  1.00  0.00    -0.533 OA 
BRANCH  34  35
HETATM   35  C   UNL     1     -10.585  18.311  66.540  1.00  0.00    -0.288 C  
HETATM   36  C   UNL     1      -9.524  19.399  66.674  1.00  0.00    -0.350 C  
HETATM   37  F   UNL     1      -8.458  19.211  65.867  1.00  0.00    -0.298 F  
HETATM   38  F   UNL     1     -10.038  20.620  66.399  1.00  0.00    -0.509 F  
HETATM   39  F   UNL     1      -9.054  19.451  67.950  1.00  0.00    -0.324 F  
ENDBRANCH  34  35
ENDBRANCH  31  34
ENDBRANCH  27  28
ENDBRANCH  26  27
ENDBRANCH  25  26
ENDBRANCH  23  25
ENDBRANCH   2  23
TORSDOF 13
ENDMDL
MODEL       50
REMARK 921   NORMALIZED FREE ENERGY PREDICTED BY IDOCK:   -5.76 KCAL/MOL
REMARK 922        TOTAL FREE ENERGY PREDICTED BY IDOCK:  -13.30 KCAL/MOL
REMARK 923 INTER-LIGAND FREE ENERGY PREDICTED BY IDOCK:  -11.19 KCAL/MOL
REMARK 924 INTRA-LIGAND FREE ENERGY PREDICTED BY IDOCK:   -2.11 KCAL/MOL
REMARK 927      BINDING AFFINITY PREDICTED BY RF-SCORE:    0.00 PKD
ROOT
HETATM    1  C   UNL     1     -14.368   8.320  71.523  1.00  0.00    -0.525 C  
HETATM    2  C   UNL     1     -13.060   9.054  71.842  1.00  0.00    -0.400 C  
ENDROOT
BRANCH   2   3
HETATM    3  C   UNL     1     -12.137   9.176  70.609  1.00  0.00    -0.115 C  
BRANCH   3   4
HETATM    4  C   UNL     1     -12.054  10.571  70.058  1.00  0.00    -0.351 A  
HETATM    5  C   UNL     1     -11.750  10.768  68.706  1.00  0.00    -0.315 A  
HETATM    6  C   UNL     1     -12.249  15.251  69.929  1.00  0.00    -0.323 A  
HETATM    7  C   UNL     1     -12.265  11.679  70.866  1.00  0.00    -0.401 A  
HETATM    8  C   UNL     1     -12.192  12.941  70.290  1.00  0.00    -0.362 A  
HETATM    9  C   UNL     1     -11.705  12.056  68.117  1.00  0.00    -0.398 A  
HETATM   10  C   UNL     1     -11.909  13.180  68.926  1.00  0.00    -0.320 A  
HETATM   11  C   UNL     1     -12.397  14.216  71.039  1.00  0.00    -0.438 A  
HETATM   12  N   UNL     1     -11.897  14.544  68.692  1.00  0.00    -0.327 NA 
BRANCH  12  13
HETATM   13  C   UNL     1     -11.755  15.301  67.464  1.00  0.00    -0.140 C  
BRANCH  13  14
HETATM   14  C   UNL     1     -10.291  15.404  67.029  1.00  0.00    -0.280 C  
BRANCH  14  15
HETATM   15  C   UNL     1     -10.099  16.148  65.716  1.00  0.00    -0.363 C  
HETATM   16  O   UNL     1     -10.679  15.386  64.656  1.00  0.00    -0.595 OA 
HETATM   17  H   UNL     1     -10.559  15.851  63.836  1.00  0.00     0.000 HD 
ENDBRANCH  14  15
ENDBRANCH  13  14
ENDBRANCH  12  13
BRANCH   9  18
HETATM   18  C   UNL     1     -11.395  12.036  66.664  1.00  0.00    -0.340 C  
HETATM   19  N   UNL     1     -10.084  11.785  66.327  1.00  0.00    -0.211 N  
HETATM   20  O   UNL     1     -12.211  12.280  65.783  1.00  0.00    -0.622 OA 
HETATM   21  H2  UNL     1      -9.367  11.622  67.034  1.00  0.00     0.000 HD 
HETATM   22  H1  UNL     1      -9.871  11.772  65.329  1.00  0.00     0.000 HD 
ENDBRANCH   9  18
ENDBRANCH   3   4
ENDBRANCH   2   3
BRANCH   2  23
HETATM   23  N   UNL     1     -12.392   8.350  72.952  1.00  0.00    -0.598 NA 
HETATM   24  H   UNL     1     -12.923   7.522  73.220  1.00  0.00     0.000 HD 
BRANCH  23  25
HETATM   25  C   UNL     1     -10.988   7.999  72.681  1.00  0.00    -0.382 C  
BRANCH  25  26
HETATM   26  C   UNL     1     -10.640   6.521  72.957  1.00  0.00    -0.250 C  
BRANCH  26  27
HETATM   27  O   UNL     1     -11.265   5.625  72.029  1.00  0.00    -0.257 OA 
BRANCH  27  28
HETATM   28  C   UNL     1     -10.440   4.917  71.193  1.00  0.00    -0.091 A  
HETATM   29  C   UNL     1      -9.477   4.677  68.983  1.00  0.00    -0.221 A  
HETATM   30  C   UNL     1      -9.843   3.693  71.543  1.00  0.00    -0.227 A  
HETATM   31  C   UNL     1     -10.243   5.406  69.891  1.00  0.00    -0.281 A  
HETATM   32  C   UNL     1      -8.900   3.457  69.342  1.00  0.00    -0.154 A  
HETATM   33  C   UNL     1      -9.089   2.966  70.628  1.00  0.00    -0.192 A  
BRANCH  31  34
HETATM   34  O   UNL     1     -10.841   6.513  69.347  1.00  0.00    -0.248 OA 
BRANCH  34  35
HETATM   35  C   UNL     1     -10.029   7.335  68.500  1.00  0.00    -0.162 C  
HETATM   36  C   UNL     1     -10.470   7.284  67.041  1.00  0.00    -0.328 C  
HETATM   37  F   UNL     1     -11.630   6.620  66.853  1.00  0.00    -0.429 F  
HETATM   38  F   UNL     1     -10.622   8.529  66.532  1.00  0.00    -0.357 F  
HETATM   39  F   UNL     1      -9.528   6.664  66.280  1.00  0.00    -0.184 F  
ENDBRANCH  34  35
ENDBRANCH  31  34
ENDBRANCH  27  28
ENDBRANCH  26  27
ENDBRANCH  25  26
ENDBRANCH  23  25
ENDBRANCH   2  23
TORSDOF 13
ENDMDL
MODEL       51
REMARK 921   NORMALIZED FREE ENERGY PREDICTED BY IDOCK:   -5.75 KCAL/MOL
REMARK 922        TOTAL FREE ENERGY PREDICTED BY IDOCK:  -13.29 KCAL/MOL
REMARK 923 INTER-LIGAND FREE ENERGY PREDICTED BY IDOCK:  -11.46 KCAL/MOL
REMARK 924 INTRA-LIGAND FREE ENERGY PREDICTED BY IDOCK:   -1.84 KCAL/MOL
REMARK 927      BINDING AFFINITY PREDICTED BY RF-SCORE:    0.00 PKD
ROOT
HETATM    1  C   UNL     1      -9.406  10.100  64.247  1.00  0.00    -0.349 C  
HETATM    2  C   UNL     1      -9.913  10.614  65.600  1.00  0.00    -0.268 C  
ENDROOT
BRANCH   2   3
HETATM    3  C   UNL     1     -10.894  11.799  65.450  1.00  0.00    -0.347 C  
BRANCH   3   4
HETATM    4  C   UNL     1     -11.173  12.513  66.741  1.00  0.00    -0.347 A  
HETATM    5  C   UNL     1     -11.629  11.792  67.851  1.00  0.00    -0.377 A  
HETATM    6  C   UNL     1     -11.471  16.021  69.835  1.00  0.00    -0.326 A  
HETATM    7  C   UNL     1     -10.998  13.885  66.860  1.00  0.00    -0.300 A  
HETATM    8  C   UNL     1     -11.256  14.481  68.087  1.00  0.00    -0.301 A  
HETATM    9  C   UNL     1     -11.863  12.401  69.109  1.00  0.00    -0.352 A  
HETATM   10  C   UNL     1     -11.696  13.784  69.236  1.00  0.00    -0.327 A  
HETATM   11  C   UNL     1     -11.109  15.942  68.356  1.00  0.00    -0.345 A  
HETATM   12  N   UNL     1     -11.871  14.679  70.277  1.00  0.00    -0.285 NA 
BRANCH  12  13
HETATM   13  C   UNL     1     -12.210  14.468  71.670  1.00  0.00    -0.331 C  
BRANCH  13  14
HETATM   14  C   UNL     1     -11.697  15.606  72.556  1.00  0.00    -0.567 C  
BRANCH  14  15
HETATM   15  C   UNL     1     -12.412  15.702  73.896  1.00  0.00    -0.630 C  
HETATM   16  O   UNL     1     -13.682  16.329  73.705  1.00  0.00    -0.896 OA 
HETATM   17  H   UNL     1     -14.128  16.389  74.542  1.00  0.00     0.000 HD 
ENDBRANCH  14  15
ENDBRANCH  13  14
ENDBRANCH  12  13
BRANCH   9  18
HETATM   18  C   UNL     1     -12.312  11.448  70.157  1.00  0.00    -0.266 C  
HETATM   19  N   UNL     1     -12.380  10.124  69.785  1.00  0.00    -0.502 N  
HETATM   20  O   UNL     1     -12.668  11.779  71.283  1.00  0.00    -0.387 OA 
HETATM   21  H2  UNL     1     -12.135   9.815  68.844  1.00  0.00     0.000 HD 
HETATM   22  H1  UNL     1     -12.688   9.469  70.504  1.00  0.00     0.000 HD 
ENDBRANCH   9  18
ENDBRANCH   3   4
ENDBRANCH   2   3
BRANCH   2  23
HETATM   23  N   UNL     1      -8.747  10.977  66.425  1.00  0.00    -0.167 NA 
HETATM   24  H   UNL     1      -8.876  11.899  66.840  1.00  0.00     0.000 HD 
BRANCH  23  25
HETATM   25  C   UNL     1      -8.414   9.985  67.461  1.00  0.00    -0.118 C  
BRANCH  25  26
HETATM   26  C   UNL     1      -8.430  10.543  68.901  1.00  0.00    -0.152 C  
BRANCH  26  27
HETATM   27  O   UNL     1      -9.277   9.785  69.776  1.00  0.00    -0.198 OA 
BRANCH  27  28
HETATM   28  C   UNL     1      -8.678   9.177  70.850  1.00  0.00    -0.221 A  
HETATM   29  C   UNL     1      -8.922   8.208  73.057  1.00  0.00    -0.335 A  
HETATM   30  C   UNL     1      -7.286   9.022  70.978  1.00  0.00    -0.125 A  
HETATM   31  C   UNL     1      -9.496   8.757  71.911  1.00  0.00    -0.292 A  
HETATM   32  C   UNL     1      -7.537   8.070  73.174  1.00  0.00    -0.188 A  
HETATM   33  C   UNL     1      -6.719   8.483  72.128  1.00  0.00    -0.089 A  
BRANCH  31  34
HETATM   34  O   UNL     1     -10.851   8.939  72.004  1.00  0.00    -0.349 OA 
BRANCH  34  35
HETATM   35  C   UNL     1     -11.585   7.960  72.750  1.00  0.00    -0.329 C  
HETATM   36  C   UNL     1     -12.163   6.862  71.863  1.00  0.00    -0.332 C  
HETATM   37  F   UNL     1     -11.737   6.926  70.584  1.00  0.00    -0.330 F  
HETATM   38  F   UNL     1     -11.853   5.634  72.340  1.00  0.00    -0.340 F  
HETATM   39  F   UNL     1     -13.521   6.939  71.836  1.00  0.00    -0.388 F  
ENDBRANCH  34  35
ENDBRANCH  31  34
ENDBRANCH  27  28
ENDBRANCH  26  27
ENDBRANCH  25  26
ENDBRANCH  23  25
ENDBRANCH   2  23
TORSDOF 13
ENDMDL
MODEL       52
REMARK 921   NORMALIZED FREE ENERGY PREDICTED BY IDOCK:   -5.75 KCAL/MOL
REMARK 922        TOTAL FREE ENERGY PREDICTED BY IDOCK:  -13.29 KCAL/MOL
REMARK 923 INTER-LIGAND FREE ENERGY PREDICTED BY IDOCK:  -11.86 KCAL/MOL
REMARK 924 INTRA-LIGAND FREE ENERGY PREDICTED BY IDOCK:   -1.43 KCAL/MOL
REMARK 927      BINDING AFFINITY PREDICTED BY RF-SCORE:    0.00 PKD
ROOT
HETATM    1  C   UNL     1      -9.425  10.618  68.522  1.00  0.00    -0.176 C  
HETATM    2  C   UNL     1     -10.872  10.357  68.962  1.00  0.00    -0.234 C  
ENDROOT
BRANCH   2   3
HETATM    3  C   UNL     1     -11.898  11.123  68.096  1.00  0.00    -0.238 C  
BRANCH   3   4
HETATM    4  C   UNL     1     -11.593  12.588  67.962  1.00  0.00    -0.395 A  
HETATM    5  C   UNL     1     -11.929  13.466  68.997  1.00  0.00    -0.357 A  
HETATM    6  C   UNL     1      -9.986  16.577  66.101  1.00  0.00    -0.343 A  
HETATM    7  C   UNL     1     -10.990  13.097  66.820  1.00  0.00    -0.298 A  
HETATM    8  C   UNL     1     -10.718  14.458  66.767  1.00  0.00    -0.292 A  
HETATM    9  C   UNL     1     -11.624  14.849  68.950  1.00  0.00    -0.339 A  
HETATM   10  C   UNL     1     -11.022  15.373  67.801  1.00  0.00    -0.311 A  
HETATM   11  C   UNL     1     -10.074  15.138  65.605  1.00  0.00    -0.392 A  
HETATM   12  N   UNL     1     -10.635  16.645  67.417  1.00  0.00    -0.316 NA 
BRANCH  12  13
HETATM   13  C   UNL     1     -10.636  17.902  68.138  1.00  0.00    -0.340 C  
BRANCH  13  14
HETATM   14  C   UNL     1     -10.893  19.089  67.206  1.00  0.00    -0.494 C  
BRANCH  14  15
HETATM   15  C   UNL     1      -9.783  20.130  67.230  1.00  0.00    -0.437 C  
HETATM   16  O   UNL     1      -9.360  20.394  65.891  1.00  0.00    -0.621 OA 
HETATM   17  H   UNL     1      -8.667  21.044  65.906  1.00  0.00     0.000 HD 
ENDBRANCH  14  15
ENDBRANCH  13  14
ENDBRANCH  12  13
BRANCH   9  18
HETATM   18  C   UNL     1     -12.041  15.593  70.168  1.00  0.00    -0.377 C  
HETATM   19  N   UNL     1     -13.393  15.627  70.426  1.00  0.00    -0.763 N  
HETATM   20  O   UNL     1     -11.269  16.205  70.898  1.00  0.00    -0.361 OA 
HETATM   21  H2  UNL     1     -14.069  15.168  69.816  1.00  0.00     0.000 HD 
HETATM   22  H1  UNL     1     -13.679  16.138  71.262  1.00  0.00     0.000 HD 
ENDBRANCH   9  18
ENDBRANCH   3   4
ENDBRANCH   2   3
BRANCH   2  23
HETATM   23  N   UNL     1     -10.994  10.710  70.388  1.00  0.00    -0.448 NA 
HETATM   24  H   UNL     1     -10.815  11.705  70.526  1.00  0.00     0.000 HD 
BRANCH  23  25
HETATM   25  C   UNL     1     -12.280  10.326  70.993  1.00  0.00    -0.384 C  
BRANCH  25  26
HETATM   26  C   UNL     1     -12.172   9.215  72.059  1.00  0.00    -0.373 C  
BRANCH  26  27
HETATM   27  O   UNL     1     -10.825   8.761  72.248  1.00  0.00    -0.352 OA 
BRANCH  27  28
HETATM   28  C   UNL     1     -10.642   7.416  72.441  1.00  0.00    -0.244 A  
HETATM   29  C   UNL     1     -10.365   5.220  71.455  1.00  0.00    -0.287 A  
HETATM   30  C   UNL     1     -10.690   6.799  73.704  1.00  0.00    -0.280 A  
HETATM   31  C   UNL     1     -10.473   6.603  71.309  1.00  0.00    -0.215 A  
HETATM   32  C   UNL     1     -10.425   4.621  72.716  1.00  0.00    -0.261 A  
HETATM   33  C   UNL     1     -10.591   5.419  73.842  1.00  0.00    -0.324 A  
BRANCH  31  34
HETATM   34  O   UNL     1     -10.522   7.019  70.004  1.00  0.00    -0.204 OA 
BRANCH  34  35
HETATM   35  C   UNL     1     -11.226   6.177  69.083  1.00  0.00    -0.339 C  
HETATM   36  C   UNL     1     -10.601   6.181  67.692  1.00  0.00    -0.270 C  
HETATM   37  F   UNL     1      -9.420   6.833  67.635  1.00  0.00    -0.122 F  
HETATM   38  F   UNL     1     -10.397   4.921  67.243  1.00  0.00    -0.214 F  
HETATM   39  F   UNL     1     -11.432   6.784  66.799  1.00  0.00    -0.460 F  
ENDBRANCH  34  35
ENDBRANCH  31  34
ENDBRANCH  27  28
ENDBRANCH  26  27
ENDBRANCH  25  26
ENDBRANCH  23  25
ENDBRANCH   2  23
TORSDOF 13
ENDMDL
MODEL       53
REMARK 921   NORMALIZED FREE ENERGY PREDICTED BY IDOCK:   -5.75 KCAL/MOL
REMARK 922        TOTAL FREE ENERGY PREDICTED BY IDOCK:  -13.29 KCAL/MOL
REMARK 923 INTER-LIGAND FREE ENERGY PREDICTED BY IDOCK:   -9.97 KCAL/MOL
REMARK 924 INTRA-LIGAND FREE ENERGY PREDICTED BY IDOCK:   -3.32 KCAL/MOL
REMARK 927      BINDING AFFINITY PREDICTED BY RF-SCORE:    0.00 PKD
ROOT
HETATM    1  C   UNL     1     -14.042   8.650  71.845  1.00  0.00    -0.512 C  
HETATM    2  C   UNL     1     -12.528   8.846  72.004  1.00  0.00    -0.392 C  
ENDROOT
BRANCH   2   3
HETATM    3  C   UNL     1     -11.781   8.781  70.653  1.00  0.00    -0.194 C  
BRANCH   3   4
HETATM    4  C   UNL     1     -11.667  10.112  69.967  1.00  0.00    -0.294 A  
HETATM    5  C   UNL     1     -11.153  10.184  68.668  1.00  0.00    -0.254 A  
HETATM    6  C   UNL     1     -12.036  14.733  69.276  1.00  0.00    -0.294 A  
HETATM    7  C   UNL     1     -12.055  11.285  70.599  1.00  0.00    -0.480 A  
HETATM    8  C   UNL     1     -11.942  12.481  69.902  1.00  0.00    -0.371 A  
HETATM    9  C   UNL     1     -11.065  11.403  67.950  1.00  0.00    -0.320 A  
HETATM   10  C   UNL     1     -11.447  12.591  68.582  1.00  0.00    -0.306 A  
HETATM   11  C   UNL     1     -12.321  13.813  70.458  1.00  0.00    -0.429 A  
HETATM   12  N   UNL     1     -11.454  13.921  68.199  1.00  0.00    -0.293 NA 
BRANCH  12  13
HETATM   13  C   UNL     1     -11.143  14.551  66.931  1.00  0.00    -0.325 C  
BRANCH  13  14
HETATM   14  C   UNL     1     -12.256  14.331  65.903  1.00  0.00    -0.422 C  
BRANCH  14  15
HETATM   15  C   UNL     1     -11.837  14.661  64.477  1.00  0.00    -0.431 C  
HETATM   16  O   UNL     1     -11.377  13.470  63.836  1.00  0.00    -0.571 OA 
HETATM   17  H   UNL     1     -11.116  13.677  62.946  1.00  0.00     0.000 HD 
ENDBRANCH  14  15
ENDBRANCH  13  14
ENDBRANCH  12  13
BRANCH   9  18
HETATM   18  C   UNL     1     -10.519  11.248  66.577  1.00  0.00    -0.253 C  
HETATM   19  N   UNL     1      -9.151  11.348  66.453  1.00  0.00    -0.188 N  
HETATM   20  O   UNL     1     -11.208  11.097  65.575  1.00  0.00    -0.081 OA 
HETATM   21  H2  UNL     1      -8.548  11.519  67.258  1.00  0.00     0.000 HD 
HETATM   22  H1  UNL     1      -8.776  11.242  65.510  1.00  0.00     0.000 HD 
ENDBRANCH   9  18
ENDBRANCH   3   4
ENDBRANCH   2   3
BRANCH   2  23
HETATM   23  N   UNL     1     -12.026   7.834  72.951  1.00  0.00    -0.609 NA 
HETATM   24  H   UNL     1     -12.761   7.559  73.603  1.00  0.00     0.000 HD 
BRANCH  23  25
HETATM   25  C   UNL     1     -11.438   6.649  72.306  1.00  0.00    -0.283 C  
BRANCH  25  26
HETATM   26  C   UNL     1      -9.992   6.339  72.748  1.00  0.00    -0.172 C  
BRANCH  26  27
HETATM   27  O   UNL     1      -9.122   6.069  71.640  1.00  0.00    -0.143 OA 
BRANCH  27  28
HETATM   28  C   UNL     1      -8.703   7.145  70.900  1.00  0.00    -0.146 A  
HETATM   29  C   UNL     1      -8.174   8.052  68.717  1.00  0.00    -0.126 A  
HETATM   30  C   UNL     1      -8.235   8.343  71.468  1.00  0.00    -0.182 A  
HETATM   31  C   UNL     1      -8.669   7.013  69.503  1.00  0.00    -0.134 A  
HETATM   32  C   UNL     1      -7.702   9.233  69.297  1.00  0.00    -0.081 A  
HETATM   33  C   UNL     1      -7.732   9.372  70.680  1.00  0.00    -0.172 A  
BRANCH  31  34
HETATM   34  O   UNL     1      -8.974   5.880  68.793  1.00  0.00    -0.117 OA 
BRANCH  34  35
HETATM   35  C   UNL     1     -10.323   5.751  68.330  1.00  0.00    -0.213 C  
HETATM   36  C   UNL     1     -10.471   6.105  66.855  1.00  0.00    -0.276 C  
HETATM   37  F   UNL     1      -9.292   6.306  66.229  1.00  0.00    -0.161 F  
HETATM   38  F   UNL     1     -11.134   5.135  66.182  1.00  0.00    -0.318 F  
HETATM   39  F   UNL     1     -11.198   7.247  66.710  1.00  0.00    -0.421 F  
ENDBRANCH  34  35
ENDBRANCH  31  34
ENDBRANCH  27  28
ENDBRANCH  26  27
ENDBRANCH  25  26
ENDBRANCH  23  25
ENDBRANCH   2  23
TORSDOF 13
ENDMDL
MODEL       54
REMARK 921   NORMALIZED FREE ENERGY PREDICTED BY IDOCK:   -5.74 KCAL/MOL
REMARK 922        TOTAL FREE ENERGY PREDICTED BY IDOCK:  -13.28 KCAL/MOL
REMARK 923 INTER-LIGAND FREE ENERGY PREDICTED BY IDOCK:  -11.25 KCAL/MOL
REMARK 924 INTRA-LIGAND FREE ENERGY PREDICTED BY IDOCK:   -2.02 KCAL/MOL
REMARK 927      BINDING AFFINITY PREDICTED BY RF-SCORE:    0.00 PKD
ROOT
HETATM    1  C   UNL     1     -12.613  12.983  64.950  1.00  0.00    -0.490 C  
HETATM    2  C   UNL     1     -12.017  14.240  65.597  1.00  0.00    -0.386 C  
ENDROOT
BRANCH   2   3
HETATM    3  C   UNL     1     -10.630  14.599  65.019  1.00  0.00    -0.461 C  
BRANCH   3   4
HETATM    4  C   UNL     1      -9.878  15.605  65.843  1.00  0.00    -0.382 A  
HETATM    5  C   UNL     1     -10.341  16.923  65.925  1.00  0.00    -0.327 A  
HETATM    6  C   UNL     1      -6.621  17.359  68.720  1.00  0.00    -0.206 A  
HETATM    7  C   UNL     1      -8.720  15.258  66.525  1.00  0.00    -0.314 A  
HETATM    8  C   UNL     1      -8.084  16.231  67.285  1.00  0.00    -0.203 A  
HETATM    9  C   UNL     1      -9.704  17.905  66.724  1.00  0.00    -0.314 A  
HETATM   10  C   UNL     1      -8.532  17.566  67.409  1.00  0.00    -0.216 A  
HETATM   11  C   UNL     1      -6.834  15.997  68.067  1.00  0.00    -0.141 A  
HETATM   12  N   UNL     1      -7.661  18.269  68.223  1.00  0.00    -0.269 NA 
BRANCH  12  13
HETATM   13  C   UNL     1      -7.717  19.623  68.738  1.00  0.00    -0.302 C  
BRANCH  13  14
HETATM   14  C   UNL     1      -6.343  20.296  68.709  1.00  0.00    -0.347 C  
BRANCH  14  15
HETATM   15  C   UNL     1      -6.113  21.153  67.472  1.00  0.00    -0.354 C  
HETATM   16  O   UNL     1      -7.287  21.124  66.658  1.00  0.00    -0.582 OA 
HETATM   17  H   UNL     1      -7.143  21.660  65.886  1.00  0.00     0.000 HD 
ENDBRANCH  14  15
ENDBRANCH  13  14
ENDBRANCH  12  13
BRANCH   9  18
HETATM   18  C   UNL     1     -10.378  19.229  66.691  1.00  0.00    -0.438 C  
HETATM   19  N   UNL     1      -9.946  20.106  65.722  1.00  0.00    -0.550 N  
HETATM   20  O   UNL     1     -11.232  19.586  67.494  1.00  0.00    -0.300 OA 
HETATM   21  H2  UNL     1      -9.206  19.861  65.064  1.00  0.00     0.000 HD 
HETATM   22  H1  UNL     1     -10.408  21.015  65.699  1.00  0.00     0.000 HD 
ENDBRANCH   9  18
ENDBRANCH   3   4
ENDBRANCH   2   3
BRANCH   2  23
HETATM   23  N   UNL     1     -11.958  14.028  67.055  1.00  0.00    -0.425 NA 
HETATM   24  H   UNL     1     -12.860  14.235  67.483  1.00  0.00     0.000 HD 
BRANCH  23  25
HETATM   25  C   UNL     1     -11.494  12.688  67.448  1.00  0.00    -0.337 C  
BRANCH  25  26
HETATM   26  C   UNL     1     -11.874  12.282  68.888  1.00  0.00    -0.303 C  
BRANCH  26  27
HETATM   27  O   UNL     1     -10.884  11.448  69.505  1.00  0.00    -0.204 OA 
BRANCH  27  28
HETATM   28  C   UNL     1     -11.338  10.390  70.251  1.00  0.00    -0.328 A  
HETATM   29  C   UNL     1     -11.328   7.998  70.635  1.00  0.00    -0.256 A  
HETATM   30  C   UNL     1     -12.332  10.505  71.238  1.00  0.00    -0.502 A  
HETATM   31  C   UNL     1     -10.835   9.112  69.957  1.00  0.00    -0.234 A  
HETATM   32  C   UNL     1     -12.324   8.127  71.606  1.00  0.00    -0.347 A  
HETATM   33  C   UNL     1     -12.827   9.388  71.903  1.00  0.00    -0.497 A  
BRANCH  31  34
HETATM   34  O   UNL     1      -9.956   8.804  68.951  1.00  0.00    -0.180 OA 
BRANCH  34  35
HETATM   35  C   UNL     1     -10.514   8.586  67.650  1.00  0.00    -0.241 C  
HETATM   36  C   UNL     1      -9.592   9.062  66.532  1.00  0.00    -0.223 C  
HETATM   37  F   UNL     1      -8.370   9.436  66.966  1.00  0.00    -0.121 F  
HETATM   38  F   UNL     1      -9.420   8.099  65.597  1.00  0.00    -0.187 F  
HETATM   39  F   UNL     1     -10.133  10.134  65.893  1.00  0.00    -0.283 F  
ENDBRANCH  34  35
ENDBRANCH  31  34
ENDBRANCH  27  28
ENDBRANCH  26  27
ENDBRANCH  25  26
ENDBRANCH  23  25
ENDBRANCH   2  23
TORSDOF 13
ENDMDL
MODEL       55
REMARK 921   NORMALIZED FREE ENERGY PREDICTED BY IDOCK:   -5.73 KCAL/MOL
REMARK 922        TOTAL FREE ENERGY PREDICTED BY IDOCK:  -13.26 KCAL/MOL
REMARK 923 INTER-LIGAND FREE ENERGY PREDICTED BY IDOCK:  -11.47 KCAL/MOL
REMARK 924 INTRA-LIGAND FREE ENERGY PREDICTED BY IDOCK:   -1.79 KCAL/MOL
REMARK 927      BINDING AFFINITY PREDICTED BY RF-SCORE:    0.00 PKD
ROOT
HETATM    1  C   UNL     1     -11.820  12.072  65.139  1.00  0.00    -0.278 C  
HETATM    2  C   UNL     1     -10.305  12.256  64.981  1.00  0.00    -0.291 C  
ENDROOT
BRANCH   2   3
HETATM    3  C   UNL     1      -9.546  12.061  66.314  1.00  0.00    -0.243 C  
BRANCH   3   4
HETATM    4  C   UNL     1      -9.884  10.774  67.012  1.00  0.00    -0.221 A  
HETATM    5  C   UNL     1     -10.476  10.805  68.279  1.00  0.00    -0.207 A  
HETATM    6  C   UNL     1     -10.341   6.166  67.730  1.00  0.00    -0.198 A  
HETATM    7  C   UNL     1      -9.611   9.545  66.430  1.00  0.00    -0.273 A  
HETATM    8  C   UNL     1      -9.965   8.393  67.120  1.00  0.00    -0.304 A  
HETATM    9  C   UNL     1     -10.861   9.628  68.968  1.00  0.00    -0.206 A  
HETATM   10  C   UNL     1     -10.584   8.384  68.391  1.00  0.00    -0.105 A  
HETATM   11  C   UNL     1      -9.732   7.008  66.614  1.00  0.00    -0.226 A  
HETATM   12  N   UNL     1     -10.782   7.075  68.795  1.00  0.00    -0.212 NA 
BRANCH  12  13
HETATM   13  C   UNL     1     -11.454   6.525  69.956  1.00  0.00    -0.412 C  
BRANCH  13  14
HETATM   14  C   UNL     1     -10.461   6.143  71.057  1.00  0.00    -0.281 C  
BRANCH  14  15
HETATM   15  C   UNL     1     -11.019   6.314  72.463  1.00  0.00    -0.251 C  
HETATM   16  O   UNL     1     -12.442   6.192  72.420  1.00  0.00    -0.542 OA 
HETATM   17  H   UNL     1     -12.790   6.298  73.298  1.00  0.00     0.000 HD 
ENDBRANCH  14  15
ENDBRANCH  13  14
ENDBRANCH  12  13
BRANCH   9  18
HETATM   18  C   UNL     1     -11.500   9.889  70.284  1.00  0.00    -0.281 C  
HETATM   19  N   UNL     1     -12.805  10.326  70.248  1.00  0.00    -0.564 N  
HETATM   20  O   UNL     1     -10.923   9.791  71.361  1.00  0.00    -0.342 OA 
HETATM   21  H2  UNL     1     -13.304  10.463  69.369  1.00  0.00     0.000 HD 
HETATM   22  H1  UNL     1     -13.244  10.506  71.152  1.00  0.00     0.000 HD 
ENDBRANCH   9  18
ENDBRANCH   3   4
ENDBRANCH   2   3
BRANCH   2  23
HETATM   23  N   UNL     1     -10.057  13.591  64.407  1.00  0.00    -0.717 NA 
HETATM   24  H   UNL     1      -9.713  13.510  63.450  1.00  0.00     0.000 HD 
BRANCH  23  25
HETATM   25  C   UNL     1     -11.218  14.494  64.464  1.00  0.00    -0.294 C  
BRANCH  25  26
HETATM   26  C   UNL     1     -10.987  15.772  65.298  1.00  0.00    -0.344 C  
BRANCH  26  27
HETATM   27  O   UNL     1     -10.138  15.544  66.431  1.00  0.00    -0.263 OA 
BRANCH  27  28
HETATM   28  C   UNL     1     -10.751  15.399  67.650  1.00  0.00    -0.292 A  
HETATM   29  C   UNL     1     -10.921  16.114  69.958  1.00  0.00    -0.364 A  
HETATM   30  C   UNL     1     -11.669  14.374  67.941  1.00  0.00    -0.388 A  
HETATM   31  C   UNL     1     -10.383  16.277  68.683  1.00  0.00    -0.263 A  
HETATM   32  C   UNL     1     -11.823  15.084  70.235  1.00  0.00    -0.355 A  
HETATM   33  C   UNL     1     -12.193  14.211  69.218  1.00  0.00    -0.308 A  
BRANCH  31  34
HETATM   34  O   UNL     1      -9.422  17.251  68.608  1.00  0.00    -0.267 OA 
BRANCH  34  35
HETATM   35  C   UNL     1      -9.469  18.119  67.469  1.00  0.00    -0.262 C  
HETATM   36  C   UNL     1     -10.081  19.477  67.795  1.00  0.00    -0.415 C  
HETATM   37  F   UNL     1     -10.303  19.664  69.114  1.00  0.00    -0.471 F  
HETATM   38  F   UNL     1      -9.290  20.487  67.364  1.00  0.00    -0.460 F  
HETATM   39  F   UNL     1     -11.279  19.623  67.166  1.00  0.00    -0.567 F  
ENDBRANCH  34  35
ENDBRANCH  31  34
ENDBRANCH  27  28
ENDBRANCH  26  27
ENDBRANCH  25  26
ENDBRANCH  23  25
ENDBRANCH   2  23
TORSDOF 13
ENDMDL
MODEL       56
REMARK 921   NORMALIZED FREE ENERGY PREDICTED BY IDOCK:   -5.73 KCAL/MOL
REMARK 922        TOTAL FREE ENERGY PREDICTED BY IDOCK:  -13.26 KCAL/MOL
REMARK 923 INTER-LIGAND FREE ENERGY PREDICTED BY IDOCK:   -9.65 KCAL/MOL
REMARK 924 INTRA-LIGAND FREE ENERGY PREDICTED BY IDOCK:   -3.61 KCAL/MOL
REMARK 927      BINDING AFFINITY PREDICTED BY RF-SCORE:    0.00 PKD
ROOT
HETATM    1  C   UNL     1     -13.389   9.699  72.264  1.00  0.00    -0.498 C  
HETATM    2  C   UNL     1     -12.028   9.737  71.559  1.00  0.00    -0.407 C  
ENDROOT
BRANCH   2   3
HETATM    3  C   UNL     1     -12.155   9.596  70.025  1.00  0.00     0.143 C  
BRANCH   3   4
HETATM    4  C   UNL     1     -11.923  10.882  69.284  1.00  0.00    -0.382 A  
HETATM    5  C   UNL     1     -12.017  12.103  69.962  1.00  0.00    -0.391 A  
HETATM    6  C   UNL     1     -10.900  13.778  65.745  1.00  0.00    -0.277 A  
HETATM    7  C   UNL     1     -11.625  10.890  67.929  1.00  0.00    -0.270 A  
HETATM    8  C   UNL     1     -11.404  12.112  67.307  1.00  0.00    -0.398 A  
HETATM    9  C   UNL     1     -11.762  13.345  69.330  1.00  0.00    -0.382 A  
HETATM   10  C   UNL     1     -11.468  13.363  67.963  1.00  0.00    -0.304 A  
HETATM   11  C   UNL     1     -11.075  12.268  65.860  1.00  0.00    -0.360 A  
HETATM   12  N   UNL     1     -11.213  14.373  67.051  1.00  0.00    -0.317 NA 
BRANCH  12  13
HETATM   13  C   UNL     1     -11.066  15.804  67.227  1.00  0.00    -0.211 C  
BRANCH  13  14
HETATM   14  C   UNL     1      -9.608  16.195  67.483  1.00  0.00    -0.229 C  
BRANCH  14  15
HETATM   15  C   UNL     1      -9.455  17.392  68.411  1.00  0.00    -0.293 C  
HETATM   16  O   UNL     1     -10.631  17.515  69.213  1.00  0.00    -0.403 OA 
HETATM   17  H   UNL     1     -10.536  18.262  69.793  1.00  0.00     0.000 HD 
ENDBRANCH  14  15
ENDBRANCH  13  14
ENDBRANCH  12  13
BRANCH   9  18
HETATM   18  C   UNL     1     -11.887  14.513  70.241  1.00  0.00    -0.308 C  
HETATM   19  N   UNL     1     -10.735  14.906  70.885  1.00  0.00    -0.524 N  
HETATM   20  O   UNL     1     -12.942  15.089  70.482  1.00  0.00    -0.349 OA 
HETATM   21  H2  UNL     1      -9.848  14.424  70.744  1.00  0.00     0.000 HD 
HETATM   22  H1  UNL     1     -10.820  15.708  71.510  1.00  0.00     0.000 HD 
ENDBRANCH   9  18
ENDBRANCH   3   4
ENDBRANCH   2   3
BRANCH   2  23
HETATM   23  N   UNL     1     -11.179   8.677  72.132  1.00  0.00    -0.364 NA 
HETATM   24  H   UNL     1     -10.807   8.966  73.036  1.00  0.00     0.000 HD 
BRANCH  23  25
HETATM   25  C   UNL     1     -11.845   7.369  72.242  1.00  0.00    -0.268 C  
BRANCH  25  26
HETATM   26  C   UNL     1     -11.118   6.223  71.504  1.00  0.00    -0.281 C  
BRANCH  26  27
HETATM   27  O   UNL     1      -9.920   6.662  70.851  1.00  0.00    -0.186 OA 
BRANCH  27  28
HETATM   28  C   UNL     1      -9.990   6.875  69.497  1.00  0.00    -0.164 A  
HETATM   29  C   UNL     1      -9.134   8.049  67.559  1.00  0.00    -0.146 A  
HETATM   30  C   UNL     1     -10.997   6.336  68.677  1.00  0.00    -0.423 A  
HETATM   31  C   UNL     1      -9.050   7.741  68.916  1.00  0.00    -0.141 A  
HETATM   32  C   UNL     1     -10.147   7.514  66.759  1.00  0.00    -0.313 A  
HETATM   33  C   UNL     1     -11.082   6.656  67.327  1.00  0.00    -0.418 A  
BRANCH  31  34
HETATM   34  O   UNL     1      -8.080   8.443  69.583  1.00  0.00    -0.110 OA 
BRANCH  34  35
HETATM   35  C   UNL     1      -8.411   9.778  69.986  1.00  0.00    -0.206 C  
HETATM   36  C   UNL     1      -7.617  10.832  69.223  1.00  0.00    -0.129 C  
HETATM   37  F   UNL     1      -6.886  10.325  68.207  1.00  0.00    -0.062 F  
HETATM   38  F   UNL     1      -8.432  11.783  68.708  1.00  0.00    -0.149 F  
HETATM   39  F   UNL     1      -6.750  11.470  70.056  1.00  0.00    -0.130 F  
ENDBRANCH  34  35
ENDBRANCH  31  34
ENDBRANCH  27  28
ENDBRANCH  26  27
ENDBRANCH  25  26
ENDBRANCH  23  25
ENDBRANCH   2  23
TORSDOF 13
ENDMDL
MODEL       57
REMARK 921   NORMALIZED FREE ENERGY PREDICTED BY IDOCK:   -5.73 KCAL/MOL
REMARK 922        TOTAL FREE ENERGY PREDICTED BY IDOCK:  -13.25 KCAL/MOL
REMARK 923 INTER-LIGAND FREE ENERGY PREDICTED BY IDOCK:  -10.58 KCAL/MOL
REMARK 924 INTRA-LIGAND FREE ENERGY PREDICTED BY IDOCK:   -2.67 KCAL/MOL
REMARK 927      BINDING AFFINITY PREDICTED BY RF-SCORE:    0.00 PKD
ROOT
HETATM    1  C   UNL     1     -13.892   9.173  72.401  1.00  0.00    -0.524 C  
HETATM    2  C   UNL     1     -12.994   9.002  71.169  1.00  0.00    -0.146 C  
ENDROOT
BRANCH   2   3
HETATM    3  C   UNL     1     -11.535   8.661  71.547  1.00  0.00    -0.363 C  
BRANCH   3   4
HETATM    4  C   UNL     1     -11.045   7.374  70.946  1.00  0.00    -0.283 A  
HETATM    5  C   UNL     1     -10.834   7.286  69.566  1.00  0.00    -0.224 A  
HETATM    6  C   UNL     1      -9.524   2.948  70.707  1.00  0.00    -0.153 A  
HETATM    7  C   UNL     1     -10.804   6.257  71.733  1.00  0.00    -0.294 A  
HETATM    8  C   UNL     1     -10.335   5.104  71.118  1.00  0.00    -0.276 A  
HETATM    9  C   UNL     1     -10.328   6.117  68.946  1.00  0.00    -0.258 A  
HETATM   10  C   UNL     1     -10.089   4.983  69.731  1.00  0.00    -0.267 A  
HETATM   11  C   UNL     1     -10.033   3.833  71.840  1.00  0.00    -0.230 A  
HETATM   12  N   UNL     1      -9.645   3.702  69.453  1.00  0.00    -0.174 NA 
BRANCH  12  13
HETATM   13  C   UNL     1      -9.171   3.102  68.222  1.00  0.00    -0.192 C  
BRANCH  13  14
HETATM   14  C   UNL     1      -7.862   2.337  68.433  1.00  0.00    -0.057 C  
BRANCH  14  15
HETATM   15  C   UNL     1      -6.634   3.236  68.470  1.00  0.00    -0.040 C  
HETATM   16  O   UNL     1      -6.994   4.540  68.010  1.00  0.00    -0.054 OA 
HETATM   17  H   UNL     1      -6.228   5.101  68.033  1.00  0.00     0.000 HD 
ENDBRANCH  14  15
ENDBRANCH  13  14
ENDBRANCH  12  13
BRANCH   9  18
HETATM   18  C   UNL     1     -10.151   6.249  67.477  1.00  0.00    -0.154 C  
HETATM   19  N   UNL     1     -11.297   6.173  66.718  1.00  0.00    -0.681 N  
HETATM   20  O   UNL     1      -9.063   6.364  66.923  1.00  0.00    -0.126 OA 
HETATM   21  H2  UNL     1     -12.215   6.034  67.140  1.00  0.00     0.000 HD 
HETATM   22  H1  UNL     1     -11.175   6.264  65.709  1.00  0.00     0.000 HD 
ENDBRANCH   9  18
ENDBRANCH   3   4
ENDBRANCH   2   3
BRANCH   2  23
HETATM   23  N   UNL     1     -13.072  10.233  70.363  1.00  0.00    -0.546 NA 
HETATM   24  H   UNL     1     -13.946  10.725  70.546  1.00  0.00     0.000 HD 
BRANCH  23  25
HETATM   25  C   UNL     1     -11.924  11.137  70.536  1.00  0.00    -0.380 C  
BRANCH  25  26
HETATM   26  C   UNL     1     -11.436  11.799  69.229  1.00  0.00    -0.306 C  
BRANCH  26  27
HETATM   27  O   UNL     1     -12.007  11.197  68.060  1.00  0.00    -0.625 OA 
BRANCH  27  28
HETATM   28  C   UNL     1     -11.150  10.901  67.030  1.00  0.00    -0.202 A  
HETATM   29  C   UNL     1     -10.602  11.145  64.683  1.00  0.00    -0.386 A  
HETATM   30  C   UNL     1     -10.085   9.989  67.143  1.00  0.00    -0.265 A  
HETATM   31  C   UNL     1     -11.399  11.482  65.776  1.00  0.00    -0.095 A  
HETATM   32  C   UNL     1      -9.554  10.230  64.809  1.00  0.00    -0.369 A  
HETATM   33  C   UNL     1      -9.301   9.650  66.046  1.00  0.00    -0.263 A  
BRANCH  31  34
HETATM   34  O   UNL     1     -12.458  12.293  65.460  1.00  0.00    -0.597 OA 
BRANCH  34  35
HETATM   35  C   UNL     1     -12.293  13.695  65.706  1.00  0.00    -0.482 C  
HETATM   36  C   UNL     1     -11.982  14.479  64.435  1.00  0.00    -0.449 C  
HETATM   37  F   UNL     1     -12.088  13.741  63.310  1.00  0.00    -0.471 F  
HETATM   38  F   UNL     1     -12.803  15.547  64.306  1.00  0.00    -0.264 F  
HETATM   39  F   UNL     1     -10.712  14.965  64.475  1.00  0.00    -0.386 F  
ENDBRANCH  34  35
ENDBRANCH  31  34
ENDBRANCH  27  28
ENDBRANCH  26  27
ENDBRANCH  25  26
ENDBRANCH  23  25
ENDBRANCH   2  23
TORSDOF 13
ENDMDL
MODEL       58
REMARK 921   NORMALIZED FREE ENERGY PREDICTED BY IDOCK:   -5.72 KCAL/MOL
REMARK 922        TOTAL FREE ENERGY PREDICTED BY IDOCK:  -13.24 KCAL/MOL
REMARK 923 INTER-LIGAND FREE ENERGY PREDICTED BY IDOCK:  -10.30 KCAL/MOL
REMARK 924 INTRA-LIGAND FREE ENERGY PREDICTED BY IDOCK:   -2.94 KCAL/MOL
REMARK 927      BINDING AFFINITY PREDICTED BY RF-SCORE:    0.00 PKD
ROOT
HETATM    1  C   UNL     1     -14.304   8.345  71.741  1.00  0.00    -0.558 C  
HETATM    2  C   UNL     1     -12.942   8.992  72.018  1.00  0.00    -0.407 C  
ENDROOT
BRANCH   2   3
HETATM    3  C   UNL     1     -12.085   9.132  70.739  1.00  0.00    -0.200 C  
BRANCH   3   4
HETATM    4  C   UNL     1     -12.027  10.537  70.209  1.00  0.00    -0.411 A  
HETATM    5  C   UNL     1     -11.660  10.763  68.877  1.00  0.00    -0.361 A  
HETATM    6  C   UNL     1     -12.390  15.208  70.122  1.00  0.00    -0.341 A  
HETATM    7  C   UNL     1     -12.320  11.626  71.017  1.00  0.00    -0.405 A  
HETATM    8  C   UNL     1     -12.265  12.897  70.460  1.00  0.00    -0.395 A  
HETATM    9  C   UNL     1     -11.633  12.059  68.306  1.00  0.00    -0.394 A  
HETATM   10  C   UNL     1     -11.921  13.163  69.115  1.00  0.00    -0.281 A  
HETATM   11  C   UNL     1     -12.556  14.153  71.211  1.00  0.00    -0.438 A  
HETATM   12  N   UNL     1     -11.947  14.530  68.896  1.00  0.00    -0.310 NA 
BRANCH  12  13
HETATM   13  C   UNL     1     -11.770  15.307  67.686  1.00  0.00    -0.167 C  
BRANCH  13  14
HETATM   14  C   UNL     1     -10.479  16.130  67.726  1.00  0.00    -0.295 C  
BRANCH  14  15
HETATM   15  C   UNL     1     -10.709  17.626  67.568  1.00  0.00    -0.290 C  
HETATM   16  O   UNL     1     -10.395  18.281  68.799  1.00  0.00    -0.383 OA 
HETATM   17  H   UNL     1     -10.538  19.215  68.700  1.00  0.00     0.000 HD 
ENDBRANCH  14  15
ENDBRANCH  13  14
ENDBRANCH  12  13
BRANCH   9  18
HETATM   18  C   UNL     1     -11.247  12.069  66.870  1.00  0.00    -0.320 C  
HETATM   19  N   UNL     1      -9.898  12.142  66.605  1.00  0.00    -0.207 N  
HETATM   20  O   UNL     1     -12.048  12.073  65.943  1.00  0.00    -0.546 OA 
HETATM   21  H2  UNL     1      -9.204  12.186  67.351  1.00  0.00     0.000 HD 
HETATM   22  H1  UNL     1      -9.633  12.149  65.620  1.00  0.00     0.000 HD 
ENDBRANCH   9  18
ENDBRANCH   3   4
ENDBRANCH   2   3
BRANCH   2  23
HETATM   23  N   UNL     1     -12.251   8.196  73.049  1.00  0.00    -0.625 NA 
HETATM   24  H   UNL     1     -12.855   7.447  73.386  1.00  0.00     0.000 HD 
BRANCH  23  25
HETATM   25  C   UNL     1     -10.950   7.658  72.619  1.00  0.00    -0.351 C  
BRANCH  25  26
HETATM   26  C   UNL     1     -11.015   6.228  72.042  1.00  0.00    -0.256 C  
BRANCH  26  27
HETATM   27  O   UNL     1      -9.906   5.929  71.184  1.00  0.00    -0.174 OA 
BRANCH  27  28
HETATM   28  C   UNL     1     -10.025   6.286  69.864  1.00  0.00    -0.169 A  
HETATM   29  C   UNL     1      -9.094   7.472  67.968  1.00  0.00    -0.131 A  
HETATM   30  C   UNL     1     -11.169   6.025  69.089  1.00  0.00    -0.337 A  
HETATM   31  C   UNL     1      -8.979   7.019  69.282  1.00  0.00    -0.138 A  
HETATM   32  C   UNL     1     -10.241   7.213  67.214  1.00  0.00    -0.315 A  
HETATM   33  C   UNL     1     -11.282   6.488  67.783  1.00  0.00    -0.261 A  
BRANCH  31  34
HETATM   34  O   UNL     1      -7.851   7.462  69.923  1.00  0.00    -0.110 OA 
BRANCH  34  35
HETATM   35  C   UNL     1      -7.240   8.651  69.407  1.00  0.00    -0.057 C  
HETATM   36  C   UNL     1      -7.802   9.919  70.042  1.00  0.00    -0.180 C  
HETATM   37  F   UNL     1      -8.635   9.678  71.076  1.00  0.00    -0.207 F  
HETATM   38  F   UNL     1      -6.810  10.723  70.490  1.00  0.00    -0.145 F  
HETATM   39  F   UNL     1      -8.504  10.639  69.125  1.00  0.00    -0.135 F  
ENDBRANCH  34  35
ENDBRANCH  31  34
ENDBRANCH  27  28
ENDBRANCH  26  27
ENDBRANCH  25  26
ENDBRANCH  23  25
ENDBRANCH   2  23
TORSDOF 13
ENDMDL
MODEL       59
REMARK 921   NORMALIZED FREE ENERGY PREDICTED BY IDOCK:   -5.71 KCAL/MOL
REMARK 922        TOTAL FREE ENERGY PREDICTED BY IDOCK:  -13.22 KCAL/MOL
REMARK 923 INTER-LIGAND FREE ENERGY PREDICTED BY IDOCK:  -11.31 KCAL/MOL
REMARK 924 INTRA-LIGAND FREE ENERGY PREDICTED BY IDOCK:   -1.91 KCAL/MOL
REMARK 927      BINDING AFFINITY PREDICTED BY RF-SCORE:    0.00 PKD
ROOT
HETATM    1  C   UNL     1     -11.096   8.085  72.581  1.00  0.00    -0.453 C  
HETATM    2  C   UNL     1     -11.845   8.604  71.347  1.00  0.00    -0.297 C  
ENDROOT
BRANCH   2   3
HETATM    3  C   UNL     1     -13.010   9.549  71.720  1.00  0.00    -0.502 C  
BRANCH   3   4
HETATM    4  C   UNL     1     -12.794  10.969  71.282  1.00  0.00    -0.528 A  
HETATM    5  C   UNL     1     -12.029  11.237  70.142  1.00  0.00    -0.452 A  
HETATM    6  C   UNL     1     -13.132  15.643  71.242  1.00  0.00    -0.473 A  
HETATM    7  C   UNL     1     -13.332  12.033  71.993  1.00  0.00    -0.447 A  
HETATM    8  C   UNL     1     -13.110  13.321  71.525  1.00  0.00    -0.414 A  
HETATM    9  C   UNL     1     -11.829  12.551  69.651  1.00  0.00    -0.382 A  
HETATM   10  C   UNL     1     -12.361  13.630  70.365  1.00  0.00    -0.345 A  
HETATM   11  C   UNL     1     -13.627  14.554  72.188  1.00  0.00    -0.516 A  
HETATM   12  N   UNL     1     -12.324  15.003  70.196  1.00  0.00    -0.335 NA 
BRANCH  12  13
HETATM   13  C   UNL     1     -11.779  15.819  69.129  1.00  0.00    -0.388 C  
BRANCH  13  14
HETATM   14  C   UNL     1     -10.420  16.412  69.509  1.00  0.00    -0.301 C  
BRANCH  14  15
HETATM   15  C   UNL     1     -10.077  17.682  68.743  1.00  0.00    -0.377 C  
HETATM   16  O   UNL     1     -10.918  17.777  67.593  1.00  0.00    -0.301 OA 
HETATM   17  H   UNL     1     -10.704  18.570  67.115  1.00  0.00     0.000 HD 
ENDBRANCH  14  15
ENDBRANCH  13  14
ENDBRANCH  12  13
BRANCH   9  18
HETATM   18  C   UNL     1     -11.012  12.607  68.411  1.00  0.00    -0.257 C  
HETATM   19  N   UNL     1     -11.711  12.679  67.227  1.00  0.00    -0.365 N  
HETATM   20  O   UNL     1      -9.788  12.537  68.389  1.00  0.00    -0.225 OA 
HETATM   21  H2  UNL     1     -12.730  12.694  67.203  1.00  0.00     0.000 HD 
HETATM   22  H1  UNL     1     -11.150  12.717  66.375  1.00  0.00     0.000 HD 
ENDBRANCH   9  18
ENDBRANCH   3   4
ENDBRANCH   2   3
BRANCH   2  23
HETATM   23  N   UNL     1     -12.315   7.445  70.567  1.00  0.00    -0.554 NA 
HETATM   24  H   UNL     1     -12.405   7.690  69.582  1.00  0.00     0.000 HD 
BRANCH  23  25
HETATM   25  C   UNL     1     -11.485   6.239  70.726  1.00  0.00    -0.316 C  
BRANCH  25  26
HETATM   26  C   UNL     1     -10.578   5.931  69.515  1.00  0.00    -0.308 C  
BRANCH  26  27
HETATM   27  O   UNL     1     -11.198   6.256  68.265  1.00  0.00    -0.328 OA 
BRANCH  27  28
HETATM   28  C   UNL     1     -10.494   7.067  67.411  1.00  0.00    -0.273 A  
HETATM   29  C   UNL     1      -8.781   7.257  65.709  1.00  0.00    -0.129 A  
HETATM   30  C   UNL     1     -10.587   8.469  67.419  1.00  0.00    -0.304 A  
HETATM   31  C   UNL     1      -9.576   6.464  66.536  1.00  0.00    -0.145 A  
HETATM   32  C   UNL     1      -8.877   8.650  65.736  1.00  0.00    -0.231 A  
HETATM   33  C   UNL     1      -9.783   9.254  66.599  1.00  0.00    -0.281 A  
BRANCH  31  34
HETATM   34  O   UNL     1      -9.272   5.129  66.481  1.00  0.00    -0.128 OA 
BRANCH  34  35
HETATM   35  C   UNL     1      -8.836   4.618  65.215  1.00  0.00    -0.145 C  
HETATM   36  C   UNL     1      -9.984   4.049  64.388  1.00  0.00    -0.186 C  
HETATM   37  F   UNL     1     -11.201   4.286  64.922  1.00  0.00    -0.364 F  
HETATM   38  F   UNL     1      -9.980   4.556  63.132  1.00  0.00    -0.116 F  
HETATM   39  F   UNL     1      -9.859   2.700  64.264  1.00  0.00    -0.146 F  
ENDBRANCH  34  35
ENDBRANCH  31  34
ENDBRANCH  27  28
ENDBRANCH  26  27
ENDBRANCH  25  26
ENDBRANCH  23  25
ENDBRANCH   2  23
TORSDOF 13
ENDMDL
MODEL       60
REMARK 921   NORMALIZED FREE ENERGY PREDICTED BY IDOCK:   -5.69 KCAL/MOL
REMARK 922        TOTAL FREE ENERGY PREDICTED BY IDOCK:  -13.19 KCAL/MOL
REMARK 923 INTER-LIGAND FREE ENERGY PREDICTED BY IDOCK:  -11.37 KCAL/MOL
REMARK 924 INTRA-LIGAND FREE ENERGY PREDICTED BY IDOCK:   -1.82 KCAL/MOL
REMARK 927      BINDING AFFINITY PREDICTED BY RF-SCORE:    0.00 PKD
ROOT
HETATM    1  C   UNL     1     -11.471  14.863  65.802  1.00  0.00    -0.281 C  
HETATM    2  C   UNL     1     -10.634  13.758  65.145  1.00  0.00    -0.374 C  
ENDROOT
BRANCH   2   3
HETATM    3  C   UNL     1     -11.375  12.402  65.108  1.00  0.00    -0.367 C  
BRANCH   3   4
HETATM    4  C   UNL     1     -11.215  11.597  66.366  1.00  0.00    -0.349 A  
HETATM    5  C   UNL     1     -10.506  10.392  66.336  1.00  0.00    -0.246 A  
HETATM    6  C   UNL     1     -11.553  10.424  70.891  1.00  0.00    -0.337 A  
HETATM    7  C   UNL     1     -11.767  12.020  67.567  1.00  0.00    -0.351 A  
HETATM    8  C   UNL     1     -11.567  11.240  68.698  1.00  0.00    -0.384 A  
HETATM    9  C   UNL     1     -10.280   9.613  67.498  1.00  0.00    -0.274 A  
HETATM   10  C   UNL     1     -10.839  10.028  68.712  1.00  0.00    -0.219 A  
HETATM   11  C   UNL     1     -12.102  11.573  70.051  1.00  0.00    -0.408 A  
HETATM   12  N   UNL     1     -10.848   9.501  69.992  1.00  0.00    -0.239 NA 
BRANCH  12  13
HETATM   13  C   UNL     1     -10.179   8.345  70.554  1.00  0.00    -0.196 C  
BRANCH  13  14
HETATM   14  C   UNL     1      -9.651   8.626  71.963  1.00  0.00    -0.385 C  
BRANCH  14  15
HETATM   15  C   UNL     1     -10.075   7.583  72.988  1.00  0.00    -0.288 C  
HETATM   16  O   UNL     1     -11.465   7.745  73.274  1.00  0.00    -0.615 OA 
HETATM   17  H   UNL     1     -11.729   7.094  73.913  1.00  0.00     0.000 HD 
ENDBRANCH  14  15
ENDBRANCH  13  14
ENDBRANCH  12  13
BRANCH   9  18
HETATM   18  C   UNL     1      -9.477   8.388  67.248  1.00  0.00    -0.154 C  
HETATM   19  N   UNL     1     -10.118   7.368  66.580  1.00  0.00    -0.454 N  
HETATM   20  O   UNL     1      -8.329   8.225  67.644  1.00  0.00    -0.124 OA 
HETATM   21  H2  UNL     1     -11.088   7.450  66.274  1.00  0.00     0.000 HD 
HETATM   22  H1  UNL     1      -9.567   6.527  66.408  1.00  0.00     0.000 HD 
ENDBRANCH   9  18
ENDBRANCH   3   4
ENDBRANCH   2   3
BRANCH   2  23
HETATM   23  N   UNL     1      -9.352  13.656  65.865  1.00  0.00    -0.499 NA 
HETATM   24  H   UNL     1      -8.570  13.730  65.215  1.00  0.00     0.000 HD 
BRANCH  23  25
HETATM   25  C   UNL     1      -9.204  14.624  66.965  1.00  0.00    -0.239 C  
BRANCH  25  26
HETATM   26  C   UNL     1      -8.209  15.768  66.672  1.00  0.00    -0.270 C  
BRANCH  26  27
HETATM   27  O   UNL     1      -8.106  16.699  67.758  1.00  0.00    -0.172 OA 
BRANCH  27  28
HETATM   28  C   UNL     1      -8.676  17.933  67.576  1.00  0.00    -0.243 A  
HETATM   29  C   UNL     1     -10.659  19.318  67.724  1.00  0.00    -0.516 A  
HETATM   30  C   UNL     1      -8.019  19.010  66.955  1.00  0.00    -0.270 A  
HETATM   31  C   UNL     1     -10.015  18.105  67.964  1.00  0.00    -0.345 A  
HETATM   32  C   UNL     1      -9.995  20.374  67.096  1.00  0.00    -0.568 A  
HETATM   33  C   UNL     1      -8.670  20.213  66.709  1.00  0.00    -0.390 A  
BRANCH  31  34
HETATM   34  O   UNL     1     -10.838  17.133  68.471  1.00  0.00    -0.349 OA 
BRANCH  34  35
HETATM   35  C   UNL     1     -10.765  16.897  69.882  1.00  0.00    -0.010 C  
HETATM   36  C   UNL     1     -11.642  15.731  70.326  1.00  0.00    -0.365 C  
HETATM   37  F   UNL     1     -12.182  15.043  69.297  1.00  0.00    -0.322 F  
HETATM   38  F   UNL     1     -10.945  14.855  71.086  1.00  0.00    -0.288 F  
HETATM   39  F   UNL     1     -12.675  16.177  71.091  1.00  0.00    -0.480 F  
ENDBRANCH  34  35
ENDBRANCH  31  34
ENDBRANCH  27  28
ENDBRANCH  26  27
ENDBRANCH  25  26
ENDBRANCH  23  25
ENDBRANCH   2  23
TORSDOF 13
ENDMDL
MODEL       61
REMARK 921   NORMALIZED FREE ENERGY PREDICTED BY IDOCK:   -5.69 KCAL/MOL
REMARK 922        TOTAL FREE ENERGY PREDICTED BY IDOCK:  -13.18 KCAL/MOL
REMARK 923 INTER-LIGAND FREE ENERGY PREDICTED BY IDOCK:  -11.03 KCAL/MOL
REMARK 924 INTRA-LIGAND FREE ENERGY PREDICTED BY IDOCK:   -2.15 KCAL/MOL
REMARK 927      BINDING AFFINITY PREDICTED BY RF-SCORE:    0.00 PKD
ROOT
HETATM    1  C   UNL     1     -10.117  10.305  66.186  1.00  0.00    -0.307 C  
HETATM    2  C   UNL     1      -9.415  11.668  66.148  1.00  0.00    -0.224 C  
ENDROOT
BRANCH   2   3
HETATM    3  C   UNL     1      -9.258  12.288  67.555  1.00  0.00    -0.181 C  
BRANCH   3   4
HETATM    4  C   UNL     1      -9.776  11.410  68.658  1.00  0.00    -0.182 A  
HETATM    5  C   UNL     1      -8.934  10.457  69.243  1.00  0.00    -0.176 A  
HETATM    6  C   UNL     1     -12.742   9.643  71.827  1.00  0.00    -0.420 A  
HETATM    7  C   UNL     1     -11.084  11.515  69.110  1.00  0.00    -0.316 A  
HETATM    8  C   UNL     1     -11.495  10.686  70.145  1.00  0.00    -0.411 A  
HETATM    9  C   UNL     1      -9.349   9.633  70.318  1.00  0.00    -0.292 A  
HETATM   10  C   UNL     1     -10.668   9.727  70.775  1.00  0.00    -0.323 A  
HETATM   11  C   UNL     1     -12.869  10.692  70.728  1.00  0.00    -0.439 A  
HETATM   12  N   UNL     1     -11.394   9.065  71.750  1.00  0.00    -0.357 NA 
BRANCH  12  13
HETATM   13  C   UNL     1     -10.994   8.076  72.731  1.00  0.00    -0.382 C  
BRANCH  13  14
HETATM   14  C   UNL     1     -11.582   6.698  72.417  1.00  0.00    -0.281 C  
BRANCH  14  15
HETATM   15  C   UNL     1     -11.161   6.155  71.058  1.00  0.00    -0.296 C  
HETATM   16  O   UNL     1     -12.045   6.661  70.057  1.00  0.00    -0.633 OA 
HETATM   17  H   UNL     1     -11.782   6.322  69.209  1.00  0.00     0.000 HD 
ENDBRANCH  14  15
ENDBRANCH  13  14
ENDBRANCH  12  13
BRANCH   9  18
HETATM   18  C   UNL     1      -8.289   8.714  70.809  1.00  0.00    -0.152 C  
HETATM   19  N   UNL     1      -8.085   7.572  70.067  1.00  0.00    -0.125 N  
HETATM   20  O   UNL     1      -7.647   8.891  71.838  1.00  0.00    -0.303 OA 
HETATM   21  H2  UNL     1      -8.631   7.369  69.230  1.00  0.00     0.000 HD 
HETATM   22  H1  UNL     1      -7.358   6.941  70.404  1.00  0.00     0.000 HD 
ENDBRANCH   9  18
ENDBRANCH   3   4
ENDBRANCH   2   3
BRANCH   2  23
HETATM   23  N   UNL     1     -10.172  12.555  65.247  1.00  0.00    -0.283 NA 
HETATM   24  H   UNL     1      -9.930  12.367  64.274  1.00  0.00     0.000 HD 
BRANCH  23  25
HETATM   25  C   UNL     1     -11.631  12.501  65.437  1.00  0.00    -0.375 C  
BRANCH  25  26
HETATM   26  C   UNL     1     -12.197  13.632  66.323  1.00  0.00    -0.436 C  
BRANCH  26  27
HETATM   27  O   UNL     1     -11.856  14.936  65.835  1.00  0.00    -0.256 OA 
BRANCH  27  28
HETATM   28  C   UNL     1     -10.749  15.536  66.380  1.00  0.00    -0.303 A  
HETATM   29  C   UNL     1      -9.738  16.620  68.296  1.00  0.00    -0.244 A  
HETATM   30  C   UNL     1      -9.589  15.839  65.646  1.00  0.00    -0.299 A  
HETATM   31  C   UNL     1     -10.810  15.935  67.725  1.00  0.00    -0.324 A  
HETATM   32  C   UNL     1      -8.596  16.923  67.551  1.00  0.00    -0.211 A  
HETATM   33  C   UNL     1      -8.528  16.531  66.219  1.00  0.00    -0.363 A  
BRANCH  31  34
HETATM   34  O   UNL     1     -11.900  15.827  68.549  1.00  0.00    -0.363 OA 
BRANCH  34  35
HETATM   35  C   UNL     1     -11.670  16.013  69.951  1.00  0.00    -0.271 C  
HETATM   36  C   UNL     1     -12.419  14.995  70.805  1.00  0.00    -0.352 C  
HETATM   37  F   UNL     1     -13.011  14.020  70.084  1.00  0.00    -0.335 F  
HETATM   38  F   UNL     1     -11.591  14.401  71.697  1.00  0.00    -0.346 F  
HETATM   39  F   UNL     1     -13.397  15.606  71.527  1.00  0.00    -0.469 F  
ENDBRANCH  34  35
ENDBRANCH  31  34
ENDBRANCH  27  28
ENDBRANCH  26  27
ENDBRANCH  25  26
ENDBRANCH  23  25
ENDBRANCH   2  23
TORSDOF 13
ENDMDL
MODEL       62
REMARK 921   NORMALIZED FREE ENERGY PREDICTED BY IDOCK:   -5.69 KCAL/MOL
REMARK 922        TOTAL FREE ENERGY PREDICTED BY IDOCK:  -13.18 KCAL/MOL
REMARK 923 INTER-LIGAND FREE ENERGY PREDICTED BY IDOCK:   -9.67 KCAL/MOL
REMARK 924 INTRA-LIGAND FREE ENERGY PREDICTED BY IDOCK:   -3.51 KCAL/MOL
REMARK 927      BINDING AFFINITY PREDICTED BY RF-SCORE:    0.00 PKD
ROOT
HETATM    1  C   UNL     1     -13.317   9.764  72.200  1.00  0.00    -0.527 C  
HETATM    2  C   UNL     1     -11.971   9.936  71.485  1.00  0.00    -0.390 C  
ENDROOT
BRANCH   2   3
HETATM    3  C   UNL     1     -12.101   9.819  69.949  1.00  0.00     0.151 C  
BRANCH   3   4
HETATM    4  C   UNL     1     -11.900  11.122  69.229  1.00  0.00    -0.422 A  
HETATM    5  C   UNL     1     -11.668  11.126  67.849  1.00  0.00    -0.260 A  
HETATM    6  C   UNL     1     -11.578  15.747  68.545  1.00  0.00    -0.362 A  
HETATM    7  C   UNL     1     -11.930  12.332  69.907  1.00  0.00    -0.377 A  
HETATM    8  C   UNL     1     -11.756  13.502  69.180  1.00  0.00    -0.374 A  
HETATM    9  C   UNL     1     -11.519  12.324  67.107  1.00  0.00    -0.419 A  
HETATM   10  C   UNL     1     -11.541  13.548  67.783  1.00  0.00    -0.339 A  
HETATM   11  C   UNL     1     -11.765  14.869  69.778  1.00  0.00    -0.344 A  
HETATM   12  N   UNL     1     -11.392  14.865  67.385  1.00  0.00    -0.339 NA 
BRANCH  12  13
HETATM   13  C   UNL     1     -11.250  15.455  66.069  1.00  0.00    -0.168 C  
BRANCH  13  14
HETATM   14  C   UNL     1      -9.814  15.340  65.550  1.00  0.00    -0.362 C  
BRANCH  14  15
HETATM   15  C   UNL     1      -8.772  15.274  66.658  1.00  0.00    -0.291 C  
HETATM   16  O   UNL     1      -8.295  13.932  66.772  1.00  0.00    -0.419 OA 
HETATM   17  H   UNL     1      -7.644  13.891  67.464  1.00  0.00     0.000 HD 
ENDBRANCH  14  15
ENDBRANCH  13  14
ENDBRANCH  12  13
BRANCH   9  18
HETATM   18  C   UNL     1     -11.313  12.101  65.652  1.00  0.00    -0.347 C  
HETATM   19  N   UNL     1     -10.041  11.740  65.268  1.00  0.00    -0.254 N  
HETATM   20  O   UNL     1     -12.178  12.273  64.800  1.00  0.00    -0.413 OA 
HETATM   21  H2  UNL     1      -9.284  11.632  65.943  1.00  0.00     0.000 HD 
HETATM   22  H1  UNL     1      -9.899  11.588  64.269  1.00  0.00     0.000 HD 
ENDBRANCH   9  18
ENDBRANCH   3   4
ENDBRANCH   2   3
BRANCH   2  23
HETATM   23  N   UNL     1     -11.027   8.942  72.026  1.00  0.00    -0.364 NA 
HETATM   24  H   UNL     1     -10.533   9.322  72.833  1.00  0.00     0.000 HD 
BRANCH  23  25
HETATM   25  C   UNL     1     -11.644   7.648  72.360  1.00  0.00    -0.336 C  
BRANCH  25  26
HETATM   26  C   UNL     1     -10.912   6.425  71.768  1.00  0.00    -0.255 C  
BRANCH  26  27
HETATM   27  O   UNL     1      -9.790   6.795  70.955  1.00  0.00    -0.185 OA 
BRANCH  27  28
HETATM   28  C   UNL     1     -10.006   6.895  69.604  1.00  0.00    -0.171 A  
HETATM   29  C   UNL     1      -9.680   8.159  67.563  1.00  0.00    -0.207 A  
HETATM   30  C   UNL     1     -10.840   6.022  68.884  1.00  0.00    -0.400 A  
HETATM   31  C   UNL     1      -9.421   7.973  68.920  1.00  0.00    -0.151 A  
HETATM   32  C   UNL     1     -10.520   7.289  66.864  1.00  0.00    -0.369 A  
HETATM   33  C   UNL     1     -11.103   6.218  67.532  1.00  0.00    -0.379 A  
BRANCH  31  34
HETATM   34  O   UNL     1      -8.683   8.980  69.485  1.00  0.00    -0.135 OA 
BRANCH  34  35
HETATM   35  C   UNL     1      -7.448   9.316  68.840  1.00  0.00    -0.075 C  
HETATM   36  C   UNL     1      -7.425  10.755  68.337  1.00  0.00    -0.095 C  
HETATM   37  F   UNL     1      -8.488  11.483  68.740  1.00  0.00    -0.149 F  
HETATM   38  F   UNL     1      -6.307  11.399  68.748  1.00  0.00    -0.047 F  
HETATM   39  F   UNL     1      -7.414  10.784  66.977  1.00  0.00    -0.096 F  
ENDBRANCH  34  35
ENDBRANCH  31  34
ENDBRANCH  27  28
ENDBRANCH  26  27
ENDBRANCH  25  26
ENDBRANCH  23  25
ENDBRANCH   2  23
TORSDOF 13
ENDMDL
MODEL       63
REMARK 921   NORMALIZED FREE ENERGY PREDICTED BY IDOCK:   -5.68 KCAL/MOL
REMARK 922        TOTAL FREE ENERGY PREDICTED BY IDOCK:  -13.17 KCAL/MOL
REMARK 923 INTER-LIGAND FREE ENERGY PREDICTED BY IDOCK:  -11.08 KCAL/MOL
REMARK 924 INTRA-LIGAND FREE ENERGY PREDICTED BY IDOCK:   -2.09 KCAL/MOL
REMARK 927      BINDING AFFINITY PREDICTED BY RF-SCORE:    0.00 PKD
ROOT
HETATM    1  C   UNL     1      -9.715   6.943  66.233  1.00  0.00    -0.049 C  
HETATM    2  C   UNL     1      -9.735   8.437  66.579  1.00  0.00    -0.260 C  
ENDROOT
BRANCH   2   3
HETATM    3  C   UNL     1      -9.521   9.332  65.336  1.00  0.00    -0.281 C  
BRANCH   3   4
HETATM    4  C   UNL     1      -9.633  10.801  65.629  1.00  0.00    -0.263 A  
HETATM    5  C   UNL     1     -10.718  11.529  65.128  1.00  0.00    -0.348 A  
HETATM    6  C   UNL     1      -8.591  15.006  67.415  1.00  0.00    -0.192 A  
HETATM    7  C   UNL     1      -8.674  11.461  66.383  1.00  0.00    -0.185 A  
HETATM    8  C   UNL     1      -8.846  12.816  66.633  1.00  0.00    -0.113 A  
HETATM    9  C   UNL     1     -10.905  12.905  65.410  1.00  0.00    -0.307 A  
HETATM   10  C   UNL     1      -9.939  13.581  66.163  1.00  0.00    -0.304 A  
HETATM   11  C   UNL     1      -7.896  13.649  67.427  1.00  0.00    -0.162 A  
HETATM   12  N   UNL     1      -9.793  14.893  66.578  1.00  0.00    -0.254 NA 
BRANCH  12  13
HETATM   13  C   UNL     1     -10.670  16.039  66.447  1.00  0.00    -0.232 C  
BRANCH  13  14
HETATM   14  C   UNL     1     -10.871  16.754  67.786  1.00  0.00    -0.285 C  
BRANCH  14  15
HETATM   15  C   UNL     1     -11.642  15.927  68.805  1.00  0.00    -0.386 C  
HETATM   16  O   UNL     1     -12.307  14.857  68.133  1.00  0.00    -0.578 OA 
HETATM   17  H   UNL     1     -12.788  14.340  68.769  1.00  0.00     0.000 HD 
ENDBRANCH  14  15
ENDBRANCH  13  14
ENDBRANCH  12  13
BRANCH   9  18
HETATM   18  C   UNL     1     -12.137  13.475  64.806  1.00  0.00    -0.404 C  
HETATM   19  N   UNL     1     -12.061  13.809  63.472  1.00  0.00    -0.920 N  
HETATM   20  O   UNL     1     -13.166  13.707  65.430  1.00  0.00    -0.678 OA 
HETATM   21  H2  UNL     1     -11.207  13.673  62.930  1.00  0.00     0.000 HD 
HETATM   22  H1  UNL     1     -12.907  14.200  63.057  1.00  0.00     0.000 HD 
ENDBRANCH   9  18
ENDBRANCH   3   4
ENDBRANCH   2   3
BRANCH   2  23
HETATM   23  N   UNL     1      -8.714   8.689  67.611  1.00  0.00    -0.135 NA 
HETATM   24  H   UNL     1      -8.354   9.640  67.533  1.00  0.00     0.000 HD 
BRANCH  23  25
HETATM   25  C   UNL     1      -9.170   8.420  68.985  1.00  0.00    -0.147 C  
BRANCH  25  26
HETATM   26  C   UNL     1      -9.729   9.657  69.721  1.00  0.00    -0.224 C  
BRANCH  26  27
HETATM   27  O   UNL     1     -10.139   9.361  71.062  1.00  0.00    -0.288 OA 
BRANCH  27  28
HETATM   28  C   UNL     1     -11.425   8.917  71.237  1.00  0.00    -0.299 A  
HETATM   29  C   UNL     1     -13.775   9.468  71.435  1.00  0.00    -0.294 A  
HETATM   30  C   UNL     1     -11.751   7.584  71.543  1.00  0.00    -0.309 A  
HETATM   31  C   UNL     1     -12.462   9.862  71.183  1.00  0.00    -0.368 A  
HETATM   32  C   UNL     1     -14.083   8.141  71.748  1.00  0.00    -0.516 A  
HETATM   33  C   UNL     1     -13.062   7.200  71.803  1.00  0.00    -0.363 A  
BRANCH  31  34
HETATM   34  O   UNL     1     -12.313  11.214  71.017  1.00  0.00    -0.371 OA 
BRANCH  34  35
HETATM   35  C   UNL     1     -13.387  12.044  71.476  1.00  0.00    -0.028 C  
HETATM   36  C   UNL     1     -12.988  13.512  71.580  1.00  0.00    -0.359 C  
HETATM   37  F   UNL     1     -11.768  13.775  71.066  1.00  0.00    -0.337 F  
HETATM   38  F   UNL     1     -13.881  14.308  70.948  1.00  0.00    -0.344 F  
HETATM   39  F   UNL     1     -12.964  13.907  72.882  1.00  0.00    -0.501 F  
ENDBRANCH  34  35
ENDBRANCH  31  34
ENDBRANCH  27  28
ENDBRANCH  26  27
ENDBRANCH  25  26
ENDBRANCH  23  25
ENDBRANCH   2  23
TORSDOF 13
ENDMDL
MODEL       64
REMARK 921   NORMALIZED FREE ENERGY PREDICTED BY IDOCK:   -5.67 KCAL/MOL
REMARK 922        TOTAL FREE ENERGY PREDICTED BY IDOCK:  -13.15 KCAL/MOL
REMARK 923 INTER-LIGAND FREE ENERGY PREDICTED BY IDOCK:  -11.42 KCAL/MOL
REMARK 924 INTRA-LIGAND FREE ENERGY PREDICTED BY IDOCK:   -1.74 KCAL/MOL
REMARK 927      BINDING AFFINITY PREDICTED BY RF-SCORE:    0.00 PKD
ROOT
HETATM    1  C   UNL     1     -14.174  14.292  72.240  1.00  0.00    -0.587 C  
HETATM    2  C   UNL     1     -13.164  13.553  71.352  1.00  0.00    -0.271 C  
ENDROOT
BRANCH   2   3
HETATM    3  C   UNL     1     -12.933  12.096  71.811  1.00  0.00    -0.437 C  
BRANCH   3   4
HETATM    4  C   UNL     1     -12.235  11.249  70.785  1.00  0.00    -0.479 A  
HETATM    5  C   UNL     1     -11.785   9.969  71.128  1.00  0.00    -0.472 A  
HETATM    6  C   UNL     1     -10.436   9.960  66.654  1.00  0.00    -0.169 A  
HETATM    7  C   UNL     1     -12.014  11.713  69.496  1.00  0.00    -0.383 A  
HETATM    8  C   UNL     1     -11.380  10.873  68.590  1.00  0.00    -0.360 A  
HETATM    9  C   UNL     1     -11.164   9.105  70.193  1.00  0.00    -0.211 A  
HETATM   10  C   UNL     1     -10.931   9.566  68.893  1.00  0.00    -0.086 A  
HETATM   11  C   UNL     1     -11.080  11.240  67.175  1.00  0.00    -0.364 A  
HETATM   12  N   UNL     1     -10.331   9.016  67.774  1.00  0.00    -0.233 NA 
BRANCH  12  13
HETATM   13  C   UNL     1      -9.802   7.689  67.530  1.00  0.00    -0.165 C  
BRANCH  13  14
HETATM   14  C   UNL     1     -10.919   6.667  67.304  1.00  0.00    -0.456 C  
BRANCH  14  15
HETATM   15  C   UNL     1     -10.439   5.376  66.657  1.00  0.00    -0.298 C  
HETATM   16  O   UNL     1      -9.859   5.677  65.386  1.00  0.00    -0.354 OA 
HETATM   17  H   UNL     1      -9.559   4.871  64.982  1.00  0.00     0.000 HD 
ENDBRANCH  14  15
ENDBRANCH  13  14
ENDBRANCH  12  13
BRANCH   9  18
HETATM   18  C   UNL     1     -10.793   7.781  70.759  1.00  0.00    -0.239 C  
HETATM   19  N   UNL     1     -11.797   6.840  70.807  1.00  0.00    -0.380 N  
HETATM   20  O   UNL     1      -9.690   7.515  71.222  1.00  0.00    -0.165 OA 
HETATM   21  H2  UNL     1     -12.739   7.039  70.473  1.00  0.00     0.000 HD 
HETATM   22  H1  UNL     1     -11.543   5.931  71.196  1.00  0.00     0.000 HD 
ENDBRANCH   9  18
ENDBRANCH   3   4
ENDBRANCH   2   3
BRANCH   2  23
HETATM   23  N   UNL     1     -11.908  14.324  71.338  1.00  0.00    -0.449 NA 
HETATM   24  H   UNL     1     -11.134  13.740  71.020  1.00  0.00     0.000 HD 
BRANCH  23  25
HETATM   25  C   UNL     1     -11.975  15.567  70.552  1.00  0.00    -0.371 C  
BRANCH  25  26
HETATM   26  C   UNL     1     -11.924  15.354  69.024  1.00  0.00    -0.288 C  
BRANCH  26  27
HETATM   27  O   UNL     1     -11.095  16.318  68.361  1.00  0.00    -0.340 OA 
BRANCH  27  28
HETATM   28  C   UNL     1      -9.798  15.953  68.102  1.00  0.00    -0.214 A  
HETATM   29  C   UNL     1      -7.472  16.613  67.956  1.00  0.00    -0.170 A  
HETATM   30  C   UNL     1      -9.433  14.694  67.593  1.00  0.00    -0.205 A  
HETATM   31  C   UNL     1      -8.793  16.916  68.284  1.00  0.00    -0.228 A  
HETATM   32  C   UNL     1      -7.126  15.361  67.442  1.00  0.00    -0.229 A  
HETATM   33  C   UNL     1      -8.115  14.402  67.258  1.00  0.00    -0.209 A  
BRANCH  31  34
HETATM   34  O   UNL     1      -8.984  18.221  68.656  1.00  0.00    -0.319 OA 
BRANCH  34  35
HETATM   35  C   UNL     1      -8.691  19.222  67.674  1.00  0.00    -0.296 C  
HETATM   36  C   UNL     1      -9.950  19.842  67.077  1.00  0.00    -0.428 C  
HETATM   37  F   UNL     1     -11.084  19.458  67.700  1.00  0.00    -0.530 F  
HETATM   38  F   UNL     1      -9.895  21.194  67.117  1.00  0.00    -0.596 F  
HETATM   39  F   UNL     1     -10.076  19.494  65.768  1.00  0.00    -0.435 F  
ENDBRANCH  34  35
ENDBRANCH  31  34
ENDBRANCH  27  28
ENDBRANCH  26  27
ENDBRANCH  25  26
ENDBRANCH  23  25
ENDBRANCH   2  23
TORSDOF 13
ENDMDL
MODEL       65
REMARK 921   NORMALIZED FREE ENERGY PREDICTED BY IDOCK:   -5.67 KCAL/MOL
REMARK 922        TOTAL FREE ENERGY PREDICTED BY IDOCK:  -13.14 KCAL/MOL
REMARK 923 INTER-LIGAND FREE ENERGY PREDICTED BY IDOCK:  -11.28 KCAL/MOL
REMARK 924 INTRA-LIGAND FREE ENERGY PREDICTED BY IDOCK:   -1.86 KCAL/MOL
REMARK 927      BINDING AFFINITY PREDICTED BY RF-SCORE:    0.00 PKD
ROOT
HETATM    1  C   UNL     1     -10.707   9.332  71.815  1.00  0.00    -0.324 C  
HETATM    2  C   UNL     1     -12.181   9.097  71.459  1.00  0.00    -0.349 C  
ENDROOT
BRANCH   2   3
HETATM    3  C   UNL     1     -13.052  10.351  71.702  1.00  0.00    -0.553 C  
BRANCH   3   4
HETATM    4  C   UNL     1     -12.649  11.532  70.866  1.00  0.00    -0.438 A  
HETATM    5  C   UNL     1     -12.693  12.819  71.412  1.00  0.00    -0.353 A  
HETATM    6  C   UNL     1     -11.086  13.959  67.174  1.00  0.00    -0.300 A  
HETATM    7  C   UNL     1     -12.238  11.376  69.549  1.00  0.00    -0.303 A  
HETATM    8  C   UNL     1     -11.861  12.507  68.836  1.00  0.00    -0.346 A  
HETATM    9  C   UNL     1     -12.281  13.966  70.690  1.00  0.00    -0.443 A  
HETATM   10  C   UNL     1     -11.872  13.820  69.360  1.00  0.00    -0.341 A  
HETATM   11  C   UNL     1     -11.400  12.487  67.417  1.00  0.00    -0.371 A  
HETATM   12  N   UNL     1     -11.455  14.707  68.383  1.00  0.00    -0.296 NA 
BRANCH  12  13
HETATM   13  C   UNL     1     -11.200  16.133  68.434  1.00  0.00    -0.358 C  
BRANCH  13  14
HETATM   14  C   UNL     1     -10.685  16.663  67.093  1.00  0.00    -0.202 C  
BRANCH  14  15
HETATM   15  C   UNL     1     -10.518  18.176  67.063  1.00  0.00    -0.370 C  
HETATM   16  O   UNL     1     -10.474  18.616  65.705  1.00  0.00    -0.603 OA 
HETATM   17  H   UNL     1     -10.370  19.560  65.686  1.00  0.00     0.000 HD 
ENDBRANCH  14  15
ENDBRANCH  13  14
ENDBRANCH  12  13
BRANCH   9  18
HETATM   18  C   UNL     1     -12.380  15.228  71.469  1.00  0.00    -0.352 C  
HETATM   19  N   UNL     1     -13.651  15.629  71.815  1.00  0.00    -0.469 N  
HETATM   20  O   UNL     1     -11.421  15.935  71.760  1.00  0.00    -0.407 OA 
HETATM   21  H2  UNL     1     -14.476  15.091  71.552  1.00  0.00     0.000 HD 
HETATM   22  H1  UNL     1     -13.719  16.496  72.349  1.00  0.00     0.000 HD 
ENDBRANCH   9  18
ENDBRANCH   3   4
ENDBRANCH   2   3
BRANCH   2  23
HETATM   23  N   UNL     1     -12.666   7.941  72.234  1.00  0.00    -0.513 NA 
HETATM   24  H   UNL     1     -13.684   7.894  72.206  1.00  0.00     0.000 HD 
BRANCH  23  25
HETATM   25  C   UNL     1     -12.076   6.655  71.827  1.00  0.00    -0.353 C  
BRANCH  25  26
HETATM   26  C   UNL     1     -11.885   6.501  70.302  1.00  0.00    -0.295 C  
BRANCH  26  27
HETATM   27  O   UNL     1     -10.503   6.458  69.922  1.00  0.00    -0.187 OA 
BRANCH  27  28
HETATM   28  C   UNL     1     -10.075   5.337  69.256  1.00  0.00    -0.230 A  
HETATM   29  C   UNL     1      -9.743   4.213  67.136  1.00  0.00    -0.224 A  
HETATM   30  C   UNL     1      -9.694   4.148  69.902  1.00  0.00    -0.280 A  
HETATM   31  C   UNL     1     -10.092   5.357  67.852  1.00  0.00    -0.168 A  
HETATM   32  C   UNL     1      -9.376   3.036  67.792  1.00  0.00    -0.251 A  
HETATM   33  C   UNL     1      -9.356   3.007  69.182  1.00  0.00    -0.220 A  
BRANCH  31  34
HETATM   34  O   UNL     1     -10.546   6.384  67.066  1.00  0.00    -0.248 OA 
BRANCH  34  35
HETATM   35  C   UNL     1      -9.582   7.364  66.664  1.00  0.00    -0.190 C  
HETATM   36  C   UNL     1     -10.058   8.791  66.916  1.00  0.00    -0.278 C  
HETATM   37  F   UNL     1     -11.209   8.857  67.618  1.00  0.00    -0.180 F  
HETATM   38  F   UNL     1      -9.126   9.507  67.587  1.00  0.00    -0.121 F  
HETATM   39  F   UNL     1     -10.273   9.436  65.738  1.00  0.00    -0.371 F  
ENDBRANCH  34  35
ENDBRANCH  31  34
ENDBRANCH  27  28
ENDBRANCH  26  27
ENDBRANCH  25  26
ENDBRANCH  23  25
ENDBRANCH   2  23
TORSDOF 13
ENDMDL
MODEL       66
REMARK 921   NORMALIZED FREE ENERGY PREDICTED BY IDOCK:   -5.64 KCAL/MOL
REMARK 922        TOTAL FREE ENERGY PREDICTED BY IDOCK:  -13.09 KCAL/MOL
REMARK 923 INTER-LIGAND FREE ENERGY PREDICTED BY IDOCK:  -10.97 KCAL/MOL
REMARK 924 INTRA-LIGAND FREE ENERGY PREDICTED BY IDOCK:   -2.11 KCAL/MOL
REMARK 927      BINDING AFFINITY PREDICTED BY RF-SCORE:    0.00 PKD
ROOT
HETATM    1  C   UNL     1      -7.705   7.125  66.226  1.00  0.00    -0.100 C  
HETATM    2  C   UNL     1      -8.861   7.671  65.378  1.00  0.00     0.074 C  
ENDROOT
BRANCH   2   3
HETATM    3  C   UNL     1      -8.463   8.935  64.582  1.00  0.00    -0.185 C  
BRANCH   3   4
HETATM    4  C   UNL     1      -9.040  10.203  65.143  1.00  0.00    -0.242 A  
HETATM    5  C   UNL     1     -10.173  10.773  64.553  1.00  0.00    -0.428 A  
HETATM    6  C   UNL     1      -9.587  13.887  67.988  1.00  0.00    -0.219 A  
HETATM    7  C   UNL     1      -8.466  10.834  66.238  1.00  0.00    -0.161 A  
HETATM    8  C   UNL     1      -9.060  11.993  66.719  1.00  0.00    -0.197 A  
HETATM    9  C   UNL     1     -10.792  11.940  65.064  1.00  0.00    -0.351 A  
HETATM   10  C   UNL     1     -10.216  12.587  66.163  1.00  0.00    -0.252 A  
HETATM   11  C   UNL     1      -8.551  12.773  67.886  1.00  0.00    -0.181 A  
HETATM   12  N   UNL     1     -10.529  13.734  66.871  1.00  0.00    -0.271 NA 
BRANCH  12  13
HETATM   13  C   UNL     1     -11.655  14.641  66.771  1.00  0.00    -0.360 C  
BRANCH  13  14
HETATM   14  C   UNL     1     -11.248  15.981  66.152  1.00  0.00     0.157 C  
BRANCH  14  15
HETATM   15  C   UNL     1     -10.778  15.864  64.709  1.00  0.00    -0.229 C  
HETATM   16  O   UNL     1     -11.823  16.301  63.839  1.00  0.00    -1.400 OA 
HETATM   17  H   UNL     1     -11.529  16.228  62.938  1.00  0.00     0.000 HD 
ENDBRANCH  14  15
ENDBRANCH  13  14
ENDBRANCH  12  13
BRANCH   9  18
HETATM   18  C   UNL     1     -12.000  12.356  64.305  1.00  0.00    -0.410 C  
HETATM   19  N   UNL     1     -11.775  12.922  63.070  1.00  0.00    -0.798 N  
HETATM   20  O   UNL     1     -13.145  12.274  64.734  1.00  0.00    -0.724 OA 
HETATM   21  H2  UNL     1     -10.833  13.048  62.698  1.00  0.00     0.000 HD 
HETATM   22  H1  UNL     1     -12.604  13.208  62.548  1.00  0.00     0.000 HD 
ENDBRANCH   9  18
ENDBRANCH   3   4
ENDBRANCH   2   3
BRANCH   2  23
HETATM   23  N   UNL     1     -10.007   7.929  66.268  1.00  0.00    -0.476 NA 
HETATM   24  H   UNL     1     -10.774   8.355  65.748  1.00  0.00     0.000 HD 
BRANCH  23  25
HETATM   25  C   UNL     1     -10.476   6.743  67.002  1.00  0.00    -0.299 C  
BRANCH  25  26
HETATM   26  C   UNL     1     -10.606   6.951  68.527  1.00  0.00    -0.212 C  
BRANCH  26  27
HETATM   27  O   UNL     1      -9.911   8.119  68.984  1.00  0.00    -0.179 OA 
BRANCH  27  28
HETATM   28  C   UNL     1     -10.667   9.105  69.566  1.00  0.00    -0.215 A  
HETATM   29  C   UNL     1     -11.869   9.884  71.519  1.00  0.00    -0.445 A  
HETATM   30  C   UNL     1     -11.153  10.225  68.868  1.00  0.00    -0.278 A  
HETATM   31  C   UNL     1     -11.035   8.946  70.912  1.00  0.00    -0.266 A  
HETATM   32  C   UNL     1     -12.354  10.985  70.810  1.00  0.00    -0.496 A  
HETATM   33  C   UNL     1     -11.993  11.151  69.478  1.00  0.00    -0.425 A  
BRANCH  31  34
HETATM   34  O   UNL     1     -10.751   7.864  71.703  1.00  0.00    -0.216 OA 
BRANCH  34  35
HETATM   35  C   UNL     1     -11.676   6.770  71.656  1.00  0.00    -0.314 C  
HETATM   36  C   UNL     1     -11.108   5.499  72.279  1.00  0.00    -0.237 C  
HETATM   37  F   UNL     1      -9.925   5.687  72.901  1.00  0.00    -0.174 F  
HETATM   38  F   UNL     1     -11.967   4.970  73.182  1.00  0.00    -0.389 F  
HETATM   39  F   UNL     1     -10.910   4.549  71.325  1.00  0.00    -0.073 F  
ENDBRANCH  34  35
ENDBRANCH  31  34
ENDBRANCH  27  28
ENDBRANCH  26  27
ENDBRANCH  25  26
ENDBRANCH  23  25
ENDBRANCH   2  23
TORSDOF 13
ENDMDL
MODEL       67
REMARK 921   NORMALIZED FREE ENERGY PREDICTED BY IDOCK:   -5.63 KCAL/MOL
REMARK 922        TOTAL FREE ENERGY PREDICTED BY IDOCK:  -13.08 KCAL/MOL
REMARK 923 INTER-LIGAND FREE ENERGY PREDICTED BY IDOCK:  -11.08 KCAL/MOL
REMARK 924 INTRA-LIGAND FREE ENERGY PREDICTED BY IDOCK:   -2.00 KCAL/MOL
REMARK 927      BINDING AFFINITY PREDICTED BY RF-SCORE:    0.00 PKD
ROOT
HETATM    1  C   UNL     1     -11.622  14.675  69.237  1.00  0.00    -0.335 C  
HETATM    2  C   UNL     1     -12.032  13.497  68.344  1.00  0.00    -0.343 C  
ENDROOT
BRANCH   2   3
HETATM    3  C   UNL     1     -10.928  12.418  68.251  1.00  0.00    -0.269 C  
BRANCH   3   4
HETATM    4  C   UNL     1     -11.073  11.323  69.269  1.00  0.00    -0.314 A  
HETATM    5  C   UNL     1     -10.016  10.434  69.490  1.00  0.00    -0.229 A  
HETATM    6  C   UNL     1     -13.004   8.694  72.634  1.00  0.00    -0.202 A  
HETATM    7  C   UNL     1     -12.245  11.164  69.995  1.00  0.00    -0.402 A  
HETATM    8  C   UNL     1     -12.308  10.143  70.935  1.00  0.00    -0.461 A  
HETATM    9  C   UNL     1     -10.074   9.412  70.469  1.00  0.00    -0.335 A  
HETATM   10  C   UNL     1     -11.253   9.240  71.202  1.00  0.00    -0.343 A  
HETATM   11  C   UNL     1     -13.501   9.859  71.784  1.00  0.00    -0.444 A  
HETATM   12  N   UNL     1     -11.653   8.344  72.178  1.00  0.00    -0.347 NA 
BRANCH  12  13
HETATM   13  C   UNL     1     -10.927   7.295  72.867  1.00  0.00    -0.337 C  
BRANCH  13  14
HETATM   14  C   UNL     1     -11.085   5.943  72.167  1.00  0.00    -0.333 C  
BRANCH  14  15
HETATM   15  C   UNL     1     -11.042   4.758  73.121  1.00  0.00    -0.310 C  
HETATM   16  O   UNL     1     -10.902   5.238  74.459  1.00  0.00    -0.397 OA 
HETATM   17  H   UNL     1     -10.875   4.498  75.054  1.00  0.00     0.000 HD 
ENDBRANCH  14  15
ENDBRANCH  13  14
ENDBRANCH  12  13
BRANCH   9  18
HETATM   18  C   UNL     1      -8.830   8.602  70.560  1.00  0.00    -0.163 C  
HETATM   19  N   UNL     1      -7.764   9.197  71.197  1.00  0.00    -0.118 N  
HETATM   20  O   UNL     1      -8.695   7.490  70.063  1.00  0.00    -0.138 OA 
HETATM   21  H2  UNL     1      -7.825  10.139  71.584  1.00  0.00     0.000 HD 
HETATM   22  H1  UNL     1      -6.911   8.642  71.260  1.00  0.00     0.000 HD 
ENDBRANCH   9  18
ENDBRANCH   3   4
ENDBRANCH   2   3
BRANCH   2  23
HETATM   23  N   UNL     1     -12.389  14.023  67.015  1.00  0.00    -0.538 NA 
HETATM   24  H   UNL     1     -12.741  14.977  67.092  1.00  0.00     0.000 HD 
BRANCH  23  25
HETATM   25  C   UNL     1     -11.299  13.952  66.028  1.00  0.00    -0.324 C  
BRANCH  25  26
HETATM   26  C   UNL     1     -10.656  15.315  65.695  1.00  0.00    -0.362 C  
BRANCH  26  27
HETATM   27  O   UNL     1      -9.223  15.257  65.674  1.00  0.00    -0.231 OA 
BRANCH  27  28
HETATM   28  C   UNL     1      -8.566  15.692  66.797  1.00  0.00    -0.274 A  
HETATM   29  C   UNL     1      -7.454  17.510  67.948  1.00  0.00    -0.206 A  
HETATM   30  C   UNL     1      -8.178  14.842  67.848  1.00  0.00    -0.154 A  
HETATM   31  C   UNL     1      -8.194  17.044  66.863  1.00  0.00    -0.213 A  
HETATM   32  C   UNL     1      -7.068  16.651  68.980  1.00  0.00    -0.216 A  
HETATM   33  C   UNL     1      -7.431  15.311  68.923  1.00  0.00    -0.147 A  
BRANCH  31  34
HETATM   34  O   UNL     1      -8.384  17.980  65.880  1.00  0.00    -0.516 OA 
BRANCH  34  35
HETATM   35  C   UNL     1      -8.566  19.336  66.305  1.00  0.00    -0.325 C  
HETATM   36  C   UNL     1     -10.036  19.737  66.366  1.00  0.00    -0.491 C  
HETATM   37  F   UNL     1     -10.883  18.704  66.174  1.00  0.00    -0.403 F  
HETATM   38  F   UNL     1     -10.341  20.304  67.557  1.00  0.00    -0.523 F  
HETATM   39  F   UNL     1     -10.316  20.664  65.409  1.00  0.00    -0.340 F  
ENDBRANCH  34  35
ENDBRANCH  31  34
ENDBRANCH  27  28
ENDBRANCH  26  27
ENDBRANCH  25  26
ENDBRANCH  23  25
ENDBRANCH   2  23
TORSDOF 13
ENDMDL
MODEL       68
REMARK 921   NORMALIZED FREE ENERGY PREDICTED BY IDOCK:   -5.62 KCAL/MOL
REMARK 922        TOTAL FREE ENERGY PREDICTED BY IDOCK:  -13.06 KCAL/MOL
REMARK 923 INTER-LIGAND FREE ENERGY PREDICTED BY IDOCK:  -10.82 KCAL/MOL
REMARK 924 INTRA-LIGAND FREE ENERGY PREDICTED BY IDOCK:   -2.24 KCAL/MOL
REMARK 927      BINDING AFFINITY PREDICTED BY RF-SCORE:    0.00 PKD
ROOT
HETATM    1  C   UNL     1      -8.391   5.942  66.267  1.00  0.00    -0.117 C  
HETATM    2  C   UNL     1      -9.184   7.245  66.101  1.00  0.00    -0.089 C  
ENDROOT
BRANCH   2   3
HETATM    3  C   UNL     1      -8.289   8.499  66.227  1.00  0.00    -0.118 C  
BRANCH   3   4
HETATM    4  C   UNL     1      -9.040   9.790  66.068  1.00  0.00    -0.201 A  
HETATM    5  C   UNL     1      -9.050  10.722  67.111  1.00  0.00    -0.153 A  
HETATM    6  C   UNL     1     -11.631  13.132  64.049  1.00  0.00    -0.428 A  
HETATM    7  C   UNL     1      -9.738  10.079  64.904  1.00  0.00    -0.377 A  
HETATM    8  C   UNL     1     -10.396  11.298  64.813  1.00  0.00    -0.366 A  
HETATM    9  C   UNL     1      -9.700  11.977  67.003  1.00  0.00    -0.204 A  
HETATM   10  C   UNL     1     -10.412  12.274  65.836  1.00  0.00    -0.256 A  
HETATM   11  C   UNL     1     -11.183  11.738  63.623  1.00  0.00    -0.519 A  
HETATM   12  N   UNL     1     -11.170  13.357  65.426  1.00  0.00    -0.286 NA 
BRANCH  12  13
HETATM   13  C   UNL     1     -11.419  14.640  66.051  1.00  0.00    -0.332 C  
BRANCH  13  14
HETATM   14  C   UNL     1     -10.302  15.642  65.749  1.00  0.00    -0.386 C  
BRANCH  14  15
HETATM   15  C   UNL     1     -10.799  16.930  65.107  1.00  0.00    -0.094 C  
HETATM   16  O   UNL     1     -11.537  16.610  63.927  1.00  0.00    -1.582 OA 
HETATM   17  H   UNL     1     -11.847  17.413  63.526  1.00  0.00     0.000 HD 
ENDBRANCH  14  15
ENDBRANCH  13  14
ENDBRANCH  12  13
BRANCH   9  18
HETATM   18  C   UNL     1      -9.560  12.826  68.214  1.00  0.00    -0.211 C  
HETATM   19  N   UNL     1     -10.517  12.654  69.190  1.00  0.00    -0.434 N  
HETATM   20  O   UNL     1      -8.696  13.684  68.358  1.00  0.00    -0.176 OA 
HETATM   21  H2  UNL     1     -11.277  11.982  69.086  1.00  0.00     0.000 HD 
HETATM   22  H1  UNL     1     -10.421  13.237  70.021  1.00  0.00     0.000 HD 
ENDBRANCH   9  18
ENDBRANCH   3   4
ENDBRANCH   2   3
BRANCH   2  23
HETATM   23  N   UNL     1     -10.273   7.254  67.094  1.00  0.00    -0.239 NA 
HETATM   24  H   UNL     1     -11.121   6.851  66.697  1.00  0.00     0.000 HD 
BRANCH  23  25
HETATM   25  C   UNL     1      -9.932   6.596  68.365  1.00  0.00    -0.145 C  
BRANCH  25  26
HETATM   26  C   UNL     1     -11.155   6.197  69.220  1.00  0.00    -0.393 C  
BRANCH  26  27
HETATM   27  O   UNL     1     -11.039   6.629  70.582  1.00  0.00    -0.259 OA 
BRANCH  27  28
HETATM   28  C   UNL     1     -12.034   7.441  71.065  1.00  0.00    -0.306 A  
HETATM   29  C   UNL     1     -12.641   9.543  72.105  1.00  0.00    -0.411 A  
HETATM   30  C   UNL     1     -13.375   7.039  71.186  1.00  0.00    -0.188 A  
HETATM   31  C   UNL     1     -11.676   8.716  71.532  1.00  0.00    -0.305 A  
HETATM   32  C   UNL     1     -13.968   9.125  72.228  1.00  0.00    -0.489 A  
HETATM   33  C   UNL     1     -14.331   7.864  71.768  1.00  0.00    -0.589 A  
BRANCH  31  34
HETATM   34  O   UNL     1     -10.404   9.222  71.600  1.00  0.00    -0.340 OA 
BRANCH  34  35
HETATM   35  C   UNL     1      -9.744   9.480  70.355  1.00  0.00    -0.271 C  
HETATM   36  C   UNL     1      -8.230   9.329  70.453  1.00  0.00    -0.178 C  
HETATM   37  F   UNL     1      -7.816   8.823  71.634  1.00  0.00    -0.136 F  
HETATM   38  F   UNL     1      -7.752   8.529  69.472  1.00  0.00    -0.082 F  
HETATM   39  F   UNL     1      -7.621  10.537  70.304  1.00  0.00    -0.156 F  
ENDBRANCH  34  35
ENDBRANCH  31  34
ENDBRANCH  27  28
ENDBRANCH  26  27
ENDBRANCH  25  26
ENDBRANCH  23  25
ENDBRANCH   2  23
TORSDOF 13
ENDMDL
MODEL       69
REMARK 921   NORMALIZED FREE ENERGY PREDICTED BY IDOCK:   -5.62 KCAL/MOL
REMARK 922        TOTAL FREE ENERGY PREDICTED BY IDOCK:  -13.06 KCAL/MOL
REMARK 923 INTER-LIGAND FREE ENERGY PREDICTED BY IDOCK:  -10.06 KCAL/MOL
REMARK 924 INTRA-LIGAND FREE ENERGY PREDICTED BY IDOCK:   -2.99 KCAL/MOL
REMARK 927      BINDING AFFINITY PREDICTED BY RF-SCORE:    0.00 PKD
ROOT
HETATM    1  C   UNL     1      -8.338  13.154  67.090  1.00  0.00    -0.146 C  
HETATM    2  C   UNL     1      -9.116  13.110  68.412  1.00  0.00    -0.134 C  
ENDROOT
BRANCH   2   3
HETATM    3  C   UNL     1     -10.534  12.520  68.240  1.00  0.00    -0.243 C  
BRANCH   3   4
HETATM    4  C   UNL     1     -10.605  11.044  68.514  1.00  0.00    -0.218 A  
HETATM    5  C   UNL     1     -10.795  10.587  69.822  1.00  0.00    -0.335 A  
HETATM    6  C   UNL     1     -10.676   6.432  67.687  1.00  0.00    -0.311 A  
HETATM    7  C   UNL     1     -10.478  10.115  67.491  1.00  0.00    -0.304 A  
HETATM    8  C   UNL     1     -10.572   8.766  67.809  1.00  0.00    -0.256 A  
HETATM    9  C   UNL     1     -10.919   9.211  70.137  1.00  0.00    -0.267 A  
HETATM   10  C   UNL     1     -10.785   8.267  69.114  1.00  0.00    -0.101 A  
HETATM   11  C   UNL     1     -10.454   7.661  66.812  1.00  0.00    -0.319 A  
HETATM   12  N   UNL     1     -10.811   6.883  69.078  1.00  0.00    -0.226 NA 
BRANCH  12  13
HETATM   13  C   UNL     1     -11.089   5.906  70.112  1.00  0.00    -0.325 C  
BRANCH  13  14
HETATM   14  C   UNL     1      -9.882   5.004  70.377  1.00  0.00    -0.301 C  
BRANCH  14  15
HETATM   15  C   UNL     1      -9.027   5.464  71.550  1.00  0.00    -0.135 C  
HETATM   16  O   UNL     1      -8.456   6.737  71.243  1.00  0.00    -0.123 OA 
HETATM   17  H   UNL     1      -7.923   7.023  71.975  1.00  0.00     0.000 HD 
ENDBRANCH  14  15
ENDBRANCH  13  14
ENDBRANCH  12  13
BRANCH   9  18
HETATM   18  C   UNL     1     -11.147   8.949  71.582  1.00  0.00    -0.350 C  
HETATM   19  N   UNL     1     -12.450   9.044  72.018  1.00  0.00    -0.372 N  
HETATM   20  O   UNL     1     -10.253   8.715  72.388  1.00  0.00    -0.312 OA 
HETATM   21  H2  UNL     1     -13.214   9.281  71.386  1.00  0.00     0.000 HD 
HETATM   22  H1  UNL     1     -12.606   8.864  73.011  1.00  0.00     0.000 HD 
ENDBRANCH   9  18
ENDBRANCH   3   4
ENDBRANCH   2   3
BRANCH   2  23
HETATM   23  N   UNL     1      -9.159  14.473  68.970  1.00  0.00    -0.368 NA 
HETATM   24  H   UNL     1      -9.800  14.514  69.762  1.00  0.00     0.000 HD 
BRANCH  23  25
HETATM   25  C   UNL     1      -7.841  15.012  69.342  1.00  0.00    -0.179 C  
BRANCH  25  26
HETATM   26  C   UNL     1      -7.622  16.486  68.939  1.00  0.00    -0.238 C  
BRANCH  26  27
HETATM   27  O   UNL     1      -7.748  16.696  67.526  1.00  0.00    -0.156 OA 
BRANCH  27  28
HETATM   28  C   UNL     1      -8.601  17.690  67.118  1.00  0.00    -0.227 A  
HETATM   29  C   UNL     1     -10.753  18.288  66.179  1.00  0.00    -0.185 A  
HETATM   30  C   UNL     1      -8.236  19.045  67.044  1.00  0.00    -0.285 A  
HETATM   31  C   UNL     1      -9.883  17.320  66.679  1.00  0.00    -0.295 A  
HETATM   32  C   UNL     1     -10.372  19.629  66.102  1.00  0.00    -0.627 A  
HETATM   33  C   UNL     1      -9.105  20.004  66.535  1.00  0.00    -0.452 A  
BRANCH  31  34
HETATM   34  O   UNL     1     -10.359  16.039  66.571  1.00  0.00    -0.284 OA 
BRANCH  34  35
HETATM   35  C   UNL     1     -10.426  15.484  65.252  1.00  0.00    -0.411 C  
HETATM   36  C   UNL     1     -11.532  14.444  65.111  1.00  0.00    -0.362 C  
HETATM   37  F   UNL     1     -12.339  14.368  66.191  1.00  0.00    -0.419 F  
HETATM   38  F   UNL     1     -12.311  14.700  64.033  1.00  0.00    -0.506 F  
HETATM   39  F   UNL     1     -11.000  13.206  64.923  1.00  0.00    -0.290 F  
ENDBRANCH  34  35
ENDBRANCH  31  34
ENDBRANCH  27  28
ENDBRANCH  26  27
ENDBRANCH  25  26
ENDBRANCH  23  25
ENDBRANCH   2  23
TORSDOF 13
ENDMDL
MODEL       70
REMARK 921   NORMALIZED FREE ENERGY PREDICTED BY IDOCK:   -5.61 KCAL/MOL
REMARK 922        TOTAL FREE ENERGY PREDICTED BY IDOCK:  -13.04 KCAL/MOL
REMARK 923 INTER-LIGAND FREE ENERGY PREDICTED BY IDOCK:  -11.09 KCAL/MOL
REMARK 924 INTRA-LIGAND FREE ENERGY PREDICTED BY IDOCK:   -1.94 KCAL/MOL
REMARK 927      BINDING AFFINITY PREDICTED BY RF-SCORE:    0.00 PKD
ROOT
HETATM    1  C   UNL     1     -10.963  12.475  63.733  1.00  0.00    -0.496 C  
HETATM    2  C   UNL     1     -10.640  11.825  65.084  1.00  0.00    -0.283 C  
ENDROOT
BRANCH   2   3
HETATM    3  C   UNL     1     -10.112  10.380  64.931  1.00  0.00    -0.382 C  
BRANCH   3   4
HETATM    4  C   UNL     1      -9.862   9.691  66.242  1.00  0.00    -0.323 A  
HETATM    5  C   UNL     1      -8.932  10.223  67.142  1.00  0.00    -0.145 A  
HETATM    6  C   UNL     1     -10.299   6.560  69.701  1.00  0.00    -0.196 A  
HETATM    7  C   UNL     1     -10.531   8.524  66.582  1.00  0.00    -0.235 A  
HETATM    8  C   UNL     1     -10.267   7.947  67.818  1.00  0.00    -0.276 A  
HETATM    9  C   UNL     1      -8.687   9.647  68.413  1.00  0.00    -0.120 A  
HETATM   10  C   UNL     1      -9.352   8.466  68.761  1.00  0.00    -0.143 A  
HETATM   11  C   UNL     1     -10.913   6.695  68.312  1.00  0.00    -0.321 A  
HETATM   12  N   UNL     1      -9.320   7.642  69.872  1.00  0.00    -0.151 NA 
BRANCH  12  13
HETATM   13  C   UNL     1      -8.632   7.774  71.141  1.00  0.00    -0.131 C  
BRANCH  13  14
HETATM   14  C   UNL     1      -9.481   8.525  72.170  1.00  0.00    -0.375 C  
BRANCH  14  15
HETATM   15  C   UNL     1      -9.944   7.651  73.327  1.00  0.00    -0.320 C  
HETATM   16  O   UNL     1     -11.323   7.325  73.146  1.00  0.00    -0.546 OA 
HETATM   17  H   UNL     1     -11.612   6.780  73.868  1.00  0.00     0.000 HD 
ENDBRANCH  14  15
ENDBRANCH  13  14
ENDBRANCH  12  13
BRANCH   9  18
HETATM   18  C   UNL     1      -7.685  10.389  69.221  1.00  0.00    -0.140 C  
HETATM   19  N   UNL     1      -7.876  11.749  69.325  1.00  0.00    -0.343 N  
HETATM   20  O   UNL     1      -6.698   9.875  69.735  1.00  0.00    -0.057 OA 
HETATM   21  H2  UNL     1      -8.660  12.219  68.873  1.00  0.00     0.000 HD 
HETATM   22  H1  UNL     1      -7.188  12.259  69.879  1.00  0.00     0.000 HD 
ENDBRANCH   9  18
ENDBRANCH   3   4
ENDBRANCH   2   3
BRANCH   2  23
HETATM   23  N   UNL     1     -11.850  11.874  65.924  1.00  0.00    -0.448 NA 
HETATM   24  H   UNL     1     -12.103  10.938  66.240  1.00  0.00     0.000 HD 
BRANCH  23  25
HETATM   25  C   UNL     1     -11.750  12.797  67.067  1.00  0.00    -0.374 C  
BRANCH  25  26
HETATM   26  C   UNL     1     -11.914  12.120  68.445  1.00  0.00    -0.198 C  
BRANCH  26  27
HETATM   27  O   UNL     1     -11.366  12.904  69.513  1.00  0.00    -0.230 OA 
BRANCH  27  28
HETATM   28  C   UNL     1     -12.256  13.489  70.377  1.00  0.00    -0.356 A  
HETATM   29  C   UNL     1     -13.367  15.509  71.121  1.00  0.00    -0.553 A  
HETATM   30  C   UNL     1     -12.848  12.812  71.458  1.00  0.00    -0.369 A  
HETATM   31  C   UNL     1     -12.531  14.856  70.216  1.00  0.00    -0.336 A  
HETATM   32  C   UNL     1     -13.939  14.826  72.196  1.00  0.00    -0.590 A  
HETATM   33  C   UNL     1     -13.673  13.471  72.363  1.00  0.00    -0.704 A  
BRANCH  31  34
HETATM   34  O   UNL     1     -11.953  15.692  69.296  1.00  0.00    -0.365 OA 
BRANCH  34  35
HETATM   35  C   UNL     1     -10.777  16.396  69.712  1.00  0.00    -0.324 C  
HETATM   36  C   UNL     1     -10.222  17.304  68.620  1.00  0.00    -0.351 C  
HETATM   37  F   UNL     1     -11.028  17.401  67.541  1.00  0.00    -0.334 F  
HETATM   38  F   UNL     1     -10.006  18.556  69.086  1.00  0.00    -0.375 F  
HETATM   39  F   UNL     1      -9.021  16.839  68.179  1.00  0.00    -0.204 F  
ENDBRANCH  34  35
ENDBRANCH  31  34
ENDBRANCH  27  28
ENDBRANCH  26  27
ENDBRANCH  25  26
ENDBRANCH  23  25
ENDBRANCH   2  23
TORSDOF 13
ENDMDL
MODEL       71
REMARK 921   NORMALIZED FREE ENERGY PREDICTED BY IDOCK:   -5.61 KCAL/MOL
REMARK 922        TOTAL FREE ENERGY PREDICTED BY IDOCK:  -13.03 KCAL/MOL
REMARK 923 INTER-LIGAND FREE ENERGY PREDICTED BY IDOCK:  -10.77 KCAL/MOL
REMARK 924 INTRA-LIGAND FREE ENERGY PREDICTED BY IDOCK:   -2.26 KCAL/MOL
REMARK 927      BINDING AFFINITY PREDICTED BY RF-SCORE:    0.00 PKD
ROOT
HETATM    1  C   UNL     1     -10.526   5.111  66.420  1.00  0.00    -0.356 C  
HETATM    2  C   UNL     1     -10.952   6.397  67.140  1.00  0.00    -0.399 C  
ENDROOT
BRANCH   2   3
HETATM    3  C   UNL     1      -9.766   7.359  67.377  1.00  0.00    -0.196 C  
BRANCH   3   4
HETATM    4  C   UNL     1     -10.021   8.756  66.887  1.00  0.00    -0.327 A  
HETATM    5  C   UNL     1      -9.586   9.137  65.613  1.00  0.00    -0.287 A  
HETATM    6  C   UNL     1     -11.585  13.173  66.859  1.00  0.00    -0.368 A  
HETATM    7  C   UNL     1     -10.675   9.689  67.679  1.00  0.00    -0.324 A  
HETATM    8  C   UNL     1     -10.896  10.958  67.160  1.00  0.00    -0.337 A  
HETATM    9  C   UNL     1      -9.839  10.424  65.077  1.00  0.00    -0.384 A  
HETATM   10  C   UNL     1     -10.491  11.373  65.870  1.00  0.00    -0.258 A  
HETATM   11  C   UNL     1     -11.585  12.057  67.898  1.00  0.00    -0.405 A  
HETATM   12  N   UNL     1     -10.852  12.696  65.680  1.00  0.00    -0.269 NA 
BRANCH  12  13
HETATM   13  C   UNL     1     -10.756  13.554  64.515  1.00  0.00    -0.418 C  
BRANCH  13  14
HETATM   14  C   UNL     1     -12.138  13.921  63.969  1.00  0.00    -0.437 C  
BRANCH  14  15
HETATM   15  C   UNL     1     -12.580  15.331  64.335  1.00  0.00     0.152 C  
HETATM   16  O   UNL     1     -11.660  16.271  63.775  1.00  0.00    -1.539 OA 
HETATM   17  H   UNL     1     -11.936  17.151  64.004  1.00  0.00     0.000 HD 
ENDBRANCH  14  15
ENDBRANCH  13  14
ENDBRANCH  12  13
BRANCH   9  18
HETATM   18  C   UNL     1      -9.318  10.607  63.697  1.00  0.00    -0.284 C  
HETATM   19  N   UNL     1     -10.250  10.922  62.733  1.00  0.00    -0.763 N  
HETATM   20  O   UNL     1      -8.146  10.442  63.376  1.00  0.00    -0.161 OA 
HETATM   21  H2  UNL     1     -11.240  11.023  62.954  1.00  0.00     0.000 HD 
HETATM   22  H1  UNL     1      -9.892  11.047  61.786  1.00  0.00     0.000 HD 
ENDBRANCH   9  18
ENDBRANCH   3   4
ENDBRANCH   2   3
BRANCH   2  23
HETATM   23  N   UNL     1     -11.609   6.023  68.406  1.00  0.00    -0.010 NA 
HETATM   24  H   UNL     1     -11.625   5.010  68.515  1.00  0.00     0.000 HD 
BRANCH  23  25
HETATM   25  C   UNL     1     -11.024   6.663  69.596  1.00  0.00    -0.313 C  
BRANCH  25  26
HETATM   26  C   UNL     1     -12.037   6.939  70.728  1.00  0.00    -0.349 C  
BRANCH  26  27
HETATM   27  O   UNL     1     -11.658   8.054  71.547  1.00  0.00    -0.260 OA 
BRANCH  27  28
HETATM   28  C   UNL     1     -10.646   7.848  72.450  1.00  0.00    -0.298 A  
HETATM   29  C   UNL     1      -8.332   8.228  73.059  1.00  0.00    -0.246 A  
HETATM   30  C   UNL     1     -10.754   6.986  73.555  1.00  0.00    -0.368 A  
HETATM   31  C   UNL     1      -9.411   8.474  72.211  1.00  0.00    -0.295 A  
HETATM   32  C   UNL     1      -8.452   7.361  74.147  1.00  0.00    -0.242 A  
HETATM   33  C   UNL     1      -9.671   6.737  74.391  1.00  0.00    -0.309 A  
BRANCH  31  34
HETATM   34  O   UNL     1      -9.096   9.245  71.124  1.00  0.00    -0.228 OA 
BRANCH  34  35
HETATM   35  C   UNL     1      -7.771   9.107  70.596  1.00  0.00    -0.138 C  
HETATM   36  C   UNL     1      -7.444  10.171  69.553  1.00  0.00    -0.133 C  
HETATM   37  F   UNL     1      -8.388  11.130  69.449  1.00  0.00    -0.095 F  
HETATM   38  F   UNL     1      -6.267  10.779  69.827  1.00  0.00    -0.049 F  
HETATM   39  F   UNL     1      -7.314   9.605  68.322  1.00  0.00    -0.076 F  
ENDBRANCH  34  35
ENDBRANCH  31  34
ENDBRANCH  27  28
ENDBRANCH  26  27
ENDBRANCH  25  26
ENDBRANCH  23  25
ENDBRANCH   2  23
TORSDOF 13
ENDMDL
MODEL       72
REMARK 921   NORMALIZED FREE ENERGY PREDICTED BY IDOCK:   -5.60 KCAL/MOL
REMARK 922        TOTAL FREE ENERGY PREDICTED BY IDOCK:  -13.02 KCAL/MOL
REMARK 923 INTER-LIGAND FREE ENERGY PREDICTED BY IDOCK:  -10.57 KCAL/MOL
REMARK 924 INTRA-LIGAND FREE ENERGY PREDICTED BY IDOCK:   -2.44 KCAL/MOL
REMARK 927      BINDING AFFINITY PREDICTED BY RF-SCORE:    0.00 PKD
ROOT
HETATM    1  C   UNL     1     -13.369  15.390  71.356  1.00  0.00    -0.601 C  
HETATM    2  C   UNL     1     -12.293  14.404  70.883  1.00  0.00    -0.349 C  
ENDROOT
BRANCH   2   3
HETATM    3  C   UNL     1     -11.971  14.560  69.380  1.00  0.00    -0.362 C  
BRANCH   3   4
HETATM    4  C   UNL     1     -10.819  15.486  69.107  1.00  0.00    -0.251 A  
HETATM    5  C   UNL     1     -11.045  16.708  68.465  1.00  0.00    -0.301 A  
HETATM    6  C   UNL     1      -6.433  17.135  69.083  1.00  0.00    -0.223 A  
HETATM    7  C   UNL     1      -9.523  15.150  69.472  1.00  0.00    -0.151 A  
HETATM    8  C   UNL     1      -8.506  16.058  69.208  1.00  0.00    -0.224 A  
HETATM    9  C   UNL     1     -10.009  17.644  68.224  1.00  0.00    -0.339 A  
HETATM   10  C   UNL     1      -8.698  17.311  68.581  1.00  0.00    -0.268 A  
HETATM   11  C   UNL     1      -7.070  15.829  69.545  1.00  0.00    -0.190 A  
HETATM   12  N   UNL     1      -7.479  17.955  68.458  1.00  0.00    -0.262 NA 
BRANCH  12  13
HETATM   13  C   UNL     1      -7.143  19.282  67.982  1.00  0.00    -0.255 C  
BRANCH  13  14
HETATM   14  C   UNL     1      -5.904  19.264  67.084  1.00  0.00    -0.174 C  
BRANCH  14  15
HETATM   15  C   UNL     1      -6.200  18.852  65.649  1.00  0.00    -0.244 C  
HETATM   16  O   UNL     1      -7.592  18.555  65.525  1.00  0.00    -0.499 OA 
HETATM   17  H   UNL     1      -7.777  18.297  64.630  1.00  0.00     0.000 HD 
ENDBRANCH  14  15
ENDBRANCH  13  14
ENDBRANCH  12  13
BRANCH   9  18
HETATM   18  C   UNL     1     -10.473  18.889  67.559  1.00  0.00    -0.450 C  
HETATM   19  N   UNL     1     -10.514  18.863  66.182  1.00  0.00    -0.458 N  
HETATM   20  O   UNL     1     -10.759  19.922  68.154  1.00  0.00    -0.313 OA 
HETATM   21  H2  UNL     1     -10.241  18.037  65.651  1.00  0.00     0.000 HD 
HETATM   22  H1  UNL     1     -10.833  19.718  65.725  1.00  0.00     0.000 HD 
ENDBRANCH   9  18
ENDBRANCH   3   4
ENDBRANCH   2   3
BRANCH   2  23
HETATM   23  N   UNL     1     -12.744  13.037  71.202  1.00  0.00    -0.336 NA 
HETATM   24  H   UNL     1     -13.762  12.979  71.165  1.00  0.00     0.000 HD 
BRANCH  23  25
HETATM   25  C   UNL     1     -12.136  11.993  70.361  1.00  0.00    -0.321 C  
BRANCH  25  26
HETATM   26  C   UNL     1     -12.125  10.589  71.002  1.00  0.00    -0.387 C  
BRANCH  26  27
HETATM   27  O   UNL     1     -10.858   9.931  70.866  1.00  0.00    -0.319 OA 
BRANCH  27  28
HETATM   28  C   UNL     1     -10.851   8.722  70.218  1.00  0.00    -0.231 A  
HETATM   29  C   UNL     1     -10.434   7.494  68.172  1.00  0.00    -0.233 A  
HETATM   30  C   UNL     1     -11.355   7.536  70.781  1.00  0.00    -0.300 A  
HETATM   31  C   UNL     1     -10.384   8.685  68.894  1.00  0.00    -0.211 A  
HETATM   32  C   UNL     1     -10.948   6.327  68.741  1.00  0.00    -0.424 A  
HETATM   33  C   UNL     1     -11.412   6.354  70.051  1.00  0.00    -0.496 A  
BRANCH  31  34
HETATM   34  O   UNL     1      -9.971   9.763  68.155  1.00  0.00    -0.146 OA 
BRANCH  34  35
HETATM   35  C   UNL     1     -10.977  10.455  67.405  1.00  0.00    -0.270 C  
HETATM   36  C   UNL     1     -10.391  11.528  66.493  1.00  0.00    -0.232 C  
HETATM   37  F   UNL     1      -9.042  11.508  66.438  1.00  0.00    -0.177 F  
HETATM   38  F   UNL     1     -10.856  11.403  65.229  1.00  0.00    -0.332 F  
HETATM   39  F   UNL     1     -10.753  12.767  66.922  1.00  0.00    -0.246 F  
ENDBRANCH  34  35
ENDBRANCH  31  34
ENDBRANCH  27  28
ENDBRANCH  26  27
ENDBRANCH  25  26
ENDBRANCH  23  25
ENDBRANCH   2  23
TORSDOF 13
ENDMDL
MODEL       73
REMARK 921   NORMALIZED FREE ENERGY PREDICTED BY IDOCK:   -5.59 KCAL/MOL
REMARK 922        TOTAL FREE ENERGY PREDICTED BY IDOCK:  -13.01 KCAL/MOL
REMARK 923 INTER-LIGAND FREE ENERGY PREDICTED BY IDOCK:  -10.90 KCAL/MOL
REMARK 924 INTRA-LIGAND FREE ENERGY PREDICTED BY IDOCK:   -2.11 KCAL/MOL
REMARK 927      BINDING AFFINITY PREDICTED BY RF-SCORE:    0.00 PKD
ROOT
HETATM    1  C   UNL     1      -9.861   9.537  66.094  1.00  0.00    -0.343 C  
HETATM    2  C   UNL     1      -9.395  10.777  66.868  1.00  0.00    -0.160 C  
ENDROOT
BRANCH   2   3
HETATM    3  C   UNL     1     -10.403  11.203  67.959  1.00  0.00    -0.208 C  
BRANCH   3   4
HETATM    4  C   UNL     1     -10.277  10.416  69.232  1.00  0.00    -0.248 A  
HETATM    5  C   UNL     1     -11.422  10.100  69.971  1.00  0.00    -0.344 A  
HETATM    6  C   UNL     1      -8.272   7.990  72.704  1.00  0.00    -0.150 A  
HETATM    7  C   UNL     1      -9.039   9.999  69.702  1.00  0.00    -0.230 A  
HETATM    8  C   UNL     1      -8.993   9.259  70.876  1.00  0.00    -0.273 A  
HETATM    9  C   UNL     1     -11.372   9.320  71.153  1.00  0.00    -0.412 A  
HETATM   10  C   UNL     1     -10.129   8.901  71.638  1.00  0.00    -0.341 A  
HETATM   11  C   UNL     1      -7.735   8.747  71.494  1.00  0.00    -0.139 A  
HETATM   12  N   UNL     1      -9.727   8.182  72.750  1.00  0.00    -0.273 NA 
BRANCH  12  13
HETATM   13  C   UNL     1     -10.493   7.511  73.782  1.00  0.00    -0.094 C  
BRANCH  13  14
HETATM   14  C   UNL     1      -9.992   6.085  74.022  1.00  0.00    -0.241 C  
BRANCH  14  15
HETATM   15  C   UNL     1     -10.454   5.094  72.964  1.00  0.00    -0.210 C  
HETATM   16  O   UNL     1     -11.636   5.594  72.337  1.00  0.00    -0.284 OA 
HETATM   17  H   UNL     1     -11.924   4.975  71.677  1.00  0.00     0.000 HD 
ENDBRANCH  14  15
ENDBRANCH  13  14
ENDBRANCH  12  13
BRANCH   9  18
HETATM   18  C   UNL     1     -12.706   9.076  71.763  1.00  0.00    -0.366 C  
HETATM   19  N   UNL     1     -13.357  10.183  72.261  1.00  0.00    -0.590 N  
HETATM   20  O   UNL     1     -13.213   7.967  71.889  1.00  0.00    -0.321 OA 
HETATM   21  H2  UNL     1     -12.947  11.116  72.214  1.00  0.00     0.000 HD 
HETATM   22  H1  UNL     1     -14.272  10.016  72.679  1.00  0.00     0.000 HD 
ENDBRANCH   9  18
ENDBRANCH   3   4
ENDBRANCH   2   3
BRANCH   2  23
HETATM   23  N   UNL     1      -9.151  11.863  65.901  1.00  0.00    -0.393 NA 
HETATM   24  H   UNL     1      -8.613  11.519  65.106  1.00  0.00     0.000 HD 
BRANCH  23  25
HETATM   25  C   UNL     1     -10.373  12.544  65.443  1.00  0.00    -0.282 C  
BRANCH  25  26
HETATM   26  C   UNL     1     -10.329  14.082  65.578  1.00  0.00    -0.339 C  
BRANCH  26  27
HETATM   27  O   UNL     1     -11.549  14.624  66.102  1.00  0.00    -0.360 OA 
BRANCH  27  28
HETATM   28  C   UNL     1     -11.553  14.982  67.426  1.00  0.00    -0.291 A  
HETATM   29  C   UNL     1     -10.829  16.544  69.130  1.00  0.00    -0.334 A  
HETATM   30  C   UNL     1     -12.090  14.178  68.447  1.00  0.00    -0.308 A  
HETATM   31  C   UNL     1     -10.919  16.182  67.786  1.00  0.00    -0.293 A  
HETATM   32  C   UNL     1     -11.358  15.730  70.134  1.00  0.00    -0.361 A  
HETATM   33  C   UNL     1     -11.987  14.540  69.785  1.00  0.00    -0.383 A  
BRANCH  31  34
HETATM   34  O   UNL     1     -10.243  17.022  66.940  1.00  0.00    -0.291 OA 
BRANCH  34  35
HETATM   35  C   UNL     1      -9.752  18.246  67.501  1.00  0.00    -0.300 C  
HETATM   36  C   UNL     1      -9.963  19.439  66.575  1.00  0.00    -0.396 C  
HETATM   37  F   UNL     1     -10.714  19.152  65.491  1.00  0.00    -0.527 F  
HETATM   38  F   UNL     1     -10.556  20.466  67.227  1.00  0.00    -0.466 F  
HETATM   39  F   UNL     1      -8.768  19.904  66.119  1.00  0.00    -0.348 F  
ENDBRANCH  34  35
ENDBRANCH  31  34
ENDBRANCH  27  28
ENDBRANCH  26  27
ENDBRANCH  25  26
ENDBRANCH  23  25
ENDBRANCH   2  23
TORSDOF 13
ENDMDL
MODEL       74
REMARK 921   NORMALIZED FREE ENERGY PREDICTED BY IDOCK:   -5.59 KCAL/MOL
REMARK 922        TOTAL FREE ENERGY PREDICTED BY IDOCK:  -13.00 KCAL/MOL
REMARK 923 INTER-LIGAND FREE ENERGY PREDICTED BY IDOCK:  -10.31 KCAL/MOL
REMARK 924 INTRA-LIGAND FREE ENERGY PREDICTED BY IDOCK:   -2.69 KCAL/MOL
REMARK 927      BINDING AFFINITY PREDICTED BY RF-SCORE:    0.00 PKD
ROOT
HETATM    1  C   UNL     1      -7.374  12.591  67.035  1.00  0.00     0.013 C  
HETATM    2  C   UNL     1      -8.199  12.403  68.314  1.00  0.00    -0.170 C  
ENDROOT
BRANCH   2   3
HETATM    3  C   UNL     1      -9.593  11.799  68.032  1.00  0.00    -0.187 C  
BRANCH   3   4
HETATM    4  C   UNL     1     -10.063  10.852  69.099  1.00  0.00    -0.198 A  
HETATM    5  C   UNL     1      -9.194   9.871  69.590  1.00  0.00    -0.246 A  
HETATM    6  C   UNL     1     -12.891   8.876  72.271  1.00  0.00    -0.411 A  
HETATM    7  C   UNL     1     -11.352  10.921  69.608  1.00  0.00    -0.362 A  
HETATM    8  C   UNL     1     -11.717  10.028  70.607  1.00  0.00    -0.421 A  
HETATM    9  C   UNL     1      -9.562   8.980  70.629  1.00  0.00    -0.289 A  
HETATM   10  C   UNL     1     -10.862   9.038  71.143  1.00  0.00    -0.294 A  
HETATM   11  C   UNL     1     -13.067   9.989  71.243  1.00  0.00    -0.493 A  
HETATM   12  N   UNL     1     -11.545   8.313  72.105  1.00  0.00    -0.337 NA 
BRANCH  12  13
HETATM   13  C   UNL     1     -11.102   7.269  73.007  1.00  0.00    -0.317 C  
BRANCH  13  14
HETATM   14  C   UNL     1     -11.566   5.886  72.542  1.00  0.00    -0.327 C  
BRANCH  14  15
HETATM   15  C   UNL     1     -10.435   5.009  72.024  1.00  0.00    -0.203 C  
HETATM   16  O   UNL     1     -10.411   5.070  70.597  1.00  0.00    -0.234 OA 
HETATM   17  H   UNL     1      -9.705   4.522  70.274  1.00  0.00     0.000 HD 
ENDBRANCH  14  15
ENDBRANCH  13  14
ENDBRANCH  12  13
BRANCH   9  18
HETATM   18  C   UNL     1      -8.480   8.040  71.020  1.00  0.00    -0.128 C  
HETATM   19  N   UNL     1      -7.797   8.347  72.175  1.00  0.00    -0.130 N  
HETATM   20  O   UNL     1      -8.139   7.068  70.355  1.00  0.00    -0.115 OA 
HETATM   21  H2  UNL     1      -8.022   9.172  72.731  1.00  0.00     0.000 HD 
HETATM   22  H1  UNL     1      -7.053   7.702  72.444  1.00  0.00     0.000 HD 
ENDBRANCH   9  18
ENDBRANCH   3   4
ENDBRANCH   2   3
BRANCH   2  23
HETATM   23  N   UNL     1      -8.300  13.706  68.996  1.00  0.00    -0.340 NA 
HETATM   24  H   UNL     1      -7.683  13.734  69.807  1.00  0.00     0.000 HD 
BRANCH  23  25
HETATM   25  C   UNL     1      -8.055  14.863  68.120  1.00  0.00    -0.137 C  
BRANCH  25  26
HETATM   26  C   UNL     1      -8.973  16.073  68.397  1.00  0.00    -0.188 C  
BRANCH  26  27
HETATM   27  O   UNL     1      -9.783  16.421  67.266  1.00  0.00    -0.233 OA 
BRANCH  27  28
HETATM   28  C   UNL     1     -10.484  15.407  66.666  1.00  0.00    -0.293 A  
HETATM   29  C   UNL     1     -12.281  13.789  66.815  1.00  0.00    -0.440 A  
HETATM   30  C   UNL     1     -10.112  14.822  65.443  1.00  0.00    -0.406 A  
HETATM   31  C   UNL     1     -11.589  14.874  67.350  1.00  0.00    -0.332 A  
HETATM   32  C   UNL     1     -11.893  13.212  65.604  1.00  0.00    -0.430 A  
HETATM   33  C   UNL     1     -10.800  13.733  64.920  1.00  0.00    -0.398 A  
BRANCH  31  34
HETATM   34  O   UNL     1     -12.017  15.241  68.600  1.00  0.00    -0.320 OA 
BRANCH  34  35
HETATM   35  C   UNL     1     -11.816  14.294  69.655  1.00  0.00    -0.318 C  
HETATM   36  C   UNL     1     -12.626  14.628  70.903  1.00  0.00    -0.342 C  
HETATM   37  F   UNL     1     -13.498  15.643  70.721  1.00  0.00    -0.525 F  
HETATM   38  F   UNL     1     -13.328  13.554  71.333  1.00  0.00    -0.402 F  
HETATM   39  F   UNL     1     -11.802  14.990  71.923  1.00  0.00    -0.358 F  
ENDBRANCH  34  35
ENDBRANCH  31  34
ENDBRANCH  27  28
ENDBRANCH  26  27
ENDBRANCH  25  26
ENDBRANCH  23  25
ENDBRANCH   2  23
TORSDOF 13
ENDMDL
MODEL       75
REMARK 921   NORMALIZED FREE ENERGY PREDICTED BY IDOCK:   -5.58 KCAL/MOL
REMARK 922        TOTAL FREE ENERGY PREDICTED BY IDOCK:  -12.98 KCAL/MOL
REMARK 923 INTER-LIGAND FREE ENERGY PREDICTED BY IDOCK:  -10.89 KCAL/MOL
REMARK 924 INTRA-LIGAND FREE ENERGY PREDICTED BY IDOCK:   -2.09 KCAL/MOL
REMARK 927      BINDING AFFINITY PREDICTED BY RF-SCORE:    0.00 PKD
ROOT
HETATM    1  C   UNL     1     -11.411  13.959  69.123  1.00  0.00    -0.331 C  
HETATM    2  C   UNL     1     -12.154  13.161  68.044  1.00  0.00    -0.197 C  
ENDROOT
BRANCH   2   3
HETATM    3  C   UNL     1     -11.422  11.852  67.670  1.00  0.00    -0.387 C  
BRANCH   3   4
HETATM    4  C   UNL     1     -11.111  10.981  68.853  1.00  0.00    -0.295 A  
HETATM    5  C   UNL     1     -12.120  10.665  69.769  1.00  0.00    -0.343 A  
HETATM    6  C   UNL     1      -8.646   8.258  71.765  1.00  0.00    -0.161 A  
HETATM    7  C   UNL     1      -9.832  10.485  69.068  1.00  0.00    -0.224 A  
HETATM    8  C   UNL     1      -9.616   9.670  70.171  1.00  0.00    -0.300 A  
HETATM    9  C   UNL     1     -11.901   9.809  70.878  1.00  0.00    -0.420 A  
HETATM   10  C   UNL     1     -10.614   9.311  71.106  1.00  0.00    -0.332 A  
HETATM   11  C   UNL     1      -8.295   9.069  70.522  1.00  0.00    -0.205 A  
HETATM   12  N   UNL     1     -10.058   8.506  72.085  1.00  0.00    -0.305 NA 
BRANCH  12  13
HETATM   13  C   UNL     1     -10.661   7.802  73.199  1.00  0.00    -0.351 C  
BRANCH  13  14
HETATM   14  C   UNL     1     -10.365   6.301  73.148  1.00  0.00    -0.240 C  
BRANCH  14  15
HETATM   15  C   UNL     1     -11.590   5.452  72.837  1.00  0.00    -0.228 C  
HETATM   16  O   UNL     1     -12.553   6.253  72.150  1.00  0.00    -0.489 OA 
HETATM   17  H   UNL     1     -13.317   5.722  71.956  1.00  0.00     0.000 HD 
ENDBRANCH  14  15
ENDBRANCH  13  14
ENDBRANCH  12  13
BRANCH   9  18
HETATM   18  C   UNL     1     -13.115   9.582  71.704  1.00  0.00    -0.401 C  
HETATM   19  N   UNL     1     -13.964   8.586  71.274  1.00  0.00    -0.603 N  
HETATM   20  O   UNL     1     -13.416  10.252  72.685  1.00  0.00    -0.031 OA 
HETATM   21  H2  UNL     1     -13.770   8.037  70.437  1.00  0.00     0.000 HD 
HETATM   22  H1  UNL     1     -14.798   8.430  71.841  1.00  0.00     0.000 HD 
ENDBRANCH   9  18
ENDBRANCH   3   4
ENDBRANCH   2   3
BRANCH   2  23
HETATM   23  N   UNL     1     -12.341  14.032  66.869  1.00  0.00    -0.533 NA 
HETATM   24  H   UNL     1     -12.693  14.946  67.155  1.00  0.00     0.000 HD 
BRANCH  23  25
HETATM   25  C   UNL     1     -11.139  14.178  66.033  1.00  0.00    -0.314 C  
BRANCH  25  26
HETATM   26  C   UNL     1     -10.637  15.631  65.892  1.00  0.00    -0.343 C  
BRANCH  26  27
HETATM   27  O   UNL     1      -9.207  15.724  65.900  1.00  0.00    -0.340 OA 
BRANCH  27  28
HETATM   28  C   UNL     1      -8.580  15.578  67.111  1.00  0.00    -0.215 A  
HETATM   29  C   UNL     1      -7.474  16.636  68.989  1.00  0.00    -0.232 A  
HETATM   30  C   UNL     1      -8.243  14.331  67.667  1.00  0.00    -0.193 A  
HETATM   31  C   UNL     1      -8.186  16.740  67.795  1.00  0.00    -0.183 A  
HETATM   32  C   UNL     1      -7.138  15.390  69.523  1.00  0.00    -0.200 A  
HETATM   33  C   UNL     1      -7.524  14.235  68.853  1.00  0.00    -0.123 A  
BRANCH  31  34
HETATM   34  O   UNL     1      -8.325  18.026  67.343  1.00  0.00    -0.228 OA 
BRANCH  34  35
HETATM   35  C   UNL     1      -9.368  18.810  67.937  1.00  0.00    -0.298 C  
HETATM   36  C   UNL     1     -10.047  19.735  66.933  1.00  0.00    -0.437 C  
HETATM   37  F   UNL     1      -9.659  19.521  65.658  1.00  0.00    -0.293 F  
HETATM   38  F   UNL     1     -11.393  19.605  66.981  1.00  0.00    -0.510 F  
HETATM   39  F   UNL     1      -9.769  21.035  67.221  1.00  0.00    -0.609 F  
ENDBRANCH  34  35
ENDBRANCH  31  34
ENDBRANCH  27  28
ENDBRANCH  26  27
ENDBRANCH  25  26
ENDBRANCH  23  25
ENDBRANCH   2  23
TORSDOF 13
ENDMDL
MODEL       76
REMARK 921   NORMALIZED FREE ENERGY PREDICTED BY IDOCK:   -5.58 KCAL/MOL
REMARK 922        TOTAL FREE ENERGY PREDICTED BY IDOCK:  -12.98 KCAL/MOL
REMARK 923 INTER-LIGAND FREE ENERGY PREDICTED BY IDOCK:  -10.25 KCAL/MOL
REMARK 924 INTRA-LIGAND FREE ENERGY PREDICTED BY IDOCK:   -2.73 KCAL/MOL
REMARK 927      BINDING AFFINITY PREDICTED BY RF-SCORE:    0.00 PKD
ROOT
HETATM    1  C   UNL     1     -11.833   7.310  72.142  1.00  0.00    -0.324 C  
HETATM    2  C   UNL     1     -11.747   8.839  72.053  1.00  0.00    -0.372 C  
ENDROOT
BRANCH   2   3
HETATM    3  C   UNL     1     -12.807   9.433  71.098  1.00  0.00    -0.322 C  
BRANCH   3   4
HETATM    4  C   UNL     1     -12.650  10.910  70.872  1.00  0.00    -0.494 A  
HETATM    5  C   UNL     1     -11.993  11.373  69.727  1.00  0.00    -0.422 A  
HETATM    6  C   UNL     1     -13.053  15.522  71.599  1.00  0.00    -0.481 A  
HETATM    7  C   UNL     1     -13.136  11.835  71.786  1.00  0.00    -0.480 A  
HETATM    8  C   UNL     1     -12.974  13.186  71.509  1.00  0.00    -0.412 A  
HETATM    9  C   UNL     1     -11.855  12.753  69.435  1.00  0.00    -0.359 A  
HETATM   10  C   UNL     1     -12.336  13.692  70.353  1.00  0.00    -0.345 A  
HETATM   11  C   UNL     1     -13.447  14.286  72.400  1.00  0.00    -0.586 A  
HETATM   12  N   UNL     1     -12.333  15.075  70.399  1.00  0.00    -0.327 NA 
BRANCH  12  13
HETATM   13  C   UNL     1     -11.896  16.062  69.431  1.00  0.00    -0.241 C  
BRANCH  13  14
HETATM   14  C   UNL     1     -10.404  16.374  69.576  1.00  0.00    -0.278 C  
BRANCH  14  15
HETATM   15  C   UNL     1      -9.926  17.487  68.655  1.00  0.00    -0.347 C  
HETATM   16  O   UNL     1     -10.265  18.750  69.230  1.00  0.00    -0.489 OA 
HETATM   17  H   UNL     1      -9.966  19.445  68.655  1.00  0.00     0.000 HD 
ENDBRANCH  14  15
ENDBRANCH  13  14
ENDBRANCH  12  13
BRANCH   9  18
HETATM   18  C   UNL     1     -11.153  13.023  68.153  1.00  0.00    -0.256 C  
HETATM   19  N   UNL     1     -11.955  13.309  67.070  1.00  0.00    -0.380 N  
HETATM   20  O   UNL     1      -9.938  12.951  68.005  1.00  0.00    -0.222 OA 
HETATM   21  H2  UNL     1     -12.971  13.334  67.144  1.00  0.00     0.000 HD 
HETATM   22  H1  UNL     1     -11.472  13.494  66.190  1.00  0.00     0.000 HD 
ENDBRANCH   9  18
ENDBRANCH   3   4
ENDBRANCH   2   3
BRANCH   2  23
HETATM   23  N   UNL     1     -10.380   9.204  71.641  1.00  0.00    -0.348 NA 
HETATM   24  H   UNL     1     -10.240  10.211  71.721  1.00  0.00     0.000 HD 
BRANCH  23  25
HETATM   25  C   UNL     1      -9.322   8.476  72.361  1.00  0.00    -0.278 C  
BRANCH  25  26
HETATM   26  C   UNL     1      -7.966   8.436  71.623  1.00  0.00    -0.134 C  
BRANCH  26  27
HETATM   27  O   UNL     1      -8.099   8.056  70.247  1.00  0.00    -0.108 OA 
BRANCH  27  28
HETATM   28  C   UNL     1      -8.574   6.795  69.991  1.00  0.00    -0.141 A  
HETATM   29  C   UNL     1     -10.346   5.416  69.083  1.00  0.00    -0.300 A  
HETATM   30  C   UNL     1      -7.952   5.622  70.455  1.00  0.00    -0.104 A  
HETATM   31  C   UNL     1      -9.787   6.675  69.294  1.00  0.00    -0.149 A  
HETATM   32  C   UNL     1      -9.722   4.260  69.559  1.00  0.00    -0.272 A  
HETATM   33  C   UNL     1      -8.521   4.370  70.250  1.00  0.00    -0.094 A  
BRANCH  31  34
HETATM   34  O   UNL     1     -10.582   7.711  68.877  1.00  0.00    -0.211 OA 
BRANCH  34  35
HETATM   35  C   UNL     1     -10.587   7.996  67.473  1.00  0.00    -0.232 C  
HETATM   36  C   UNL     1     -10.009   9.371  67.154  1.00  0.00    -0.204 C  
HETATM   37  F   UNL     1      -9.452   9.980  68.222  1.00  0.00    -0.136 F  
HETATM   38  F   UNL     1      -9.065   9.292  66.187  1.00  0.00    -0.158 F  
HETATM   39  F   UNL     1     -10.981  10.199  66.685  1.00  0.00    -0.247 F  
ENDBRANCH  34  35
ENDBRANCH  31  34
ENDBRANCH  27  28
ENDBRANCH  26  27
ENDBRANCH  25  26
ENDBRANCH  23  25
ENDBRANCH   2  23
TORSDOF 13
ENDMDL
MODEL       77
REMARK 921   NORMALIZED FREE ENERGY PREDICTED BY IDOCK:   -5.56 KCAL/MOL
REMARK 922        TOTAL FREE ENERGY PREDICTED BY IDOCK:  -12.96 KCAL/MOL
REMARK 923 INTER-LIGAND FREE ENERGY PREDICTED BY IDOCK:  -11.31 KCAL/MOL
REMARK 924 INTRA-LIGAND FREE ENERGY PREDICTED BY IDOCK:   -1.65 KCAL/MOL
REMARK 927      BINDING AFFINITY PREDICTED BY RF-SCORE:    0.00 PKD
ROOT
HETATM    1  C   UNL     1     -12.511  12.923  65.033  1.00  0.00    -0.553 C  
HETATM    2  C   UNL     1     -11.954  14.206  65.662  1.00  0.00    -0.396 C  
ENDROOT
BRANCH   2   3
HETATM    3  C   UNL     1     -10.507  14.504  65.208  1.00  0.00    -0.411 C  
BRANCH   3   4
HETATM    4  C   UNL     1      -9.924  15.738  65.836  1.00  0.00    -0.380 A  
HETATM    5  C   UNL     1      -8.635  15.701  66.378  1.00  0.00    -0.319 A  
HETATM    6  C   UNL     1      -9.587  20.190  67.260  1.00  0.00    -0.421 A  
HETATM    7  C   UNL     1     -10.644  16.923  65.901  1.00  0.00    -0.239 A  
HETATM    8  C   UNL     1     -10.040  18.032  66.478  1.00  0.00    -0.379 A  
HETATM    9  C   UNL     1      -8.012  16.843  66.940  1.00  0.00    -0.248 A  
HETATM   10  C   UNL     1      -8.733  18.039  67.016  1.00  0.00    -0.247 A  
HETATM   11  C   UNL     1     -10.696  19.366  66.614  1.00  0.00    -0.529 A  
HETATM   12  N   UNL     1      -8.452  19.296  67.523  1.00  0.00    -0.286 NA 
BRANCH  12  13
HETATM   13  C   UNL     1      -7.236  19.849  68.086  1.00  0.00    -0.295 C  
BRANCH  13  14
HETATM   14  C   UNL     1      -6.667  20.971  67.213  1.00  0.00    -0.430 C  
BRANCH  14  15
HETATM   15  C   UNL     1      -6.177  20.492  65.854  1.00  0.00    -0.226 C  
HETATM   16  O   UNL     1      -7.251  20.568  64.915  1.00  0.00    -0.438 OA 
HETATM   17  H   UNL     1      -6.944  20.269  64.067  1.00  0.00     0.000 HD 
ENDBRANCH  14  15
ENDBRANCH  13  14
ENDBRANCH  12  13
BRANCH   9  18
HETATM   18  C   UNL     1      -6.631  16.589  67.428  1.00  0.00    -0.164 C  
HETATM   19  N   UNL     1      -6.513  16.225  68.750  1.00  0.00    -0.123 N  
HETATM   20  O   UNL     1      -5.623  16.739  66.747  1.00  0.00    -0.260 OA 
HETATM   21  H2  UNL     1      -7.325  16.134  69.359  1.00  0.00     0.000 HD 
HETATM   22  H1  UNL     1      -5.564  16.051  69.085  1.00  0.00     0.000 HD 
ENDBRANCH   9  18
ENDBRANCH   3   4
ENDBRANCH   2   3
BRANCH   2  23
HETATM   23  N   UNL     1     -12.049  14.084  67.127  1.00  0.00    -0.481 NA 
HETATM   24  H   UNL     1     -13.011  13.899  67.409  1.00  0.00     0.000 HD 
BRANCH  23  25
HETATM   25  C   UNL     1     -11.138  13.081  67.705  1.00  0.00    -0.262 C  
BRANCH  25  26
HETATM   26  C   UNL     1     -11.844  11.993  68.543  1.00  0.00    -0.311 C  
BRANCH  26  27
HETATM   27  O   UNL     1     -10.920  11.084  69.155  1.00  0.00    -0.207 OA 
BRANCH  27  28
HETATM   28  C   UNL     1     -10.736   9.872  68.539  1.00  0.00    -0.226 A  
HETATM   29  C   UNL     1     -10.517   7.470  68.762  1.00  0.00    -0.212 A  
HETATM   30  C   UNL     1     -10.432   9.734  67.173  1.00  0.00    -0.316 A  
HETATM   31  C   UNL     1     -10.779   8.714  69.333  1.00  0.00    -0.158 A  
HETATM   32  C   UNL     1     -10.206   7.349  67.405  1.00  0.00    -0.315 A  
HETATM   33  C   UNL     1     -10.162   8.490  66.612  1.00  0.00    -0.345 A  
BRANCH  31  34
HETATM   34  O   UNL     1     -10.942   8.676  70.693  1.00  0.00    -0.230 OA 
BRANCH  34  35
HETATM   35  C   UNL     1     -12.152   8.083  71.182  1.00  0.00    -0.265 C  
HETATM   36  C   UNL     1     -13.072   9.100  71.850  1.00  0.00    -0.411 C  
HETATM   37  F   UNL     1     -12.657  10.376  71.705  1.00  0.00    -0.448 F  
HETATM   38  F   UNL     1     -14.330   9.018  71.359  1.00  0.00    -0.404 F  
HETATM   39  F   UNL     1     -13.157   8.858  73.186  1.00  0.00    -0.375 F  
ENDBRANCH  34  35
ENDBRANCH  31  34
ENDBRANCH  27  28
ENDBRANCH  26  27
ENDBRANCH  25  26
ENDBRANCH  23  25
ENDBRANCH   2  23
TORSDOF 13
ENDMDL
MODEL       78
REMARK 921   NORMALIZED FREE ENERGY PREDICTED BY IDOCK:   -5.55 KCAL/MOL
REMARK 922        TOTAL FREE ENERGY PREDICTED BY IDOCK:  -12.94 KCAL/MOL
REMARK 923 INTER-LIGAND FREE ENERGY PREDICTED BY IDOCK:  -11.43 KCAL/MOL
REMARK 924 INTRA-LIGAND FREE ENERGY PREDICTED BY IDOCK:   -1.52 KCAL/MOL
REMARK 927      BINDING AFFINITY PREDICTED BY RF-SCORE:    0.00 PKD
ROOT
HETATM    1  C   UNL     1     -12.785  13.024  65.160  1.00  0.00    -0.461 C  
HETATM    2  C   UNL     1     -12.255  14.388  65.620  1.00  0.00    -0.344 C  
ENDROOT
BRANCH   2   3
HETATM    3  C   UNL     1     -10.955  14.791  64.888  1.00  0.00    -0.425 C  
BRANCH   3   4
HETATM    4  C   UNL     1     -10.206  15.904  65.565  1.00  0.00    -0.394 A  
HETATM    5  C   UNL     1      -8.915  15.678  66.053  1.00  0.00    -0.297 A  
HETATM    6  C   UNL     1      -9.284  20.185  67.234  1.00  0.00    -0.382 A  
HETATM    7  C   UNL     1     -10.774  17.160  65.727  1.00  0.00    -0.140 A  
HETATM    8  C   UNL     1     -10.022  18.150  66.345  1.00  0.00    -0.376 A  
HETATM    9  C   UNL     1      -8.140  16.699  66.657  1.00  0.00    -0.309 A  
HETATM   10  C   UNL     1      -8.707  17.967  66.831  1.00  0.00    -0.246 A  
HETATM   11  C   UNL     1     -10.505  19.542  66.584  1.00  0.00    -0.593 A  
HETATM   12  N   UNL     1      -8.259  19.146  67.400  1.00  0.00    -0.273 NA 
BRANCH  12  13
HETATM   13  C   UNL     1      -6.968  19.513  67.948  1.00  0.00    -0.253 C  
BRANCH  13  14
HETATM   14  C   UNL     1      -6.822  19.061  69.403  1.00  0.00    -0.272 C  
BRANCH  14  15
HETATM   15  C   UNL     1      -5.717  19.789  70.156  1.00  0.00    -0.278 C  
HETATM   16  O   UNL     1      -6.277  20.433  71.301  1.00  0.00    -0.589 OA 
HETATM   17  H   UNL     1      -5.588  20.887  71.771  1.00  0.00     0.000 HD 
ENDBRANCH  14  15
ENDBRANCH  13  14
ENDBRANCH  12  13
BRANCH   9  18
HETATM   18  C   UNL     1      -6.786  16.252  67.076  1.00  0.00    -0.200 C  
HETATM   19  N   UNL     1      -6.732  15.443  68.188  1.00  0.00    -0.119 N  
HETATM   20  O   UNL     1      -5.746  16.603  66.529  1.00  0.00    -0.333 OA 
HETATM   21  H2  UNL     1      -7.572  15.167  68.696  1.00  0.00     0.000 HD 
HETATM   22  H1  UNL     1      -5.802  15.136  68.476  1.00  0.00     0.000 HD 
ENDBRANCH   9  18
ENDBRANCH   3   4
ENDBRANCH   2   3
BRANCH   2  23
HETATM   23  N   UNL     1     -12.063  14.343  67.081  1.00  0.00    -0.551 NA 
HETATM   24  H   UNL     1     -12.959  14.421  67.561  1.00  0.00     0.000 HD 
BRANCH  23  25
HETATM   25  C   UNL     1     -11.325  13.160  67.553  1.00  0.00    -0.298 C  
BRANCH  25  26
HETATM   26  C   UNL     1     -11.740  12.673  68.958  1.00  0.00    -0.318 C  
BRANCH  26  27
HETATM   27  O   UNL     1     -12.353  11.377  68.933  1.00  0.00    -0.446 OA 
BRANCH  27  28
HETATM   28  C   UNL     1     -12.043  10.521  69.959  1.00  0.00    -0.274 A  
HETATM   29  C   UNL     1     -10.552   8.823  70.833  1.00  0.00    -0.276 A  
HETATM   30  C   UNL     1     -12.876  10.305  71.070  1.00  0.00    -0.490 A  
HETATM   31  C   UNL     1     -10.865   9.764  69.853  1.00  0.00    -0.272 A  
HETATM   32  C   UNL     1     -11.396   8.613  71.926  1.00  0.00    -0.417 A  
HETATM   33  C   UNL     1     -12.564   9.358  72.039  1.00  0.00    -0.462 A  
BRANCH  31  34
HETATM   34  O   UNL     1     -10.003   9.759  68.787  1.00  0.00    -0.159 OA 
BRANCH  34  35
HETATM   35  C   UNL     1     -10.493   9.199  67.563  1.00  0.00    -0.270 C  
HETATM   36  C   UNL     1      -9.799   9.780  66.335  1.00  0.00    -0.235 C  
HETATM   37  F   UNL     1      -8.751  10.576  66.637  1.00  0.00    -0.129 F  
HETATM   38  F   UNL     1      -9.349   8.800  65.517  1.00  0.00    -0.260 F  
HETATM   39  F   UNL     1     -10.670  10.528  65.606  1.00  0.00    -0.283 F  
ENDBRANCH  34  35
ENDBRANCH  31  34
ENDBRANCH  27  28
ENDBRANCH  26  27
ENDBRANCH  25  26
ENDBRANCH  23  25
ENDBRANCH   2  23
TORSDOF 13
ENDMDL
MODEL       79
REMARK 921   NORMALIZED FREE ENERGY PREDICTED BY IDOCK:   -5.55 KCAL/MOL
REMARK 922        TOTAL FREE ENERGY PREDICTED BY IDOCK:  -12.94 KCAL/MOL
REMARK 923 INTER-LIGAND FREE ENERGY PREDICTED BY IDOCK:  -10.46 KCAL/MOL
REMARK 924 INTRA-LIGAND FREE ENERGY PREDICTED BY IDOCK:   -2.49 KCAL/MOL
REMARK 927      BINDING AFFINITY PREDICTED BY RF-SCORE:    0.00 PKD
ROOT
HETATM    1  C   UNL     1      -8.134  10.844  67.328  1.00  0.00    -0.123 C  
HETATM    2  C   UNL     1      -8.867   9.508  67.146  1.00  0.00    -0.131 C  
ENDROOT
BRANCH   2   3
HETATM    3  C   UNL     1     -10.399   9.685  67.054  1.00  0.00    -0.315 C  
BRANCH   3   4
HETATM    4  C   UNL     1     -10.932  10.765  67.952  1.00  0.00    -0.344 A  
HETATM    5  C   UNL     1     -10.897  12.100  67.533  1.00  0.00    -0.283 A  
HETATM    6  C   UNL     1     -12.942  12.769  71.682  1.00  0.00    -0.303 A  
HETATM    7  C   UNL     1     -11.456  10.470  69.203  1.00  0.00    -0.314 A  
HETATM    8  C   UNL     1     -11.949  11.512  69.977  1.00  0.00    -0.435 A  
HETATM    9  C   UNL     1     -11.427  13.156  68.314  1.00  0.00    -0.349 A  
HETATM   10  C   UNL     1     -11.951  12.869  69.579  1.00  0.00    -0.285 A  
HETATM   11  C   UNL     1     -12.539  11.339  71.337  1.00  0.00    -0.456 A  
HETATM   12  N   UNL     1     -12.497  13.643  70.588  1.00  0.00    -0.354 NA 
BRANCH  12  13
HETATM   13  C   UNL     1     -12.812  15.056  70.644  1.00  0.00    -0.363 C  
BRANCH  13  14
HETATM   14  C   UNL     1     -13.519  15.427  71.950  1.00  0.00    -0.571 C  
BRANCH  14  15
HETATM   15  C   UNL     1     -12.600  16.078  72.973  1.00  0.00    -0.503 C  
HETATM   16  O   UNL     1     -12.888  15.546  74.267  1.00  0.00    -0.675 OA 
HETATM   17  H   UNL     1     -12.314  15.952  74.906  1.00  0.00     0.000 HD 
ENDBRANCH  14  15
ENDBRANCH  13  14
ENDBRANCH  12  13
BRANCH   9  18
HETATM   18  C   UNL     1     -11.315  14.490  67.667  1.00  0.00    -0.337 C  
HETATM   19  N   UNL     1     -12.280  14.795  66.733  1.00  0.00    -0.329 N  
HETATM   20  O   UNL     1     -10.402  15.281  67.877  1.00  0.00    -0.240 OA 
HETATM   21  H2  UNL     1     -13.029  14.143  66.500  1.00  0.00     0.000 HD 
HETATM   22  H1  UNL     1     -12.202  15.710  66.289  1.00  0.00     0.000 HD 
ENDBRANCH   9  18
ENDBRANCH   3   4
ENDBRANCH   2   3
BRANCH   2  23
HETATM   23  N   UNL     1      -8.489   8.617  68.257  1.00  0.00    -0.130 NA 
HETATM   24  H   UNL     1      -8.066   7.761  67.901  1.00  0.00     0.000 HD 
BRANCH  23  25
HETATM   25  C   UNL     1      -7.616   9.246  69.261  1.00  0.00    -0.080 C  
BRANCH  25  26
HETATM   26  C   UNL     1      -8.128   9.126  70.713  1.00  0.00    -0.174 C  
BRANCH  26  27
HETATM   27  O   UNL     1      -8.565   7.798  71.034  1.00  0.00    -0.124 OA 
BRANCH  27  28
HETATM   28  C   UNL     1      -9.903   7.626  71.284  1.00  0.00    -0.171 A  
HETATM   29  C   UNL     1     -12.010   6.651  70.592  1.00  0.00    -0.404 A  
HETATM   30  C   UNL     1     -10.596   8.300  72.305  1.00  0.00    -0.393 A  
HETATM   31  C   UNL     1     -10.633   6.790  70.424  1.00  0.00    -0.227 A  
HETATM   32  C   UNL     1     -12.685   7.335  71.605  1.00  0.00    -0.410 A  
HETATM   33  C   UNL     1     -11.971   8.165  72.461  1.00  0.00    -0.410 A  
BRANCH  31  34
HETATM   34  O   UNL     1     -10.144   6.154  69.312  1.00  0.00    -0.156 OA 
BRANCH  34  35
HETATM   35  C   UNL     1     -10.948   6.215  68.128  1.00  0.00    -0.307 C  
HETATM   36  C   UNL     1     -10.238   5.635  66.909  1.00  0.00    -0.227 C  
HETATM   37  F   UNL     1      -9.070   5.028  67.207  1.00  0.00    -0.113 F  
HETATM   38  F   UNL     1     -11.019   4.734  66.270  1.00  0.00    -0.316 F  
HETATM   39  F   UNL     1      -9.958   6.617  66.010  1.00  0.00    -0.103 F  
ENDBRANCH  34  35
ENDBRANCH  31  34
ENDBRANCH  27  28
ENDBRANCH  26  27
ENDBRANCH  25  26
ENDBRANCH  23  25
ENDBRANCH   2  23
TORSDOF 13
ENDMDL
MODEL       80
REMARK 921   NORMALIZED FREE ENERGY PREDICTED BY IDOCK:   -5.55 KCAL/MOL
REMARK 922        TOTAL FREE ENERGY PREDICTED BY IDOCK:  -12.94 KCAL/MOL
REMARK 923 INTER-LIGAND FREE ENERGY PREDICTED BY IDOCK:  -11.09 KCAL/MOL
REMARK 924 INTRA-LIGAND FREE ENERGY PREDICTED BY IDOCK:   -1.84 KCAL/MOL
REMARK 927      BINDING AFFINITY PREDICTED BY RF-SCORE:    0.00 PKD
ROOT
HETATM    1  C   UNL     1     -10.823  12.313  63.554  1.00  0.00    -0.508 C  
HETATM    2  C   UNL     1     -10.566  11.741  64.954  1.00  0.00    -0.294 C  
ENDROOT
BRANCH   2   3
HETATM    3  C   UNL     1     -10.100  10.268  64.911  1.00  0.00    -0.346 C  
BRANCH   3   4
HETATM    4  C   UNL     1      -9.761   9.707  66.263  1.00  0.00    -0.303 A  
HETATM    5  C   UNL     1     -10.386   8.536  66.707  1.00  0.00    -0.346 A  
HETATM    6  C   UNL     1      -7.653   9.274  70.426  1.00  0.00    -0.127 A  
HETATM    7  C   UNL     1      -8.843  10.333  67.094  1.00  0.00    -0.141 A  
HETATM    8  C   UNL     1      -8.561   9.753  68.324  1.00  0.00    -0.119 A  
HETATM    9  C   UNL     1     -10.074   7.933  67.950  1.00  0.00    -0.240 A  
HETATM   10  C   UNL     1      -9.155   8.560  68.798  1.00  0.00    -0.143 A  
HETATM   11  C   UNL     1      -7.598  10.317  69.315  1.00  0.00    -0.125 A  
HETATM   12  N   UNL     1      -8.664   8.274  70.060  1.00  0.00    -0.132 NA 
BRANCH  12  13
HETATM   13  C   UNL     1      -8.873   7.133  70.929  1.00  0.00    -0.150 C  
BRANCH  13  14
HETATM   14  C   UNL     1      -9.586   7.532  72.224  1.00  0.00    -0.197 C  
BRANCH  14  15
HETATM   15  C   UNL     1     -10.725   8.519  72.010  1.00  0.00    -0.340 C  
HETATM   16  O   UNL     1     -11.895   8.035  72.670  1.00  0.00    -0.480 OA 
HETATM   17  H   UNL     1     -12.605   8.652  72.537  1.00  0.00     0.000 HD 
ENDBRANCH  14  15
ENDBRANCH  13  14
ENDBRANCH  12  13
BRANCH   9  18
HETATM   18  C   UNL     1     -10.829   6.679  68.211  1.00  0.00    -0.254 C  
HETATM   19  N   UNL     1     -11.749   6.727  69.234  1.00  0.00    -0.605 N  
HETATM   20  O   UNL     1     -10.639   5.625  67.615  1.00  0.00    -0.226 OA 
HETATM   21  H2  UNL     1     -11.903   7.574  69.781  1.00  0.00     0.000 HD 
HETATM   22  H1  UNL     1     -12.268   5.867  69.413  1.00  0.00     0.000 HD 
ENDBRANCH   9  18
ENDBRANCH   3   4
ENDBRANCH   2   3
BRANCH   2  23
HETATM   23  N   UNL     1     -11.794  11.898  65.753  1.00  0.00    -0.421 NA 
HETATM   24  H   UNL     1     -12.147  10.989  66.048  1.00  0.00     0.000 HD 
BRANCH  23  25
HETATM   25  C   UNL     1     -11.647  12.797  66.909  1.00  0.00    -0.366 C  
BRANCH  25  26
HETATM   26  C   UNL     1     -11.722  12.086  68.278  1.00  0.00    -0.334 C  
BRANCH  26  27
HETATM   27  O   UNL     1     -11.256  12.911  69.354  1.00  0.00    -0.215 OA 
BRANCH  27  28
HETATM   28  C   UNL     1     -12.175  13.266  70.309  1.00  0.00    -0.321 A  
HETATM   29  C   UNL     1     -13.461  15.027  71.364  1.00  0.00    -0.525 A  
HETATM   30  C   UNL     1     -12.661  12.379  71.286  1.00  0.00    -0.347 A  
HETATM   31  C   UNL     1     -12.591  14.606  70.359  1.00  0.00    -0.343 A  
HETATM   32  C   UNL     1     -13.928  14.137  72.334  1.00  0.00    -0.613 A  
HETATM   33  C   UNL     1     -13.521  12.808  72.292  1.00  0.00    -0.591 A  
BRANCH  31  34
HETATM   34  O   UNL     1     -12.130  15.623  69.565  1.00  0.00    -0.360 OA 
BRANCH  34  35
HETATM   35  C   UNL     1     -11.030  16.390  70.072  1.00  0.00    -0.318 C  
HETATM   36  C   UNL     1     -10.294  17.151  68.974  1.00  0.00    -0.331 C  
HETATM   37  F   UNL     1     -10.911  17.095  67.775  1.00  0.00    -0.346 F  
HETATM   38  F   UNL     1     -10.143  18.456  69.300  1.00  0.00    -0.362 F  
HETATM   39  F   UNL     1      -9.042  16.644  68.802  1.00  0.00    -0.220 F  
ENDBRANCH  34  35
ENDBRANCH  31  34
ENDBRANCH  27  28
ENDBRANCH  26  27
ENDBRANCH  25  26
ENDBRANCH  23  25
ENDBRANCH   2  23
TORSDOF 13
ENDMDL
MODEL       81
REMARK 921   NORMALIZED FREE ENERGY PREDICTED BY IDOCK:   -5.54 KCAL/MOL
REMARK 922        TOTAL FREE ENERGY PREDICTED BY IDOCK:  -12.92 KCAL/MOL
REMARK 923 INTER-LIGAND FREE ENERGY PREDICTED BY IDOCK:  -11.57 KCAL/MOL
REMARK 924 INTRA-LIGAND FREE ENERGY PREDICTED BY IDOCK:   -1.35 KCAL/MOL
REMARK 927      BINDING AFFINITY PREDICTED BY RF-SCORE:    0.00 PKD
ROOT
HETATM    1  C   UNL     1      -9.525  10.801  68.480  1.00  0.00    -0.181 C  
HETATM    2  C   UNL     1     -10.850  10.348  69.107  1.00  0.00    -0.236 C  
ENDROOT
BRANCH   2   3
HETATM    3  C   UNL     1     -12.051  11.190  68.618  1.00  0.00    -0.180 C  
BRANCH   3   4
HETATM    4  C   UNL     1     -11.666  12.560  68.139  1.00  0.00    -0.400 A  
HETATM    5  C   UNL     1     -11.526  12.805  66.768  1.00  0.00    -0.399 A  
HETATM    6  C   UNL     1     -10.564  17.112  68.305  1.00  0.00    -0.375 A  
HETATM    7  C   UNL     1     -11.435  13.598  69.031  1.00  0.00    -0.346 A  
HETATM    8  C   UNL     1     -11.100  14.846  68.522  1.00  0.00    -0.275 A  
HETATM    9  C   UNL     1     -11.212  14.087  66.252  1.00  0.00    -0.320 A  
HETATM   10  C   UNL     1     -10.971  15.137  67.145  1.00  0.00    -0.326 A  
HETATM   11  C   UNL     1     -10.826  16.047  69.364  1.00  0.00    -0.300 A  
HETATM   12  N   UNL     1     -10.614  16.465  66.987  1.00  0.00    -0.292 NA 
BRANCH  12  13
HETATM   13  C   UNL     1     -10.452  17.276  65.797  1.00  0.00    -0.229 C  
BRANCH  13  14
HETATM   14  C   UNL     1     -10.452  18.771  66.127  1.00  0.00    -0.499 C  
BRANCH  14  15
HETATM   15  C   UNL     1      -9.056  19.373  66.209  1.00  0.00    -0.346 C  
HETATM   16  O   UNL     1      -8.099  18.394  65.800  1.00  0.00    -0.502 OA 
HETATM   17  H   UNL     1      -7.228  18.770  65.851  1.00  0.00     0.000 HD 
ENDBRANCH  14  15
ENDBRANCH  13  14
ENDBRANCH  12  13
BRANCH   9  18
HETATM   18  C   UNL     1     -11.143  14.131  64.768  1.00  0.00    -0.387 C  
HETATM   19  N   UNL     1     -12.039  14.969  64.144  1.00  0.00    -0.854 N  
HETATM   20  O   UNL     1     -10.389  13.439  64.094  1.00  0.00    -0.380 OA 
HETATM   21  H2  UNL     1     -12.711  15.527  64.669  1.00  0.00     0.000 HD 
HETATM   22  H1  UNL     1     -11.992  15.000  63.125  1.00  0.00     0.000 HD 
ENDBRANCH   9  18
ENDBRANCH   3   4
ENDBRANCH   2   3
BRANCH   2  23
HETATM   23  N   UNL     1     -10.712  10.401  70.573  1.00  0.00    -0.423 NA 
HETATM   24  H   UNL     1     -10.362  11.312  70.866  1.00  0.00     0.000 HD 
BRANCH  23  25
HETATM   25  C   UNL     1     -11.944  10.060  71.304  1.00  0.00    -0.394 C  
BRANCH  25  26
HETATM   26  C   UNL     1     -11.830   8.796  72.184  1.00  0.00    -0.366 C  
BRANCH  26  27
HETATM   27  O   UNL     1     -12.313   7.620  71.522  1.00  0.00    -0.307 OA 
BRANCH  27  28
HETATM   28  C   UNL     1     -11.524   6.499  71.588  1.00  0.00    -0.297 A  
HETATM   29  C   UNL     1     -10.240   4.824  70.400  1.00  0.00    -0.261 A  
HETATM   30  C   UNL     1     -11.293   5.779  72.773  1.00  0.00    -0.328 A  
HETATM   31  C   UNL     1     -10.980   6.004  70.391  1.00  0.00    -0.328 A  
HETATM   32  C   UNL     1     -10.028   4.113  71.584  1.00  0.00    -0.240 A  
HETATM   33  C   UNL     1     -10.562   4.596  72.773  1.00  0.00    -0.273 A  
BRANCH  31  34
HETATM   34  O   UNL     1     -11.201   6.509  69.136  1.00  0.00    -0.318 OA 
BRANCH  34  35
HETATM   35  C   UNL     1     -10.064   7.036  68.442  1.00  0.00    -0.164 C  
HETATM   36  C   UNL     1     -10.161   6.845  66.932  1.00  0.00    -0.240 C  
HETATM   37  F   UNL     1     -11.360   6.377  66.526  1.00  0.00    -0.376 F  
HETATM   38  F   UNL     1      -9.929   8.006  66.276  1.00  0.00    -0.301 F  
HETATM   39  F   UNL     1      -9.222   5.959  66.503  1.00  0.00    -0.129 F  
ENDBRANCH  34  35
ENDBRANCH  31  34
ENDBRANCH  27  28
ENDBRANCH  26  27
ENDBRANCH  25  26
ENDBRANCH  23  25
ENDBRANCH   2  23
TORSDOF 13
ENDMDL
MODEL       82
REMARK 921   NORMALIZED FREE ENERGY PREDICTED BY IDOCK:   -5.54 KCAL/MOL
REMARK 922        TOTAL FREE ENERGY PREDICTED BY IDOCK:  -12.91 KCAL/MOL
REMARK 923 INTER-LIGAND FREE ENERGY PREDICTED BY IDOCK:  -10.49 KCAL/MOL
REMARK 924 INTRA-LIGAND FREE ENERGY PREDICTED BY IDOCK:   -2.43 KCAL/MOL
REMARK 927      BINDING AFFINITY PREDICTED BY RF-SCORE:    0.00 PKD
ROOT
HETATM    1  C   UNL     1      -7.267   6.757  66.362  1.00  0.00    -0.072 C  
HETATM    2  C   UNL     1      -8.170   7.994  66.436  1.00  0.00    -0.113 C  
ENDROOT
BRANCH   2   3
HETATM    3  C   UNL     1      -7.681   9.136  65.516  1.00  0.00    -0.094 C  
BRANCH   3   4
HETATM    4  C   UNL     1      -8.625  10.304  65.458  1.00  0.00    -0.173 A  
HETATM    5  C   UNL     1      -8.530  11.323  66.411  1.00  0.00    -0.169 A  
HETATM    6  C   UNL     1     -12.053  13.094  63.903  1.00  0.00    -0.470 A  
HETATM    7  C   UNL     1      -9.603  10.392  64.477  1.00  0.00    -0.369 A  
HETATM    8  C   UNL     1     -10.431  11.507  64.467  1.00  0.00    -0.369 A  
HETATM    9  C   UNL     1      -9.359  12.472  66.381  1.00  0.00    -0.209 A  
HETATM   10  C   UNL     1     -10.352  12.567  65.400  1.00  0.00    -0.282 A  
HETATM   11  C   UNL     1     -11.521  11.732  63.473  1.00  0.00    -0.489 A  
HETATM   12  N   UNL     1     -11.329  13.504  65.114  1.00  0.00    -0.296 NA 
BRANCH  12  13
HETATM   13  C   UNL     1     -11.609  14.801  65.697  1.00  0.00    -0.290 C  
BRANCH  13  14
HETATM   14  C   UNL     1     -10.864  15.922  64.967  1.00  0.00    -0.444 C  
BRANCH  14  15
HETATM   15  C   UNL     1     -10.353  17.014  65.896  1.00  0.00    -0.298 C  
HETATM   16  O   UNL     1      -8.924  17.010  65.881  1.00  0.00    -0.517 OA 
HETATM   17  H   UNL     1      -8.605  17.692  66.461  1.00  0.00     0.000 HD 
ENDBRANCH  14  15
ENDBRANCH  13  14
ENDBRANCH  12  13
BRANCH   9  18
HETATM   18  C   UNL     1      -9.070  13.444  67.468  1.00  0.00    -0.215 C  
HETATM   19  N   UNL     1      -9.756  13.257  68.647  1.00  0.00    -0.400 N  
HETATM   20  O   UNL     1      -8.318  14.405  67.350  1.00  0.00    -0.176 OA 
HETATM   21  H2  UNL     1     -10.423  12.495  68.767  1.00  0.00     0.000 HD 
HETATM   22  H1  UNL     1      -9.558  13.924  69.393  1.00  0.00     0.000 HD 
ENDBRANCH   9  18
ENDBRANCH   3   4
ENDBRANCH   2   3
BRANCH   2  23
HETATM   23  N   UNL     1      -8.249   8.428  67.843  1.00  0.00    -0.126 NA 
HETATM   24  H   UNL     1      -7.974   9.405  67.932  1.00  0.00     0.000 HD 
BRANCH  23  25
HETATM   25  C   UNL     1      -9.563   8.201  68.468  1.00  0.00    -0.148 C  
BRANCH  25  26
HETATM   26  C   UNL     1     -10.558   9.368  68.292  1.00  0.00    -0.210 C  
BRANCH  26  27
HETATM   27  O   UNL     1     -10.586  10.244  69.427  1.00  0.00    -0.206 OA 
BRANCH  27  28
HETATM   28  C   UNL     1     -11.560  10.018  70.365  1.00  0.00    -0.302 A  
HETATM   29  C   UNL     1     -13.234  10.948  71.849  1.00  0.00    -0.508 A  
HETATM   30  C   UNL     1     -11.814   8.757  70.933  1.00  0.00    -0.267 A  
HETATM   31  C   UNL     1     -12.291  11.120  70.837  1.00  0.00    -0.399 A  
HETATM   32  C   UNL     1     -13.468   9.690  72.411  1.00  0.00    -0.421 A  
HETATM   33  C   UNL     1     -12.750   8.593  71.949  1.00  0.00    -0.413 A  
BRANCH  31  34
HETATM   34  O   UNL     1     -12.092  12.430  70.484  1.00  0.00    -0.363 OA 
BRANCH  34  35
HETATM   35  C   UNL     1     -13.014  13.389  71.015  1.00  0.00    -0.184 C  
HETATM   36  C   UNL     1     -12.342  14.713  71.366  1.00  0.00    -0.348 C  
HETATM   37  F   UNL     1     -11.058  14.788  70.956  1.00  0.00    -0.279 F  
HETATM   38  F   UNL     1     -13.009  15.759  70.824  1.00  0.00    -0.488 F  
HETATM   39  F   UNL     1     -12.342  14.904  72.713  1.00  0.00    -0.379 F  
ENDBRANCH  34  35
ENDBRANCH  31  34
ENDBRANCH  27  28
ENDBRANCH  26  27
ENDBRANCH  25  26
ENDBRANCH  23  25
ENDBRANCH   2  23
TORSDOF 13
ENDMDL
MODEL       83
REMARK 921   NORMALIZED FREE ENERGY PREDICTED BY IDOCK:   -5.53 KCAL/MOL
REMARK 922        TOTAL FREE ENERGY PREDICTED BY IDOCK:  -12.91 KCAL/MOL
REMARK 923 INTER-LIGAND FREE ENERGY PREDICTED BY IDOCK:   -9.85 KCAL/MOL
REMARK 924 INTRA-LIGAND FREE ENERGY PREDICTED BY IDOCK:   -3.05 KCAL/MOL
REMARK 927      BINDING AFFINITY PREDICTED BY RF-SCORE:    0.00 PKD
ROOT
HETATM    1  C   UNL     1     -14.411   7.307  71.621  1.00  0.00    -0.583 C  
HETATM    2  C   UNL     1     -12.938   7.735  71.655  1.00  0.00    -0.345 C  
ENDROOT
BRANCH   2   3
HETATM    3  C   UNL     1     -11.991   6.561  71.990  1.00  0.00    -0.372 C  
BRANCH   3   4
HETATM    4  C   UNL     1     -10.868   6.397  71.006  1.00  0.00    -0.314 A  
HETATM    5  C   UNL     1     -11.154   6.116  69.665  1.00  0.00    -0.489 A  
HETATM    6  C   UNL     1      -6.495   6.273  69.326  1.00  0.00    -0.043 A  
HETATM    7  C   UNL     1      -9.542   6.509  71.399  1.00  0.00    -0.174 A  
HETATM    8  C   UNL     1      -8.552   6.366  70.436  1.00  0.00    -0.142 A  
HETATM    9  C   UNL     1     -10.141   5.999  68.681  1.00  0.00    -0.208 A  
HETATM   10  C   UNL     1      -8.802   6.103  69.069  1.00  0.00    -0.123 A  
HETATM   11  C   UNL     1      -7.090   6.462  70.718  1.00  0.00    -0.069 A  
HETATM   12  N   UNL     1      -7.597   6.004  68.394  1.00  0.00    -0.090 NA 
BRANCH  12  13
HETATM   13  C   UNL     1      -7.304   5.843  66.984  1.00  0.00    -0.076 C  
BRANCH  13  14
HETATM   14  C   UNL     1      -7.158   7.194  66.279  1.00  0.00    -0.074 C  
BRANCH  14  15
HETATM   15  C   UNL     1      -7.661   7.186  64.842  1.00  0.00    -0.103 C  
HETATM   16  O   UNL     1      -8.934   7.832  64.789  1.00  0.00    -0.313 OA 
HETATM   17  H   UNL     1      -9.248   7.827  63.892  1.00  0.00     0.000 HD 
ENDBRANCH  14  15
ENDBRANCH  13  14
ENDBRANCH  12  13
BRANCH   9  18
HETATM   18  C   UNL     1     -10.665   5.730  67.316  1.00  0.00    -0.261 C  
HETATM   19  N   UNL     1     -11.257   6.794  66.673  1.00  0.00    -0.626 N  
HETATM   20  O   UNL     1     -10.647   4.629  66.776  1.00  0.00    -0.148 OA 
HETATM   21  H2  UNL     1     -11.331   7.713  67.108  1.00  0.00     0.000 HD 
HETATM   22  H1  UNL     1     -11.617   6.609  65.736  1.00  0.00     0.000 HD 
ENDBRANCH   9  18
ENDBRANCH   3   4
ENDBRANCH   2   3
BRANCH   2  23
HETATM   23  N   UNL     1     -12.798   8.838  72.623  1.00  0.00    -0.543 NA 
HETATM   24  H   UNL     1     -12.048   8.640  73.284  1.00  0.00     0.000 HD 
BRANCH  23  25
HETATM   25  C   UNL     1     -12.606  10.159  72.003  1.00  0.00    -0.259 C  
BRANCH  25  26
HETATM   26  C   UNL     1     -12.709  10.158  70.463  1.00  0.00    -0.197 C  
BRANCH  26  27
HETATM   27  O   UNL     1     -11.902  11.176  69.856  1.00  0.00    -0.298 OA 
BRANCH  27  28
HETATM   28  C   UNL     1     -10.815  10.760  69.130  1.00  0.00    -0.237 A  
HETATM   29  C   UNL     1      -9.795  10.465  66.953  1.00  0.00    -0.236 A  
HETATM   30  C   UNL     1      -9.715  10.091  69.693  1.00  0.00    -0.255 A  
HETATM   31  C   UNL     1     -10.841  10.946  67.738  1.00  0.00    -0.259 A  
HETATM   32  C   UNL     1      -8.713   9.792  67.526  1.00  0.00    -0.125 A  
HETATM   33  C   UNL     1      -8.679   9.605  68.903  1.00  0.00    -0.132 A  
BRANCH  31  34
HETATM   34  O   UNL     1     -11.881  11.467  67.014  1.00  0.00    -0.568 OA 
BRANCH  34  35
HETATM   35  C   UNL     1     -11.911  12.891  66.859  1.00  0.00    -0.379 C  
HETATM   36  C   UNL     1     -12.502  13.322  65.521  1.00  0.00    -0.474 C  
HETATM   37  F   UNL     1     -13.035  12.302  64.816  1.00  0.00    -0.542 F  
HETATM   38  F   UNL     1     -13.468  14.255  65.690  1.00  0.00    -0.474 F  
HETATM   39  F   UNL     1     -11.544  13.888  64.738  1.00  0.00    -0.326 F  
ENDBRANCH  34  35
ENDBRANCH  31  34
ENDBRANCH  27  28
ENDBRANCH  26  27
ENDBRANCH  25  26
ENDBRANCH  23  25
ENDBRANCH   2  23
TORSDOF 13
ENDMDL
MODEL       84
REMARK 921   NORMALIZED FREE ENERGY PREDICTED BY IDOCK:   -5.53 KCAL/MOL
REMARK 922        TOTAL FREE ENERGY PREDICTED BY IDOCK:  -12.90 KCAL/MOL
REMARK 923 INTER-LIGAND FREE ENERGY PREDICTED BY IDOCK:   -9.68 KCAL/MOL
REMARK 924 INTRA-LIGAND FREE ENERGY PREDICTED BY IDOCK:   -3.22 KCAL/MOL
REMARK 927      BINDING AFFINITY PREDICTED BY RF-SCORE:    0.00 PKD
ROOT
HETATM    1  C   UNL     1     -12.762  12.503  64.175  1.00  0.00    -0.417 C  
HETATM    2  C   UNL     1     -11.439  12.724  64.918  1.00  0.00    -0.320 C  
ENDROOT
BRANCH   2   3
HETATM    3  C   UNL     1     -11.647  12.979  66.428  1.00  0.00    -0.413 C  
BRANCH   3   4
HETATM    4  C   UNL     1     -11.365  11.777  67.284  1.00  0.00    -0.379 A  
HETATM    5  C   UNL     1     -11.971  11.657  68.539  1.00  0.00    -0.284 A  
HETATM    6  C   UNL     1      -9.591   7.635  68.574  1.00  0.00    -0.148 A  
HETATM    7  C   UNL     1     -10.501  10.777  66.859  1.00  0.00    -0.304 A  
HETATM    8  C   UNL     1     -10.297   9.682  67.689  1.00  0.00    -0.290 A  
HETATM    9  C   UNL     1     -11.782  10.526  69.370  1.00  0.00    -0.295 A  
HETATM   10  C   UNL     1     -10.908   9.516  68.954  1.00  0.00    -0.150 A  
HETATM   11  C   UNL     1      -9.399   8.537  67.360  1.00  0.00    -0.178 A  
HETATM   12  N   UNL     1     -10.476   8.329  69.519  1.00  0.00    -0.226 NA 
BRANCH  12  13
HETATM   13  C   UNL     1     -10.868   7.656  70.742  1.00  0.00    -0.239 C  
BRANCH  13  14
HETATM   14  C   UNL     1      -9.929   7.998  71.901  1.00  0.00    -0.255 C  
BRANCH  14  15
HETATM   15  C   UNL     1     -10.528   7.710  73.271  1.00  0.00    -0.355 C  
HETATM   16  O   UNL     1     -11.948   7.849  73.201  1.00  0.00    -0.662 OA 
HETATM   17  H   UNL     1     -12.321   7.669  74.056  1.00  0.00     0.000 HD 
ENDBRANCH  14  15
ENDBRANCH  13  14
ENDBRANCH  12  13
BRANCH   9  18
HETATM   18  C   UNL     1     -12.543  10.589  70.645  1.00  0.00    -0.369 C  
HETATM   19  N   UNL     1     -13.329   9.497  70.938  1.00  0.00    -0.589 N  
HETATM   20  O   UNL     1     -12.549  11.558  71.396  1.00  0.00    -0.364 OA 
HETATM   21  H2  UNL     1     -13.385   8.691  70.315  1.00  0.00     0.000 HD 
HETATM   22  H1  UNL     1     -13.852   9.540  71.813  1.00  0.00     0.000 HD 
ENDBRANCH   9  18
ENDBRANCH   3   4
ENDBRANCH   2   3
BRANCH   2  23
HETATM   23  N   UNL     1     -10.726  13.841  64.273  1.00  0.00    -0.586 NA 
HETATM   24  H   UNL     1     -10.950  13.881  63.279  1.00  0.00     0.000 HD 
BRANCH  23  25
HETATM   25  C   UNL     1     -10.957  15.148  64.909  1.00  0.00    -0.419 C  
BRANCH  25  26
HETATM   26  C   UNL     1      -9.707  15.756  65.582  1.00  0.00    -0.297 C  
BRANCH  26  27
HETATM   27  O   UNL     1     -10.038  16.717  66.593  1.00  0.00    -0.278 OA 
BRANCH  27  28
HETATM   28  C   UNL     1     -10.392  16.228  67.825  1.00  0.00    -0.287 A  
HETATM   29  C   UNL     1      -9.751  14.972  69.794  1.00  0.00    -0.007 A  
HETATM   30  C   UNL     1     -11.697  16.299  68.343  1.00  0.00    -0.036 A  
HETATM   31  C   UNL     1      -9.413  15.555  68.573  1.00  0.00    -0.200 A  
HETATM   32  C   UNL     1     -11.054  15.041  70.291  1.00  0.00    -0.261 A  
HETATM   33  C   UNL     1     -12.029  15.707  69.557  1.00  0.00    -0.363 A  
BRANCH  31  34
HETATM   34  O   UNL     1      -8.131  15.290  68.170  1.00  0.00    -0.131 OA 
BRANCH  34  35
HETATM   35  C   UNL     1      -7.442  14.237  68.855  1.00  0.00    -0.123 C  
HETATM   36  C   UNL     1      -7.573  12.894  68.144  1.00  0.00    -0.135 C  
HETATM   37  F   UNL     1      -8.161  12.983  66.932  1.00  0.00    -0.160 F  
HETATM   38  F   UNL     1      -6.364  12.310  67.974  1.00  0.00    -0.056 F  
HETATM   39  F   UNL     1      -8.321  12.034  68.887  1.00  0.00    -0.112 F  
ENDBRANCH  34  35
ENDBRANCH  31  34
ENDBRANCH  27  28
ENDBRANCH  26  27
ENDBRANCH  25  26
ENDBRANCH  23  25
ENDBRANCH   2  23
TORSDOF 13
ENDMDL
MODEL       85
REMARK 921   NORMALIZED FREE ENERGY PREDICTED BY IDOCK:   -5.52 KCAL/MOL
REMARK 922        TOTAL FREE ENERGY PREDICTED BY IDOCK:  -12.89 KCAL/MOL
REMARK 923 INTER-LIGAND FREE ENERGY PREDICTED BY IDOCK:  -11.30 KCAL/MOL
REMARK 924 INTRA-LIGAND FREE ENERGY PREDICTED BY IDOCK:   -1.59 KCAL/MOL
REMARK 927      BINDING AFFINITY PREDICTED BY RF-SCORE:    0.00 PKD
ROOT
HETATM    1  C   UNL     1      -5.337  11.394  70.679  1.00  0.00    -0.129 C  
HETATM    2  C   UNL     1      -6.146  10.249  70.057  1.00  0.00    -0.071 C  
ENDROOT
BRANCH   2   3
HETATM    3  C   UNL     1      -6.309  10.406  68.528  1.00  0.00    -0.051 C  
BRANCH   3   4
HETATM    4  C   UNL     1      -7.459  11.289  68.136  1.00  0.00    -0.091 A  
HETATM    5  C   UNL     1      -8.751  10.756  68.059  1.00  0.00    -0.132 A  
HETATM    6  C   UNL     1      -9.791  15.168  66.920  1.00  0.00    -0.237 A  
HETATM    7  C   UNL     1      -7.269  12.630  67.835  1.00  0.00    -0.116 A  
HETATM    8  C   UNL     1      -8.377  13.396  67.498  1.00  0.00    -0.190 A  
HETATM    9  C   UNL     1      -9.882  11.548  67.741  1.00  0.00    -0.186 A  
HETATM   10  C   UNL     1      -9.699  12.900  67.431  1.00  0.00    -0.201 A  
HETATM   11  C   UNL     1      -8.318  14.847  67.153  1.00  0.00    -0.247 A  
HETATM   12  N   UNL     1     -10.554  13.920  67.051  1.00  0.00    -0.278 NA 
BRANCH  12  13
HETATM   13  C   UNL     1     -11.998  13.961  66.930  1.00  0.00    -0.433 C  
BRANCH  13  14
HETATM   14  C   UNL     1     -12.463  13.497  65.548  1.00  0.00    -0.538 C  
BRANCH  14  15
HETATM   15  C   UNL     1     -12.172  14.500  64.441  1.00  0.00    -0.458 C  
HETATM   16  O   UNL     1     -12.497  13.914  63.180  1.00  0.00    -1.121 OA 
HETATM   17  H   UNL     1     -12.315  14.540  62.489  1.00  0.00     0.000 HD 
ENDBRANCH  14  15
ENDBRANCH  13  14
ENDBRANCH  12  13
BRANCH   9  18
HETATM   18  C   UNL     1     -11.160  10.790  67.745  1.00  0.00    -0.318 C  
HETATM   19  N   UNL     1     -11.132   9.550  67.147  1.00  0.00    -0.218 N  
HETATM   20  O   UNL     1     -12.217  11.224  68.190  1.00  0.00    -0.622 OA 
HETATM   21  H2  UNL     1     -10.283   9.174  66.726  1.00  0.00     0.000 HD 
HETATM   22  H1  UNL     1     -12.009   9.029  67.149  1.00  0.00     0.000 HD 
ENDBRANCH   9  18
ENDBRANCH   3   4
ENDBRANCH   2   3
BRANCH   2  23
HETATM   23  N   UNL     1      -7.452  10.180  70.737  1.00  0.00    -0.382 NA 
HETATM   24  H   UNL     1      -8.174  10.623  70.170  1.00  0.00     0.000 HD 
BRANCH  23  25
HETATM   25  C   UNL     1      -7.858   8.818  71.121  1.00  0.00    -0.134 C  
BRANCH  25  26
HETATM   26  C   UNL     1      -9.271   8.419  70.642  1.00  0.00    -0.156 C  
BRANCH  26  27
HETATM   27  O   UNL     1     -10.270   9.377  71.016  1.00  0.00    -0.287 OA 
BRANCH  27  28
HETATM   28  C   UNL     1     -11.547   8.909  71.194  1.00  0.00    -0.300 A  
HETATM   29  C   UNL     1     -13.873   9.415  71.643  1.00  0.00    -0.329 A  
HETATM   30  C   UNL     1     -11.868   7.543  71.279  1.00  0.00    -0.319 A  
HETATM   31  C   UNL     1     -12.575   9.848  71.377  1.00  0.00    -0.398 A  
HETATM   32  C   UNL     1     -14.175   8.054  71.735  1.00  0.00    -0.550 A  
HETATM   33  C   UNL     1     -13.164   7.118  71.554  1.00  0.00    -0.419 A  
BRANCH  31  34
HETATM   34  O   UNL     1     -12.421  11.208  71.444  1.00  0.00    -0.353 OA 
BRANCH  34  35
HETATM   35  C   UNL     1     -13.474  11.947  72.074  1.00  0.00    -0.231 C  
HETATM   36  C   UNL     1     -13.234  13.453  72.038  1.00  0.00    -0.438 C  
HETATM   37  F   UNL     1     -12.175  13.810  71.281  1.00  0.00    -0.398 F  
HETATM   38  F   UNL     1     -14.319  14.110  71.565  1.00  0.00    -0.439 F  
HETATM   39  F   UNL     1     -13.005  13.928  73.292  1.00  0.00    -0.533 F  
ENDBRANCH  34  35
ENDBRANCH  31  34
ENDBRANCH  27  28
ENDBRANCH  26  27
ENDBRANCH  25  26
ENDBRANCH  23  25
ENDBRANCH   2  23
TORSDOF 13
ENDMDL
MODEL       86
REMARK 921   NORMALIZED FREE ENERGY PREDICTED BY IDOCK:   -5.52 KCAL/MOL
REMARK 922        TOTAL FREE ENERGY PREDICTED BY IDOCK:  -12.88 KCAL/MOL
REMARK 923 INTER-LIGAND FREE ENERGY PREDICTED BY IDOCK:  -10.62 KCAL/MOL
REMARK 924 INTRA-LIGAND FREE ENERGY PREDICTED BY IDOCK:   -2.26 KCAL/MOL
REMARK 927      BINDING AFFINITY PREDICTED BY RF-SCORE:    0.00 PKD
ROOT
HETATM    1  C   UNL     1     -13.753  10.583  71.815  1.00  0.00    -0.062 C  
HETATM    2  C   UNL     1     -13.015  11.624  70.962  1.00  0.00    -0.135 C  
ENDROOT
BRANCH   2   3
HETATM    3  C   UNL     1     -11.560  11.206  70.653  1.00  0.00    -0.188 C  
BRANCH   3   4
HETATM    4  C   UNL     1     -11.214  11.275  69.193  1.00  0.00    -0.337 A  
HETATM    5  C   UNL     1     -11.385  12.474  68.493  1.00  0.00    -0.337 A  
HETATM    6  C   UNL     1      -9.681   9.903  64.982  1.00  0.00    -0.288 A  
HETATM    7  C   UNL     1     -10.733  10.165  68.513  1.00  0.00    -0.264 A  
HETATM    8  C   UNL     1     -10.414  10.301  67.168  1.00  0.00    -0.311 A  
HETATM    9  C   UNL     1     -11.032  12.616  67.128  1.00  0.00    -0.296 A  
HETATM   10  C   UNL     1     -10.553  11.501  66.433  1.00  0.00    -0.259 A  
HETATM   11  C   UNL     1      -9.888   9.194  66.316  1.00  0.00    -0.359 A  
HETATM   12  N   UNL     1     -10.163  11.283  65.122  1.00  0.00    -0.274 NA 
BRANCH  12  13
HETATM   13  C   UNL     1     -10.025  12.195  64.004  1.00  0.00    -0.274 C  
BRANCH  13  14
HETATM   14  C   UNL     1     -11.161  12.024  62.992  1.00  0.00    -0.062 C  
BRANCH  14  15
HETATM   15  C   UNL     1     -12.475  12.645  63.446  1.00  0.00    -0.372 C  
HETATM   16  O   UNL     1     -12.425  14.057  63.231  1.00  0.00    -1.139 OA 
HETATM   17  H   UNL     1     -13.245  14.444  63.514  1.00  0.00     0.000 HD 
ENDBRANCH  14  15
ENDBRANCH  13  14
ENDBRANCH  12  13
BRANCH   9  18
HETATM   18  C   UNL     1     -11.267  13.981  66.590  1.00  0.00    -0.323 C  
HETATM   19  N   UNL     1     -10.144  14.746  66.366  1.00  0.00    -0.269 N  
HETATM   20  O   UNL     1     -12.377  14.463  66.396  1.00  0.00    -0.409 OA 
HETATM   21  H2  UNL     1      -9.206  14.395  66.558  1.00  0.00     0.000 HD 
HETATM   22  H1  UNL     1     -10.305  15.684  65.997  1.00  0.00     0.000 HD 
ENDBRANCH   9  18
ENDBRANCH   3   4
ENDBRANCH   2   3
BRANCH   2  23
HETATM   23  N   UNL     1     -13.071  12.920  71.661  1.00  0.00    -0.380 NA 
HETATM   24  H   UNL     1     -12.337  12.977  72.367  1.00  0.00     0.000 HD 
BRANCH  23  25
HETATM   25  C   UNL     1     -13.020  14.087  70.766  1.00  0.00    -0.230 C  
BRANCH  25  26
HETATM   26  C   UNL     1     -11.808  15.015  71.002  1.00  0.00    -0.323 C  
BRANCH  26  27
HETATM   27  O   UNL     1     -11.538  15.865  69.880  1.00  0.00    -0.321 OA 
BRANCH  27  28
HETATM   28  C   UNL     1     -10.220  16.087  69.569  1.00  0.00    -0.274 A  
HETATM   29  C   UNL     1      -8.573  17.526  68.528  1.00  0.00    -0.276 A  
HETATM   30  C   UNL     1      -9.202  15.141  69.783  1.00  0.00     0.005 A  
HETATM   31  C   UNL     1      -9.886  17.294  68.934  1.00  0.00    -0.286 A  
HETATM   32  C   UNL     1      -7.574  16.572  68.738  1.00  0.00    -0.219 A  
HETATM   33  C   UNL     1      -7.896  15.375  69.366  1.00  0.00    -0.232 A  
BRANCH  31  34
HETATM   34  O   UNL     1     -10.766  18.270  68.544  1.00  0.00    -0.181 OA 
BRANCH  34  35
HETATM   35  C   UNL     1     -10.230  19.353  67.775  1.00  0.00    -0.419 C  
HETATM   36  C   UNL     1     -10.230  19.063  66.278  1.00  0.00    -0.446 C  
HETATM   37  F   UNL     1     -10.883  17.928  65.951  1.00  0.00    -0.334 F  
HETATM   38  F   UNL     1     -10.795  20.078  65.583  1.00  0.00    -0.557 F  
HETATM   39  F   UNL     1      -8.956  18.937  65.818  1.00  0.00    -0.188 F  
ENDBRANCH  34  35
ENDBRANCH  31  34
ENDBRANCH  27  28
ENDBRANCH  26  27
ENDBRANCH  25  26
ENDBRANCH  23  25
ENDBRANCH   2  23
TORSDOF 13
ENDMDL
MODEL       87
REMARK 921   NORMALIZED FREE ENERGY PREDICTED BY IDOCK:   -5.51 KCAL/MOL
REMARK 922        TOTAL FREE ENERGY PREDICTED BY IDOCK:  -12.87 KCAL/MOL
REMARK 923 INTER-LIGAND FREE ENERGY PREDICTED BY IDOCK:  -10.31 KCAL/MOL
REMARK 924 INTRA-LIGAND FREE ENERGY PREDICTED BY IDOCK:   -2.56 KCAL/MOL
REMARK 927      BINDING AFFINITY PREDICTED BY RF-SCORE:    0.00 PKD
ROOT
HETATM    1  C   UNL     1     -10.760  12.158  64.578  1.00  0.00    -0.353 C  
HETATM    2  C   UNL     1     -10.147  11.476  65.808  1.00  0.00    -0.237 C  
ENDROOT
BRANCH   2   3
HETATM    3  C   UNL     1      -9.968   9.954  65.609  1.00  0.00    -0.353 C  
BRANCH   3   4
HETATM    4  C   UNL     1      -9.778   9.200  66.894  1.00  0.00    -0.254 A  
HETATM    5  C   UNL     1      -8.721   9.536  67.748  1.00  0.00    -0.115 A  
HETATM    6  C   UNL     1     -10.589   6.115  70.327  1.00  0.00    -0.258 A  
HETATM    7  C   UNL     1     -10.626   8.163  67.254  1.00  0.00    -0.344 A  
HETATM    8  C   UNL     1     -10.407   7.519  68.465  1.00  0.00    -0.224 A  
HETATM    9  C   UNL     1      -8.518   8.895  68.995  1.00  0.00    -0.133 A  
HETATM   10  C   UNL     1      -9.365   7.843  69.363  1.00  0.00    -0.152 A  
HETATM   11  C   UNL     1     -11.240   6.390  68.976  1.00  0.00    -0.402 A  
HETATM   12  N   UNL     1      -9.424   7.000  70.459  1.00  0.00    -0.166 NA 
BRANCH  12  13
HETATM   13  C   UNL     1      -8.658   6.976  71.689  1.00  0.00    -0.116 C  
BRANCH  13  14
HETATM   14  C   UNL     1      -9.233   7.938  72.732  1.00  0.00    -0.282 C  
BRANCH  14  15
HETATM   15  C   UNL     1     -10.274   7.297  73.638  1.00  0.00    -0.346 C  
HETATM   16  O   UNL     1     -11.566   7.806  73.300  1.00  0.00    -0.644 OA 
HETATM   17  H   UNL     1     -12.216   7.406  73.866  1.00  0.00     0.000 HD 
ENDBRANCH  14  15
ENDBRANCH  13  14
ENDBRANCH  12  13
BRANCH   9  18
HETATM   18  C   UNL     1      -7.358   9.426  69.757  1.00  0.00    -0.083 C  
HETATM   19  N   UNL     1      -6.123   9.271  69.168  1.00  0.00    -0.042 N  
HETATM   20  O   UNL     1      -7.439   9.929  70.872  1.00  0.00    -0.314 OA 
HETATM   21  H2  UNL     1      -6.012   8.818  68.261  1.00  0.00     0.000 HD 
HETATM   22  H1  UNL     1      -5.327   9.636  69.691  1.00  0.00     0.000 HD 
ENDBRANCH   9  18
ENDBRANCH   3   4
ENDBRANCH   2   3
BRANCH   2  23
HETATM   23  N   UNL     1     -10.996  11.774  66.975  1.00  0.00    -0.269 NA 
HETATM   24  H   UNL     1     -10.488  11.600  67.841  1.00  0.00     0.000 HD 
BRANCH  23  25
HETATM   25  C   UNL     1     -11.563  13.133  66.973  1.00  0.00    -0.359 C  
BRANCH  25  26
HETATM   26  C   UNL     1     -11.386  13.896  68.304  1.00  0.00    -0.294 C  
BRANCH  26  27
HETATM   27  O   UNL     1     -12.531  13.784  69.160  1.00  0.00    -0.216 OA 
BRANCH  27  28
HETATM   28  C   UNL     1     -12.426  14.329  70.415  1.00  0.00    -0.362 A  
HETATM   29  C   UNL     1     -12.909  14.136  72.780  1.00  0.00    -0.445 A  
HETATM   30  C   UNL     1     -11.921  15.617  70.663  1.00  0.00    -0.438 A  
HETATM   31  C   UNL     1     -12.921  13.587  71.499  1.00  0.00    -0.355 A  
HETATM   32  C   UNL     1     -12.414  15.421  73.010  1.00  0.00    -0.542 A  
HETATM   33  C   UNL     1     -11.921  16.163  71.942  1.00  0.00    -0.583 A  
BRANCH  31  34
HETATM   34  O   UNL     1     -13.552  12.372  71.424  1.00  0.00     0.066 OA 
BRANCH  34  35
HETATM   35  C   UNL     1     -12.844  11.243  71.948  1.00  0.00    -0.281 C  
HETATM   36  C   UNL     1     -12.410  10.268  70.858  1.00  0.00    -0.373 C  
HETATM   37  F   UNL     1     -12.622  10.731  69.608  1.00  0.00    -0.371 F  
HETATM   38  F   UNL     1     -11.096   9.965  70.967  1.00  0.00    -0.355 F  
HETATM   39  F   UNL     1     -13.092   9.096  70.969  1.00  0.00    -0.312 F  
ENDBRANCH  34  35
ENDBRANCH  31  34
ENDBRANCH  27  28
ENDBRANCH  26  27
ENDBRANCH  25  26
ENDBRANCH  23  25
ENDBRANCH   2  23
TORSDOF 13
ENDMDL
MODEL       88
REMARK 921   NORMALIZED FREE ENERGY PREDICTED BY IDOCK:   -5.51 KCAL/MOL
REMARK 922        TOTAL FREE ENERGY PREDICTED BY IDOCK:  -12.86 KCAL/MOL
REMARK 923 INTER-LIGAND FREE ENERGY PREDICTED BY IDOCK:  -10.41 KCAL/MOL
REMARK 924 INTRA-LIGAND FREE ENERGY PREDICTED BY IDOCK:   -2.46 KCAL/MOL
REMARK 927      BINDING AFFINITY PREDICTED BY RF-SCORE:    0.00 PKD
ROOT
HETATM    1  C   UNL     1     -14.293   7.296  71.726  1.00  0.00    -0.560 C  
HETATM    2  C   UNL     1     -12.987   7.893  71.185  1.00  0.00    -0.104 C  
ENDROOT
BRANCH   2   3
HETATM    3  C   UNL     1     -11.837   6.861  71.154  1.00  0.00    -0.395 C  
BRANCH   3   4
HETATM    4  C   UNL     1     -10.997   6.938  69.911  1.00  0.00    -0.318 A  
HETATM    5  C   UNL     1     -10.294   8.111  69.618  1.00  0.00    -0.221 A  
HETATM    6  C   UNL     1      -8.915   5.581  65.938  1.00  0.00    -0.154 A  
HETATM    7  C   UNL     1     -10.907   5.866  69.034  1.00  0.00    -0.383 A  
HETATM    8  C   UNL     1     -10.099   5.995  67.913  1.00  0.00    -0.183 A  
HETATM    9  C   UNL     1      -9.447   8.228  68.487  1.00  0.00    -0.149 A  
HETATM   10  C   UNL     1      -9.357   7.155  67.594  1.00  0.00    -0.127 A  
HETATM   11  C   UNL     1      -9.910   4.925  66.889  1.00  0.00    -0.217 A  
HETATM   12  N   UNL     1      -8.676   6.953  66.406  1.00  0.00    -0.136 NA 
BRANCH  12  13
HETATM   13  C   UNL     1      -7.715   7.779  65.703  1.00  0.00    -0.101 C  
BRANCH  13  14
HETATM   14  C   UNL     1      -8.300   8.349  64.408  1.00  0.00    -0.106 C  
BRANCH  14  15
HETATM   15  C   UNL     1      -9.054   9.656  64.607  1.00  0.00    -0.235 C  
HETATM   16  O   UNL     1      -8.117  10.701  64.876  1.00  0.00    -0.294 OA 
HETATM   17  H   UNL     1      -8.588  11.517  65.000  1.00  0.00     0.000 HD 
ENDBRANCH  14  15
ENDBRANCH  13  14
ENDBRANCH  12  13
BRANCH   9  18
HETATM   18  C   UNL     1      -8.772   9.548  68.382  1.00  0.00    -0.124 C  
HETATM   19  N   UNL     1      -7.510   9.629  68.925  1.00  0.00    -0.073 N  
HETATM   20  O   UNL     1      -9.291  10.549  67.901  1.00  0.00    -0.141 OA 
HETATM   21  H2  UNL     1      -7.064   8.829  69.373  1.00  0.00     0.000 HD 
HETATM   22  H1  UNL     1      -7.046  10.535  68.853  1.00  0.00     0.000 HD 
ENDBRANCH   9  18
ENDBRANCH   3   4
ENDBRANCH   2   3
BRANCH   2  23
HETATM   23  N   UNL     1     -12.640   9.068  72.004  1.00  0.00    -0.370 NA 
HETATM   24  H   UNL     1     -11.660   9.032  72.283  1.00  0.00     0.000 HD 
BRANCH  23  25
HETATM   25  C   UNL     1     -12.949  10.357  71.364  1.00  0.00    -0.443 C  
BRANCH  25  26
HETATM   26  C   UNL     1     -11.793  10.941  70.523  1.00  0.00    -0.360 C  
BRANCH  26  27
HETATM   27  O   UNL     1     -12.215  11.352  69.216  1.00  0.00    -0.305 OA 
BRANCH  27  28
HETATM   28  C   UNL     1     -12.024  12.670  68.886  1.00  0.00    -0.242 A  
HETATM   29  C   UNL     1     -11.574  14.306  67.157  1.00  0.00    -0.402 A  
HETATM   30  C   UNL     1     -11.918  13.702  69.835  1.00  0.00    -0.415 A  
HETATM   31  C   UNL     1     -11.851  12.992  67.530  1.00  0.00    -0.355 A  
HETATM   32  C   UNL     1     -11.461  15.318  68.113  1.00  0.00    -0.357 A  
HETATM   33  C   UNL     1     -11.631  15.009  69.457  1.00  0.00    -0.337 A  
BRANCH  31  34
HETATM   34  O   UNL     1     -11.804  12.101  66.490  1.00  0.00    -0.569 OA 
BRANCH  34  35
HETATM   35  C   UNL     1     -11.170  12.546  65.285  1.00  0.00    -0.304 C  
HETATM   36  C   UNL     1     -12.077  12.420  64.066  1.00  0.00    -0.475 C  
HETATM   37  F   UNL     1     -13.346  12.078  64.373  1.00  0.00    -0.441 F  
HETATM   38  F   UNL     1     -12.121  13.578  63.366  1.00  0.00    -0.527 F  
HETATM   39  F   UNL     1     -11.603  11.468  63.216  1.00  0.00    -0.483 F  
ENDBRANCH  34  35
ENDBRANCH  31  34
ENDBRANCH  27  28
ENDBRANCH  26  27
ENDBRANCH  25  26
ENDBRANCH  23  25
ENDBRANCH   2  23
TORSDOF 13
ENDMDL
MODEL       89
REMARK 921   NORMALIZED FREE ENERGY PREDICTED BY IDOCK:   -5.51 KCAL/MOL
REMARK 922        TOTAL FREE ENERGY PREDICTED BY IDOCK:  -12.86 KCAL/MOL
REMARK 923 INTER-LIGAND FREE ENERGY PREDICTED BY IDOCK:   -9.88 KCAL/MOL
REMARK 924 INTRA-LIGAND FREE ENERGY PREDICTED BY IDOCK:   -2.98 KCAL/MOL
REMARK 927      BINDING AFFINITY PREDICTED BY RF-SCORE:    0.00 PKD
ROOT
HETATM    1  C   UNL     1     -13.502   9.699  72.267  1.00  0.00    -0.488 C  
HETATM    2  C   UNL     1     -12.539   9.299  71.141  1.00  0.00    -0.257 C  
ENDROOT
BRANCH   2   3
HETATM    3  C   UNL     1     -11.066   9.276  71.607  1.00  0.00    -0.438 C  
BRANCH   3   4
HETATM    4  C   UNL     1     -10.137   8.620  70.625  1.00  0.00    -0.237 A  
HETATM    5  C   UNL     1     -10.595   7.560  69.835  1.00  0.00    -0.243 A  
HETATM    6  C   UNL     1      -6.236   7.789  68.164  1.00  0.00    -0.045 A  
HETATM    7  C   UNL     1      -8.821   9.038  70.488  1.00  0.00    -0.242 A  
HETATM    8  C   UNL     1      -8.020   8.402  69.548  1.00  0.00    -0.111 A  
HETATM    9  C   UNL     1      -9.782   6.933  68.858  1.00  0.00    -0.142 A  
HETATM   10  C   UNL     1      -8.452   7.343  68.717  1.00  0.00    -0.129 A  
HETATM   11  C   UNL     1      -6.590   8.749  69.295  1.00  0.00    -0.049 A  
HETATM   12  N   UNL     1      -7.403   6.933  67.914  1.00  0.00    -0.094 NA 
BRANCH  12  13
HETATM   13  C   UNL     1      -7.347   5.963  66.838  1.00  0.00    -0.079 C  
BRANCH  13  14
HETATM   14  C   UNL     1      -6.927   6.610  65.515  1.00  0.00    -0.060 C  
BRANCH  14  15
HETATM   15  C   UNL     1      -7.992   6.522  64.432  1.00  0.00    -0.103 C  
HETATM   16  O   UNL     1      -9.092   5.751  64.918  1.00  0.00    -0.364 OA 
HETATM   17  H   UNL     1      -9.757   5.696  64.241  1.00  0.00     0.000 HD 
ENDBRANCH  14  15
ENDBRANCH  13  14
ENDBRANCH  12  13
BRANCH   9  18
HETATM   18  C   UNL     1     -10.476   5.852  68.111  1.00  0.00    -0.233 C  
HETATM   19  N   UNL     1     -11.347   6.258  67.124  1.00  0.00    -0.673 N  
HETATM   20  O   UNL     1     -10.356   4.658  68.360  1.00  0.00     0.004 OA 
HETATM   21  H2  UNL     1     -11.506   7.244  66.919  1.00  0.00     0.000 HD 
HETATM   22  H1  UNL     1     -11.823   5.516  66.611  1.00  0.00     0.000 HD 
ENDBRANCH   9  18
ENDBRANCH   3   4
ENDBRANCH   2   3
BRANCH   2  23
HETATM   23  N   UNL     1     -12.737  10.224  70.011  1.00  0.00    -0.549 NA 
HETATM   24  H   UNL     1     -13.731  10.373  69.841  1.00  0.00     0.000 HD 
BRANCH  23  25
HETATM   25  C   UNL     1     -12.038  11.511  70.161  1.00  0.00    -0.351 C  
BRANCH  25  26
HETATM   26  C   UNL     1     -11.532  12.116  68.833  1.00  0.00    -0.297 C  
BRANCH  26  27
HETATM   27  O   UNL     1     -12.062  11.443  67.684  1.00  0.00    -0.630 OA 
BRANCH  27  28
HETATM   28  C   UNL     1     -11.159  10.969  66.767  1.00  0.00    -0.172 A  
HETATM   29  C   UNL     1     -10.367  10.972  64.477  1.00  0.00    -0.420 A  
HETATM   30  C   UNL     1     -10.235   9.945  67.043  1.00  0.00    -0.294 A  
HETATM   31  C   UNL     1     -11.213  11.483  65.461  1.00  0.00    -0.138 A  
HETATM   32  C   UNL     1      -9.462   9.947  64.765  1.00  0.00    -0.356 A  
HETATM   33  C   UNL     1      -9.402   9.433  66.055  1.00  0.00    -0.279 A  
BRANCH  31  34
HETATM   34  O   UNL     1     -12.124  12.391  64.989  1.00  0.00    -0.412 OA 
BRANCH  34  35
HETATM   35  C   UNL     1     -11.629  13.401  64.101  1.00  0.00    -0.398 C  
HETATM   36  C   UNL     1     -11.721  14.801  64.699  1.00  0.00    -0.422 C  
HETATM   37  F   UNL     1     -12.087  14.807  65.999  1.00  0.00    -0.334 F  
HETATM   38  F   UNL     1     -10.539  15.454  64.601  1.00  0.00    -0.417 F  
HETATM   39  F   UNL     1     -12.637  15.547  64.024  1.00  0.00    -0.424 F  
ENDBRANCH  34  35
ENDBRANCH  31  34
ENDBRANCH  27  28
ENDBRANCH  26  27
ENDBRANCH  25  26
ENDBRANCH  23  25
ENDBRANCH   2  23
TORSDOF 13
ENDMDL
MODEL       90
REMARK 921   NORMALIZED FREE ENERGY PREDICTED BY IDOCK:   -5.48 KCAL/MOL
REMARK 922        TOTAL FREE ENERGY PREDICTED BY IDOCK:  -12.81 KCAL/MOL
REMARK 923 INTER-LIGAND FREE ENERGY PREDICTED BY IDOCK:  -10.33 KCAL/MOL
REMARK 924 INTRA-LIGAND FREE ENERGY PREDICTED BY IDOCK:   -2.48 KCAL/MOL
REMARK 927      BINDING AFFINITY PREDICTED BY RF-SCORE:    0.00 PKD
ROOT
HETATM    1  C   UNL     1      -6.051  12.686  67.500  1.00  0.00    -0.157 C  
HETATM    2  C   UNL     1      -7.481  13.240  67.522  1.00  0.00    -0.157 C  
ENDROOT
BRANCH   2   3
HETATM    3  C   UNL     1      -8.516  12.219  66.998  1.00  0.00    -0.181 C  
BRANCH   3   4
HETATM    4  C   UNL     1      -9.287  11.534  68.089  1.00  0.00    -0.185 A  
HETATM    5  C   UNL     1      -8.747  10.408  68.721  1.00  0.00    -0.146 A  
HETATM    6  C   UNL     1     -12.728  10.681  71.155  1.00  0.00    -0.422 A  
HETATM    7  C   UNL     1     -10.537  11.988  68.484  1.00  0.00    -0.252 A  
HETATM    8  C   UNL     1     -11.189  11.321  69.512  1.00  0.00    -0.337 A  
HETATM    9  C   UNL     1      -9.404   9.747  69.789  1.00  0.00    -0.249 A  
HETATM   10  C   UNL     1     -10.667  10.194  70.189  1.00  0.00    -0.300 A  
HETATM   11  C   UNL     1     -12.534  11.700  70.037  1.00  0.00    -0.166 A  
HETATM   12  N   UNL     1     -11.577   9.769  71.142  1.00  0.00    -0.362 NA 
BRANCH  12  13
HETATM   13  C   UNL     1     -11.488   8.733  72.152  1.00  0.00    -0.351 C  
BRANCH  13  14
HETATM   14  C   UNL     1     -12.518   7.625  71.918  1.00  0.00    -0.338 C  
BRANCH  14  15
HETATM   15  C   UNL     1     -11.991   6.478  71.068  1.00  0.00    -0.297 C  
HETATM   16  O   UNL     1     -11.845   6.923  69.718  1.00  0.00    -0.613 OA 
HETATM   17  H   UNL     1     -11.517   6.207  69.188  1.00  0.00     0.000 HD 
ENDBRANCH  14  15
ENDBRANCH  13  14
ENDBRANCH  12  13
BRANCH   9  18
HETATM   18  C   UNL     1      -8.641   8.595  70.336  1.00  0.00    -0.153 C  
HETATM   19  N   UNL     1      -8.749   7.411  69.640  1.00  0.00    -0.137 N  
HETATM   20  O   UNL     1      -7.987   8.632  71.372  1.00  0.00    -0.118 OA 
HETATM   21  H2  UNL     1      -9.319   7.331  68.799  1.00  0.00     0.000 HD 
HETATM   22  H1  UNL     1      -8.225   6.620  70.016  1.00  0.00     0.000 HD 
ENDBRANCH   9  18
ENDBRANCH   3   4
ENDBRANCH   2   3
BRANCH   2  23
HETATM   23  N   UNL     1      -7.506  14.489  66.739  1.00  0.00    -0.216 NA 
HETATM   24  H   UNL     1      -8.437  14.653  66.358  1.00  0.00     0.000 HD 
BRANCH  23  25
HETATM   25  C   UNL     1      -7.033  15.671  67.478  1.00  0.00    -0.189 C  
BRANCH  25  26
HETATM   26  C   UNL     1      -6.598  16.848  66.580  1.00  0.00    -0.217 C  
BRANCH  26  27
HETATM   27  O   UNL     1      -7.678  17.374  65.798  1.00  0.00    -0.508 OA 
BRANCH  27  28
HETATM   28  C   UNL     1      -8.610  18.137  66.456  1.00  0.00    -0.263 A  
HETATM   29  C   UNL     1     -10.948  18.589  66.898  1.00  0.00    -0.050 A  
HETATM   30  C   UNL     1      -8.288  19.285  67.201  1.00  0.00    -0.305 A  
HETATM   31  C   UNL     1      -9.964  17.793  66.313  1.00  0.00    -0.318 A  
HETATM   32  C   UNL     1     -10.613  19.733  67.626  1.00  0.00    -0.530 A  
HETATM   33  C   UNL     1      -9.275  20.080  67.772  1.00  0.00    -0.435 A  
BRANCH  31  34
HETATM   34  O   UNL     1     -10.461  16.783  65.531  1.00  0.00    -0.538 OA 
BRANCH  34  35
HETATM   35  C   UNL     1     -10.582  15.493  66.142  1.00  0.00    -0.315 C  
HETATM   36  C   UNL     1     -11.544  14.579  65.391  1.00  0.00    -0.355 C  
HETATM   37  F   UNL     1     -11.962  15.090  64.214  1.00  0.00    -0.425 F  
HETATM   38  F   UNL     1     -10.978  13.375  65.139  1.00  0.00    -0.282 F  
HETATM   39  F   UNL     1     -12.655  14.340  66.138  1.00  0.00    -0.464 F  
ENDBRANCH  34  35
ENDBRANCH  31  34
ENDBRANCH  27  28
ENDBRANCH  26  27
ENDBRANCH  25  26
ENDBRANCH  23  25
ENDBRANCH   2  23
TORSDOF 13
ENDMDL
MODEL       91
REMARK 921   NORMALIZED FREE ENERGY PREDICTED BY IDOCK:   -5.48 KCAL/MOL
REMARK 922        TOTAL FREE ENERGY PREDICTED BY IDOCK:  -12.80 KCAL/MOL
REMARK 923 INTER-LIGAND FREE ENERGY PREDICTED BY IDOCK:  -10.51 KCAL/MOL
REMARK 924 INTRA-LIGAND FREE ENERGY PREDICTED BY IDOCK:   -2.30 KCAL/MOL
REMARK 927      BINDING AFFINITY PREDICTED BY RF-SCORE:    0.00 PKD
ROOT
HETATM    1  C   UNL     1     -12.299  11.954  63.611  1.00  0.00    -0.591 C  
HETATM    2  C   UNL     1     -11.047  12.320  64.418  1.00  0.00    -0.330 C  
ENDROOT
BRANCH   2   3
HETATM    3  C   UNL     1     -11.122  11.822  65.879  1.00  0.00    -0.355 C  
BRANCH   3   4
HETATM    4  C   UNL     1     -10.380  10.536  66.112  1.00  0.00    -0.276 A  
HETATM    5  C   UNL     1     -10.608   9.803  67.282  1.00  0.00    -0.320 A  
HETATM    6  C   UNL     1      -7.494   6.933  65.305  1.00  0.00    -0.089 A  
HETATM    7  C   UNL     1      -9.460  10.057  65.190  1.00  0.00    -0.331 A  
HETATM    8  C   UNL     1      -8.823   8.852  65.456  1.00  0.00    -0.238 A  
HETATM    9  C   UNL     1      -9.976   8.561  67.536  1.00  0.00    -0.258 A  
HETATM   10  C   UNL     1      -9.042   8.074  66.616  1.00  0.00    -0.163 A  
HETATM   11  C   UNL     1      -7.814   8.221  64.555  1.00  0.00    -0.130 A  
HETATM   12  N   UNL     1      -8.237   6.948  66.572  1.00  0.00    -0.114 NA 
BRANCH  12  13
HETATM   13  C   UNL     1      -8.151   5.801  67.453  1.00  0.00    -0.102 C  
BRANCH  13  14
HETATM   14  C   UNL     1      -8.463   4.497  66.715  1.00  0.00    -0.105 C  
BRANCH  14  15
HETATM   15  C   UNL     1      -9.379   3.563  67.493  1.00  0.00    -0.206 C  
HETATM   16  O   UNL     1      -9.501   2.328  66.785  1.00  0.00    -0.373 OA 
HETATM   17  H   UNL     1     -10.072   1.745  67.271  1.00  0.00     0.000 HD 
ENDBRANCH  14  15
ENDBRANCH  13  14
ENDBRANCH  12  13
BRANCH   9  18
HETATM   18  C   UNL     1     -10.383   7.937  68.823  1.00  0.00    -0.203 C  
HETATM   19  N   UNL     1     -11.257   6.877  68.733  1.00  0.00    -0.516 N  
HETATM   20  O   UNL     1     -10.035   8.344  69.925  1.00  0.00    -0.184 OA 
HETATM   21  H2  UNL     1     -11.604   6.539  67.836  1.00  0.00     0.000 HD 
HETATM   22  H1  UNL     1     -11.537   6.449  69.616  1.00  0.00     0.000 HD 
ENDBRANCH   9  18
ENDBRANCH   3   4
ENDBRANCH   2   3
BRANCH   2  23
HETATM   23  N   UNL     1     -10.863  13.781  64.353  1.00  0.00    -0.557 NA 
HETATM   24  H   UNL     1     -10.248  14.030  63.579  1.00  0.00     0.000 HD 
BRANCH  23  25
HETATM   25  C   UNL     1     -12.122  14.541  64.278  1.00  0.00    -0.425 C  
BRANCH  25  26
HETATM   26  C   UNL     1     -11.960  16.060  64.507  1.00  0.00     0.096 C  
BRANCH  26  27
HETATM   27  O   UNL     1     -10.607  16.432  64.801  1.00  0.00    -0.676 OA 
BRANCH  27  28
HETATM   28  C   UNL     1     -10.393  17.146  65.952  1.00  0.00    -0.284 A  
HETATM   29  C   UNL     1      -9.961  17.113  68.335  1.00  0.00    -0.310 A  
HETATM   30  C   UNL     1     -10.522  18.544  66.034  1.00  0.00    -0.433 A  
HETATM   31  C   UNL     1     -10.105  16.433  67.127  1.00  0.00    -0.271 A  
HETATM   32  C   UNL     1     -10.102  18.501  68.403  1.00  0.00    -0.423 A  
HETATM   33  C   UNL     1     -10.387  19.215  67.245  1.00  0.00    -0.523 A  
BRANCH  31  34
HETATM   34  O   UNL     1     -10.062  15.069  67.252  1.00  0.00    -0.234 OA 
BRANCH  34  35
HETATM   35  C   UNL     1     -10.370  14.528  68.542  1.00  0.00    -0.242 C  
HETATM   36  C   UNL     1     -11.832  14.112  68.667  1.00  0.00    -0.348 C  
HETATM   37  F   UNL     1     -12.510  14.173  67.502  1.00  0.00    -0.370 F  
HETATM   38  F   UNL     1     -11.943  12.850  69.143  1.00  0.00    -0.310 F  
HETATM   39  F   UNL     1     -12.483  14.920  69.548  1.00  0.00    -0.309 F  
ENDBRANCH  34  35
ENDBRANCH  31  34
ENDBRANCH  27  28
ENDBRANCH  26  27
ENDBRANCH  25  26
ENDBRANCH  23  25
ENDBRANCH   2  23
TORSDOF 13
ENDMDL
MODEL       92
REMARK 921   NORMALIZED FREE ENERGY PREDICTED BY IDOCK:   -5.47 KCAL/MOL
REMARK 922        TOTAL FREE ENERGY PREDICTED BY IDOCK:  -12.79 KCAL/MOL
REMARK 923 INTER-LIGAND FREE ENERGY PREDICTED BY IDOCK:  -10.24 KCAL/MOL
REMARK 924 INTRA-LIGAND FREE ENERGY PREDICTED BY IDOCK:   -2.55 KCAL/MOL
REMARK 927      BINDING AFFINITY PREDICTED BY RF-SCORE:    0.00 PKD
ROOT
HETATM    1  C   UNL     1     -13.919   9.003  72.322  1.00  0.00    -0.522 C  
HETATM    2  C   UNL     1     -12.877   8.787  71.217  1.00  0.00    -0.215 C  
ENDROOT
BRANCH   2   3
HETATM    3  C   UNL     1     -11.509   8.338  71.778  1.00  0.00    -0.353 C  
BRANCH   3   4
HETATM    4  C   UNL     1     -10.475   8.098  70.715  1.00  0.00    -0.223 A  
HETATM    5  C   UNL     1     -10.688   7.110  69.748  1.00  0.00    -0.257 A  
HETATM    6  C   UNL     1      -6.547   8.645  68.218  1.00  0.00    -0.061 A  
HETATM    7  C   UNL     1      -9.298   8.832  70.675  1.00  0.00    -0.234 A  
HETATM    8  C   UNL     1      -8.392   8.574  69.655  1.00  0.00    -0.121 A  
HETATM    9  C   UNL     1      -9.774   6.869  68.693  1.00  0.00    -0.136 A  
HETATM   10  C   UNL     1      -8.582   7.600  68.648  1.00  0.00    -0.129 A  
HETATM   11  C   UNL     1      -7.091   9.286  69.490  1.00  0.00    -0.060 A  
HETATM   12  N   UNL     1      -7.484   7.592  67.804  1.00  0.00    -0.105 NA 
BRANCH  12  13
HETATM   13  C   UNL     1      -7.226   6.862  66.579  1.00  0.00    -0.072 C  
BRANCH  13  14
HETATM   14  C   UNL     1      -6.749   7.788  65.458  1.00  0.00    -0.045 C  
BRANCH  14  15
HETATM   15  C   UNL     1      -7.869   8.606  64.829  1.00  0.00    -0.123 C  
HETATM   16  O   UNL     1      -9.127   8.108  65.288  1.00  0.00    -0.395 OA 
HETATM   17  H   UNL     1      -9.826   8.618  64.896  1.00  0.00     0.000 HD 
ENDBRANCH  14  15
ENDBRANCH  13  14
ENDBRANCH  12  13
BRANCH   9  18
HETATM   18  C   UNL     1     -10.210   5.798  67.759  1.00  0.00    -0.192 C  
HETATM   19  N   UNL     1     -11.059   6.184  66.747  1.00  0.00    -0.725 N  
HETATM   20  O   UNL     1      -9.904   4.616  67.877  1.00  0.00    -0.158 OA 
HETATM   21  H2  UNL     1     -11.371   7.149  66.643  1.00  0.00     0.000 HD 
HETATM   22  H1  UNL     1     -11.359   5.449  66.106  1.00  0.00     0.000 HD 
ENDBRANCH   9  18
ENDBRANCH   3   4
ENDBRANCH   2   3
BRANCH   2  23
HETATM   23  N   UNL     1     -12.761  10.034  70.440  1.00  0.00    -0.539 NA 
HETATM   24  H   UNL     1     -13.466  10.063  69.704  1.00  0.00     0.000 HD 
BRANCH  23  25
HETATM   25  C   UNL     1     -12.814  11.258  71.257  1.00  0.00    -0.389 C  
BRANCH  25  26
HETATM   26  C   UNL     1     -12.143  12.485  70.604  1.00  0.00    -0.221 C  
BRANCH  26  27
HETATM   27  O   UNL     1     -12.030  12.359  69.180  1.00  0.00    -0.290 OA 
BRANCH  27  28
HETATM   28  C   UNL     1     -11.538  13.442  68.496  1.00  0.00    -0.333 A  
HETATM   29  C   UNL     1     -11.076  14.478  66.355  1.00  0.00    -0.331 A  
HETATM   30  C   UNL     1     -10.875  14.516  69.115  1.00  0.00    -0.278 A  
HETATM   31  C   UNL     1     -11.635  13.437  67.095  1.00  0.00    -0.358 A  
HETATM   32  C   UNL     1     -10.411  15.533  66.984  1.00  0.00    -0.279 A  
HETATM   33  C   UNL     1     -10.310  15.546  68.370  1.00  0.00    -0.230 A  
BRANCH  31  34
HETATM   34  O   UNL     1     -12.139  12.420  66.326  1.00  0.00    -0.612 OA 
BRANCH  34  35
HETATM   35  C   UNL     1     -12.650  12.779  65.036  1.00  0.00    -0.468 C  
HETATM   36  C   UNL     1     -12.016  11.967  63.911  1.00  0.00    -0.443 C  
HETATM   37  F   UNL     1     -11.230  10.962  64.350  1.00  0.00    -0.320 F  
HETATM   38  F   UNL     1     -12.961  11.430  63.104  1.00  0.00    -0.522 F  
HETATM   39  F   UNL     1     -11.241  12.765  63.127  1.00  0.00    -0.497 F  
ENDBRANCH  34  35
ENDBRANCH  31  34
ENDBRANCH  27  28
ENDBRANCH  26  27
ENDBRANCH  25  26
ENDBRANCH  23  25
ENDBRANCH   2  23
TORSDOF 13
ENDMDL
MODEL       93
REMARK 921   NORMALIZED FREE ENERGY PREDICTED BY IDOCK:   -5.46 KCAL/MOL
REMARK 922        TOTAL FREE ENERGY PREDICTED BY IDOCK:  -12.78 KCAL/MOL
REMARK 923 INTER-LIGAND FREE ENERGY PREDICTED BY IDOCK:  -10.35 KCAL/MOL
REMARK 924 INTRA-LIGAND FREE ENERGY PREDICTED BY IDOCK:   -2.43 KCAL/MOL
REMARK 927      BINDING AFFINITY PREDICTED BY RF-SCORE:    0.00 PKD
ROOT
HETATM    1  C   UNL     1     -13.003  13.893  71.378  1.00  0.00    -0.430 C  
HETATM    2  C   UNL     1     -11.844  13.546  70.436  1.00  0.00    -0.220 C  
ENDROOT
BRANCH   2   3
HETATM    3  C   UNL     1     -11.973  14.241  69.062  1.00  0.00    -0.360 C  
BRANCH   3   4
HETATM    4  C   UNL     1     -10.921  15.285  68.817  1.00  0.00    -0.260 A  
HETATM    5  C   UNL     1      -9.568  14.955  68.953  1.00  0.00    -0.215 A  
HETATM    6  C   UNL     1      -9.030  19.422  67.690  1.00  0.00    -0.304 A  
HETATM    7  C   UNL     1     -11.262  16.584  68.465  1.00  0.00    -0.296 A  
HETATM    8  C   UNL     1     -10.240  17.496  68.235  1.00  0.00    -0.365 A  
HETATM    9  C   UNL     1      -8.529  15.881  68.689  1.00  0.00    -0.200 A  
HETATM   10  C   UNL     1      -8.863  17.194  68.341  1.00  0.00    -0.255 A  
HETATM   11  C   UNL     1     -10.461  18.921  67.851  1.00  0.00    -0.459 A  
HETATM   12  N   UNL     1      -8.122  18.329  68.062  1.00  0.00    -0.262 NA 
BRANCH  12  13
HETATM   13  C   UNL     1      -6.691  18.530  67.940  1.00  0.00    -0.214 C  
BRANCH  13  14
HETATM   14  C   UNL     1      -6.203  19.672  68.834  1.00  0.00    -0.305 C  
BRANCH  14  15
HETATM   15  C   UNL     1      -5.796  19.219  70.229  1.00  0.00    -0.228 C  
HETATM   16  O   UNL     1      -6.037  20.280  71.155  1.00  0.00    -0.501 OA 
HETATM   17  H   UNL     1      -5.784  19.997  72.026  1.00  0.00     0.000 HD 
ENDBRANCH  14  15
ENDBRANCH  13  14
ENDBRANCH  12  13
BRANCH   9  18
HETATM   18  C   UNL     1      -7.167  15.314  68.864  1.00  0.00    -0.137 C  
HETATM   19  N   UNL     1      -6.867  14.833  70.119  1.00  0.00    -0.292 N  
HETATM   20  O   UNL     1      -6.307  15.305  67.991  1.00  0.00    -0.117 OA 
HETATM   21  H2  UNL     1      -7.541  14.864  70.884  1.00  0.00     0.000 HD 
HETATM   22  H1  UNL     1      -5.931  14.444  70.240  1.00  0.00     0.000 HD 
ENDBRANCH   9  18
ENDBRANCH   3   4
ENDBRANCH   2   3
BRANCH   2  23
HETATM   23  N   UNL     1     -11.782  12.079  70.297  1.00  0.00    -0.530 NA 
HETATM   24  H   UNL     1     -12.434  11.632  70.941  1.00  0.00     0.000 HD 
BRANCH  23  25
HETATM   25  C   UNL     1     -11.998  11.597  68.924  1.00  0.00    -0.292 C  
BRANCH  25  26
HETATM   26  C   UNL     1     -10.802  10.823  68.328  1.00  0.00    -0.229 C  
BRANCH  26  27
HETATM   27  O   UNL     1     -10.043  11.609  67.400  1.00  0.00    -0.195 OA 
BRANCH  27  28
HETATM   28  C   UNL     1      -9.569  10.970  66.283  1.00  0.00    -0.201 A  
HETATM   29  C   UNL     1      -9.778  10.578  63.902  1.00  0.00    -0.384 A  
HETATM   30  C   UNL     1      -8.567   9.984  66.318  1.00  0.00    -0.137 A  
HETATM   31  C   UNL     1     -10.173  11.263  65.049  1.00  0.00    -0.284 A  
HETATM   32  C   UNL     1      -8.788   9.593  63.954  1.00  0.00    -0.255 A  
HETATM   33  C   UNL     1      -8.185   9.297  65.171  1.00  0.00    -0.143 A  
BRANCH  31  34
HETATM   34  O   UNL     1     -11.237  12.104  64.853  1.00  0.00    -0.309 OA 
BRANCH  34  35
HETATM   35  C   UNL     1     -10.949  13.393  64.300  1.00  0.00    -0.369 C  
HETATM   36  C   UNL     1     -11.794  14.499  64.924  1.00  0.00    -0.416 C  
HETATM   37  F   UNL     1     -12.522  14.086  65.983  1.00  0.00    -0.427 F  
HETATM   38  F   UNL     1     -11.023  15.533  65.333  1.00  0.00    -0.322 F  
HETATM   39  F   UNL     1     -12.669  15.001  64.011  1.00  0.00    -0.432 F  
ENDBRANCH  34  35
ENDBRANCH  31  34
ENDBRANCH  27  28
ENDBRANCH  26  27
ENDBRANCH  25  26
ENDBRANCH  23  25
ENDBRANCH   2  23
TORSDOF 13
ENDMDL
MODEL       94
REMARK 921   NORMALIZED FREE ENERGY PREDICTED BY IDOCK:   -5.46 KCAL/MOL
REMARK 922        TOTAL FREE ENERGY PREDICTED BY IDOCK:  -12.78 KCAL/MOL
REMARK 923 INTER-LIGAND FREE ENERGY PREDICTED BY IDOCK:  -11.13 KCAL/MOL
REMARK 924 INTRA-LIGAND FREE ENERGY PREDICTED BY IDOCK:   -1.65 KCAL/MOL
REMARK 927      BINDING AFFINITY PREDICTED BY RF-SCORE:    0.00 PKD
ROOT
HETATM    1  C   UNL     1     -12.412  14.283  64.225  1.00  0.00    -0.304 C  
HETATM    2  C   UNL     1     -11.632  14.245  65.546  1.00  0.00    -0.338 C  
ENDROOT
BRANCH   2   3
HETATM    3  C   UNL     1     -10.104  14.329  65.330  1.00  0.00    -0.379 C  
BRANCH   3   4
HETATM    4  C   UNL     1      -9.441  15.396  66.154  1.00  0.00    -0.371 A  
HETATM    5  C   UNL     1      -9.912  16.712  66.098  1.00  0.00    -0.356 A  
HETATM    6  C   UNL     1      -6.491  17.372  69.213  1.00  0.00    -0.245 A  
HETATM    7  C   UNL     1      -8.357  15.107  66.970  1.00  0.00    -0.263 A  
HETATM    8  C   UNL     1      -7.801  16.135  67.721  1.00  0.00    -0.157 A  
HETATM    9  C   UNL     1      -9.360  17.752  66.886  1.00  0.00    -0.272 A  
HETATM   10  C   UNL     1      -8.262  17.472  67.707  1.00  0.00    -0.219 A  
HETATM   11  C   UNL     1      -6.636  15.967  68.638  1.00  0.00    -0.123 A  
HETATM   12  N   UNL     1      -7.478  18.236  68.553  1.00  0.00    -0.280 NA 
BRANCH  12  13
HETATM   13  C   UNL     1      -7.588  19.622  68.965  1.00  0.00    -0.285 C  
BRANCH  13  14
HETATM   14  C   UNL     1      -6.430  20.465  68.426  1.00  0.00    -0.340 C  
BRANCH  14  15
HETATM   15  C   UNL     1      -5.414  20.851  69.492  1.00  0.00    -0.374 C  
HETATM   16  O   UNL     1      -5.986  20.637  70.784  1.00  0.00    -0.555 OA 
HETATM   17  H   UNL     1      -5.352  20.878  71.449  1.00  0.00     0.000 HD 
ENDBRANCH  14  15
ENDBRANCH  13  14
ENDBRANCH  12  13
BRANCH   9  18
HETATM   18  C   UNL     1     -10.030  19.065  66.695  1.00  0.00    -0.374 C  
HETATM   19  N   UNL     1      -9.306  20.023  66.022  1.00  0.00    -0.540 N  
HETATM   20  O   UNL     1     -11.137  19.345  67.142  1.00  0.00    -0.445 OA 
HETATM   21  H2  UNL     1      -8.364  19.842  65.674  1.00  0.00     0.000 HD 
HETATM   22  H1  UNL     1      -9.765  20.925  65.890  1.00  0.00     0.000 HD 
ENDBRANCH   9  18
ENDBRANCH   3   4
ENDBRANCH   2   3
BRANCH   2  23
HETATM   23  N   UNL     1     -12.010  13.019  66.272  1.00  0.00    -0.410 NA 
HETATM   24  H   UNL     1     -11.904  12.201  65.673  1.00  0.00     0.000 HD 
BRANCH  23  25
HETATM   25  C   UNL     1     -11.289  12.827  67.541  1.00  0.00    -0.312 C  
BRANCH  25  26
HETATM   26  C   UNL     1     -11.891  11.737  68.454  1.00  0.00    -0.282 C  
BRANCH  26  27
HETATM   27  O   UNL     1     -11.432  11.837  69.808  1.00  0.00    -0.280 OA 
BRANCH  27  28
HETATM   28  C   UNL     1     -11.762  10.809  70.655  1.00  0.00    -0.342 A  
HETATM   29  C   UNL     1     -11.204   8.627  71.546  1.00  0.00    -0.360 A  
HETATM   30  C   UNL     1     -12.975  10.745  71.363  1.00  0.00    -0.535 A  
HETATM   31  C   UNL     1     -10.871   9.729  70.760  1.00  0.00    -0.333 A  
HETATM   32  C   UNL     1     -12.418   8.572  72.235  1.00  0.00    -0.448 A  
HETATM   33  C   UNL     1     -13.305   9.638  72.138  1.00  0.00    -0.545 A  
BRANCH  31  34
HETATM   34  O   UNL     1      -9.708   9.573  70.053  1.00  0.00    -0.204 OA 
BRANCH  34  35
HETATM   35  C   UNL     1      -9.695   8.552  69.047  1.00  0.00    -0.170 C  
HETATM   36  C   UNL     1      -9.352   9.098  67.665  1.00  0.00    -0.135 C  
HETATM   37  F   UNL     1      -8.964  10.391  67.679  1.00  0.00    -0.134 F  
HETATM   38  F   UNL     1      -8.364   8.378  67.085  1.00  0.00    -0.116 F  
HETATM   39  F   UNL     1     -10.431   9.016  66.840  1.00  0.00    -0.303 F  
ENDBRANCH  34  35
ENDBRANCH  31  34
ENDBRANCH  27  28
ENDBRANCH  26  27
ENDBRANCH  25  26
ENDBRANCH  23  25
ENDBRANCH   2  23
TORSDOF 13
ENDMDL
MODEL       95
REMARK 921   NORMALIZED FREE ENERGY PREDICTED BY IDOCK:   -5.46 KCAL/MOL
REMARK 922        TOTAL FREE ENERGY PREDICTED BY IDOCK:  -12.77 KCAL/MOL
REMARK 923 INTER-LIGAND FREE ENERGY PREDICTED BY IDOCK:  -10.92 KCAL/MOL
REMARK 924 INTRA-LIGAND FREE ENERGY PREDICTED BY IDOCK:   -1.85 KCAL/MOL
REMARK 927      BINDING AFFINITY PREDICTED BY RF-SCORE:    0.00 PKD
ROOT
HETATM    1  C   UNL     1     -10.308   9.160  71.470  1.00  0.00    -0.414 C  
HETATM    2  C   UNL     1     -11.815   8.880  71.426  1.00  0.00    -0.317 C  
ENDROOT
BRANCH   2   3
HETATM    3  C   UNL     1     -12.657  10.173  71.527  1.00  0.00    -0.537 C  
BRANCH   3   4
HETATM    4  C   UNL     1     -12.331  11.184  70.464  1.00  0.00    -0.454 A  
HETATM    5  C   UNL     1     -12.411  12.550  70.756  1.00  0.00    -0.376 A  
HETATM    6  C   UNL     1     -10.993  12.907  66.317  1.00  0.00    -0.281 A  
HETATM    7  C   UNL     1     -11.958  10.792  69.186  1.00  0.00    -0.302 A  
HETATM    8  C   UNL     1     -11.652  11.776  68.256  1.00  0.00    -0.373 A  
HETATM    9  C   UNL     1     -12.070  13.550  69.811  1.00  0.00    -0.381 A  
HETATM   10  C   UNL     1     -11.700  13.165  68.519  1.00  0.00    -0.352 A  
HETATM   11  C   UNL     1     -11.237  11.499  66.849  1.00  0.00    -0.363 A  
HETATM   12  N   UNL     1     -11.353  13.861  67.374  1.00  0.00    -0.311 NA 
BRANCH  12  13
HETATM   13  C   UNL     1     -11.156  15.278  67.141  1.00  0.00    -0.323 C  
BRANCH  13  14
HETATM   14  C   UNL     1     -10.546  15.545  65.762  1.00  0.00    -0.370 C  
BRANCH  14  15
HETATM   15  C   UNL     1     -11.504  16.226  64.796  1.00  0.00    -0.121 C  
HETATM   16  O   UNL     1     -11.974  15.266  63.848  1.00  0.00    -0.920 OA 
HETATM   17  H   UNL     1     -12.573  15.691  63.245  1.00  0.00     0.000 HD 
ENDBRANCH  14  15
ENDBRANCH  13  14
ENDBRANCH  12  13
BRANCH   9  18
HETATM   18  C   UNL     1     -12.196  14.934  70.338  1.00  0.00    -0.336 C  
HETATM   19  N   UNL     1     -11.016  15.599  70.585  1.00  0.00    -0.339 N  
HETATM   20  O   UNL     1     -13.264  15.474  70.606  1.00  0.00    -0.432 OA 
HETATM   21  H2  UNL     1     -10.108  15.166  70.417  1.00  0.00     0.000 HD 
HETATM   22  H1  UNL     1     -11.103  16.549  70.947  1.00  0.00     0.000 HD 
ENDBRANCH   9  18
ENDBRANCH   3   4
ENDBRANCH   2   3
BRANCH   2  23
HETATM   23  N   UNL     1     -12.143   7.934  72.508  1.00  0.00    -0.549 NA 
HETATM   24  H   UNL     1     -12.641   7.125  72.136  1.00  0.00     0.000 HD 
BRANCH  23  25
HETATM   25  C   UNL     1     -10.981   7.506  73.304  1.00  0.00    -0.309 C  
BRANCH  25  26
HETATM   26  C   UNL     1     -10.789   5.976  73.372  1.00  0.00    -0.231 C  
BRANCH  26  27
HETATM   27  O   UNL     1     -11.097   5.326  72.132  1.00  0.00    -0.207 OA 
BRANCH  27  28
HETATM   28  C   UNL     1     -10.142   4.489  71.612  1.00  0.00    -0.179 A  
HETATM   29  C   UNL     1      -8.318   4.181  70.048  1.00  0.00    -0.079 A  
HETATM   30  C   UNL     1     -10.056   3.121  71.922  1.00  0.00    -0.152 A  
HETATM   31  C   UNL     1      -9.252   5.015  70.661  1.00  0.00    -0.147 A  
HETATM   32  C   UNL     1      -8.252   2.821  70.359  1.00  0.00    -0.068 A  
HETATM   33  C   UNL     1      -9.129   2.293  71.299  1.00  0.00    -0.165 A  
BRANCH  31  34
HETATM   34  O   UNL     1      -9.272   6.289  70.157  1.00  0.00    -0.154 OA 
BRANCH  34  35
HETATM   35  C   UNL     1      -9.335   6.418  68.731  1.00  0.00    -0.125 C  
HETATM   36  C   UNL     1     -10.764   6.363  68.202  1.00  0.00    -0.291 C  
HETATM   37  F   UNL     1     -11.698   6.374  69.177  1.00  0.00    -0.420 F  
HETATM   38  F   UNL     1     -11.020   7.402  67.375  1.00  0.00    -0.331 F  
HETATM   39  F   UNL     1     -10.959   5.228  67.477  1.00  0.00    -0.213 F  
ENDBRANCH  34  35
ENDBRANCH  31  34
ENDBRANCH  27  28
ENDBRANCH  26  27
ENDBRANCH  25  26
ENDBRANCH  23  25
ENDBRANCH   2  23
TORSDOF 13
ENDMDL
MODEL       96
REMARK 921   NORMALIZED FREE ENERGY PREDICTED BY IDOCK:   -5.45 KCAL/MOL
REMARK 922        TOTAL FREE ENERGY PREDICTED BY IDOCK:  -12.76 KCAL/MOL
REMARK 923 INTER-LIGAND FREE ENERGY PREDICTED BY IDOCK:  -10.47 KCAL/MOL
REMARK 924 INTRA-LIGAND FREE ENERGY PREDICTED BY IDOCK:   -2.29 KCAL/MOL
REMARK 927      BINDING AFFINITY PREDICTED BY RF-SCORE:    0.00 PKD
ROOT
HETATM    1  C   UNL     1      -7.292   8.185  66.443  1.00  0.00    -0.080 C  
HETATM    2  C   UNL     1      -8.217   8.042  65.228  1.00  0.00    -0.146 C  
ENDROOT
BRANCH   2   3
HETATM    3  C   UNL     1      -8.176   9.283  64.308  1.00  0.00    -0.153 C  
BRANCH   3   4
HETATM    4  C   UNL     1      -9.011  10.427  64.807  1.00  0.00    -0.228 A  
HETATM    5  C   UNL     1      -8.568  11.189  65.894  1.00  0.00    -0.135 A  
HETATM    6  C   UNL     1     -12.543  13.498  65.048  1.00  0.00    -0.391 A  
HETATM    7  C   UNL     1     -10.226  10.745  64.217  1.00  0.00    -0.422 A  
HETATM    8  C   UNL     1     -10.940  11.827  64.714  1.00  0.00    -0.360 A  
HETATM    9  C   UNL     1      -9.287  12.310  66.380  1.00  0.00    -0.219 A  
HETATM   10  C   UNL     1     -10.516  12.633  65.795  1.00  0.00    -0.277 A  
HETATM   11  C   UNL     1     -12.257  12.279  64.177  1.00  0.00    -0.539 A  
HETATM   12  N   UNL     1     -11.467  13.608  66.042  1.00  0.00    -0.317 NA 
BRANCH  12  13
HETATM   13  C   UNL     1     -11.471  14.727  66.963  1.00  0.00    -0.353 C  
BRANCH  13  14
HETATM   14  C   UNL     1     -10.627  15.892  66.441  1.00  0.00    -0.298 C  
BRANCH  14  15
HETATM   15  C   UNL     1     -10.990  16.318  65.025  1.00  0.00    -0.298 C  
HETATM   16  O   UNL     1     -10.965  17.744  64.944  1.00  0.00    -0.866 OA 
HETATM   17  H   UNL     1     -11.192  18.010  64.060  1.00  0.00     0.000 HD 
ENDBRANCH  14  15
ENDBRANCH  13  14
ENDBRANCH  12  13
BRANCH   9  18
HETATM   18  C   UNL     1      -8.623  12.995  67.520  1.00  0.00    -0.192 C  
HETATM   19  N   UNL     1      -7.466  13.681  67.225  1.00  0.00    -0.352 N  
HETATM   20  O   UNL     1      -9.012  12.933  68.680  1.00  0.00    -0.093 OA 
HETATM   21  H2  UNL     1      -7.087  13.717  66.279  1.00  0.00     0.000 HD 
HETATM   22  H1  UNL     1      -7.010  14.151  68.007  1.00  0.00     0.000 HD 
ENDBRANCH   9  18
ENDBRANCH   3   4
ENDBRANCH   2   3
BRANCH   2  23
HETATM   23  N   UNL     1      -9.583   7.773  65.715  1.00  0.00    -0.389 NA 
HETATM   24  H   UNL     1     -10.183   7.474  64.947  1.00  0.00     0.000 HD 
BRANCH  23  25
HETATM   25  C   UNL     1      -9.645   6.808  66.825  1.00  0.00    -0.166 C  
BRANCH  25  26
HETATM   26  C   UNL     1     -10.599   7.217  67.967  1.00  0.00    -0.196 C  
BRANCH  26  27
HETATM   27  O   UNL     1      -9.970   8.069  68.933  1.00  0.00    -0.183 OA 
BRANCH  27  28
HETATM   28  C   UNL     1     -10.686   9.156  69.366  1.00  0.00    -0.198 A  
HETATM   29  C   UNL     1     -11.752  10.306  71.212  1.00  0.00    -0.378 A  
HETATM   30  C   UNL     1     -11.225  10.126  68.502  1.00  0.00    -0.226 A  
HETATM   31  C   UNL     1     -10.959   9.262  70.739  1.00  0.00    -0.284 A  
HETATM   32  C   UNL     1     -12.289  11.256  70.340  1.00  0.00    -0.415 A  
HETATM   33  C   UNL     1     -12.024  11.159  68.979  1.00  0.00    -0.389 A  
BRANCH  31  34
HETATM   34  O   UNL     1     -10.616   8.348  71.702  1.00  0.00    -0.224 OA 
BRANCH  34  35
HETATM   35  C   UNL     1     -11.678   7.840  72.518  1.00  0.00    -0.339 C  
HETATM   36  C   UNL     1     -12.392   6.655  71.878  1.00  0.00    -0.318 C  
HETATM   37  F   UNL     1     -11.787   6.205  70.758  1.00  0.00    -0.391 F  
HETATM   38  F   UNL     1     -12.485   5.616  72.741  1.00  0.00    -0.240 F  
HETATM   39  F   UNL     1     -13.664   6.993  71.536  1.00  0.00    -0.418 F  
ENDBRANCH  34  35
ENDBRANCH  31  34
ENDBRANCH  27  28
ENDBRANCH  26  27
ENDBRANCH  25  26
ENDBRANCH  23  25
ENDBRANCH   2  23
TORSDOF 13
ENDMDL
MODEL       97
REMARK 921   NORMALIZED FREE ENERGY PREDICTED BY IDOCK:   -5.45 KCAL/MOL
REMARK 922        TOTAL FREE ENERGY PREDICTED BY IDOCK:  -12.75 KCAL/MOL
REMARK 923 INTER-LIGAND FREE ENERGY PREDICTED BY IDOCK:   -9.24 KCAL/MOL
REMARK 924 INTRA-LIGAND FREE ENERGY PREDICTED BY IDOCK:   -3.51 KCAL/MOL
REMARK 927      BINDING AFFINITY PREDICTED BY RF-SCORE:    0.00 PKD
ROOT
HETATM    1  C   UNL     1     -12.537  12.941  64.802  1.00  0.00    -0.493 C  
HETATM    2  C   UNL     1     -11.876  14.076  65.595  1.00  0.00    -0.377 C  
ENDROOT
BRANCH   2   3
HETATM    3  C   UNL     1     -10.629  14.645  64.880  1.00  0.00    -0.446 C  
BRANCH   3   4
HETATM    4  C   UNL     1     -10.087  15.890  65.522  1.00  0.00    -0.353 A  
HETATM    5  C   UNL     1      -8.808  15.880  66.089  1.00  0.00    -0.363 A  
HETATM    6  C   UNL     1      -9.878  20.345  66.962  1.00  0.00    -0.453 A  
HETATM    7  C   UNL     1     -10.834  17.058  65.576  1.00  0.00    -0.073 A  
HETATM    8  C   UNL     1     -10.267  18.180  66.167  1.00  0.00    -0.372 A  
HETATM    9  C   UNL     1      -8.222  17.035  66.665  1.00  0.00    -0.295 A  
HETATM   10  C   UNL     1      -8.971  18.215  66.730  1.00  0.00    -0.282 A  
HETATM   11  C   UNL     1     -10.955  19.498  66.292  1.00  0.00    -0.297 A  
HETATM   12  N   UNL     1      -8.728  19.476  67.245  1.00  0.00    -0.291 NA 
BRANCH  12  13
HETATM   13  C   UNL     1      -7.537  20.055  67.833  1.00  0.00    -0.290 C  
BRANCH  13  14
HETATM   14  C   UNL     1      -6.787  20.941  66.836  1.00  0.00    -0.375 C  
BRANCH  14  15
HETATM   15  C   UNL     1      -5.965  20.155  65.825  1.00  0.00    -0.183 C  
HETATM   16  O   UNL     1      -6.793  19.811  64.713  1.00  0.00    -0.353 OA 
HETATM   17  H   UNL     1      -6.279  19.320  64.082  1.00  0.00     0.000 HD 
ENDBRANCH  14  15
ENDBRANCH  13  14
ENDBRANCH  12  13
BRANCH   9  18
HETATM   18  C   UNL     1      -6.846  16.811  67.180  1.00  0.00    -0.196 C  
HETATM   19  N   UNL     1      -6.614  17.200  68.480  1.00  0.00    -0.161 N  
HETATM   20  O   UNL     1      -5.924  16.365  66.507  1.00  0.00    -0.266 OA 
HETATM   21  H2  UNL     1      -7.344  17.617  69.057  1.00  0.00     0.000 HD 
HETATM   22  H1  UNL     1      -5.669  17.047  68.834  1.00  0.00     0.000 HD 
ENDBRANCH   9  18
ENDBRANCH   3   4
ENDBRANCH   2   3
BRANCH   2  23
HETATM   23  N   UNL     1     -11.546  13.571  66.940  1.00  0.00    -0.344 NA 
HETATM   24  H   UNL     1     -12.183  13.961  67.634  1.00  0.00     0.000 HD 
BRANCH  23  25
HETATM   25  C   UNL     1     -11.511  12.102  67.037  1.00  0.00    -0.350 C  
BRANCH  25  26
HETATM   26  C   UNL     1     -10.107  11.517  67.303  1.00  0.00    -0.199 C  
BRANCH  26  27
HETATM   27  O   UNL     1      -9.057  12.370  66.828  1.00  0.00    -0.205 OA 
BRANCH  27  28
HETATM   28  C   UNL     1      -8.075  12.707  67.725  1.00  0.00    -0.166 A  
HETATM   29  C   UNL     1      -7.361  14.143  69.540  1.00  0.00     0.097 A  
HETATM   30  C   UNL     1      -6.782  12.156  67.705  1.00  0.00    -0.118 A  
HETATM   31  C   UNL     1      -8.356  13.713  68.664  1.00  0.00    -0.043 A  
HETATM   32  C   UNL     1      -6.078  13.593  69.502  1.00  0.00    -0.114 A  
HETATM   33  C   UNL     1      -5.791  12.597  68.576  1.00  0.00    -0.060 A  
BRANCH  31  34
HETATM   34  O   UNL     1      -9.517  14.437  68.745  1.00  0.00    -0.205 OA 
BRANCH  34  35
HETATM   35  C   UNL     1      -9.587  15.431  69.775  1.00  0.00    -0.181 C  
HETATM   36  C   UNL     1     -10.841  16.292  69.671  1.00  0.00    -0.345 C  
HETATM   37  F   UNL     1     -11.720  15.852  68.746  1.00  0.00    -0.346 F  
HETATM   38  F   UNL     1     -11.490  16.357  70.857  1.00  0.00    -0.399 F  
HETATM   39  F   UNL     1     -10.515  17.569  69.334  1.00  0.00    -0.344 F  
ENDBRANCH  34  35
ENDBRANCH  31  34
ENDBRANCH  27  28
ENDBRANCH  26  27
ENDBRANCH  25  26
ENDBRANCH  23  25
ENDBRANCH   2  23
TORSDOF 13
ENDMDL
MODEL       98
REMARK 921   NORMALIZED FREE ENERGY PREDICTED BY IDOCK:   -5.44 KCAL/MOL
REMARK 922        TOTAL FREE ENERGY PREDICTED BY IDOCK:  -12.75 KCAL/MOL
REMARK 923 INTER-LIGAND FREE ENERGY PREDICTED BY IDOCK:  -11.48 KCAL/MOL
REMARK 924 INTRA-LIGAND FREE ENERGY PREDICTED BY IDOCK:   -1.27 KCAL/MOL
REMARK 927      BINDING AFFINITY PREDICTED BY RF-SCORE:    0.00 PKD
ROOT
HETATM    1  C   UNL     1     -12.190  15.008  73.497  1.00  0.00    -0.554 C  
HETATM    2  C   UNL     1     -12.333  15.031  71.970  1.00  0.00    -0.347 C  
ENDROOT
BRANCH   2   3
HETATM    3  C   UNL     1     -13.426  14.061  71.467  1.00  0.00    -0.404 C  
BRANCH   3   4
HETATM    4  C   UNL     1     -12.916  12.675  71.190  1.00  0.00    -0.239 A  
HETATM    5  C   UNL     1     -12.068  12.451  70.099  1.00  0.00    -0.366 A  
HETATM    6  C   UNL     1     -12.201   8.076  71.738  1.00  0.00    -0.316 A  
HETATM    7  C   UNL     1     -13.276  11.601  71.990  1.00  0.00    -0.443 A  
HETATM    8  C   UNL     1     -12.754  10.349  71.691  1.00  0.00    -0.560 A  
HETATM    9  C   UNL     1     -11.515  11.178  69.815  1.00  0.00    -0.388 A  
HETATM   10  C   UNL     1     -11.878  10.087  70.612  1.00  0.00    -0.325 A  
HETATM   11  C   UNL     1     -13.055   9.109  72.466  1.00  0.00    -0.445 A  
HETATM   12  N   UNL     1     -11.565   8.739  70.592  1.00  0.00    -0.247 NA 
BRANCH  12  13
HETATM   13  C   UNL     1     -10.647   7.984  69.762  1.00  0.00    -0.238 C  
BRANCH  13  14
HETATM   14  C   UNL     1      -9.413   7.536  70.548  1.00  0.00    -0.164 C  
BRANCH  14  15
HETATM   15  C   UNL     1      -8.508   8.687  70.965  1.00  0.00    -0.164 C  
HETATM   16  O   UNL     1      -8.771   9.018  72.329  1.00  0.00    -0.367 OA 
HETATM   17  H   UNL     1      -8.206   9.736  72.589  1.00  0.00     0.000 HD 
ENDBRANCH  14  15
ENDBRANCH  13  14
ENDBRANCH  12  13
BRANCH   9  18
HETATM   18  C   UNL     1     -10.617  11.169  68.631  1.00  0.00    -0.193 C  
HETATM   19  N   UNL     1     -11.166  10.707  67.456  1.00  0.00    -0.305 N  
HETATM   20  O   UNL     1      -9.434  11.490  68.662  1.00  0.00    -0.188 OA 
HETATM   21  H2  UNL     1     -12.133  10.389  67.401  1.00  0.00     0.000 HD 
HETATM   22  H1  UNL     1     -10.549  10.700  66.643  1.00  0.00     0.000 HD 
ENDBRANCH   9  18
ENDBRANCH   3   4
ENDBRANCH   2   3
BRANCH   2  23
HETATM   23  N   UNL     1     -11.020  14.724  71.376  1.00  0.00    -0.438 NA 
HETATM   24  H   UNL     1     -11.024  13.792  70.961  1.00  0.00     0.000 HD 
BRANCH  23  25
HETATM   25  C   UNL     1     -10.555  15.722  70.400  1.00  0.00    -0.229 C  
BRANCH  25  26
HETATM   26  C   UNL     1     -11.545  15.991  69.246  1.00  0.00    -0.331 C  
BRANCH  26  27
HETATM   27  O   UNL     1     -11.234  17.187  68.520  1.00  0.00    -0.202 OA 
BRANCH  27  28
HETATM   28  C   UNL     1     -10.059  17.199  67.813  1.00  0.00    -0.306 A  
HETATM   29  C   UNL     1      -8.732  16.246  66.024  1.00  0.00    -0.285 A  
HETATM   30  C   UNL     1      -8.946  17.981  68.169  1.00  0.00    -0.287 A  
HETATM   31  C   UNL     1      -9.937  16.325  66.720  1.00  0.00    -0.261 A  
HETATM   32  C   UNL     1      -7.632  17.022  66.396  1.00  0.00    -0.350 A  
HETATM   33  C   UNL     1      -7.744  17.890  67.476  1.00  0.00    -0.217 A  
BRANCH  31  34
HETATM   34  O   UNL     1     -10.874  15.412  66.311  1.00  0.00    -0.313 OA 
BRANCH  34  35
HETATM   35  C   UNL     1     -10.549  14.627  65.157  1.00  0.00    -0.421 C  
HETATM   36  C   UNL     1     -11.723  13.780  64.677  1.00  0.00    -0.395 C  
HETATM   37  F   UNL     1     -12.880  14.055  65.316  1.00  0.00    -0.475 F  
HETATM   38  F   UNL     1     -11.936  13.946  63.351  1.00  0.00    -0.387 F  
HETATM   39  F   UNL     1     -11.467  12.458  64.870  1.00  0.00    -0.333 F  
ENDBRANCH  34  35
ENDBRANCH  31  34
ENDBRANCH  27  28
ENDBRANCH  26  27
ENDBRANCH  25  26
ENDBRANCH  23  25
ENDBRANCH   2  23
TORSDOF 13
ENDMDL
MODEL       99
REMARK 921   NORMALIZED FREE ENERGY PREDICTED BY IDOCK:   -5.44 KCAL/MOL
REMARK 922        TOTAL FREE ENERGY PREDICTED BY IDOCK:  -12.75 KCAL/MOL
REMARK 923 INTER-LIGAND FREE ENERGY PREDICTED BY IDOCK:  -10.99 KCAL/MOL
REMARK 924 INTRA-LIGAND FREE ENERGY PREDICTED BY IDOCK:   -1.76 KCAL/MOL
REMARK 927      BINDING AFFINITY PREDICTED BY RF-SCORE:    0.00 PKD
ROOT
HETATM    1  C   UNL     1     -12.511  13.988  65.931  1.00  0.00    -0.513 C  
HETATM    2  C   UNL     1     -11.765  13.402  67.136  1.00  0.00    -0.379 C  
ENDROOT
BRANCH   2   3
HETATM    3  C   UNL     1     -11.822  14.328  68.372  1.00  0.00    -0.373 C  
BRANCH   3   4
HETATM    4  C   UNL     1     -10.746  15.376  68.385  1.00  0.00    -0.256 A  
HETATM    5  C   UNL     1     -11.010  16.652  67.874  1.00  0.00    -0.276 A  
HETATM    6  C   UNL     1      -6.587  17.377  69.197  1.00  0.00    -0.246 A  
HETATM    7  C   UNL     1      -9.481  15.104  68.888  1.00  0.00    -0.213 A  
HETATM    8  C   UNL     1      -8.537  16.122  68.888  1.00  0.00    -0.245 A  
HETATM    9  C   UNL     1     -10.052  17.696  67.903  1.00  0.00    -0.345 A  
HETATM   10  C   UNL     1      -8.773  17.429  68.401  1.00  0.00    -0.271 A  
HETATM   11  C   UNL     1      -7.142  15.971  69.397  1.00  0.00    -0.217 A  
HETATM   12  N   UNL     1      -7.620  18.183  68.535  1.00  0.00    -0.282 NA 
BRANCH  12  13
HETATM   13  C   UNL     1      -7.363  19.587  68.282  1.00  0.00    -0.311 C  
BRANCH  13  14
HETATM   14  C   UNL     1      -6.444  19.784  67.074  1.00  0.00    -0.208 C  
BRANCH  14  15
HETATM   15  C   UNL     1      -7.173  19.712  65.739  1.00  0.00    -0.310 C  
HETATM   16  O   UNL     1      -7.158  18.363  65.270  1.00  0.00    -0.530 OA 
HETATM   17  H   UNL     1      -7.613  18.317  64.437  1.00  0.00     0.000 HD 
ENDBRANCH  14  15
ENDBRANCH  13  14
ENDBRANCH  12  13
BRANCH   9  18
HETATM   18  C   UNL     1     -10.550  18.977  67.338  1.00  0.00    -0.474 C  
HETATM   19  N   UNL     1     -10.609  19.052  65.964  1.00  0.00    -0.458 N  
HETATM   20  O   UNL     1     -10.848  19.956  68.012  1.00  0.00    -0.261 OA 
HETATM   21  H2  UNL     1     -10.327  18.274  65.369  1.00  0.00     0.000 HD 
HETATM   22  H1  UNL     1     -10.951  19.932  65.576  1.00  0.00     0.000 HD 
ENDBRANCH   9  18
ENDBRANCH   3   4
ENDBRANCH   2   3
BRANCH   2  23
HETATM   23  N   UNL     1     -10.376  13.123  66.731  1.00  0.00    -0.250 NA 
HETATM   24  H   UNL     1      -9.732  13.757  67.202  1.00  0.00     0.000 HD 
BRANCH  23  25
HETATM   25  C   UNL     1      -9.962  11.724  66.931  1.00  0.00    -0.199 C  
BRANCH  25  26
HETATM   26  C   UNL     1      -9.707  11.343  68.405  1.00  0.00    -0.203 C  
BRANCH  26  27
HETATM   27  O   UNL     1     -10.288  10.080  68.757  1.00  0.00    -0.180 OA 
BRANCH  27  28
HETATM   28  C   UNL     1     -11.131  10.061  69.839  1.00  0.00    -0.288 A  
HETATM   29  C   UNL     1     -12.229   8.757  71.560  1.00  0.00    -0.382 A  
HETATM   30  C   UNL     1     -11.871  11.177  70.267  1.00  0.00    -0.455 A  
HETATM   31  C   UNL     1     -11.320   8.840  70.506  1.00  0.00    -0.227 A  
HETATM   32  C   UNL     1     -12.965   9.873  71.967  1.00  0.00    -0.518 A  
HETATM   33  C   UNL     1     -12.784  11.085  71.312  1.00  0.00    -0.537 A  
BRANCH  31  34
HETATM   34  O   UNL     1     -10.775   7.634  70.150  1.00  0.00    -0.233 OA 
BRANCH  34  35
HETATM   35  C   UNL     1     -11.501   6.459  70.532  1.00  0.00    -0.379 C  
HETATM   36  C   UNL     1     -10.803   5.675  71.638  1.00  0.00    -0.237 C  
HETATM   37  F   UNL     1      -9.737   6.317  72.161  1.00  0.00    -0.155 F  
HETATM   38  F   UNL     1     -11.655   5.398  72.653  1.00  0.00    -0.320 F  
HETATM   39  F   UNL     1     -10.357   4.480  71.166  1.00  0.00    -0.258 F  
ENDBRANCH  34  35
ENDBRANCH  31  34
ENDBRANCH  27  28
ENDBRANCH  26  27
ENDBRANCH  25  26
ENDBRANCH  23  25
ENDBRANCH   2  23
TORSDOF 13
ENDMDL
MODEL      100
REMARK 921   NORMALIZED FREE ENERGY PREDICTED BY IDOCK:   -5.43 KCAL/MOL
REMARK 922        TOTAL FREE ENERGY PREDICTED BY IDOCK:  -12.72 KCAL/MOL
REMARK 923 INTER-LIGAND FREE ENERGY PREDICTED BY IDOCK:  -10.16 KCAL/MOL
REMARK 924 INTRA-LIGAND FREE ENERGY PREDICTED BY IDOCK:   -2.56 KCAL/MOL
REMARK 927      BINDING AFFINITY PREDICTED BY RF-SCORE:    0.00 PKD
ROOT
HETATM    1  C   UNL     1      -8.569  10.600  62.563  1.00  0.00    -0.276 C  
HETATM    2  C   UNL     1      -8.954  10.338  64.025  1.00  0.00    -0.237 C  
ENDROOT
BRANCH   2   3
HETATM    3  C   UNL     1      -8.609   8.901  64.476  1.00  0.00    -0.155 C  
BRANCH   3   4
HETATM    4  C   UNL     1      -8.660   8.712  65.966  1.00  0.00    -0.173 A  
HETATM    5  C   UNL     1      -9.453   7.697  66.512  1.00  0.00    -0.250 A  
HETATM    6  C   UNL     1      -7.697   9.379  70.503  1.00  0.00    -0.161 A  
HETATM    7  C   UNL     1      -7.939   9.533  66.822  1.00  0.00    -0.109 A  
HETATM    8  C   UNL     1      -8.014   9.293  68.187  1.00  0.00    -0.099 A  
HETATM    9  C   UNL     1      -9.505   7.439  67.904  1.00  0.00    -0.150 A  
HETATM   10  C   UNL     1      -8.787   8.265  68.775  1.00  0.00    -0.137 A  
HETATM   11  C   UNL     1      -7.293  10.095  69.219  1.00  0.00    -0.098 A  
HETATM   12  N   UNL     1      -8.649   8.318  70.151  1.00  0.00    -0.126 NA 
BRANCH  12  13
HETATM   13  C   UNL     1      -9.147   7.443  71.195  1.00  0.00    -0.148 C  
BRANCH  13  14
HETATM   14  C   UNL     1     -10.469   7.951  71.775  1.00  0.00    -0.272 C  
BRANCH  14  15
HETATM   15  C   UNL     1     -11.362   6.840  72.311  1.00  0.00    -0.273 C  
HETATM   16  O   UNL     1     -11.127   6.686  73.712  1.00  0.00    -0.454 OA 
HETATM   17  H   UNL     1     -11.684   5.993  74.047  1.00  0.00     0.000 HD 
ENDBRANCH  14  15
ENDBRANCH  13  14
ENDBRANCH  12  13
BRANCH   9  18
HETATM   18  C   UNL     1     -10.385   6.297  68.266  1.00  0.00    -0.194 C  
HETATM   19  N   UNL     1     -11.654   6.621  68.693  1.00  0.00    -0.499 N  
HETATM   20  O   UNL     1     -10.030   5.124  68.256  1.00  0.00    -0.152 OA 
HETATM   21  H2  UNL     1     -11.970   7.588  68.757  1.00  0.00     0.000 HD 
HETATM   22  H1  UNL     1     -12.258   5.837  68.942  1.00  0.00     0.000 HD 
ENDBRANCH   9  18
ENDBRANCH   3   4
ENDBRANCH   2   3
BRANCH   2  23
HETATM   23  N   UNL     1     -10.390  10.627  64.186  1.00  0.00    -0.424 NA 
HETATM   24  H   UNL     1     -10.661  10.561  65.167  1.00  0.00     0.000 HD 
BRANCH  23  25
HETATM   25  C   UNL     1     -10.809  11.920  63.620  1.00  0.00    -0.444 C  
BRANCH  25  26
HETATM   26  C   UNL     1     -12.337  12.077  63.460  1.00  0.00    -0.551 C  
BRANCH  26  27
HETATM   27  O   UNL     1     -12.932  12.805  64.543  1.00  0.00    -0.730 OA 
BRANCH  27  28
HETATM   28  C   UNL     1     -12.139  13.719  65.190  1.00  0.00    -0.399 A  
HETATM   29  C   UNL     1     -11.051  14.399  67.244  1.00  0.00    -0.318 A  
HETATM   30  C   UNL     1     -11.725  14.933  64.614  1.00  0.00    -0.406 A  
HETATM   31  C   UNL     1     -11.787  13.459  66.524  1.00  0.00    -0.396 A  
HETATM   32  C   UNL     1     -10.656  15.606  66.662  1.00  0.00    -0.307 A  
HETATM   33  C   UNL     1     -11.000  15.871  65.342  1.00  0.00    -0.293 A  
BRANCH  31  34
HETATM   34  O   UNL     1     -12.202  12.390  67.274  1.00  0.00    -0.478 OA 
BRANCH  34  35
HETATM   35  C   UNL     1     -11.870  12.409  68.667  1.00  0.00    -0.302 C  
HETATM   36  C   UNL     1     -11.716  11.009  69.251  1.00  0.00    -0.326 C  
HETATM   37  F   UNL     1     -11.753  10.032  68.320  1.00  0.00    -0.196 F  
HETATM   38  F   UNL     1     -10.552  10.887  69.930  1.00  0.00    -0.257 F  
HETATM   39  F   UNL     1     -12.715  10.751  70.138  1.00  0.00    -0.370 F  
ENDBRANCH  34  35
ENDBRANCH  31  34
ENDBRANCH  27  28
ENDBRANCH  26  27
ENDBRANCH  25  26
ENDBRANCH  23  25
ENDBRANCH   2  23
TORSDOF 13
ENDMDL
MODEL      101
REMARK 921   NORMALIZED FREE ENERGY PREDICTED BY IDOCK:   -5.42 KCAL/MOL
REMARK 922        TOTAL FREE ENERGY PREDICTED BY IDOCK:  -12.71 KCAL/MOL
REMARK 923 INTER-LIGAND FREE ENERGY PREDICTED BY IDOCK:  -10.37 KCAL/MOL
REMARK 924 INTRA-LIGAND FREE ENERGY PREDICTED BY IDOCK:   -2.34 KCAL/MOL
REMARK 927      BINDING AFFINITY PREDICTED BY RF-SCORE:    0.00 PKD
ROOT
HETATM    1  C   UNL     1      -9.274   9.657  64.619  1.00  0.00    -0.293 C  
HETATM    2  C   UNL     1      -9.815   9.271  66.002  1.00  0.00    -0.293 C  
ENDROOT
BRANCH   2   3
HETATM    3  C   UNL     1      -9.041   9.957  67.150  1.00  0.00    -0.154 C  
BRANCH   3   4
HETATM    4  C   UNL     1      -9.653  11.256  67.592  1.00  0.00    -0.180 A  
HETATM    5  C   UNL     1      -9.305  12.445  66.943  1.00  0.00    -0.213 A  
HETATM    6  C   UNL     1     -12.354  14.233  70.000  1.00  0.00    -0.346 A  
HETATM    7  C   UNL     1     -10.555  11.306  68.645  1.00  0.00    -0.231 A  
HETATM    8  C   UNL     1     -11.098  12.536  68.992  1.00  0.00    -0.287 A  
HETATM    9  C   UNL     1      -9.883  13.694  67.282  1.00  0.00    -0.241 A  
HETATM   10  C   UNL     1     -10.789  13.756  68.346  1.00  0.00    -0.252 A  
HETATM   11  C   UNL     1     -12.078  12.737  70.100  1.00  0.00    -0.370 A  
HETATM   12  N   UNL     1     -11.489  14.786  68.950  1.00  0.00    -0.282 NA 
BRANCH  12  13
HETATM   13  C   UNL     1     -11.600  16.191  68.613  1.00  0.00    -0.283 C  
BRANCH  13  14
HETATM   14  C   UNL     1     -10.469  17.013  69.238  1.00  0.00    -0.293 C  
BRANCH  14  15
HETATM   15  C   UNL     1     -10.021  18.183  68.375  1.00  0.00    -0.380 C  
HETATM   16  O   UNL     1     -10.318  19.406  69.052  1.00  0.00    -0.562 OA 
HETATM   17  H   UNL     1     -10.038  20.136  68.512  1.00  0.00     0.000 HD 
ENDBRANCH  14  15
ENDBRANCH  13  14
ENDBRANCH  12  13
BRANCH   9  18
HETATM   18  C   UNL     1      -9.396  14.822  66.446  1.00  0.00    -0.291 C  
HETATM   19  N   UNL     1      -8.093  15.214  66.656  1.00  0.00    -0.342 N  
HETATM   20  O   UNL     1     -10.092  15.437  65.647  1.00  0.00    -0.324 OA 
HETATM   21  H2  UNL     1      -7.496  14.756  67.345  1.00  0.00     0.000 HD 
HETATM   22  H1  UNL     1      -7.758  15.989  66.083  1.00  0.00     0.000 HD 
ENDBRANCH   9  18
ENDBRANCH   3   4
ENDBRANCH   2   3
BRANCH   2  23
HETATM   23  N   UNL     1      -9.776   7.802  66.122  1.00  0.00    -0.449 NA 
HETATM   24  H   UNL     1      -8.867   7.497  66.470  1.00  0.00     0.000 HD 
BRANCH  23  25
HETATM   25  C   UNL     1     -10.860   7.238  66.942  1.00  0.00    -0.195 C  
BRANCH  25  26
HETATM   26  C   UNL     1     -10.377   6.351  68.109  1.00  0.00    -0.192 C  
BRANCH  26  27
HETATM   27  O   UNL     1     -11.287   6.352  69.217  1.00  0.00    -0.379 OA 
BRANCH  27  28
HETATM   28  C   UNL     1     -10.882   5.707  70.357  1.00  0.00    -0.256 A  
HETATM   29  C   UNL     1     -11.066   5.483  72.762  1.00  0.00    -0.340 A  
HETATM   30  C   UNL     1      -9.831   4.773  70.390  1.00  0.00    -0.309 A  
HETATM   31  C   UNL     1     -11.502   6.055  71.568  1.00  0.00    -0.216 A  
HETATM   32  C   UNL     1     -10.014   4.565  72.780  1.00  0.00    -0.209 A  
HETATM   33  C   UNL     1      -9.395   4.214  71.586  1.00  0.00    -0.202 A  
BRANCH  31  34
HETATM   34  O   UNL     1     -12.455   7.026  71.736  1.00  0.00    -0.338 OA 
BRANCH  34  35
HETATM   35  C   UNL     1     -12.094   8.152  72.546  1.00  0.00    -0.318 C  
HETATM   36  C   UNL     1     -11.988   9.442  71.739  1.00  0.00    -0.382 C  
HETATM   37  F   UNL     1     -12.413   9.316  70.465  1.00  0.00    -0.194 F  
HETATM   38  F   UNL     1     -12.701  10.439  72.314  1.00  0.00    -0.454 F  
HETATM   39  F   UNL     1     -10.696   9.865  71.687  1.00  0.00    -0.323 F  
ENDBRANCH  34  35
ENDBRANCH  31  34
ENDBRANCH  27  28
ENDBRANCH  26  27
ENDBRANCH  25  26
ENDBRANCH  23  25
ENDBRANCH   2  23
TORSDOF 13
ENDMDL
MODEL      102
REMARK 921   NORMALIZED FREE ENERGY PREDICTED BY IDOCK:   -5.42 KCAL/MOL
REMARK 922        TOTAL FREE ENERGY PREDICTED BY IDOCK:  -12.71 KCAL/MOL
REMARK 923 INTER-LIGAND FREE ENERGY PREDICTED BY IDOCK:   -9.75 KCAL/MOL
REMARK 924 INTRA-LIGAND FREE ENERGY PREDICTED BY IDOCK:   -2.96 KCAL/MOL
REMARK 927      BINDING AFFINITY PREDICTED BY RF-SCORE:    0.00 PKD
ROOT
HETATM    1  C   UNL     1     -13.409  14.805  71.251  1.00  0.00    -0.465 C  
HETATM    2  C   UNL     1     -12.134  14.167  70.685  1.00  0.00    -0.351 C  
ENDROOT
BRANCH   2   3
HETATM    3  C   UNL     1     -11.899  14.536  69.202  1.00  0.00    -0.354 C  
BRANCH   3   4
HETATM    4  C   UNL     1     -10.741  15.469  68.993  1.00  0.00    -0.243 A  
HETATM    5  C   UNL     1     -10.925  16.658  68.279  1.00  0.00    -0.341 A  
HETATM    6  C   UNL     1      -6.395  17.196  69.291  1.00  0.00    -0.231 A  
HETATM    7  C   UNL     1      -9.479  15.174  69.488  1.00  0.00    -0.151 A  
HETATM    8  C   UNL     1      -8.455  16.088  69.276  1.00  0.00    -0.224 A  
HETATM    9  C   UNL     1      -9.885  17.601  68.090  1.00  0.00    -0.318 A  
HETATM   10  C   UNL     1      -8.607  17.308  68.579  1.00  0.00    -0.270 A  
HETATM   11  C   UNL     1      -7.053  15.900  69.752  1.00  0.00    -0.038 A  
HETATM   12  N   UNL     1      -7.391  17.968  68.537  1.00  0.00    -0.264 NA 
BRANCH  12  13
HETATM   13  C   UNL     1      -7.033  19.279  68.034  1.00  0.00    -0.252 C  
BRANCH  13  14
HETATM   14  C   UNL     1      -5.744  19.235  67.209  1.00  0.00    -0.171 C  
BRANCH  14  15
HETATM   15  C   UNL     1      -5.954  18.748  65.782  1.00  0.00    -0.191 C  
HETATM   16  O   UNL     1      -7.334  18.885  65.439  1.00  0.00    -0.478 OA 
HETATM   17  H   UNL     1      -7.465  18.580  64.548  1.00  0.00     0.000 HD 
ENDBRANCH  14  15
ENDBRANCH  13  14
ENDBRANCH  12  13
BRANCH   9  18
HETATM   18  C   UNL     1     -10.304  18.807  67.330  1.00  0.00    -0.416 C  
HETATM   19  N   UNL     1     -10.149  18.747  65.963  1.00  0.00    -0.369 N  
HETATM   20  O   UNL     1     -10.716  19.839  67.849  1.00  0.00    -0.391 OA 
HETATM   21  H2  UNL     1      -9.768  17.923  65.499  1.00  0.00     0.000 HD 
HETATM   22  H1  UNL     1     -10.437  19.576  65.441  1.00  0.00     0.000 HD 
ENDBRANCH   9  18
ENDBRANCH   3   4
ENDBRANCH   2   3
BRANCH   2  23
HETATM   23  N   UNL     1     -12.222  12.708  70.873  1.00  0.00    -0.441 NA 
HETATM   24  H   UNL     1     -13.056  12.466  71.409  1.00  0.00     0.000 HD 
BRANCH  23  25
HETATM   25  C   UNL     1     -12.172  11.937  69.620  1.00  0.00    -0.153 C  
BRANCH  25  26
HETATM   26  C   UNL     1     -10.919  11.046  69.473  1.00  0.00    -0.243 C  
BRANCH  26  27
HETATM   27  O   UNL     1      -9.918  11.638  68.635  1.00  0.00    -0.209 OA 
BRANCH  27  28
HETATM   28  C   UNL     1      -9.482  10.896  67.566  1.00  0.00    -0.155 A  
HETATM   29  C   UNL     1      -9.881  10.129  65.304  1.00  0.00    -0.388 A  
HETATM   30  C   UNL     1      -8.361  10.048  67.615  1.00  0.00    -0.114 A  
HETATM   31  C   UNL     1     -10.242  10.929  66.386  1.00  0.00    -0.238 A  
HETATM   32  C   UNL     1      -8.771   9.283  65.370  1.00  0.00    -0.208 A  
HETATM   33  C   UNL     1      -8.012   9.245  66.535  1.00  0.00    -0.104 A  
BRANCH  31  34
HETATM   34  O   UNL     1     -11.422  11.603  66.207  1.00  0.00    -0.362 OA 
BRANCH  34  35
HETATM   35  C   UNL     1     -11.528  12.420  65.035  1.00  0.00    -0.332 C  
HETATM   36  C   UNL     1     -10.941  13.813  65.239  1.00  0.00    -0.322 C  
HETATM   37  F   UNL     1     -10.289  13.954  66.412  1.00  0.00    -0.270 F  
HETATM   38  F   UNL     1     -10.076  14.130  64.247  1.00  0.00    -0.339 F  
HETATM   39  F   UNL     1     -11.925  14.752  65.215  1.00  0.00    -0.353 F  
ENDBRANCH  34  35
ENDBRANCH  31  34
ENDBRANCH  27  28
ENDBRANCH  26  27
ENDBRANCH  25  26
ENDBRANCH  23  25
ENDBRANCH   2  23
TORSDOF 13
ENDMDL
MODEL      103
REMARK 921   NORMALIZED FREE ENERGY PREDICTED BY IDOCK:   -5.40 KCAL/MOL
REMARK 922        TOTAL FREE ENERGY PREDICTED BY IDOCK:  -12.67 KCAL/MOL
REMARK 923 INTER-LIGAND FREE ENERGY PREDICTED BY IDOCK:  -10.78 KCAL/MOL
REMARK 924 INTRA-LIGAND FREE ENERGY PREDICTED BY IDOCK:   -1.90 KCAL/MOL
REMARK 927      BINDING AFFINITY PREDICTED BY RF-SCORE:    0.00 PKD
ROOT
HETATM    1  C   UNL     1     -11.264   7.967  72.801  1.00  0.00    -0.448 C  
HETATM    2  C   UNL     1     -11.790   8.540  71.479  1.00  0.00    -0.299 C  
ENDROOT
BRANCH   2   3
HETATM    3  C   UNL     1     -12.865   9.630  71.696  1.00  0.00    -0.499 C  
BRANCH   3   4
HETATM    4  C   UNL     1     -12.533  10.939  71.038  1.00  0.00    -0.514 A  
HETATM    5  C   UNL     1     -12.987  12.136  71.602  1.00  0.00    -0.427 A  
HETATM    6  C   UNL     1     -10.671  13.956  67.974  1.00  0.00    -0.247 A  
HETATM    7  C   UNL     1     -11.788  10.989  69.869  1.00  0.00    -0.431 A  
HETATM    8  C   UNL     1     -11.499  12.233  69.321  1.00  0.00    -0.352 A  
HETATM    9  C   UNL     1     -12.666  13.404  71.056  1.00  0.00    -0.387 A  
HETATM   10  C   UNL     1     -11.921  13.464  69.874  1.00  0.00    -0.338 A  
HETATM   11  C   UNL     1     -10.710  12.435  68.071  1.00  0.00    -0.247 A  
HETATM   12  N   UNL     1     -11.478  14.502  69.073  1.00  0.00    -0.273 NA 
BRANCH  12  13
HETATM   13  C   UNL     1     -11.557  15.940  69.241  1.00  0.00    -0.369 C  
BRANCH  13  14
HETATM   14  C   UNL     1     -10.302  16.641  68.715  1.00  0.00    -0.301 C  
BRANCH  14  15
HETATM   15  C   UNL     1     -10.592  17.970  68.033  1.00  0.00    -0.347 C  
HETATM   16  O   UNL     1     -10.430  19.027  68.980  1.00  0.00    -0.460 OA 
HETATM   17  H   UNL     1     -10.611  19.857  68.554  1.00  0.00     0.000 HD 
ENDBRANCH  14  15
ENDBRANCH  13  14
ENDBRANCH  12  13
BRANCH   9  18
HETATM   18  C   UNL     1     -13.223  14.544  71.830  1.00  0.00    -0.351 C  
HETATM   19  N   UNL     1     -12.795  14.660  73.133  1.00  0.00    -0.493 N  
HETATM   20  O   UNL     1     -14.061  15.327  71.395  1.00  0.00    -0.494 OA 
HETATM   21  H2  UNL     1     -12.134  14.001  73.544  1.00  0.00     0.000 HD 
HETATM   22  H1  UNL     1     -13.178  15.443  73.664  1.00  0.00     0.000 HD 
ENDBRANCH   9  18
ENDBRANCH   3   4
ENDBRANCH   2   3
BRANCH   2  23
HETATM   23  N   UNL     1     -12.304   7.426  70.662  1.00  0.00    -0.559 NA 
HETATM   24  H   UNL     1     -12.370   7.702  69.683  1.00  0.00     0.000 HD 
BRANCH  23  25
HETATM   25  C   UNL     1     -11.535   6.179  70.798  1.00  0.00    -0.251 C  
BRANCH  25  26
HETATM   26  C   UNL     1     -10.614   5.868  69.598  1.00  0.00    -0.313 C  
BRANCH  26  27
HETATM   27  O   UNL     1     -11.235   6.155  68.338  1.00  0.00    -0.330 OA 
BRANCH  27  28
HETATM   28  C   UNL     1     -10.536   6.949  67.465  1.00  0.00    -0.281 A  
HETATM   29  C   UNL     1      -8.840   7.103  65.742  1.00  0.00    -0.090 A  
HETATM   30  C   UNL     1     -10.622   8.352  67.451  1.00  0.00    -0.313 A  
HETATM   31  C   UNL     1      -9.630   6.328  66.590  1.00  0.00    -0.157 A  
HETATM   32  C   UNL     1      -8.929   8.497  65.748  1.00  0.00    -0.229 A  
HETATM   33  C   UNL     1      -9.824   9.120  66.611  1.00  0.00    -0.307 A  
BRANCH  31  34
HETATM   34  O   UNL     1      -9.333   4.990  66.552  1.00  0.00    -0.129 OA 
BRANCH  34  35
HETATM   35  C   UNL     1      -9.734   4.273  65.379  1.00  0.00    -0.200 C  
HETATM   36  C   UNL     1      -8.549   3.684  64.621  1.00  0.00    -0.104 C  
HETATM   37  F   UNL     1      -7.377   3.802  65.281  1.00  0.00    -0.063 F  
HETATM   38  F   UNL     1      -8.741   2.371  64.356  1.00  0.00    -0.090 F  
HETATM   39  F   UNL     1      -8.394   4.306  63.421  1.00  0.00    -0.085 F  
ENDBRANCH  34  35
ENDBRANCH  31  34
ENDBRANCH  27  28
ENDBRANCH  26  27
ENDBRANCH  25  26
ENDBRANCH  23  25
ENDBRANCH   2  23
TORSDOF 13
ENDMDL
MODEL      104
REMARK 921   NORMALIZED FREE ENERGY PREDICTED BY IDOCK:   -5.39 KCAL/MOL
REMARK 922        TOTAL FREE ENERGY PREDICTED BY IDOCK:  -12.65 KCAL/MOL
REMARK 923 INTER-LIGAND FREE ENERGY PREDICTED BY IDOCK:  -10.21 KCAL/MOL
REMARK 924 INTRA-LIGAND FREE ENERGY PREDICTED BY IDOCK:   -2.44 KCAL/MOL
REMARK 927      BINDING AFFINITY PREDICTED BY RF-SCORE:    0.00 PKD
ROOT
HETATM    1  C   UNL     1     -12.146  15.558  68.684  1.00  0.00    -0.107 C  
HETATM    2  C   UNL     1     -11.263  14.467  69.303  1.00  0.00    -0.275 C  
ENDROOT
BRANCH   2   3
HETATM    3  C   UNL     1     -12.086  13.415  70.080  1.00  0.00    -0.415 C  
BRANCH   3   4
HETATM    4  C   UNL     1     -11.705  11.998  69.758  1.00  0.00    -0.390 A  
HETATM    5  C   UNL     1     -11.710  11.029  70.767  1.00  0.00    -0.286 A  
HETATM    6  C   UNL     1     -10.417   8.275  67.220  1.00  0.00    -0.303 A  
HETATM    7  C   UNL     1     -11.335  11.625  68.473  1.00  0.00    -0.332 A  
HETATM    8  C   UNL     1     -11.012  10.295  68.238  1.00  0.00    -0.315 A  
HETATM    9  C   UNL     1     -11.407   9.668  70.517  1.00  0.00    -0.360 A  
HETATM   10  C   UNL     1     -11.027   9.284  69.226  1.00  0.00    -0.085 A  
HETATM   11  C   UNL     1     -10.599   9.757  66.909  1.00  0.00    -0.243 A  
HETATM   12  N   UNL     1     -10.639   8.083  68.659  1.00  0.00    -0.158 NA 
BRANCH  12  13
HETATM   13  C   UNL     1     -10.581   6.742  69.208  1.00  0.00    -0.231 C  
BRANCH  13  14
HETATM   14  C   UNL     1      -9.348   5.982  68.713  1.00  0.00    -0.128 C  
BRANCH  14  15
HETATM   15  C   UNL     1      -9.678   4.637  68.082  1.00  0.00    -0.138 C  
HETATM   16  O   UNL     1      -9.517   3.608  69.061  1.00  0.00    -0.164 OA 
HETATM   17  H   UNL     1      -9.723   2.769  68.667  1.00  0.00     0.000 HD 
ENDBRANCH  14  15
ENDBRANCH  13  14
ENDBRANCH  12  13
BRANCH   9  18
HETATM   18  C   UNL     1     -11.502   8.804  71.722  1.00  0.00    -0.342 C  
HETATM   19  N   UNL     1     -10.312   8.318  72.216  1.00  0.00    -0.289 N  
HETATM   20  O   UNL     1     -12.558   8.470  72.247  1.00  0.00    -0.359 OA 
HETATM   21  H2  UNL     1      -9.417   8.539  71.779  1.00  0.00     0.000 HD 
HETATM   22  H1  UNL     1     -10.377   7.725  73.044  1.00  0.00     0.000 HD 
ENDBRANCH   9  18
ENDBRANCH   3   4
ENDBRANCH   2   3
BRANCH   2  23
HETATM   23  N   UNL     1     -10.259  15.116  70.165  1.00  0.00    -0.509 NA 
HETATM   24  H   UNL     1     -10.190  14.632  71.059  1.00  0.00     0.000 HD 
BRANCH  23  25
HETATM   25  C   UNL     1      -8.931  15.248  69.544  1.00  0.00    -0.183 C  
BRANCH  25  26
HETATM   26  C   UNL     1      -8.728  14.374  68.288  1.00  0.00    -0.180 C  
BRANCH  26  27
HETATM   27  O   UNL     1      -8.634  15.149  67.086  1.00  0.00    -0.192 OA 
BRANCH  27  28
HETATM   28  C   UNL     1      -9.639  14.996  66.165  1.00  0.00    -0.314 A  
HETATM   29  C   UNL     1     -11.191  16.045  64.629  1.00  0.00    -0.340 A  
HETATM   30  C   UNL     1     -10.267  13.766  65.898  1.00  0.00    -0.322 A  
HETATM   31  C   UNL     1     -10.117  16.144  65.512  1.00  0.00    -0.276 A  
HETATM   32  C   UNL     1     -11.811  14.818  64.381  1.00  0.00    -0.393 A  
HETATM   33  C   UNL     1     -11.345  13.677  65.024  1.00  0.00    -0.339 A  
BRANCH  31  34
HETATM   34  O   UNL     1      -9.704  17.431  65.739  1.00  0.00    -0.533 OA 
BRANCH  34  35
HETATM   35  C   UNL     1     -10.490  18.209  66.650  1.00  0.00    -0.339 C  
HETATM   36  C   UNL     1      -9.660  18.792  67.788  1.00  0.00    -0.312 C  
HETATM   37  F   UNL     1      -8.332  18.610  67.632  1.00  0.00    -0.258 F  
HETATM   38  F   UNL     1      -9.880  20.121  67.924  1.00  0.00    -0.458 F  
HETATM   39  F   UNL     1     -10.005  18.216  68.972  1.00  0.00    -0.347 F  
ENDBRANCH  34  35
ENDBRANCH  31  34
ENDBRANCH  27  28
ENDBRANCH  26  27
ENDBRANCH  25  26
ENDBRANCH  23  25
ENDBRANCH   2  23
TORSDOF 13
ENDMDL
MODEL      105
REMARK 921   NORMALIZED FREE ENERGY PREDICTED BY IDOCK:   -5.38 KCAL/MOL
REMARK 922        TOTAL FREE ENERGY PREDICTED BY IDOCK:  -12.64 KCAL/MOL
REMARK 923 INTER-LIGAND FREE ENERGY PREDICTED BY IDOCK:  -11.15 KCAL/MOL
REMARK 924 INTRA-LIGAND FREE ENERGY PREDICTED BY IDOCK:   -1.50 KCAL/MOL
REMARK 927      BINDING AFFINITY PREDICTED BY RF-SCORE:    0.00 PKD
ROOT
HETATM    1  C   UNL     1     -12.258  14.322  64.086  1.00  0.00    -0.410 C  
HETATM    2  C   UNL     1     -11.650  14.607  65.465  1.00  0.00    -0.335 C  
ENDROOT
BRANCH   2   3
HETATM    3  C   UNL     1     -10.107  14.697  65.421  1.00  0.00    -0.403 C  
BRANCH   3   4
HETATM    4  C   UNL     1      -9.565  15.970  66.004  1.00  0.00    -0.385 A  
HETATM    5  C   UNL     1      -8.231  16.031  66.423  1.00  0.00    -0.309 A  
HETATM    6  C   UNL     1      -9.439  20.431  67.437  1.00  0.00    -0.424 A  
HETATM    7  C   UNL     1     -10.364  17.096  66.149  1.00  0.00    -0.327 A  
HETATM    8  C   UNL     1      -9.797  18.247  66.679  1.00  0.00    -0.354 A  
HETATM    9  C   UNL     1      -7.649  17.217  66.936  1.00  0.00    -0.240 A  
HETATM   10  C   UNL     1      -8.449  18.354  67.092  1.00  0.00    -0.254 A  
HETATM   11  C   UNL     1     -10.537  19.525  66.889  1.00  0.00    -0.602 A  
HETATM   12  N   UNL     1      -8.219  19.627  67.584  1.00  0.00    -0.292 NA 
BRANCH  12  13
HETATM   13  C   UNL     1      -7.002  20.270  68.037  1.00  0.00    -0.292 C  
BRANCH  13  14
HETATM   14  C   UNL     1      -6.676  19.908  69.488  1.00  0.00    -0.347 C  
BRANCH  14  15
HETATM   15  C   UNL     1      -5.274  20.316  69.915  1.00  0.00    -0.245 C  
HETATM   16  O   UNL     1      -5.342  20.968  71.185  1.00  0.00    -0.535 OA 
HETATM   17  H   UNL     1      -4.467  21.223  71.452  1.00  0.00     0.000 HD 
ENDBRANCH  14  15
ENDBRANCH  13  14
ENDBRANCH  12  13
BRANCH   9  18
HETATM   18  C   UNL     1      -6.213  17.070  67.291  1.00  0.00    -0.166 C  
HETATM   19  N   UNL     1      -5.308  17.456  66.327  1.00  0.00    -0.184 N  
HETATM   20  O   UNL     1      -5.809  16.585  68.342  1.00  0.00    -0.115 OA 
HETATM   21  H2  UNL     1      -5.606  17.822  65.423  1.00  0.00     0.000 HD 
HETATM   22  H1  UNL     1      -4.322  17.355  66.570  1.00  0.00     0.000 HD 
ENDBRANCH   9  18
ENDBRANCH   3   4
ENDBRANCH   2   3
BRANCH   2  23
HETATM   23  N   UNL     1     -12.105  13.560  66.398  1.00  0.00    -0.415 NA 
HETATM   24  H   UNL     1     -12.726  12.905  65.924  1.00  0.00     0.000 HD 
BRANCH  23  25
HETATM   25  C   UNL     1     -11.012  12.841  67.073  1.00  0.00    -0.263 C  
BRANCH  25  26
HETATM   26  C   UNL     1     -11.355  11.387  67.462  1.00  0.00    -0.292 C  
BRANCH  26  27
HETATM   27  O   UNL     1     -10.499  10.876  68.492  1.00  0.00    -0.170 OA 
BRANCH  27  28
HETATM   28  C   UNL     1     -11.088  10.552  69.688  1.00  0.00    -0.283 A  
HETATM   29  C   UNL     1     -11.248   9.000  71.541  1.00  0.00    -0.418 A  
HETATM   30  C   UNL     1     -12.178  11.253  70.232  1.00  0.00    -0.428 A  
HETATM   31  C   UNL     1     -10.625   9.412  70.365  1.00  0.00    -0.261 A  
HETATM   32  C   UNL     1     -12.337   9.702  72.064  1.00  0.00    -0.376 A  
HETATM   33  C   UNL     1     -12.803  10.831  71.401  1.00  0.00    -0.557 A  
BRANCH  31  34
HETATM   34  O   UNL     1      -9.657   8.549  69.920  1.00  0.00    -0.168 OA 
BRANCH  34  35
HETATM   35  C   UNL     1      -9.885   7.152  70.146  1.00  0.00    -0.179 C  
HETATM   36  C   UNL     1     -10.612   6.484  68.984  1.00  0.00    -0.245 C  
HETATM   37  F   UNL     1     -10.751   7.283  67.905  1.00  0.00    -0.247 F  
HETATM   38  F   UNL     1      -9.969   5.362  68.585  1.00  0.00    -0.164 F  
HETATM   39  F   UNL     1     -11.863   6.104  69.361  1.00  0.00    -0.458 F  
ENDBRANCH  34  35
ENDBRANCH  31  34
ENDBRANCH  27  28
ENDBRANCH  26  27
ENDBRANCH  25  26
ENDBRANCH  23  25
ENDBRANCH   2  23
TORSDOF 13
ENDMDL
MODEL      106
REMARK 921   NORMALIZED FREE ENERGY PREDICTED BY IDOCK:   -5.37 KCAL/MOL
REMARK 922        TOTAL FREE ENERGY PREDICTED BY IDOCK:  -12.62 KCAL/MOL
REMARK 923 INTER-LIGAND FREE ENERGY PREDICTED BY IDOCK:   -9.71 KCAL/MOL
REMARK 924 INTRA-LIGAND FREE ENERGY PREDICTED BY IDOCK:   -2.91 KCAL/MOL
REMARK 927      BINDING AFFINITY PREDICTED BY RF-SCORE:    0.00 PKD
ROOT
HETATM    1  C   UNL     1     -10.472  15.189  65.404  1.00  0.00    -0.416 C  
HETATM    2  C   UNL     1     -11.041  14.433  66.612  1.00  0.00    -0.326 C  
ENDROOT
BRANCH   2   3
HETATM    3  C   UNL     1     -11.694  13.091  66.212  1.00  0.00    -0.440 C  
BRANCH   3   4
HETATM    4  C   UNL     1     -11.528  12.013  67.245  1.00  0.00    -0.403 A  
HETATM    5  C   UNL     1     -10.864  10.827  66.914  1.00  0.00    -0.288 A  
HETATM    6  C   UNL     1     -11.782   9.835  71.388  1.00  0.00    -0.398 A  
HETATM    7  C   UNL     1     -12.031  12.162  68.530  1.00  0.00    -0.273 A  
HETATM    8  C   UNL     1     -11.828  11.136  69.443  1.00  0.00    -0.415 A  
HETATM    9  C   UNL     1     -10.634   9.795  67.857  1.00  0.00    -0.310 A  
HETATM   10  C   UNL     1     -11.143   9.933  69.152  1.00  0.00    -0.159 A  
HETATM   11  C   UNL     1     -12.312  11.162  70.855  1.00  0.00    -0.500 A  
HETATM   12  N   UNL     1     -11.135   9.126  70.276  1.00  0.00    -0.243 NA 
BRANCH  12  13
HETATM   13  C   UNL     1     -10.492   7.852  70.533  1.00  0.00    -0.214 C  
BRANCH  13  14
HETATM   14  C   UNL     1     -11.474   6.685  70.395  1.00  0.00    -0.444 C  
BRANCH  14  15
HETATM   15  C   UNL     1     -12.368   6.498  71.612  1.00  0.00    -0.260 C  
HETATM   16  O   UNL     1     -11.582   6.641  72.797  1.00  0.00    -0.448 OA 
HETATM   17  H   UNL     1     -12.140   6.524  73.557  1.00  0.00     0.000 HD 
ENDBRANCH  14  15
ENDBRANCH  13  14
ENDBRANCH  12  13
BRANCH   9  18
HETATM   18  C   UNL     1      -9.883   8.638  67.303  1.00  0.00    -0.197 C  
HETATM   19  N   UNL     1     -10.642   7.614  66.783  1.00  0.00    -0.478 N  
HETATM   20  O   UNL     1      -8.662   8.531  67.335  1.00  0.00    -0.132 OA 
HETATM   21  H2  UNL     1     -11.661   7.647  66.779  1.00  0.00     0.000 HD 
HETATM   22  H1  UNL     1     -10.127   6.819  66.403  1.00  0.00     0.000 HD 
ENDBRANCH   9  18
ENDBRANCH   3   4
ENDBRANCH   2   3
BRANCH   2  23
HETATM   23  N   UNL     1     -11.997  15.317  67.304  1.00  0.00    -0.175 NA 
HETATM   24  H   UNL     1     -12.948  14.966  67.198  1.00  0.00     0.000 HD 
BRANCH  23  25
HETATM   25  C   UNL     1     -11.684  15.543  68.724  1.00  0.00    -0.357 C  
BRANCH  25  26
HETATM   26  C   UNL     1     -10.845  16.811  68.994  1.00  0.00    -0.291 C  
BRANCH  26  27
HETATM   27  O   UNL     1      -9.443  16.530  69.106  1.00  0.00    -0.256 OA 
BRANCH  27  28
HETATM   28  C   UNL     1      -8.642  16.939  68.070  1.00  0.00    -0.214 A  
HETATM   29  C   UNL     1      -6.586  16.634  66.825  1.00  0.00    -0.217 A  
HETATM   30  C   UNL     1      -8.890  18.090  67.302  1.00  0.00    -0.247 A  
HETATM   31  C   UNL     1      -7.470  16.208  67.815  1.00  0.00    -0.133 A  
HETATM   32  C   UNL     1      -6.842  17.787  66.077  1.00  0.00    -0.327 A  
HETATM   33  C   UNL     1      -7.999  18.516  66.323  1.00  0.00    -0.273 A  
BRANCH  31  34
HETATM   34  O   UNL     1      -7.014  15.137  68.539  1.00  0.00    -0.100 OA 
BRANCH  34  35
HETATM   35  C   UNL     1      -6.765  13.926  67.814  1.00  0.00    -0.176 C  
HETATM   36  C   UNL     1      -7.890  12.909  67.970  1.00  0.00    -0.149 C  
HETATM   37  F   UNL     1      -8.972  13.399  68.612  1.00  0.00    -0.173 F  
HETATM   38  F   UNL     1      -8.301  12.445  66.766  1.00  0.00    -0.180 F  
HETATM   39  F   UNL     1      -7.461  11.830  68.679  1.00  0.00    -0.096 F  
ENDBRANCH  34  35
ENDBRANCH  31  34
ENDBRANCH  27  28
ENDBRANCH  26  27
ENDBRANCH  25  26
ENDBRANCH  23  25
ENDBRANCH   2  23
TORSDOF 13
ENDMDL
MODEL      107
REMARK 921   NORMALIZED FREE ENERGY PREDICTED BY IDOCK:   -5.35 KCAL/MOL
REMARK 922        TOTAL FREE ENERGY PREDICTED BY IDOCK:  -12.58 KCAL/MOL
REMARK 923 INTER-LIGAND FREE ENERGY PREDICTED BY IDOCK:  -10.63 KCAL/MOL
REMARK 924 INTRA-LIGAND FREE ENERGY PREDICTED BY IDOCK:   -1.95 KCAL/MOL
REMARK 927      BINDING AFFINITY PREDICTED BY RF-SCORE:    0.00 PKD
ROOT
HETATM    1  C   UNL     1     -14.408   6.725  71.459  1.00  0.00    -0.229 C  
HETATM    2  C   UNL     1     -13.076   7.486  71.419  1.00  0.00    -0.325 C  
ENDROOT
BRANCH   2   3
HETATM    3  C   UNL     1     -11.860   6.540  71.300  1.00  0.00    -0.385 C  
BRANCH   3   4
HETATM    4  C   UNL     1     -10.894   6.938  70.221  1.00  0.00    -0.294 A  
HETATM    5  C   UNL     1     -10.780   6.156  69.066  1.00  0.00    -0.377 A  
HETATM    6  C   UNL     1      -7.673   9.459  67.933  1.00  0.00    -0.088 A  
HETATM    7  C   UNL     1     -10.097   8.067  70.347  1.00  0.00    -0.194 A  
HETATM    8  C   UNL     1      -9.238   8.390  69.305  1.00  0.00    -0.154 A  
HETATM    9  C   UNL     1      -9.923   6.505  67.993  1.00  0.00    -0.146 A  
HETATM   10  C   UNL     1      -9.111   7.638  68.114  1.00  0.00    -0.132 A  
HETATM   11  C   UNL     1      -8.328   9.573  69.306  1.00  0.00    -0.129 A  
HETATM   12  N   UNL     1      -8.160   8.227  67.299  1.00  0.00    -0.108 NA 
BRANCH  12  13
HETATM   13  C   UNL     1      -7.731   7.912  65.951  1.00  0.00    -0.093 C  
BRANCH  13  14
HETATM   14  C   UNL     1      -8.223   8.953  64.943  1.00  0.00    -0.161 C  
BRANCH  14  15
HETATM   15  C   UNL     1      -7.195   9.295  63.873  1.00  0.00    -0.098 C  
HETATM   16  O   UNL     1      -6.729  10.629  64.082  1.00  0.00    -0.352 OA 
HETATM   17  H   UNL     1      -6.087  10.843  63.415  1.00  0.00     0.000 HD 
ENDBRANCH  14  15
ENDBRANCH  13  14
ENDBRANCH  12  13
BRANCH   9  18
HETATM   18  C   UNL     1      -9.979   5.555  66.852  1.00  0.00    -0.179 C  
HETATM   19  N   UNL     1     -11.125   5.592  66.088  1.00  0.00    -0.778 N  
HETATM   20  O   UNL     1      -9.109   4.729  66.600  1.00  0.00    -0.113 OA 
HETATM   21  H2  UNL     1     -11.889   6.234  66.294  1.00  0.00     0.000 HD 
HETATM   22  H1  UNL     1     -11.164   4.939  65.304  1.00  0.00     0.000 HD 
ENDBRANCH   9  18
ENDBRANCH   3   4
ENDBRANCH   2   3
BRANCH   2  23
HETATM   23  N   UNL     1     -12.990   8.333  72.622  1.00  0.00    -0.608 NA 
HETATM   24  H   UNL     1     -12.027   8.382  72.955  1.00  0.00     0.000 HD 
BRANCH  23  25
HETATM   25  C   UNL     1     -13.547   9.684  72.446  1.00  0.00    -0.314 C  
BRANCH  25  26
HETATM   26  C   UNL     1     -13.260  10.314  71.066  1.00  0.00    -0.319 C  
BRANCH  26  27
HETATM   27  O   UNL     1     -12.227  11.307  71.118  1.00  0.00    -0.321 OA 
BRANCH  27  28
HETATM   28  C   UNL     1     -12.625  12.620  71.134  1.00  0.00    -0.258 A  
HETATM   29  C   UNL     1     -12.434  14.832  70.167  1.00  0.00    -0.359 A  
HETATM   30  C   UNL     1     -13.447  13.170  72.133  1.00  0.00    -0.653 A  
HETATM   31  C   UNL     1     -12.120  13.474  70.140  1.00  0.00    -0.354 A  
HETATM   32  C   UNL     1     -13.244  15.366  71.173  1.00  0.00    -0.583 A  
HETATM   33  C   UNL     1     -13.747  14.527  72.160  1.00  0.00    -0.547 A  
BRANCH  31  34
HETATM   34  O   UNL     1     -11.218  13.134  69.167  1.00  0.00    -0.262 OA 
BRANCH  34  35
HETATM   35  C   UNL     1     -11.405  13.728  67.876  1.00  0.00    -0.299 C  
HETATM   36  C   UNL     1     -11.666  12.692  66.788  1.00  0.00    -0.392 C  
HETATM   37  F   UNL     1     -11.839  11.442  67.267  1.00  0.00    -0.328 F  
HETATM   38  F   UNL     1     -12.763  13.010  66.063  1.00  0.00    -0.425 F  
HETATM   39  F   UNL     1     -10.622  12.644  65.917  1.00  0.00    -0.269 F  
ENDBRANCH  34  35
ENDBRANCH  31  34
ENDBRANCH  27  28
ENDBRANCH  26  27
ENDBRANCH  25  26
ENDBRANCH  23  25
ENDBRANCH   2  23
TORSDOF 13
ENDMDL
MODEL      108
REMARK 921   NORMALIZED FREE ENERGY PREDICTED BY IDOCK:   -5.35 KCAL/MOL
REMARK 922        TOTAL FREE ENERGY PREDICTED BY IDOCK:  -12.58 KCAL/MOL
REMARK 923 INTER-LIGAND FREE ENERGY PREDICTED BY IDOCK:  -11.03 KCAL/MOL
REMARK 924 INTRA-LIGAND FREE ENERGY PREDICTED BY IDOCK:   -1.55 KCAL/MOL
REMARK 927      BINDING AFFINITY PREDICTED BY RF-SCORE:    0.00 PKD
ROOT
HETATM    1  C   UNL     1     -10.510   9.125  71.701  1.00  0.00    -0.403 C  
HETATM    2  C   UNL     1     -11.919   8.529  71.582  1.00  0.00    -0.316 C  
ENDROOT
BRANCH   2   3
HETATM    3  C   UNL     1     -13.023   9.560  71.906  1.00  0.00    -0.514 C  
BRANCH   3   4
HETATM    4  C   UNL     1     -12.764  10.920  71.322  1.00  0.00    -0.542 A  
HETATM    5  C   UNL     1     -12.127  11.035  70.082  1.00  0.00    -0.438 A  
HETATM    6  C   UNL     1     -12.781  15.588  70.908  1.00  0.00    -0.468 A  
HETATM    7  C   UNL     1     -13.136  12.076  71.994  1.00  0.00    -0.456 A  
HETATM    8  C   UNL     1     -12.884  13.301  71.390  1.00  0.00    -0.411 A  
HETATM    9  C   UNL     1     -11.898  12.286  69.457  1.00  0.00    -0.380 A  
HETATM   10  C   UNL     1     -12.263  13.457  70.130  1.00  0.00    -0.315 A  
HETATM   11  C   UNL     1     -13.231  14.620  71.997  1.00  0.00    -0.439 A  
HETATM   12  N   UNL     1     -12.152  14.805  69.836  1.00  0.00    -0.319 NA 
BRANCH  12  13
HETATM   13  C   UNL     1     -11.686  15.487  68.645  1.00  0.00    -0.348 C  
BRANCH  13  14
HETATM   14  C   UNL     1     -10.840  16.715  68.992  1.00  0.00    -0.314 C  
BRANCH  14  15
HETATM   15  C   UNL     1     -10.234  17.398  67.774  1.00  0.00    -0.345 C  
HETATM   16  O   UNL     1     -11.020  18.543  67.440  1.00  0.00    -0.376 OA 
HETATM   17  H   UNL     1     -10.641  18.969  66.679  1.00  0.00     0.000 HD 
ENDBRANCH  14  15
ENDBRANCH  13  14
ENDBRANCH  12  13
BRANCH   9  18
HETATM   18  C   UNL     1     -11.236  12.177  68.131  1.00  0.00    -0.267 C  
HETATM   19  N   UNL     1      -9.870  12.347  68.119  1.00  0.00    -0.209 N  
HETATM   20  O   UNL     1     -11.835  12.005  67.075  1.00  0.00    -0.573 OA 
HETATM   21  H2  UNL     1      -9.343  12.537  68.971  1.00  0.00     0.000 HD 
HETATM   22  H1  UNL     1      -9.415  12.273  67.208  1.00  0.00     0.000 HD 
ENDBRANCH   9  18
ENDBRANCH   3   4
ENDBRANCH   2   3
BRANCH   2  23
HETATM   23  N   UNL     1     -12.000   7.351  72.463  1.00  0.00    -0.513 NA 
HETATM   24  H   UNL     1     -12.079   6.497  71.912  1.00  0.00     0.000 HD 
BRANCH  23  25
HETATM   25  C   UNL     1     -10.892   7.245  73.427  1.00  0.00    -0.324 C  
BRANCH  25  26
HETATM   26  C   UNL     1     -10.180   5.875  73.425  1.00  0.00    -0.212 C  
BRANCH  26  27
HETATM   27  O   UNL     1     -10.793   4.936  72.531  1.00  0.00    -0.211 OA 
BRANCH  27  28
HETATM   28  C   UNL     1     -10.008   4.429  71.527  1.00  0.00    -0.180 A  
HETATM   29  C   UNL     1      -9.265   4.587  69.226  1.00  0.00    -0.195 A  
HETATM   30  C   UNL     1      -9.289   3.226  71.635  1.00  0.00    -0.207 A  
HETATM   31  C   UNL     1      -9.985   5.111  70.299  1.00  0.00    -0.250 A  
HETATM   32  C   UNL     1      -8.564   3.385  69.346  1.00  0.00    -0.113 A  
HETATM   33  C   UNL     1      -8.581   2.704  70.558  1.00  0.00    -0.105 A  
BRANCH  31  34
HETATM   34  O   UNL     1     -10.717   6.225  69.983  1.00  0.00    -0.231 OA 
BRANCH  34  35
HETATM   35  C   UNL     1     -10.940   6.478  68.590  1.00  0.00    -0.293 C  
HETATM   36  C   UNL     1     -10.097   7.634  68.063  1.00  0.00    -0.187 C  
HETATM   37  F   UNL     1      -9.187   8.084  68.952  1.00  0.00    -0.146 F  
HETATM   38  F   UNL     1      -9.433   7.282  66.937  1.00  0.00    -0.152 F  
HETATM   39  F   UNL     1     -10.890   8.690  67.735  1.00  0.00    -0.284 F  
ENDBRANCH  34  35
ENDBRANCH  31  34
ENDBRANCH  27  28
ENDBRANCH  26  27
ENDBRANCH  25  26
ENDBRANCH  23  25
ENDBRANCH   2  23
TORSDOF 13
ENDMDL
MODEL      109
REMARK 921   NORMALIZED FREE ENERGY PREDICTED BY IDOCK:   -5.33 KCAL/MOL
REMARK 922        TOTAL FREE ENERGY PREDICTED BY IDOCK:  -12.54 KCAL/MOL
REMARK 923 INTER-LIGAND FREE ENERGY PREDICTED BY IDOCK:  -10.52 KCAL/MOL
REMARK 924 INTRA-LIGAND FREE ENERGY PREDICTED BY IDOCK:   -2.02 KCAL/MOL
REMARK 927      BINDING AFFINITY PREDICTED BY RF-SCORE:    0.00 PKD
ROOT
HETATM    1  C   UNL     1     -10.908   9.576  67.756  1.00  0.00    -0.258 C  
HETATM    2  C   UNL     1     -10.957  10.323  69.095  1.00  0.00    -0.238 C  
ENDROOT
BRANCH   2   3
HETATM    3  C   UNL     1     -12.132  11.325  69.168  1.00  0.00    -0.348 C  
BRANCH   3   4
HETATM    4  C   UNL     1     -11.770  12.706  68.701  1.00  0.00    -0.364 A  
HETATM    5  C   UNL     1     -11.842  13.022  67.340  1.00  0.00    -0.411 A  
HETATM    6  C   UNL     1     -10.458  17.200  68.912  1.00  0.00    -0.346 A  
HETATM    7  C   UNL     1     -11.352  13.683  69.594  1.00  0.00    -0.226 A  
HETATM    8  C   UNL     1     -11.051  14.945  69.101  1.00  0.00    -0.279 A  
HETATM    9  C   UNL     1     -11.561  14.320  66.845  1.00  0.00    -0.405 A  
HETATM   10  C   UNL     1     -11.133  15.309  67.737  1.00  0.00    -0.318 A  
HETATM   11  C   UNL     1     -10.592  16.087  69.945  1.00  0.00    -0.314 A  
HETATM   12  N   UNL     1     -10.748  16.630  67.590  1.00  0.00    -0.328 NA 
BRANCH  12  13
HETATM   13  C   UNL     1     -10.746  17.501  66.431  1.00  0.00    -0.083 C  
BRANCH  13  14
HETATM   14  C   UNL     1      -9.593  18.506  66.481  1.00  0.00    -0.335 C  
BRANCH  14  15
HETATM   15  C   UNL     1      -8.219  17.858  66.394  1.00  0.00    -0.255 C  
HETATM   16  O   UNL     1      -8.335  16.605  65.717  1.00  0.00    -0.391 OA 
HETATM   17  H   UNL     1      -7.477  16.200  65.662  1.00  0.00     0.000 HD 
ENDBRANCH  14  15
ENDBRANCH  13  14
ENDBRANCH  12  13
BRANCH   9  18
HETATM   18  C   UNL     1     -11.730  14.445  65.373  1.00  0.00    -0.362 C  
HETATM   19  N   UNL     1     -10.590  14.724  64.653  1.00  0.00    -0.590 N  
HETATM   20  O   UNL     1     -12.809  14.371  64.796  1.00  0.00    -0.647 OA 
HETATM   21  H2  UNL     1      -9.682  14.837  65.104  1.00  0.00     0.000 HD 
HETATM   22  H1  UNL     1     -10.706  14.810  63.643  1.00  0.00     0.000 HD 
ENDBRANCH   9  18
ENDBRANCH   3   4
ENDBRANCH   2   3
BRANCH   2  23
HETATM   23  N   UNL     1      -9.660  10.991  69.301  1.00  0.00    -0.421 NA 
HETATM   24  H   UNL     1      -9.673  11.538  70.162  1.00  0.00     0.000 HD 
BRANCH  23  25
HETATM   25  C   UNL     1      -8.505  10.078  69.286  1.00  0.00    -0.163 C  
BRANCH  25  26
HETATM   26  C   UNL     1      -8.168   9.460  70.660  1.00  0.00    -0.168 C  
BRANCH  26  27
HETATM   27  O   UNL     1      -8.553   8.082  70.755  1.00  0.00    -0.124 OA 
BRANCH  27  28
HETATM   28  C   UNL     1      -9.828   7.820  71.189  1.00  0.00    -0.169 A  
HETATM   29  C   UNL     1     -11.866   6.540  70.913  1.00  0.00    -0.391 A  
HETATM   30  C   UNL     1     -10.483   8.577  72.177  1.00  0.00    -0.412 A  
HETATM   31  C   UNL     1     -10.541   6.788  70.559  1.00  0.00    -0.225 A  
HETATM   32  C   UNL     1     -12.507   7.308  71.889  1.00  0.00    -0.337 A  
HETATM   33  C   UNL     1     -11.808   8.332  72.519  1.00  0.00    -0.439 A  
BRANCH  31  34
HETATM   34  O   UNL     1     -10.101   6.033  69.502  1.00  0.00    -0.170 OA 
BRANCH  34  35
HETATM   35  C   UNL     1     -10.960   5.961  68.358  1.00  0.00    -0.178 C  
HETATM   36  C   UNL     1     -10.195   5.679  67.070  1.00  0.00    -0.222 C  
HETATM   37  F   UNL     1      -8.893   5.384  67.271  1.00  0.00    -0.110 F  
HETATM   38  F   UNL     1     -10.749   4.649  66.387  1.00  0.00    -0.300 F  
HETATM   39  F   UNL     1     -10.235   6.760  66.245  1.00  0.00    -0.192 F  
ENDBRANCH  34  35
ENDBRANCH  31  34
ENDBRANCH  27  28
ENDBRANCH  26  27
ENDBRANCH  25  26
ENDBRANCH  23  25
ENDBRANCH   2  23
TORSDOF 13
ENDMDL
MODEL      110
REMARK 921   NORMALIZED FREE ENERGY PREDICTED BY IDOCK:   -5.33 KCAL/MOL
REMARK 922        TOTAL FREE ENERGY PREDICTED BY IDOCK:  -12.54 KCAL/MOL
REMARK 923 INTER-LIGAND FREE ENERGY PREDICTED BY IDOCK:  -10.17 KCAL/MOL
REMARK 924 INTRA-LIGAND FREE ENERGY PREDICTED BY IDOCK:   -2.37 KCAL/MOL
REMARK 927      BINDING AFFINITY PREDICTED BY RF-SCORE:    0.00 PKD
ROOT
HETATM    1  C   UNL     1      -8.566   8.321  70.739  1.00  0.00    -0.147 C  
HETATM    2  C   UNL     1     -10.040   8.064  71.078  1.00  0.00    -0.186 C  
ENDROOT
BRANCH   2   3
HETATM    3  C   UNL     1     -10.823   7.467  69.887  1.00  0.00    -0.250 C  
BRANCH   3   4
HETATM    4  C   UNL     1     -10.385   8.002  68.554  1.00  0.00    -0.229 A  
HETATM    5  C   UNL     1      -9.622   7.199  67.698  1.00  0.00    -0.152 A  
HETATM    6  C   UNL     1      -9.933  10.970  64.955  1.00  0.00    -0.288 A  
HETATM    7  C   UNL     1     -10.713   9.289  68.149  1.00  0.00    -0.205 A  
HETATM    8  C   UNL     1     -10.292   9.715  66.896  1.00  0.00    -0.307 A  
HETATM    9  C   UNL     1      -9.219   7.629  66.409  1.00  0.00    -0.223 A  
HETATM   10  C   UNL     1      -9.540   8.926  65.996  1.00  0.00    -0.250 A  
HETATM   11  C   UNL     1     -10.574  11.069  66.335  1.00  0.00    -0.308 A  
HETATM   12  N   UNL     1      -9.277   9.660  64.852  1.00  0.00    -0.244 NA 
BRANCH  12  13
HETATM   13  C   UNL     1      -8.637   9.288  63.606  1.00  0.00    -0.196 C  
BRANCH  13  14
HETATM   14  C   UNL     1      -7.312  10.029  63.409  1.00  0.00    -0.137 C  
BRANCH  14  15
HETATM   15  C   UNL     1      -6.358   9.890  64.587  1.00  0.00    -0.117 C  
HETATM   16  O   UNL     1      -6.476  11.042  65.423  1.00  0.00    -0.368 OA 
HETATM   17  H   UNL     1      -5.881  10.955  66.159  1.00  0.00     0.000 HD 
ENDBRANCH  14  15
ENDBRANCH  13  14
ENDBRANCH  12  13
BRANCH   9  18
HETATM   18  C   UNL     1      -8.444   6.609  65.656  1.00  0.00    -0.144 C  
HETATM   19  N   UNL     1      -9.182   5.704  64.925  1.00  0.00    -0.349 N  
HETATM   20  O   UNL     1      -7.224   6.503  65.698  1.00  0.00    -0.070 OA 
HETATM   21  H2  UNL     1     -10.201   5.733  64.902  1.00  0.00     0.000 HD 
HETATM   22  H1  UNL     1      -8.650   5.003  64.408  1.00  0.00     0.000 HD 
ENDBRANCH   9  18
ENDBRANCH   3   4
ENDBRANCH   2   3
BRANCH   2  23
HETATM   23  N   UNL     1     -10.636   9.331  71.540  1.00  0.00    -0.352 NA 
HETATM   24  H   UNL     1     -10.379  10.095  70.916  1.00  0.00     0.000 HD 
BRANCH  23  25
HETATM   25  C   UNL     1     -12.097   9.276  71.716  1.00  0.00    -0.387 C  
BRANCH  25  26
HETATM   26  C   UNL     1     -12.865  10.404  70.994  1.00  0.00    -0.401 C  
BRANCH  26  27
HETATM   27  O   UNL     1     -12.063  11.575  70.792  1.00  0.00    -0.364 OA 
BRANCH  27  28
HETATM   28  C   UNL     1     -12.667  12.788  71.003  1.00  0.00    -0.243 A  
HETATM   29  C   UNL     1     -12.899  15.107  70.342  1.00  0.00    -0.346 A  
HETATM   30  C   UNL     1     -13.505  13.058  72.100  1.00  0.00    -0.638 A  
HETATM   31  C   UNL     1     -12.371  13.837  70.118  1.00  0.00    -0.323 A  
HETATM   32  C   UNL     1     -13.721  15.363  71.442  1.00  0.00    -0.591 A  
HETATM   33  C   UNL     1     -14.020  14.331  72.323  1.00  0.00    -0.629 A  
BRANCH  31  34
HETATM   34  O   UNL     1     -11.486  13.782  69.072  1.00  0.00    -0.265 OA 
BRANCH  34  35
HETATM   35  C   UNL     1     -11.933  14.315  67.819  1.00  0.00    -0.349 C  
HETATM   36  C   UNL     1     -10.786  14.851  66.969  1.00  0.00    -0.315 C  
HETATM   37  F   UNL     1      -9.566  14.572  67.476  1.00  0.00    -0.201 F  
HETATM   38  F   UNL     1     -10.833  14.352  65.712  1.00  0.00    -0.285 F  
HETATM   39  F   UNL     1     -10.870  16.204  66.856  1.00  0.00    -0.316 F  
ENDBRANCH  34  35
ENDBRANCH  31  34
ENDBRANCH  27  28
ENDBRANCH  26  27
ENDBRANCH  25  26
ENDBRANCH  23  25
ENDBRANCH   2  23
TORSDOF 13
ENDMDL
MODEL      111
REMARK 921   NORMALIZED FREE ENERGY PREDICTED BY IDOCK:   -5.31 KCAL/MOL
REMARK 922        TOTAL FREE ENERGY PREDICTED BY IDOCK:  -12.52 KCAL/MOL
REMARK 923 INTER-LIGAND FREE ENERGY PREDICTED BY IDOCK:  -10.75 KCAL/MOL
REMARK 924 INTRA-LIGAND FREE ENERGY PREDICTED BY IDOCK:   -1.77 KCAL/MOL
REMARK 927      BINDING AFFINITY PREDICTED BY RF-SCORE:    0.00 PKD
ROOT
HETATM    1  C   UNL     1     -13.258  10.902  71.724  1.00  0.00    -0.513 C  
HETATM    2  C   UNL     1     -12.169  10.205  70.898  1.00  0.00    -0.356 C  
ENDROOT
BRANCH   2   3
HETATM    3  C   UNL     1     -11.324   9.227  71.746  1.00  0.00    -0.437 C  
BRANCH   3   4
HETATM    4  C   UNL     1     -10.933   7.978  71.008  1.00  0.00    -0.263 A  
HETATM    5  C   UNL     1     -10.891   7.981  69.609  1.00  0.00    -0.172 A  
HETATM    6  C   UNL     1      -9.532   3.563  70.299  1.00  0.00    -0.183 A  
HETATM    7  C   UNL     1     -10.619   6.808  71.685  1.00  0.00    -0.239 A  
HETATM    8  C   UNL     1     -10.248   5.694  70.944  1.00  0.00    -0.286 A  
HETATM    9  C   UNL     1     -10.484   6.850  68.859  1.00  0.00    -0.225 A  
HETATM   10  C   UNL     1     -10.173   5.664  69.533  1.00  0.00    -0.250 A  
HETATM   11  C   UNL     1      -9.885   4.375  71.540  1.00  0.00    -0.259 A  
HETATM   12  N   UNL     1      -9.789   4.400  69.120  1.00  0.00    -0.166 NA 
BRANCH  12  13
HETATM   13  C   UNL     1      -9.477   3.879  67.804  1.00  0.00    -0.179 C  
BRANCH  13  14
HETATM   14  C   UNL     1      -8.138   4.412  67.288  1.00  0.00    -0.101 C  
BRANCH  14  15
HETATM   15  C   UNL     1      -8.123   4.661  65.786  1.00  0.00    -0.103 C  
HETATM   16  O   UNL     1      -9.454   4.547  65.280  1.00  0.00    -0.159 OA 
HETATM   17  H   UNL     1      -9.445   4.703  64.342  1.00  0.00     0.000 HD 
ENDBRANCH  14  15
ENDBRANCH  13  14
ENDBRANCH  12  13
BRANCH   9  18
HETATM   18  C   UNL     1     -10.482   7.079  67.390  1.00  0.00    -0.273 C  
HETATM   19  N   UNL     1     -11.487   6.462  66.679  1.00  0.00    -0.683 N  
HETATM   20  O   UNL     1      -9.625   7.722  66.795  1.00  0.00    -0.183 OA 
HETATM   21  H2  UNL     1     -12.192   5.883  67.133  1.00  0.00     0.000 HD 
HETATM   22  H1  UNL     1     -11.486   6.619  65.670  1.00  0.00     0.000 HD 
ENDBRANCH   9  18
ENDBRANCH   3   4
ENDBRANCH   2   3
BRANCH   2  23
HETATM   23  N   UNL     1     -11.331  11.240  70.267  1.00  0.00    -0.491 NA 
HETATM   24  H   UNL     1     -10.346  10.983  70.320  1.00  0.00     0.000 HD 
BRANCH  23  25
HETATM   25  C   UNL     1     -11.710  11.555  68.880  1.00  0.00    -0.339 C  
BRANCH  25  26
HETATM   26  C   UNL     1     -10.635  11.196  67.832  1.00  0.00    -0.198 C  
BRANCH  26  27
HETATM   27  O   UNL     1     -10.187  12.338  67.089  1.00  0.00    -0.210 OA 
BRANCH  27  28
HETATM   28  C   UNL     1     -10.750  12.538  65.854  1.00  0.00    -0.264 A  
HETATM   29  C   UNL     1     -12.111  13.942  64.424  1.00  0.00    -0.477 A  
HETATM   30  C   UNL     1     -10.724  11.582  64.824  1.00  0.00    -0.366 A  
HETATM   31  C   UNL     1     -11.455  13.733  65.637  1.00  0.00    -0.310 A  
HETATM   32  C   UNL     1     -12.085  12.978  63.414  1.00  0.00    -0.591 A  
HETATM   33  C   UNL     1     -11.389  11.793  63.621  1.00  0.00    -0.525 A  
BRANCH  31  34
HETATM   34  O   UNL     1     -11.682  14.716  66.565  1.00  0.00    -0.369 OA 
BRANCH  34  35
HETATM   35  C   UNL     1     -10.623  15.656  66.782  1.00  0.00    -0.307 C  
HETATM   36  C   UNL     1     -10.842  16.505  68.029  1.00  0.00    -0.337 C  
HETATM   37  F   UNL     1     -11.890  16.101  68.777  1.00  0.00    -0.376 F  
HETATM   38  F   UNL     1      -9.745  16.502  68.822  1.00  0.00    -0.213 F  
HETATM   39  F   UNL     1     -11.073  17.802  67.687  1.00  0.00    -0.344 F  
ENDBRANCH  34  35
ENDBRANCH  31  34
ENDBRANCH  27  28
ENDBRANCH  26  27
ENDBRANCH  25  26
ENDBRANCH  23  25
ENDBRANCH   2  23
TORSDOF 13
ENDMDL
MODEL      112
REMARK 921   NORMALIZED FREE ENERGY PREDICTED BY IDOCK:   -5.31 KCAL/MOL
REMARK 922        TOTAL FREE ENERGY PREDICTED BY IDOCK:  -12.51 KCAL/MOL
REMARK 923 INTER-LIGAND FREE ENERGY PREDICTED BY IDOCK:  -10.34 KCAL/MOL
REMARK 924 INTRA-LIGAND FREE ENERGY PREDICTED BY IDOCK:   -2.17 KCAL/MOL
REMARK 927      BINDING AFFINITY PREDICTED BY RF-SCORE:    0.00 PKD
ROOT
HETATM    1  C   UNL     1      -7.800  15.225  69.232  1.00  0.00    -0.221 C  
HETATM    2  C   UNL     1      -7.747  14.325  67.991  1.00  0.00    -0.141 C  
ENDROOT
BRANCH   2   3
HETATM    3  C   UNL     1      -6.904  13.051  68.223  1.00  0.00    -0.101 C  
BRANCH   3   4
HETATM    4  C   UNL     1      -7.714  11.870  68.673  1.00  0.00    -0.113 A  
HETATM    5  C   UNL     1      -9.080  11.808  68.374  1.00  0.00    -0.176 A  
HETATM    6  C   UNL     1      -8.714   7.723  70.614  1.00  0.00    -0.139 A  
HETATM    7  C   UNL     1      -7.139  10.832  69.393  1.00  0.00    -0.122 A  
HETATM    8  C   UNL     1      -7.940   9.760  69.763  1.00  0.00    -0.169 A  
HETATM    9  C   UNL     1      -9.887  10.699  68.728  1.00  0.00    -0.196 A  
HETATM   10  C   UNL     1      -9.317   9.651  69.460  1.00  0.00    -0.200 A  
HETATM   11  C   UNL     1      -7.454   8.579  70.536  1.00  0.00    -0.062 A  
HETATM   12  N   UNL     1      -9.811   8.471  69.988  1.00  0.00    -0.177 NA 
BRANCH  12  13
HETATM   13  C   UNL     1     -11.116   7.849  69.879  1.00  0.00    -0.120 C  
BRANCH  13  14
HETATM   14  C   UNL     1     -11.551   7.213  71.201  1.00  0.00    -0.336 C  
BRANCH  14  15
HETATM   15  C   UNL     1     -11.805   8.227  72.307  1.00  0.00    -0.388 C  
HETATM   16  O   UNL     1     -11.461   7.645  73.565  1.00  0.00    -0.597 OA 
HETATM   17  H   UNL     1     -11.619   8.278  74.256  1.00  0.00     0.000 HD 
ENDBRANCH  14  15
ENDBRANCH  13  14
ENDBRANCH  12  13
BRANCH   9  18
HETATM   18  C   UNL     1     -11.300  10.825  68.287  1.00  0.00    -0.309 C  
HETATM   19  N   UNL     1     -12.249  10.838  69.285  1.00  0.00    -0.525 N  
HETATM   20  O   UNL     1     -11.655  10.860  67.114  1.00  0.00    -0.431 OA 
HETATM   21  H2  UNL     1     -11.996  10.765  70.270  1.00  0.00     0.000 HD 
HETATM   22  H1  UNL     1     -13.220  10.924  68.982  1.00  0.00     0.000 HD 
ENDBRANCH   9  18
ENDBRANCH   3   4
ENDBRANCH   2   3
BRANCH   2  23
HETATM   23  N   UNL     1      -7.230  15.120  66.863  1.00  0.00    -0.306 NA 
HETATM   24  H   UNL     1      -7.993  15.417  66.255  1.00  0.00     0.000 HD 
BRANCH  23  25
HETATM   25  C   UNL     1      -6.413  16.276  67.268  1.00  0.00    -0.188 C  
BRANCH  25  26
HETATM   26  C   UNL     1      -6.417  17.442  66.256  1.00  0.00    -0.235 C  
BRANCH  26  27
HETATM   27  O   UNL     1      -7.699  17.635  65.644  1.00  0.00    -0.527 OA 
BRANCH  27  28
HETATM   28  C   UNL     1      -8.622  18.364  66.350  1.00  0.00    -0.247 A  
HETATM   29  C   UNL     1     -10.750  18.409  67.507  1.00  0.00    -0.399 A  
HETATM   30  C   UNL     1      -8.541  19.757  66.529  1.00  0.00    -0.396 A  
HETATM   31  C   UNL     1      -9.748  17.693  66.854  1.00  0.00    -0.292 A  
HETATM   32  C   UNL     1     -10.660  19.793  67.667  1.00  0.00    -0.530 A  
HETATM   33  C   UNL     1      -9.549  20.466  67.172  1.00  0.00    -0.587 A  
BRANCH  31  34
HETATM   34  O   UNL     1     -10.046  16.368  66.669  1.00  0.00    -0.263 OA 
BRANCH  34  35
HETATM   35  C   UNL     1     -10.527  15.989  65.373  1.00  0.00    -0.392 C  
HETATM   36  C   UNL     1     -10.909  14.514  65.301  1.00  0.00    -0.367 C  
HETATM   37  F   UNL     1     -10.883  13.893  66.498  1.00  0.00    -0.287 F  
HETATM   38  F   UNL     1     -12.148  14.355  64.780  1.00  0.00    -0.371 F  
HETATM   39  F   UNL     1     -10.053  13.841  64.484  1.00  0.00    -0.432 F  
ENDBRANCH  34  35
ENDBRANCH  31  34
ENDBRANCH  27  28
ENDBRANCH  26  27
ENDBRANCH  25  26
ENDBRANCH  23  25
ENDBRANCH   2  23
TORSDOF 13
ENDMDL
MODEL      113
REMARK 921   NORMALIZED FREE ENERGY PREDICTED BY IDOCK:   -5.31 KCAL/MOL
REMARK 922        TOTAL FREE ENERGY PREDICTED BY IDOCK:  -12.51 KCAL/MOL
REMARK 923 INTER-LIGAND FREE ENERGY PREDICTED BY IDOCK:  -10.07 KCAL/MOL
REMARK 924 INTRA-LIGAND FREE ENERGY PREDICTED BY IDOCK:   -2.44 KCAL/MOL
REMARK 927      BINDING AFFINITY PREDICTED BY RF-SCORE:    0.00 PKD
ROOT
HETATM    1  C   UNL     1     -11.005  13.809  66.651  1.00  0.00    -0.298 C  
HETATM    2  C   UNL     1     -10.647  13.250  68.034  1.00  0.00    -0.240 C  
ENDROOT
BRANCH   2   3
HETATM    3  C   UNL     1     -11.888  12.746  68.804  1.00  0.00    -0.346 C  
BRANCH   3   4
HETATM    4  C   UNL     1     -11.631  11.502  69.607  1.00  0.00    -0.403 A  
HETATM    5  C   UNL     1     -10.403  10.841  69.491  1.00  0.00    -0.178 A  
HETATM    6  C   UNL     1     -12.365   8.031  72.669  1.00  0.00    -0.114 A  
HETATM    7  C   UNL     1     -12.593  10.983  70.461  1.00  0.00    -0.390 A  
HETATM    8  C   UNL     1     -12.285   9.840  71.188  1.00  0.00    -0.453 A  
HETATM    9  C   UNL     1     -10.083   9.692  70.256  1.00  0.00    -0.331 A  
HETATM   10  C   UNL     1     -11.049   9.158  71.114  1.00  0.00    -0.323 A  
HETATM   11  C   UNL     1     -13.222   9.176  72.141  1.00  0.00    -0.524 A  
HETATM   12  N   UNL     1     -11.082   8.057  71.953  1.00  0.00    -0.260 NA 
BRANCH  12  13
HETATM   13  C   UNL     1     -10.056   7.098  72.312  1.00  0.00    -0.181 C  
BRANCH  13  14
HETATM   14  C   UNL     1      -9.798   7.084  73.820  1.00  0.00    -0.341 C  
BRANCH  14  15
HETATM   15  C   UNL     1      -8.568   7.880  74.233  1.00  0.00    -0.190 C  
HETATM   16  O   UNL     1      -8.184   8.739  73.158  1.00  0.00    -0.411 OA 
HETATM   17  H   UNL     1      -7.416   9.235  73.416  1.00  0.00     0.000 HD 
ENDBRANCH  14  15
ENDBRANCH  13  14
ENDBRANCH  12  13
BRANCH   9  18
HETATM   18  C   UNL     1      -8.715   9.168  70.001  1.00  0.00    -0.177 C  
HETATM   19  N   UNL     1      -8.607   8.208  69.019  1.00  0.00    -0.132 N  
HETATM   20  O   UNL     1      -7.722   9.498  70.638  1.00  0.00    -0.159 OA 
HETATM   21  H2  UNL     1      -9.419   7.876  68.498  1.00  0.00     0.000 HD 
HETATM   22  H1  UNL     1      -7.669   7.848  68.844  1.00  0.00     0.000 HD 
ENDBRANCH   9  18
ENDBRANCH   3   4
ENDBRANCH   2   3
BRANCH   2  23
HETATM   23  N   UNL     1      -9.930  14.296  68.785  1.00  0.00    -0.289 NA 
HETATM   24  H   UNL     1      -9.437  14.920  68.147  1.00  0.00     0.000 HD 
BRANCH  23  25
HETATM   25  C   UNL     1     -10.783  15.065  69.706  1.00  0.00    -0.244 C  
BRANCH  25  26
HETATM   26  C   UNL     1     -10.838  16.578  69.404  1.00  0.00    -0.311 C  
BRANCH  26  27
HETATM   27  O   UNL     1     -11.116  16.856  68.025  1.00  0.00    -0.336 OA 
BRANCH  27  28
HETATM   28  C   UNL     1     -10.359  17.826  67.420  1.00  0.00    -0.369 A  
HETATM   29  C   UNL     1      -8.239  18.452  66.430  1.00  0.00    -0.280 A  
HETATM   30  C   UNL     1     -10.771  19.164  67.288  1.00  0.00    -0.585 A  
HETATM   31  C   UNL     1      -9.072  17.478  66.977  1.00  0.00    -0.248 A  
HETATM   32  C   UNL     1      -8.658  19.780  66.315  1.00  0.00    -0.397 A  
HETATM   33  C   UNL     1      -9.930  20.132  66.750  1.00  0.00    -0.604 A  
BRANCH  31  34
HETATM   34  O   UNL     1      -8.469  16.258  67.134  1.00  0.00    -0.169 OA 
BRANCH  34  35
HETATM   35  C   UNL     1      -7.036  16.246  67.172  1.00  0.00    -0.209 C  
HETATM   36  C   UNL     1      -6.489  16.220  68.595  1.00  0.00    -0.126 C  
HETATM   37  F   UNL     1      -7.443  16.044  69.534  1.00  0.00    -0.214 F  
HETATM   38  F   UNL     1      -5.573  15.237  68.749  1.00  0.00    -0.086 F  
HETATM   39  F   UNL     1      -5.858  17.391  68.883  1.00  0.00    -0.155 F  
ENDBRANCH  34  35
ENDBRANCH  31  34
ENDBRANCH  27  28
ENDBRANCH  26  27
ENDBRANCH  25  26
ENDBRANCH  23  25
ENDBRANCH   2  23
TORSDOF 13
ENDMDL
MODEL      114
REMARK 921   NORMALIZED FREE ENERGY PREDICTED BY IDOCK:   -5.30 KCAL/MOL
REMARK 922        TOTAL FREE ENERGY PREDICTED BY IDOCK:  -12.50 KCAL/MOL
REMARK 923 INTER-LIGAND FREE ENERGY PREDICTED BY IDOCK:   -9.90 KCAL/MOL
REMARK 924 INTRA-LIGAND FREE ENERGY PREDICTED BY IDOCK:   -2.59 KCAL/MOL
REMARK 927      BINDING AFFINITY PREDICTED BY RF-SCORE:    0.00 PKD
ROOT
HETATM    1  C   UNL     1     -10.665   8.818  71.863  1.00  0.00    -0.429 C  
HETATM    2  C   UNL     1     -11.897   8.031  72.329  1.00  0.00    -0.369 C  
ENDROOT
BRANCH   2   3
HETATM    3  C   UNL     1     -12.524   7.193  71.192  1.00  0.00    -0.400 C  
BRANCH   3   4
HETATM    4  C   UNL     1     -11.527   6.355  70.445  1.00  0.00    -0.458 A  
HETATM    5  C   UNL     1     -11.366   6.528  69.066  1.00  0.00    -0.296 A  
HETATM    6  C   UNL     1      -8.151   3.194  69.687  1.00  0.00    -0.048 A  
HETATM    7  C   UNL     1     -10.760   5.397  71.093  1.00  0.00    -0.239 A  
HETATM    8  C   UNL     1      -9.843   4.668  70.348  1.00  0.00    -0.306 A  
HETATM    9  C   UNL     1     -10.409   5.803  68.314  1.00  0.00    -0.265 A  
HETATM   10  C   UNL     1      -9.636   4.830  68.958  1.00  0.00    -0.165 A  
HETATM   11  C   UNL     1      -8.955   3.610  70.914  1.00  0.00    -0.158 A  
HETATM   12  N   UNL     1      -8.666   3.940  68.532  1.00  0.00    -0.095 NA 
BRANCH  12  13
HETATM   13  C   UNL     1      -8.029   3.768  67.241  1.00  0.00    -0.091 C  
BRANCH  13  14
HETATM   14  C   UNL     1      -8.813   2.804  66.347  1.00  0.00    -0.150 C  
BRANCH  14  15
HETATM   15  C   UNL     1      -8.753   3.163  64.869  1.00  0.00    -0.108 C  
HETATM   16  O   UNL     1      -8.521   4.566  64.737  1.00  0.00    -0.120 OA 
HETATM   17  H   UNL     1      -8.483   4.790  63.815  1.00  0.00     0.000 HD 
ENDBRANCH  14  15
ENDBRANCH  13  14
ENDBRANCH  12  13
BRANCH   9  18
HETATM   18  C   UNL     1     -10.383   6.165  66.873  1.00  0.00    -0.248 C  
HETATM   19  N   UNL     1     -11.261   5.483  66.061  1.00  0.00    -0.742 N  
HETATM   20  O   UNL     1      -9.605   6.974  66.381  1.00  0.00    -0.169 OA 
HETATM   21  H2  UNL     1     -11.892   4.770  66.427  1.00  0.00     0.000 HD 
HETATM   22  H1  UNL     1     -11.244   5.731  65.071  1.00  0.00     0.000 HD 
ENDBRANCH   9  18
ENDBRANCH   3   4
ENDBRANCH   2   3
BRANCH   2  23
HETATM   23  N   UNL     1     -12.866   8.983  72.900  1.00  0.00    -0.551 NA 
HETATM   24  H   UNL     1     -12.414   9.586  73.586  1.00  0.00     0.000 HD 
BRANCH  23  25
HETATM   25  C   UNL     1     -13.579   9.789  71.894  1.00  0.00    -0.335 C  
BRANCH  25  26
HETATM   26  C   UNL     1     -13.158  11.274  71.859  1.00  0.00    -0.405 C  
BRANCH  26  27
HETATM   27  O   UNL     1     -12.584  11.654  70.601  1.00  0.00    -0.297 OA 
BRANCH  27  28
HETATM   28  C   UNL     1     -12.394  12.995  70.382  1.00  0.00    -0.277 A  
HETATM   29  C   UNL     1     -11.791  14.755  68.830  1.00  0.00    -0.331 A  
HETATM   30  C   UNL     1     -12.428  13.961  71.403  1.00  0.00    -0.424 A  
HETATM   31  C   UNL     1     -12.072  13.412  69.081  1.00  0.00    -0.261 A  
HETATM   32  C   UNL     1     -11.819  15.701  69.857  1.00  0.00    -0.374 A  
HETATM   33  C   UNL     1     -12.136  15.297  71.149  1.00  0.00    -0.405 A  
BRANCH  31  34
HETATM   34  O   UNL     1     -11.880  12.595  67.997  1.00  0.00    -0.338 OA 
BRANCH  34  35
HETATM   35  C   UNL     1     -10.548  12.116  67.778  1.00  0.00    -0.204 C  
HETATM   36  C   UNL     1     -10.444  10.600  67.907  1.00  0.00    -0.208 C  
HETATM   37  F   UNL     1     -11.640   9.988  68.032  1.00  0.00    -0.274 F  
HETATM   38  F   UNL     1      -9.815  10.060  66.837  1.00  0.00    -0.197 F  
HETATM   39  F   UNL     1      -9.708  10.265  69.002  1.00  0.00    -0.165 F  
ENDBRANCH  34  35
ENDBRANCH  31  34
ENDBRANCH  27  28
ENDBRANCH  26  27
ENDBRANCH  25  26
ENDBRANCH  23  25
ENDBRANCH   2  23
TORSDOF 13
ENDMDL
MODEL      115
REMARK 921   NORMALIZED FREE ENERGY PREDICTED BY IDOCK:   -5.29 KCAL/MOL
REMARK 922        TOTAL FREE ENERGY PREDICTED BY IDOCK:  -12.48 KCAL/MOL
REMARK 923 INTER-LIGAND FREE ENERGY PREDICTED BY IDOCK:   -9.60 KCAL/MOL
REMARK 924 INTRA-LIGAND FREE ENERGY PREDICTED BY IDOCK:   -2.88 KCAL/MOL
REMARK 927      BINDING AFFINITY PREDICTED BY RF-SCORE:    0.00 PKD
ROOT
HETATM    1  C   UNL     1     -14.104   8.811  72.568  1.00  0.00    -0.421 C  
HETATM    2  C   UNL     1     -12.982   8.791  71.523  1.00  0.00    -0.319 C  
ENDROOT
BRANCH   2   3
HETATM    3  C   UNL     1     -11.578   8.869  72.165  1.00  0.00    -0.400 C  
BRANCH   3   4
HETATM    4  C   UNL     1     -10.468   8.492  71.226  1.00  0.00    -0.289 A  
HETATM    5  C   UNL     1      -9.363   9.337  71.078  1.00  0.00    -0.298 A  
HETATM    6  C   UNL     1      -8.001   5.960  68.149  1.00  0.00    -0.109 A  
HETATM    7  C   UNL     1     -10.517   7.318  70.487  1.00  0.00    -0.229 A  
HETATM    8  C   UNL     1      -9.449   7.018  69.651  1.00  0.00    -0.147 A  
HETATM    9  C   UNL     1      -8.264   9.014  70.246  1.00  0.00    -0.150 A  
HETATM   10  C   UNL     1      -8.307   7.836  69.492  1.00  0.00    -0.129 A  
HETATM   11  C   UNL     1      -9.369   5.794  68.801  1.00  0.00    -0.135 A  
HETATM   12  N   UNL     1      -7.449   7.253  68.576  1.00  0.00    -0.103 NA 
BRANCH  12  13
HETATM   13  C   UNL     1      -6.119   7.630  68.138  1.00  0.00    -0.040 C  
BRANCH  13  14
HETATM   14  C   UNL     1      -6.158   8.411  66.823  1.00  0.00    -0.054 C  
BRANCH  14  15
HETATM   15  C   UNL     1      -5.711   7.594  65.619  1.00  0.00    -0.037 C  
HETATM   16  O   UNL     1      -6.723   7.653  64.612  1.00  0.00    -0.049 OA 
HETATM   17  H   UNL     1      -6.444   7.143  63.860  1.00  0.00     0.000 HD 
ENDBRANCH  14  15
ENDBRANCH  13  14
ENDBRANCH  12  13
BRANCH   9  18
HETATM   18  C   UNL     1      -7.184  10.036  70.260  1.00  0.00    -0.147 C  
HETATM   19  N   UNL     1      -7.225  10.975  69.253  1.00  0.00    -0.121 N  
HETATM   20  O   UNL     1      -6.259  10.048  71.064  1.00  0.00    -0.215 OA 
HETATM   21  H2  UNL     1      -7.954  10.969  68.540  1.00  0.00     0.000 HD 
HETATM   22  H1  UNL     1      -6.484  11.676  69.263  1.00  0.00     0.000 HD 
ENDBRANCH   9  18
ENDBRANCH   3   4
ENDBRANCH   2   3
BRANCH   2  23
HETATM   23  N   UNL     1     -13.209   9.899  70.578  1.00  0.00    -0.600 NA 
HETATM   24  H   UNL     1     -14.204  10.108  70.503  1.00  0.00     0.000 HD 
BRANCH  23  25
HETATM   25  C   UNL     1     -12.446  11.119  70.889  1.00  0.00    -0.409 C  
BRANCH  25  26
HETATM   26  C   UNL     1     -11.691  11.720  69.684  1.00  0.00    -0.344 C  
BRANCH  26  27
HETATM   27  O   UNL     1     -12.191  11.245  68.428  1.00  0.00    -0.604 OA 
BRANCH  27  28
HETATM   28  C   UNL     1     -11.270  10.761  67.533  1.00  0.00    -0.274 A  
HETATM   29  C   UNL     1      -9.906  11.167  65.573  1.00  0.00    -0.281 A  
HETATM   30  C   UNL     1     -10.850   9.419  67.500  1.00  0.00    -0.208 A  
HETATM   31  C   UNL     1     -10.781  11.637  66.551  1.00  0.00    -0.272 A  
HETATM   32  C   UNL     1      -9.506   9.828  65.547  1.00  0.00    -0.324 A  
HETATM   33  C   UNL     1      -9.986   8.954  66.515  1.00  0.00    -0.358 A  
BRANCH  31  34
HETATM   34  O   UNL     1     -11.172  12.937  66.364  1.00  0.00    -0.282 OA 
BRANCH  34  35
HETATM   35  C   UNL     1     -12.209  13.168  65.402  1.00  0.00    -0.461 C  
HETATM   36  C   UNL     1     -11.734  14.009  64.222  1.00  0.00    -0.367 C  
HETATM   37  F   UNL     1     -10.402  14.230  64.221  1.00  0.00    -0.359 F  
HETATM   38  F   UNL     1     -12.055  13.424  63.044  1.00  0.00    -0.582 F  
HETATM   39  F   UNL     1     -12.340  15.227  64.232  1.00  0.00    -0.482 F  
ENDBRANCH  34  35
ENDBRANCH  31  34
ENDBRANCH  27  28
ENDBRANCH  26  27
ENDBRANCH  25  26
ENDBRANCH  23  25
ENDBRANCH   2  23
TORSDOF 13
ENDMDL
MODEL      116
REMARK 921   NORMALIZED FREE ENERGY PREDICTED BY IDOCK:   -5.29 KCAL/MOL
REMARK 922        TOTAL FREE ENERGY PREDICTED BY IDOCK:  -12.47 KCAL/MOL
REMARK 923 INTER-LIGAND FREE ENERGY PREDICTED BY IDOCK:  -10.58 KCAL/MOL
REMARK 924 INTRA-LIGAND FREE ENERGY PREDICTED BY IDOCK:   -1.90 KCAL/MOL
REMARK 927      BINDING AFFINITY PREDICTED BY RF-SCORE:    0.00 PKD
ROOT
HETATM    1  C   UNL     1      -6.414  11.789  67.111  1.00  0.00    -0.146 C  
HETATM    2  C   UNL     1      -7.822  12.359  67.326  1.00  0.00    -0.166 C  
ENDROOT
BRANCH   2   3
HETATM    3  C   UNL     1      -8.897  11.593  66.522  1.00  0.00    -0.188 C  
BRANCH   3   4
HETATM    4  C   UNL     1      -9.453  10.402  67.250  1.00  0.00    -0.176 A  
HETATM    5  C   UNL     1      -9.919  10.543  68.562  1.00  0.00    -0.181 A  
HETATM    6  C   UNL     1     -10.862   5.998  68.016  1.00  0.00    -0.287 A  
HETATM    7  C   UNL     1      -9.508   9.152  66.650  1.00  0.00    -0.242 A  
HETATM    8  C   UNL     1     -10.052   8.096  67.371  1.00  0.00    -0.298 A  
HETATM    9  C   UNL     1     -10.498   9.470  69.283  1.00  0.00    -0.226 A  
HETATM   10  C   UNL     1     -10.552   8.204  68.689  1.00  0.00    -0.109 A  
HETATM   11  C   UNL     1     -10.174   6.702  66.851  1.00  0.00    -0.287 A  
HETATM   12  N   UNL     1     -11.002   6.966  69.112  1.00  0.00    -0.222 NA 
BRANCH  12  13
HETATM   13  C   UNL     1     -11.683   6.561  70.326  1.00  0.00    -0.366 C  
BRANCH  13  14
HETATM   14  C   UNL     1     -10.802   5.658  71.194  1.00  0.00    -0.288 C  
BRANCH  14  15
HETATM   15  C   UNL     1     -11.052   5.821  72.686  1.00  0.00    -0.280 C  
HETATM   16  O   UNL     1     -12.251   5.130  73.039  1.00  0.00    -0.472 OA 
HETATM   17  H   UNL     1     -12.407   5.231  73.970  1.00  0.00     0.000 HD 
ENDBRANCH  14  15
ENDBRANCH  13  14
ENDBRANCH  12  13
BRANCH   9  18
HETATM   18  C   UNL     1     -10.954   9.845  70.647  1.00  0.00    -0.337 C  
HETATM   19  N   UNL     1     -10.333   9.201  71.693  1.00  0.00    -0.348 N  
HETATM   20  O   UNL     1     -11.865  10.633  70.875  1.00  0.00    -0.332 OA 
HETATM   21  H2  UNL     1      -9.601   8.507  71.541  1.00  0.00     0.000 HD 
HETATM   22  H1  UNL     1     -10.646   9.459  72.629  1.00  0.00     0.000 HD 
ENDBRANCH   9  18
ENDBRANCH   3   4
ENDBRANCH   2   3
BRANCH   2  23
HETATM   23  N   UNL     1      -7.801  13.791  66.976  1.00  0.00    -0.368 NA 
HETATM   24  H   UNL     1      -8.446  13.980  66.209  1.00  0.00     0.000 HD 
BRANCH  23  25
HETATM   25  C   UNL     1      -8.068  14.690  68.111  1.00  0.00    -0.137 C  
BRANCH  25  26
HETATM   26  C   UNL     1      -9.504  14.595  68.670  1.00  0.00    -0.211 C  
BRANCH  26  27
HETATM   27  O   UNL     1     -10.418  15.467  67.993  1.00  0.00    -0.249 OA 
BRANCH  27  28
HETATM   28  C   UNL     1     -10.959  15.011  66.817  1.00  0.00    -0.323 A  
HETATM   29  C   UNL     1     -11.312  15.369  64.447  1.00  0.00    -0.246 A  
HETATM   30  C   UNL     1     -11.804  13.890  66.734  1.00  0.00    -0.452 A  
HETATM   31  C   UNL     1     -10.716  15.750  65.648  1.00  0.00    -0.348 A  
HETATM   32  C   UNL     1     -12.158  14.259  64.383  1.00  0.00    -0.490 A  
HETATM   33  C   UNL     1     -12.404  13.521  65.535  1.00  0.00    -0.524 A  
BRANCH  31  34
HETATM   34  O   UNL     1     -10.019  16.928  65.570  1.00  0.00    -0.572 OA 
BRANCH  34  35
HETATM   35  C   UNL     1     -10.759  18.133  65.799  1.00  0.00    -0.087 C  
HETATM   36  C   UNL     1      -9.881  19.269  66.313  1.00  0.00    -0.392 C  
HETATM   37  F   UNL     1      -8.563  18.981  66.293  1.00  0.00    -0.292 F  
HETATM   38  F   UNL     1     -10.067  20.397  65.588  1.00  0.00    -0.518 F  
HETATM   39  F   UNL     1     -10.203  19.574  67.599  1.00  0.00    -0.419 F  
ENDBRANCH  34  35
ENDBRANCH  31  34
ENDBRANCH  27  28
ENDBRANCH  26  27
ENDBRANCH  25  26
ENDBRANCH  23  25
ENDBRANCH   2  23
TORSDOF 13
ENDMDL
MODEL      117
REMARK 921   NORMALIZED FREE ENERGY PREDICTED BY IDOCK:   -5.29 KCAL/MOL
REMARK 922        TOTAL FREE ENERGY PREDICTED BY IDOCK:  -12.47 KCAL/MOL
REMARK 923 INTER-LIGAND FREE ENERGY PREDICTED BY IDOCK:   -9.58 KCAL/MOL
REMARK 924 INTRA-LIGAND FREE ENERGY PREDICTED BY IDOCK:   -2.89 KCAL/MOL
REMARK 927      BINDING AFFINITY PREDICTED BY RF-SCORE:    0.00 PKD
ROOT
HETATM    1  C   UNL     1     -10.711  11.867  64.697  1.00  0.00    -0.356 C  
HETATM    2  C   UNL     1     -10.567  11.383  66.146  1.00  0.00    -0.265 C  
ENDROOT
BRANCH   2   3
HETATM    3  C   UNL     1     -10.652   9.844  66.263  1.00  0.00    -0.089 C  
BRANCH   3   4
HETATM    4  C   UNL     1     -10.126   9.312  67.565  1.00  0.00    -0.273 A  
HETATM    5  C   UNL     1     -10.705   8.174  68.138  1.00  0.00    -0.090 A  
HETATM    6  C   UNL     1      -7.419   8.935  71.372  1.00  0.00    -0.079 A  
HETATM    7  C   UNL     1      -9.075   9.934  68.227  1.00  0.00    -0.122 A  
HETATM    8  C   UNL     1      -8.624   9.381  69.418  1.00  0.00    -0.148 A  
HETATM    9  C   UNL     1     -10.223   7.598  69.339  1.00  0.00    -0.206 A  
HETATM   10  C   UNL     1      -9.169   8.221  70.015  1.00  0.00    -0.151 A  
HETATM   11  C   UNL     1      -7.506   9.943  70.231  1.00  0.00    -0.173 A  
HETATM   12  N   UNL     1      -8.499   7.956  71.197  1.00  0.00    -0.116 NA 
BRANCH  12  13
HETATM   13  C   UNL     1      -8.603   6.848  72.126  1.00  0.00    -0.116 C  
BRANCH  13  14
HETATM   14  C   UNL     1      -7.961   5.577  71.564  1.00  0.00    -0.116 C  
BRANCH  14  15
HETATM   15  C   UNL     1      -8.231   4.338  72.405  1.00  0.00    -0.100 C  
HETATM   16  O   UNL     1      -9.601   3.962  72.258  1.00  0.00    -0.128 OA 
HETATM   17  H   UNL     1      -9.770   3.188  72.783  1.00  0.00     0.000 HD 
ENDBRANCH  14  15
ENDBRANCH  13  14
ENDBRANCH  12  13
BRANCH   9  18
HETATM   18  C   UNL     1     -10.962   6.376  69.752  1.00  0.00    -0.356 C  
HETATM   19  N   UNL     1     -11.931   6.551  70.715  1.00  0.00    -0.351 N  
HETATM   20  O   UNL     1     -10.721   5.250  69.332  1.00  0.00    -0.233 OA 
HETATM   21  H2  UNL     1     -12.129   7.465  71.121  1.00  0.00     0.000 HD 
HETATM   22  H1  UNL     1     -12.438   5.712  70.999  1.00  0.00     0.000 HD 
ENDBRANCH   9  18
ENDBRANCH   3   4
ENDBRANCH   2   3
BRANCH   2  23
HETATM   23  N   UNL     1     -11.599  12.046  66.962  1.00  0.00    -0.504 NA 
HETATM   24  H   UNL     1     -11.803  11.497  67.796  1.00  0.00     0.000 HD 
BRANCH  23  25
HETATM   25  C   UNL     1     -11.276  13.436  67.324  1.00  0.00    -0.295 C  
BRANCH  25  26
HETATM   26  C   UNL     1     -11.205  13.695  68.844  1.00  0.00    -0.270 C  
BRANCH  26  27
HETATM   27  O   UNL     1     -12.374  14.356  69.346  1.00  0.00    -0.294 OA 
BRANCH  27  28
HETATM   28  C   UNL     1     -12.383  14.679  70.680  1.00  0.00    -0.331 A  
HETATM   29  C   UNL     1     -13.074  14.094  72.927  1.00  0.00    -0.544 A  
HETATM   30  C   UNL     1     -11.905  15.900  71.187  1.00  0.00    -0.483 A  
HETATM   31  C   UNL     1     -12.971  13.770  71.575  1.00  0.00    -0.363 A  
HETATM   32  C   UNL     1     -12.604  15.316  73.413  1.00  0.00    -0.648 A  
HETATM   33  C   UNL     1     -12.020  16.221  72.535  1.00  0.00    -0.648 A  
BRANCH  31  34
HETATM   34  O   UNL     1     -13.590  12.594  71.239  1.00  0.00     0.115 OA 
BRANCH  34  35
HETATM   35  C   UNL     1     -13.157  11.416  71.930  1.00  0.00    -0.400 C  
HETATM   36  C   UNL     1     -12.505  10.399  71.000  1.00  0.00    -0.388 C  
HETATM   37  F   UNL     1     -12.306  10.865  69.749  1.00  0.00    -0.348 F  
HETATM   38  F   UNL     1     -11.307   9.992  71.483  1.00  0.00    -0.425 F  
HETATM   39  F   UNL     1     -13.281   9.287  70.892  1.00  0.00    -0.289 F  
ENDBRANCH  34  35
ENDBRANCH  31  34
ENDBRANCH  27  28
ENDBRANCH  26  27
ENDBRANCH  25  26
ENDBRANCH  23  25
ENDBRANCH   2  23
TORSDOF 13
ENDMDL
MODEL      118
REMARK 921   NORMALIZED FREE ENERGY PREDICTED BY IDOCK:   -5.28 KCAL/MOL
REMARK 922        TOTAL FREE ENERGY PREDICTED BY IDOCK:  -12.46 KCAL/MOL
REMARK 923 INTER-LIGAND FREE ENERGY PREDICTED BY IDOCK:  -11.19 KCAL/MOL
REMARK 924 INTRA-LIGAND FREE ENERGY PREDICTED BY IDOCK:   -1.27 KCAL/MOL
REMARK 927      BINDING AFFINITY PREDICTED BY RF-SCORE:    0.00 PKD
ROOT
HETATM    1  C   UNL     1     -14.382   7.226  71.680  1.00  0.00    -0.583 C  
HETATM    2  C   UNL     1     -12.881   7.513  71.547  1.00  0.00    -0.360 C  
ENDROOT
BRANCH   2   3
HETATM    3  C   UNL     1     -12.013   6.292  71.927  1.00  0.00    -0.342 C  
BRANCH   3   4
HETATM    4  C   UNL     1     -11.057   5.876  70.846  1.00  0.00    -0.312 A  
HETATM    5  C   UNL     1     -11.302   6.248  69.520  1.00  0.00    -0.475 A  
HETATM    6  C   UNL     1      -7.287   3.958  68.828  1.00  0.00    -0.054 A  
HETATM    7  C   UNL     1      -9.930   5.118  71.132  1.00  0.00    -0.272 A  
HETATM    8  C   UNL     1      -9.076   4.783  70.089  1.00  0.00    -0.155 A  
HETATM    9  C   UNL     1     -10.413   5.928  68.463  1.00  0.00    -0.297 A  
HETATM   10  C   UNL     1      -9.279   5.158  68.741  1.00  0.00    -0.119 A  
HETATM   11  C   UNL     1      -7.832   3.975  70.252  1.00  0.00    -0.048 A  
HETATM   12  N   UNL     1      -8.253   4.648  67.964  1.00  0.00    -0.092 NA 
BRANCH  12  13
HETATM   13  C   UNL     1      -7.943   4.822  66.558  1.00  0.00    -0.103 C  
BRANCH  13  14
HETATM   14  C   UNL     1      -7.560   6.269  66.239  1.00  0.00    -0.090 C  
BRANCH  14  15
HETATM   15  C   UNL     1      -6.933   7.004  67.415  1.00  0.00    -0.079 C  
HETATM   16  O   UNL     1      -7.806   8.056  67.829  1.00  0.00    -0.121 OA 
HETATM   17  H   UNL     1      -7.415   8.515  68.564  1.00  0.00     0.000 HD 
ENDBRANCH  14  15
ENDBRANCH  13  14
ENDBRANCH  12  13
BRANCH   9  18
HETATM   18  C   UNL     1     -10.849   6.446  67.140  1.00  0.00    -0.393 C  
HETATM   19  N   UNL     1     -11.168   5.499  66.193  1.00  0.00    -0.761 N  
HETATM   20  O   UNL     1     -10.884   7.635  66.844  1.00  0.00    -0.328 OA 
HETATM   21  H2  UNL     1     -11.108   4.500  66.388  1.00  0.00     0.000 HD 
HETATM   22  H1  UNL     1     -11.467   5.854  65.284  1.00  0.00     0.000 HD 
ENDBRANCH   9  18
ENDBRANCH   3   4
ENDBRANCH   2   3
BRANCH   2  23
HETATM   23  N   UNL     1     -12.558   8.687  72.376  1.00  0.00    -0.451 NA 
HETATM   24  H   UNL     1     -11.572   8.931  72.282  1.00  0.00     0.000 HD 
BRANCH  23  25
HETATM   25  C   UNL     1     -13.408   9.860  72.112  1.00  0.00    -0.399 C  
BRANCH  25  26
HETATM   26  C   UNL     1     -13.096  10.583  70.784  1.00  0.00    -0.257 C  
BRANCH  26  27
HETATM   27  O   UNL     1     -12.154  11.651  70.946  1.00  0.00    -0.341 OA 
BRANCH  27  28
HETATM   28  C   UNL     1     -12.663  12.920  71.056  1.00  0.00    -0.251 A  
HETATM   29  C   UNL     1     -12.784  15.166  70.158  1.00  0.00    -0.273 A  
HETATM   30  C   UNL     1     -13.409  13.364  72.162  1.00  0.00    -0.613 A  
HETATM   31  C   UNL     1     -12.355  13.845  70.045  1.00  0.00    -0.316 A  
HETATM   32  C   UNL     1     -13.516  15.595  71.268  1.00  0.00    -0.439 A  
HETATM   33  C   UNL     1     -13.825  14.686  72.273  1.00  0.00    -0.583 A  
BRANCH  31  34
HETATM   34  O   UNL     1     -11.545  13.616  68.964  1.00  0.00    -0.267 OA 
BRANCH  34  35
HETATM   35  C   UNL     1     -11.744  14.455  67.819  1.00  0.00    -0.376 C  
HETATM   36  C   UNL     1     -12.064  13.658  66.559  1.00  0.00    -0.423 C  
HETATM   37  F   UNL     1     -12.265  12.344  66.792  1.00  0.00    -0.413 F  
HETATM   38  F   UNL     1     -13.168  14.141  65.942  1.00  0.00    -0.515 F  
HETATM   39  F   UNL     1     -11.043  13.752  65.664  1.00  0.00    -0.293 F  
ENDBRANCH  34  35
ENDBRANCH  31  34
ENDBRANCH  27  28
ENDBRANCH  26  27
ENDBRANCH  25  26
ENDBRANCH  23  25
ENDBRANCH   2  23
TORSDOF 13
ENDMDL
MODEL      119
REMARK 921   NORMALIZED FREE ENERGY PREDICTED BY IDOCK:   -5.26 KCAL/MOL
REMARK 922        TOTAL FREE ENERGY PREDICTED BY IDOCK:  -12.43 KCAL/MOL
REMARK 923 INTER-LIGAND FREE ENERGY PREDICTED BY IDOCK:   -9.91 KCAL/MOL
REMARK 924 INTRA-LIGAND FREE ENERGY PREDICTED BY IDOCK:   -2.53 KCAL/MOL
REMARK 927      BINDING AFFINITY PREDICTED BY RF-SCORE:    0.00 PKD
ROOT
HETATM    1  C   UNL     1     -11.746  14.164  70.331  1.00  0.00    -0.312 C  
HETATM    2  C   UNL     1     -12.245  13.572  69.006  1.00  0.00    -0.186 C  
ENDROOT
BRANCH   2   3
HETATM    3  C   UNL     1     -11.402  12.361  68.549  1.00  0.00    -0.336 C  
BRANCH   3   4
HETATM    4  C   UNL     1     -11.440  11.207  69.510  1.00  0.00    -0.374 A  
HETATM    5  C   UNL     1     -10.264  10.507  69.805  1.00  0.00    -0.168 A  
HETATM    6  C   UNL     1     -13.166   8.113  72.578  1.00  0.00     0.015 A  
HETATM    7  C   UNL     1     -12.625  10.808  70.111  1.00  0.00    -0.309 A  
HETATM    8  C   UNL     1     -12.589   9.746  71.005  1.00  0.00    -0.406 A  
HETATM    9  C   UNL     1     -10.227   9.442  70.739  1.00  0.00    -0.368 A  
HETATM   10  C   UNL     1     -11.418   9.029  71.344  1.00  0.00    -0.330 A  
HETATM   11  C   UNL     1     -13.785   9.214  71.722  1.00  0.00    -0.465 A  
HETATM   12  N   UNL     1     -11.738   8.029  72.246  1.00  0.00    -0.347 NA 
BRANCH  12  13
HETATM   13  C   UNL     1     -10.902   7.091  72.968  1.00  0.00    -0.309 C  
BRANCH  13  14
HETATM   14  C   UNL     1     -10.568   5.861  72.119  1.00  0.00    -0.264 C  
BRANCH  14  15
HETATM   15  C   UNL     1      -9.094   5.485  72.150  1.00  0.00    -0.143 C  
HETATM   16  O   UNL     1      -8.653   5.211  70.819  1.00  0.00    -0.119 OA 
HETATM   17  H   UNL     1      -7.732   4.977  70.838  1.00  0.00     0.000 HD 
ENDBRANCH  14  15
ENDBRANCH  13  14
ENDBRANCH  12  13
BRANCH   9  18
HETATM   18  C   UNL     1      -8.872   8.860  70.924  1.00  0.00    -0.219 C  
HETATM   19  N   UNL     1      -8.366   8.150  69.859  1.00  0.00    -0.121 N  
HETATM   20  O   UNL     1      -8.230   8.931  71.966  1.00  0.00    -0.362 OA 
HETATM   21  H2  UNL     1      -8.890   8.031  68.992  1.00  0.00     0.000 HD 
HETATM   22  H1  UNL     1      -7.436   7.750  69.986  1.00  0.00     0.000 HD 
ENDBRANCH   9  18
ENDBRANCH   3   4
ENDBRANCH   2   3
BRANCH   2  23
HETATM   23  N   UNL     1     -12.251  14.643  67.993  1.00  0.00    -0.601 NA 
HETATM   24  H   UNL     1     -13.025  15.285  68.156  1.00  0.00     0.000 HD 
BRANCH  23  25
HETATM   25  C   UNL     1     -10.980  15.379  67.891  1.00  0.00    -0.310 C  
BRANCH  25  26
HETATM   26  C   UNL     1     -10.453  15.538  66.448  1.00  0.00    -0.306 C  
BRANCH  26  27
HETATM   27  O   UNL     1      -9.906  14.321  65.924  1.00  0.00    -0.303 OA 
BRANCH  27  28
HETATM   28  C   UNL     1     -10.718  13.573  65.109  1.00  0.00    -0.341 A  
HETATM   29  C   UNL     1     -11.175  11.428  64.080  1.00  0.00    -0.327 A  
HETATM   30  C   UNL     1     -11.776  14.114  64.359  1.00  0.00    -0.409 A  
HETATM   31  C   UNL     1     -10.426  12.207  64.961  1.00  0.00    -0.290 A  
HETATM   32  C   UNL     1     -12.216  11.983  63.333  1.00  0.00    -0.627 A  
HETATM   33  C   UNL     1     -12.513  13.333  63.474  1.00  0.00    -0.328 A  
BRANCH  31  34
HETATM   34  O   UNL     1      -9.365  11.545  65.520  1.00  0.00    -0.223 OA 
BRANCH  34  35
HETATM   35  C   UNL     1      -8.904  10.371  64.840  1.00  0.00    -0.190 C  
HETATM   36  C   UNL     1      -8.454   9.277  65.802  1.00  0.00    -0.135 C  
HETATM   37  F   UNL     1      -8.731   9.550  67.094  1.00  0.00    -0.127 F  
HETATM   38  F   UNL     1      -9.033   8.091  65.499  1.00  0.00    -0.185 F  
HETATM   39  F   UNL     1      -7.109   9.089  65.713  1.00  0.00    -0.080 F  
ENDBRANCH  34  35
ENDBRANCH  31  34
ENDBRANCH  27  28
ENDBRANCH  26  27
ENDBRANCH  25  26
ENDBRANCH  23  25
ENDBRANCH   2  23
TORSDOF 13
ENDMDL
MODEL      120
REMARK 921   NORMALIZED FREE ENERGY PREDICTED BY IDOCK:   -5.26 KCAL/MOL
REMARK 922        TOTAL FREE ENERGY PREDICTED BY IDOCK:  -12.43 KCAL/MOL
REMARK 923 INTER-LIGAND FREE ENERGY PREDICTED BY IDOCK:   -9.64 KCAL/MOL
REMARK 924 INTRA-LIGAND FREE ENERGY PREDICTED BY IDOCK:   -2.79 KCAL/MOL
REMARK 927      BINDING AFFINITY PREDICTED BY RF-SCORE:    0.00 PKD
ROOT
HETATM    1  C   UNL     1     -11.501  11.008  67.726  1.00  0.00    -0.339 C  
HETATM    2  C   UNL     1     -10.137  11.523  67.250  1.00  0.00    -0.199 C  
ENDROOT
BRANCH   2   3
HETATM    3  C   UNL     1      -9.027  11.313  68.304  1.00  0.00    -0.172 C  
BRANCH   3   4
HETATM    4  C   UNL     1      -8.970   9.912  68.843  1.00  0.00    -0.153 A  
HETATM    5  C   UNL     1      -8.896   9.700  70.224  1.00  0.00    -0.253 A  
HETATM    6  C   UNL     1      -8.945   5.226  68.874  1.00  0.00    -0.103 A  
HETATM    7  C   UNL     1      -8.980   8.813  67.996  1.00  0.00    -0.141 A  
HETATM    8  C   UNL     1      -8.945   7.544  68.559  1.00  0.00    -0.128 A  
HETATM    9  C   UNL     1      -8.889   8.403  70.795  1.00  0.00    -0.171 A  
HETATM   10  C   UNL     1      -8.892   7.289  69.949  1.00  0.00    -0.142 A  
HETATM   11  C   UNL     1      -8.950   6.277  67.770  1.00  0.00    -0.112 A  
HETATM   12  N   UNL     1      -8.851   5.922  70.164  1.00  0.00    -0.140 NA 
BRANCH  12  13
HETATM   13  C   UNL     1      -8.886   5.147  71.388  1.00  0.00    -0.133 C  
BRANCH  13  14
HETATM   14  C   UNL     1     -10.270   4.541  71.633  1.00  0.00    -0.214 C  
BRANCH  14  15
HETATM   15  C   UNL     1     -10.804   4.797  73.036  1.00  0.00    -0.256 C  
HETATM   16  O   UNL     1     -11.863   5.753  72.967  1.00  0.00    -0.525 OA 
HETATM   17  H   UNL     1     -12.196   5.913  73.842  1.00  0.00     0.000 HD 
ENDBRANCH  14  15
ENDBRANCH  13  14
ENDBRANCH  12  13
BRANCH   9  18
HETATM   18  C   UNL     1      -8.838   8.406  72.280  1.00  0.00    -0.220 C  
HETATM   19  N   UNL     1     -10.028   8.162  72.929  1.00  0.00    -0.281 N  
HETATM   20  O   UNL     1      -7.833   8.663  72.934  1.00  0.00    -0.367 OA 
HETATM   21  H2  UNL     1     -10.894   7.989  72.419  1.00  0.00     0.000 HD 
HETATM   22  H1  UNL     1      -9.993   8.164  73.949  1.00  0.00     0.000 HD 
ENDBRANCH   9  18
ENDBRANCH   3   4
ENDBRANCH   2   3
BRANCH   2  23
HETATM   23  N   UNL     1     -10.279  12.945  66.888  1.00  0.00    -0.240 NA 
HETATM   24  H   UNL     1     -10.066  13.086  65.901  1.00  0.00     0.000 HD 
BRANCH  23  25
HETATM   25  C   UNL     1     -11.593  13.521  67.221  1.00  0.00    -0.362 C  
BRANCH  25  26
HETATM   26  C   UNL     1     -11.557  14.571  68.351  1.00  0.00    -0.326 C  
BRANCH  26  27
HETATM   27  O   UNL     1     -11.148  14.014  69.608  1.00  0.00    -0.206 OA 
BRANCH  27  28
HETATM   28  C   UNL     1     -11.898  14.342  70.708  1.00  0.00    -0.285 A  
HETATM   29  C   UNL     1     -13.607  13.686  72.295  1.00  0.00    -0.669 A  
HETATM   30  C   UNL     1     -11.900  15.620  71.295  1.00  0.00    -0.473 A  
HETATM   31  C   UNL     1     -12.767  13.369  71.228  1.00  0.00    -0.338 A  
HETATM   32  C   UNL     1     -13.605  14.963  72.860  1.00  0.00    -0.493 A  
HETATM   33  C   UNL     1     -12.748  15.932  72.352  1.00  0.00    -0.525 A  
BRANCH  31  34
HETATM   34  O   UNL     1     -12.980  12.119  70.709  1.00  0.00    -0.086 OA 
BRANCH  34  35
HETATM   35  C   UNL     1     -12.143  11.064  71.200  1.00  0.00    -0.244 C  
HETATM   36  C   UNL     1     -12.858   9.718  71.231  1.00  0.00    -0.377 C  
HETATM   37  F   UNL     1     -14.071   9.739  70.639  1.00  0.00    -0.258 F  
HETATM   38  F   UNL     1     -12.121   8.758  70.625  1.00  0.00    -0.258 F  
HETATM   39  F   UNL     1     -13.049   9.310  72.516  1.00  0.00    -0.450 F  
ENDBRANCH  34  35
ENDBRANCH  31  34
ENDBRANCH  27  28
ENDBRANCH  26  27
ENDBRANCH  25  26
ENDBRANCH  23  25
ENDBRANCH   2  23
TORSDOF 13
ENDMDL
MODEL      121
REMARK 921   NORMALIZED FREE ENERGY PREDICTED BY IDOCK:   -5.26 KCAL/MOL
REMARK 922        TOTAL FREE ENERGY PREDICTED BY IDOCK:  -12.43 KCAL/MOL
REMARK 923 INTER-LIGAND FREE ENERGY PREDICTED BY IDOCK:  -10.63 KCAL/MOL
REMARK 924 INTRA-LIGAND FREE ENERGY PREDICTED BY IDOCK:   -1.80 KCAL/MOL
REMARK 927      BINDING AFFINITY PREDICTED BY RF-SCORE:    0.00 PKD
ROOT
HETATM    1  C   UNL     1     -11.105   8.335  72.631  1.00  0.00    -0.400 C  
HETATM    2  C   UNL     1     -11.746   8.834  71.330  1.00  0.00    -0.305 C  
ENDROOT
BRANCH   2   3
HETATM    3  C   UNL     1     -12.476  10.184  71.513  1.00  0.00    -0.526 C  
BRANCH   3   4
HETATM    4  C   UNL     1     -12.013  11.249  70.560  1.00  0.00    -0.467 A  
HETATM    5  C   UNL     1     -11.246  10.899  69.444  1.00  0.00    -0.335 A  
HETATM    6  C   UNL     1     -11.482  15.500  68.660  1.00  0.00    -0.359 A  
HETATM    7  C   UNL     1     -12.324  12.586  70.767  1.00  0.00    -0.376 A  
HETATM    8  C   UNL     1     -11.881  13.519  69.838  1.00  0.00    -0.386 A  
HETATM    9  C   UNL     1     -10.821  11.851  68.484  1.00  0.00    -0.257 A  
HETATM   10  C   UNL     1     -11.123  13.201  68.688  1.00  0.00    -0.269 A  
HETATM   11  C   UNL     1     -12.142  14.985  69.935  1.00  0.00    -0.376 A  
HETATM   12  N   UNL     1     -10.837  14.362  67.991  1.00  0.00    -0.240 NA 
BRANCH  12  13
HETATM   13  C   UNL     1     -10.182  14.574  66.716  1.00  0.00    -0.266 C  
BRANCH  13  14
HETATM   14  C   UNL     1     -10.776  15.770  65.967  1.00  0.00    -0.311 C  
BRANCH  14  15
HETATM   15  C   UNL     1     -11.690  15.372  64.816  1.00  0.00    -0.232 C  
HETATM   16  O   UNL     1     -11.539  16.313  63.752  1.00  0.00    -1.539 OA 
HETATM   17  H   UNL     1     -12.110  16.064  63.034  1.00  0.00     0.000 HD 
ENDBRANCH  14  15
ENDBRANCH  13  14
ENDBRANCH  12  13
BRANCH   9  18
HETATM   18  C   UNL     1     -10.044  11.260  67.363  1.00  0.00    -0.188 C  
HETATM   19  N   UNL     1      -8.691  11.114  67.572  1.00  0.00    -0.128 N  
HETATM   20  O   UNL     1     -10.525  10.959  66.276  1.00  0.00    -0.252 OA 
HETATM   21  H2  UNL     1      -8.248  11.395  68.447  1.00  0.00     0.000 HD 
HETATM   22  H1  UNL     1      -8.158  10.709  66.802  1.00  0.00     0.000 HD 
ENDBRANCH   9  18
ENDBRANCH   3   4
ENDBRANCH   2   3
BRANCH   2  23
HETATM   23  N   UNL     1     -12.657   7.788  70.831  1.00  0.00    -0.528 NA 
HETATM   24  H   UNL     1     -13.137   8.105  69.990  1.00  0.00     0.000 HD 
BRANCH  23  25
HETATM   25  C   UNL     1     -12.007   6.488  70.598  1.00  0.00    -0.280 C  
BRANCH  25  26
HETATM   26  C   UNL     1     -11.141   6.432  69.321  1.00  0.00    -0.373 C  
BRANCH  26  27
HETATM   27  O   UNL     1      -9.833   5.897  69.565  1.00  0.00    -0.155 OA 
BRANCH  27  28
HETATM   28  C   UNL     1      -9.594   4.616  69.135  1.00  0.00    -0.175 A  
HETATM   29  C   UNL     1      -9.305   3.101  67.267  1.00  0.00    -0.217 A  
HETATM   30  C   UNL     1      -9.544   3.505  69.994  1.00  0.00    -0.226 A  
HETATM   31  C   UNL     1      -9.468   4.397  67.754  1.00  0.00    -0.163 A  
HETATM   32  C   UNL     1      -9.268   2.005  68.133  1.00  0.00    -0.235 A  
HETATM   33  C   UNL     1      -9.392   2.213  69.502  1.00  0.00    -0.163 A  
BRANCH  31  34
HETATM   34  O   UNL     1      -9.610   5.343  66.772  1.00  0.00    -0.130 OA 
BRANCH  34  35
HETATM   35  C   UNL     1      -8.432   6.068  66.398  1.00  0.00    -0.118 C  
HETATM   36  C   UNL     1      -8.691   7.563  66.241  1.00  0.00    -0.149 C  
HETATM   37  F   UNL     1      -9.923   7.939  66.644  1.00  0.00    -0.266 F  
HETATM   38  F   UNL     1      -7.790   8.292  66.939  1.00  0.00    -0.091 F  
HETATM   39  F   UNL     1      -8.568   7.932  64.938  1.00  0.00    -0.150 F  
ENDBRANCH  34  35
ENDBRANCH  31  34
ENDBRANCH  27  28
ENDBRANCH  26  27
ENDBRANCH  25  26
ENDBRANCH  23  25
ENDBRANCH   2  23
TORSDOF 13
ENDMDL
MODEL      122
REMARK 921   NORMALIZED FREE ENERGY PREDICTED BY IDOCK:   -5.26 KCAL/MOL
REMARK 922        TOTAL FREE ENERGY PREDICTED BY IDOCK:  -12.42 KCAL/MOL
REMARK 923 INTER-LIGAND FREE ENERGY PREDICTED BY IDOCK:   -9.96 KCAL/MOL
REMARK 924 INTRA-LIGAND FREE ENERGY PREDICTED BY IDOCK:   -2.45 KCAL/MOL
REMARK 927      BINDING AFFINITY PREDICTED BY RF-SCORE:    0.00 PKD
ROOT
HETATM    1  C   UNL     1      -6.358   8.952  64.378  1.00  0.00    -0.071 C  
HETATM    2  C   UNL     1      -7.683   8.590  65.060  1.00  0.00    -0.102 C  
ENDROOT
BRANCH   2   3
HETATM    3  C   UNL     1      -7.598   7.259  65.842  1.00  0.00    -0.090 C  
BRANCH   3   4
HETATM    4  C   UNL     1      -8.274   7.307  67.183  1.00  0.00    -0.118 A  
HETATM    5  C   UNL     1      -7.922   8.300  68.103  1.00  0.00    -0.123 A  
HETATM    6  C   UNL     1     -11.204   6.168  70.658  1.00  0.00    -0.319 A  
HETATM    7  C   UNL     1      -9.240   6.376  67.537  1.00  0.00    -0.112 A  
HETATM    8  C   UNL     1      -9.839   6.488  68.785  1.00  0.00    -0.146 A  
HETATM    9  C   UNL     1      -8.557   8.427  69.364  1.00  0.00    -0.129 A  
HETATM   10  C   UNL     1      -9.527   7.490  69.733  1.00  0.00    -0.156 A  
HETATM   11  C   UNL     1     -10.890   5.559  69.295  1.00  0.00    -0.202 A  
HETATM   12  N   UNL     1     -10.293   7.300  70.870  1.00  0.00    -0.201 NA 
BRANCH  12  13
HETATM   13  C   UNL     1     -10.425   8.094  72.076  1.00  0.00    -0.263 C  
BRANCH  13  14
HETATM   14  C   UNL     1     -11.785   7.882  72.746  1.00  0.00    -0.338 C  
BRANCH  14  15
HETATM   15  C   UNL     1     -12.789   8.985  72.441  1.00  0.00    -0.385 C  
HETATM   16  O   UNL     1     -13.918   8.842  73.304  1.00  0.00    -1.203 OA 
HETATM   17  H   UNL     1     -14.545   9.531  73.114  1.00  0.00     0.000 HD 
ENDBRANCH  14  15
ENDBRANCH  13  14
ENDBRANCH  12  13
BRANCH   9  18
HETATM   18  C   UNL     1      -8.053   9.569  70.172  1.00  0.00    -0.174 C  
HETATM   19  N   UNL     1      -8.163  10.815  69.596  1.00  0.00    -0.381 N  
HETATM   20  O   UNL     1      -7.513   9.452  71.266  1.00  0.00    -0.322 OA 
HETATM   21  H2  UNL     1      -8.566  10.946  68.669  1.00  0.00     0.000 HD 
HETATM   22  H1  UNL     1      -7.817  11.598  70.151  1.00  0.00     0.000 HD 
ENDBRANCH   9  18
ENDBRANCH   3   4
ENDBRANCH   2   3
BRANCH   2  23
HETATM   23  N   UNL     1      -8.738   8.549  64.032  1.00  0.00    -0.413 NA 
HETATM   24  H   UNL     1      -9.660   8.604  64.464  1.00  0.00     0.000 HD 
BRANCH  23  25
HETATM   25  C   UNL     1      -8.595   9.573  62.984  1.00  0.00    -0.217 C  
BRANCH  25  26
HETATM   26  C   UNL     1      -9.673  10.677  63.026  1.00  0.00    -0.323 C  
BRANCH  26  27
HETATM   27  O   UNL     1     -10.296  10.791  64.312  1.00  0.00    -0.359 OA 
BRANCH  27  28
HETATM   28  C   UNL     1     -11.070  11.902  64.534  1.00  0.00    -0.325 A  
HETATM   29  C   UNL     1     -12.250  13.295  66.126  1.00  0.00    -0.466 A  
HETATM   30  C   UNL     1     -11.613  12.688  63.502  1.00  0.00    -0.584 A  
HETATM   31  C   UNL     1     -11.399  12.223  65.861  1.00  0.00    -0.360 A  
HETATM   32  C   UNL     1     -12.790  14.061  65.090  1.00  0.00    -0.368 A  
HETATM   33  C   UNL     1     -12.469  13.750  63.774  1.00  0.00    -0.219 A  
BRANCH  31  34
HETATM   34  O   UNL     1     -11.058  11.499  66.973  1.00  0.00    -0.278 OA 
BRANCH  34  35
HETATM   35  C   UNL     1     -11.507  12.006  68.236  1.00  0.00    -0.303 C  
HETATM   36  C   UNL     1     -11.799  10.896  69.240  1.00  0.00    -0.324 C  
HETATM   37  F   UNL     1     -11.423   9.672  68.813  1.00  0.00    -0.123 F  
HETATM   38  F   UNL     1     -11.180  11.128  70.421  1.00  0.00    -0.337 F  
HETATM   39  F   UNL     1     -13.133  10.832  69.504  1.00  0.00    -0.131 F  
ENDBRANCH  34  35
ENDBRANCH  31  34
ENDBRANCH  27  28
ENDBRANCH  26  27
ENDBRANCH  25  26
ENDBRANCH  23  25
ENDBRANCH   2  23
TORSDOF 13
ENDMDL
MODEL      123
REMARK 921   NORMALIZED FREE ENERGY PREDICTED BY IDOCK:   -5.25 KCAL/MOL
REMARK 922        TOTAL FREE ENERGY PREDICTED BY IDOCK:  -12.41 KCAL/MOL
REMARK 923 INTER-LIGAND FREE ENERGY PREDICTED BY IDOCK:  -10.55 KCAL/MOL
REMARK 924 INTRA-LIGAND FREE ENERGY PREDICTED BY IDOCK:   -1.86 KCAL/MOL
REMARK 927      BINDING AFFINITY PREDICTED BY RF-SCORE:    0.00 PKD
ROOT
HETATM    1  C   UNL     1     -12.421  13.069  65.315  1.00  0.00    -0.555 C  
HETATM    2  C   UNL     1     -11.856  14.170  66.221  1.00  0.00    -0.411 C  
ENDROOT
BRANCH   2   3
HETATM    3  C   UNL     1     -10.311  14.189  66.232  1.00  0.00    -0.294 C  
BRANCH   3   4
HETATM    4  C   UNL     1      -9.729  15.572  66.292  1.00  0.00    -0.328 A  
HETATM    5  C   UNL     1      -8.352  15.741  66.476  1.00  0.00    -0.313 A  
HETATM    6  C   UNL     1      -9.533  20.253  66.178  1.00  0.00    -0.236 A  
HETATM    7  C   UNL     1     -10.533  16.698  66.177  1.00  0.00    -0.291 A  
HETATM    8  C   UNL     1      -9.930  17.948  66.222  1.00  0.00    -0.333 A  
HETATM    9  C   UNL     1      -7.738  17.018  66.493  1.00  0.00    -0.327 A  
HETATM   10  C   UNL     1      -8.541  18.158  66.385  1.00  0.00    -0.229 A  
HETATM   11  C   UNL     1     -10.670  19.239  66.111  1.00  0.00    -0.478 A  
HETATM   12  N   UNL     1      -8.282  19.518  66.403  1.00  0.00    -0.319 NA 
BRANCH  12  13
HETATM   13  C   UNL     1      -7.032  20.251  66.448  1.00  0.00    -0.258 C  
BRANCH  13  14
HETATM   14  C   UNL     1      -6.838  20.956  67.794  1.00  0.00    -0.345 C  
BRANCH  14  15
HETATM   15  C   UNL     1      -6.349  20.029  68.898  1.00  0.00    -0.310 C  
HETATM   16  O   UNL     1      -7.406  19.143  69.269  1.00  0.00    -0.306 OA 
HETATM   17  H   UNL     1      -7.100  18.565  69.958  1.00  0.00     0.000 HD 
ENDBRANCH  14  15
ENDBRANCH  13  14
ENDBRANCH  12  13
BRANCH   9  18
HETATM   18  C   UNL     1      -6.263  16.967  66.670  1.00  0.00    -0.205 C  
HETATM   19  N   UNL     1      -5.814  16.708  67.946  1.00  0.00    -0.120 N  
HETATM   20  O   UNL     1      -5.455  17.194  65.777  1.00  0.00    -0.191 OA 
HETATM   21  H2  UNL     1      -6.456  16.558  68.723  1.00  0.00     0.000 HD 
HETATM   22  H1  UNL     1      -4.801  16.673  68.067  1.00  0.00     0.000 HD 
ENDBRANCH   9  18
ENDBRANCH   3   4
ENDBRANCH   2   3
BRANCH   2  23
HETATM   23  N   UNL     1     -12.405  13.982  67.576  1.00  0.00    -0.521 NA 
HETATM   24  H   UNL     1     -13.311  13.515  67.533  1.00  0.00     0.000 HD 
BRANCH  23  25
HETATM   25  C   UNL     1     -11.501  13.274  68.497  1.00  0.00    -0.312 C  
BRANCH  25  26
HETATM   26  C   UNL     1     -11.866  11.792  68.729  1.00  0.00    -0.320 C  
BRANCH  26  27
HETATM   27  O   UNL     1     -10.998  11.152  69.674  1.00  0.00    -0.244 OA 
BRANCH  27  28
HETATM   28  C   UNL     1     -11.587  10.341  70.611  1.00  0.00    -0.347 A  
HETATM   29  C   UNL     1     -11.363   8.474  72.138  1.00  0.00    -0.442 A  
HETATM   30  C   UNL     1     -12.958  10.378  70.919  1.00  0.00    -0.475 A  
HETATM   31  C   UNL     1     -10.788   9.372  71.240  1.00  0.00    -0.361 A  
HETATM   32  C   UNL     1     -12.729   8.516  72.425  1.00  0.00    -0.394 A  
HETATM   33  C   UNL     1     -13.527   9.473  71.808  1.00  0.00    -0.480 A  
BRANCH  31  34
HETATM   34  O   UNL     1      -9.468   9.119  70.973  1.00  0.00    -0.252 OA 
BRANCH  34  35
HETATM   35  C   UNL     1      -9.102   7.748  70.769  1.00  0.00    -0.149 C  
HETATM   36  C   UNL     1      -8.065   7.265  71.777  1.00  0.00    -0.100 C  
HETATM   37  F   UNL     1      -7.818   8.153  72.762  1.00  0.00    -0.134 F  
HETATM   38  F   UNL     1      -8.451   6.104  72.356  1.00  0.00    -0.115 F  
HETATM   39  F   UNL     1      -6.879   7.017  71.158  1.00  0.00    -0.055 F  
ENDBRANCH  34  35
ENDBRANCH  31  34
ENDBRANCH  27  28
ENDBRANCH  26  27
ENDBRANCH  25  26
ENDBRANCH  23  25
ENDBRANCH   2  23
TORSDOF 13
ENDMDL
MODEL      124
REMARK 921   NORMALIZED FREE ENERGY PREDICTED BY IDOCK:   -5.23 KCAL/MOL
REMARK 922        TOTAL FREE ENERGY PREDICTED BY IDOCK:  -12.37 KCAL/MOL
REMARK 923 INTER-LIGAND FREE ENERGY PREDICTED BY IDOCK:   -9.56 KCAL/MOL
REMARK 924 INTRA-LIGAND FREE ENERGY PREDICTED BY IDOCK:   -2.81 KCAL/MOL
REMARK 927      BINDING AFFINITY PREDICTED BY RF-SCORE:    0.00 PKD
ROOT
HETATM    1  C   UNL     1      -8.906  14.557  68.738  1.00  0.00    -0.153 C  
HETATM    2  C   UNL     1      -9.505  14.365  67.339  1.00  0.00    -0.207 C  
ENDROOT
BRANCH   2   3
HETATM    3  C   UNL     1     -10.979  13.903  67.388  1.00  0.00    -0.299 C  
BRANCH   3   4
HETATM    4  C   UNL     1     -11.191  12.663  68.209  1.00  0.00    -0.312 A  
HETATM    5  C   UNL     1     -10.720  11.431  67.744  1.00  0.00    -0.254 A  
HETATM    6  C   UNL     1     -12.521   9.955  71.796  1.00  0.00    -0.397 A  
HETATM    7  C   UNL     1     -11.858  12.709  69.426  1.00  0.00    -0.356 A  
HETATM    8  C   UNL     1     -12.004  11.530  70.145  1.00  0.00    -0.452 A  
HETATM    9  C   UNL     1     -10.846  10.235  68.494  1.00  0.00    -0.281 A  
HETATM   10  C   UNL     1     -11.522  10.271  69.718  1.00  0.00    -0.256 A  
HETATM   11  C   UNL     1     -12.696  11.433  71.463  1.00  0.00    -0.462 A  
HETATM   12  N   UNL     1     -11.851   9.310  70.659  1.00  0.00    -0.237 NA 
BRANCH  12  13
HETATM   13  C   UNL     1     -11.512   7.904  70.747  1.00  0.00    -0.263 C  
BRANCH  13  14
HETATM   14  C   UNL     1     -10.241   7.678  71.570  1.00  0.00    -0.212 C  
BRANCH  14  15
HETATM   15  C   UNL     1     -10.437   6.721  72.737  1.00  0.00    -0.220 C  
HETATM   16  O   UNL     1     -10.950   7.446  73.856  1.00  0.00    -0.536 OA 
HETATM   17  H   UNL     1     -11.073   6.848  74.585  1.00  0.00     0.000 HD 
ENDBRANCH  14  15
ENDBRANCH  13  14
ENDBRANCH  12  13
BRANCH   9  18
HETATM   18  C   UNL     1     -10.249   9.048  67.828  1.00  0.00    -0.230 C  
HETATM   19  N   UNL     1      -9.002   8.668  68.270  1.00  0.00    -0.142 N  
HETATM   20  O   UNL     1     -10.772   8.445  66.897  1.00  0.00    -0.279 OA 
HETATM   21  H2  UNL     1      -8.516   9.172  69.011  1.00  0.00     0.000 HD 
HETATM   22  H1  UNL     1      -8.591   7.853  67.813  1.00  0.00     0.000 HD 
ENDBRANCH   9  18
ENDBRANCH   3   4
ENDBRANCH   2   3
BRANCH   2  23
HETATM   23  N   UNL     1      -8.661  13.409  66.600  1.00  0.00    -0.441 NA 
HETATM   24  H   UNL     1      -8.355  13.812  65.715  1.00  0.00     0.000 HD 
BRANCH  23  25
HETATM   25  C   UNL     1      -7.509  12.907  67.367  1.00  0.00    -0.132 C  
BRANCH  25  26
HETATM   26  C   UNL     1      -6.825  11.670  66.747  1.00  0.00    -0.086 C  
BRANCH  26  27
HETATM   27  O   UNL     1      -7.754  10.620  66.444  1.00  0.00    -0.128 OA 
BRANCH  27  28
HETATM   28  C   UNL     1      -7.694  10.079  65.185  1.00  0.00    -0.137 A  
HETATM   29  C   UNL     1      -8.612   9.990  62.945  1.00  0.00    -0.194 A  
HETATM   30  C   UNL     1      -6.846   9.013  64.838  1.00  0.00    -0.076 A  
HETATM   31  C   UNL     1      -8.583  10.567  64.214  1.00  0.00    -0.152 A  
HETATM   32  C   UNL     1      -7.770   8.925  62.618  1.00  0.00    -0.117 A  
HETATM   33  C   UNL     1      -6.887   8.436  63.573  1.00  0.00    -0.084 A  
BRANCH  31  34
HETATM   34  O   UNL     1      -9.554  11.514  64.413  1.00  0.00    -0.219 OA 
BRANCH  34  35
HETATM   35  C   UNL     1     -10.911  11.053  64.432  1.00  0.00    -0.192 C  
HETATM   36  C   UNL     1     -11.897  12.124  63.977  1.00  0.00    -0.434 C  
HETATM   37  F   UNL     1     -11.300  13.231  63.487  1.00  0.00    -0.406 F  
HETATM   38  F   UNL     1     -12.730  11.648  63.021  1.00  0.00    -0.677 F  
HETATM   39  F   UNL     1     -12.681  12.521  65.015  1.00  0.00    -0.532 F  
ENDBRANCH  34  35
ENDBRANCH  31  34
ENDBRANCH  27  28
ENDBRANCH  26  27
ENDBRANCH  25  26
ENDBRANCH  23  25
ENDBRANCH   2  23
TORSDOF 13
ENDMDL
MODEL      125
REMARK 921   NORMALIZED FREE ENERGY PREDICTED BY IDOCK:   -5.22 KCAL/MOL
REMARK 922        TOTAL FREE ENERGY PREDICTED BY IDOCK:  -12.36 KCAL/MOL
REMARK 923 INTER-LIGAND FREE ENERGY PREDICTED BY IDOCK:  -10.35 KCAL/MOL
REMARK 924 INTRA-LIGAND FREE ENERGY PREDICTED BY IDOCK:   -2.02 KCAL/MOL
REMARK 927      BINDING AFFINITY PREDICTED BY RF-SCORE:    0.00 PKD
ROOT
HETATM    1  C   UNL     1     -13.027  10.604  71.814  1.00  0.00    -0.577 C  
HETATM    2  C   UNL     1     -12.051  10.400  70.648  1.00  0.00    -0.348 C  
ENDROOT
BRANCH   2   3
HETATM    3  C   UNL     1     -10.870   9.476  71.024  1.00  0.00    -0.423 C  
BRANCH   3   4
HETATM    4  C   UNL     1     -10.109   8.964  69.835  1.00  0.00    -0.204 A  
HETATM    5  C   UNL     1     -10.485   7.757  69.235  1.00  0.00    -0.221 A  
HETATM    6  C   UNL     1      -6.938   8.829  66.387  1.00  0.00    -0.082 A  
HETATM    7  C   UNL     1      -9.025   9.660  69.318  1.00  0.00    -0.173 A  
HETATM    8  C   UNL     1      -8.375   9.141  68.206  1.00  0.00    -0.120 A  
HETATM    9  C   UNL     1      -9.837   7.246  68.082  1.00  0.00    -0.165 A  
HETATM   10  C   UNL     1      -8.739   7.937  67.559  1.00  0.00    -0.125 A  
HETATM   11  C   UNL     1      -7.199   9.782  67.548  1.00  0.00    -0.089 A  
HETATM   12  N   UNL     1      -7.878   7.707  66.500  1.00  0.00    -0.103 NA 
BRANCH  12  13
HETATM   13  C   UNL     1      -7.876   6.680  65.477  1.00  0.00    -0.108 C  
BRANCH  13  14
HETATM   14  C   UNL     1      -7.181   5.404  65.958  1.00  0.00    -0.076 C  
BRANCH  14  15
HETATM   15  C   UNL     1      -7.613   4.156  65.201  1.00  0.00    -0.081 C  
HETATM   16  O   UNL     1      -8.805   3.638  65.795  1.00  0.00    -0.117 OA 
HETATM   17  H   UNL     1      -9.075   2.859  65.323  1.00  0.00     0.000 HD 
ENDBRANCH  14  15
ENDBRANCH  13  14
ENDBRANCH  12  13
BRANCH   9  18
HETATM   18  C   UNL     1     -10.416   5.969  67.591  1.00  0.00    -0.235 C  
HETATM   19  N   UNL     1     -11.341   6.073  66.576  1.00  0.00    -0.694 N  
HETATM   20  O   UNL     1     -10.160   4.869  68.067  1.00  0.00    -0.140 OA 
HETATM   21  H2  UNL     1     -11.613   6.975  66.185  1.00  0.00     0.000 HD 
HETATM   22  H1  UNL     1     -11.739   5.196  66.238  1.00  0.00     0.000 HD 
ENDBRANCH   9  18
ENDBRANCH   3   4
ENDBRANCH   2   3
BRANCH   2  23
HETATM   23  N   UNL     1     -11.582  11.723  70.199  1.00  0.00    -0.508 NA 
HETATM   24  H   UNL     1     -11.556  11.766  69.180  1.00  0.00     0.000 HD 
BRANCH  23  25
HETATM   25  C   UNL     1     -12.355  12.851  70.744  1.00  0.00    -0.299 C  
BRANCH  25  26
HETATM   26  C   UNL     1     -12.322  14.124  69.871  1.00  0.00    -0.327 C  
BRANCH  26  27
HETATM   27  O   UNL     1     -12.004  13.844  68.501  1.00  0.00    -0.352 OA 
BRANCH  27  28
HETATM   28  C   UNL     1     -11.353  14.827  67.800  1.00  0.00    -0.330 A  
HETATM   29  C   UNL     1     -10.048  15.434  65.852  1.00  0.00    -0.370 A  
HETATM   30  C   UNL     1     -11.157  16.131  68.289  1.00  0.00    -0.348 A  
HETATM   31  C   UNL     1     -10.787  14.488  66.560  1.00  0.00    -0.314 A  
HETATM   32  C   UNL     1      -9.853  16.723  66.355  1.00  0.00    -0.312 A  
HETATM   33  C   UNL     1     -10.410  17.067  67.582  1.00  0.00    -0.332 A  
BRANCH  31  34
HETATM   34  O   UNL     1     -10.778  13.241  65.992  1.00  0.00    -0.273 OA 
BRANCH  34  35
HETATM   35  C   UNL     1     -10.678  13.182  64.564  1.00  0.00    -0.398 C  
HETATM   36  C   UNL     1     -11.927  12.596  63.915  1.00  0.00    -0.479 C  
HETATM   37  F   UNL     1     -12.944  12.405  64.781  1.00  0.00    -0.563 F  
HETATM   38  F   UNL     1     -12.380  13.393  62.918  1.00  0.00    -0.575 F  
HETATM   39  F   UNL     1     -11.650  11.388  63.354  1.00  0.00    -0.482 F  
ENDBRANCH  34  35
ENDBRANCH  31  34
ENDBRANCH  27  28
ENDBRANCH  26  27
ENDBRANCH  25  26
ENDBRANCH  23  25
ENDBRANCH   2  23
TORSDOF 13
ENDMDL
MODEL      126
REMARK 921   NORMALIZED FREE ENERGY PREDICTED BY IDOCK:   -5.22 KCAL/MOL
REMARK 922        TOTAL FREE ENERGY PREDICTED BY IDOCK:  -12.35 KCAL/MOL
REMARK 923 INTER-LIGAND FREE ENERGY PREDICTED BY IDOCK:   -9.71 KCAL/MOL
REMARK 924 INTRA-LIGAND FREE ENERGY PREDICTED BY IDOCK:   -2.64 KCAL/MOL
REMARK 927      BINDING AFFINITY PREDICTED BY RF-SCORE:    0.00 PKD
ROOT
HETATM    1  C   UNL     1      -6.372  12.398  67.707  1.00  0.00    -0.109 C  
HETATM    2  C   UNL     1      -7.848  12.754  67.493  1.00  0.00    -0.171 C  
ENDROOT
BRANCH   2   3
HETATM    3  C   UNL     1      -8.538  11.817  66.475  1.00  0.00    -0.148 C  
BRANCH   3   4
HETATM    4  C   UNL     1      -9.137  10.590  67.101  1.00  0.00    -0.154 A  
HETATM    5  C   UNL     1      -9.807  10.690  68.325  1.00  0.00    -0.174 A  
HETATM    6  C   UNL     1     -10.416   6.111  67.614  1.00  0.00    -0.234 A  
HETATM    7  C   UNL     1      -9.034   9.347  66.493  1.00  0.00    -0.176 A  
HETATM    8  C   UNL     1      -9.626   8.256  67.115  1.00  0.00    -0.234 A  
HETATM    9  C   UNL     1     -10.434   9.579  68.942  1.00  0.00    -0.235 A  
HETATM   10  C   UNL     1     -10.329   8.320  68.340  1.00  0.00    -0.199 A  
HETATM   11  C   UNL     1      -9.593   6.865  66.575  1.00  0.00    -0.197 A  
HETATM   12  N   UNL     1     -10.774   7.055  68.681  1.00  0.00    -0.209 NA 
BRANCH  12  13
HETATM   13  C   UNL     1     -11.612   6.599  69.772  1.00  0.00    -0.293 C  
BRANCH  13  14
HETATM   14  C   UNL     1     -10.801   6.368  71.050  1.00  0.00    -0.314 C  
BRANCH  14  15
HETATM   15  C   UNL     1     -11.659   6.014  72.256  1.00  0.00    -0.307 C  
HETATM   16  O   UNL     1     -11.085   6.600  73.426  1.00  0.00    -0.477 OA 
HETATM   17  H   UNL     1     -11.621   6.379  74.180  1.00  0.00     0.000 HD 
ENDBRANCH  14  15
ENDBRANCH  13  14
ENDBRANCH  12  13
BRANCH   9  18
HETATM   18  C   UNL     1     -11.115   9.912  70.220  1.00  0.00    -0.308 C  
HETATM   19  N   UNL     1     -10.461   9.534  71.372  1.00  0.00    -0.276 N  
HETATM   20  O   UNL     1     -12.219  10.440  70.295  1.00  0.00    -0.284 OA 
HETATM   21  H2  UNL     1      -9.563   9.053  71.349  1.00  0.00     0.000 HD 
HETATM   22  H1  UNL     1     -10.929   9.762  72.250  1.00  0.00     0.000 HD 
ENDBRANCH   9  18
ENDBRANCH   3   4
ENDBRANCH   2   3
BRANCH   2  23
HETATM   23  N   UNL     1      -7.930  14.165  67.073  1.00  0.00    -0.373 NA 
HETATM   24  H   UNL     1      -8.883  14.402  66.801  1.00  0.00     0.000 HD 
BRANCH  23  25
HETATM   25  C   UNL     1      -7.425  15.119  68.074  1.00  0.00    -0.120 C  
BRANCH  25  26
HETATM   26  C   UNL     1      -8.329  15.272  69.316  1.00  0.00    -0.243 C  
BRANCH  26  27
HETATM   27  O   UNL     1      -9.583  15.896  69.011  1.00  0.00    -0.217 OA 
BRANCH  27  28
HETATM   28  C   UNL     1     -10.690  15.428  69.672  1.00  0.00    -0.276 A  
HETATM   29  C   UNL     1     -12.534  13.858  69.728  1.00  0.00    -0.240 A  
HETATM   30  C   UNL     1     -11.233  16.045  70.813  1.00  0.00    -0.381 A  
HETATM   31  C   UNL     1     -11.359  14.317  69.134  1.00  0.00    -0.276 A  
HETATM   32  C   UNL     1     -13.067  14.488  70.855  1.00  0.00    -0.405 A  
HETATM   33  C   UNL     1     -12.411  15.589  71.394  1.00  0.00    -0.461 A  
BRANCH  31  34
HETATM   34  O   UNL     1     -11.039  13.671  67.968  1.00  0.00    -0.247 OA 
BRANCH  34  35
HETATM   35  C   UNL     1     -11.537  14.245  66.754  1.00  0.00    -0.391 C  
HETATM   36  C   UNL     1     -11.963  13.189  65.739  1.00  0.00    -0.423 C  
HETATM   37  F   UNL     1     -11.952  11.934  66.234  1.00  0.00    -0.396 F  
HETATM   38  F   UNL     1     -13.208  13.436  65.270  1.00  0.00    -0.460 F  
HETATM   39  F   UNL     1     -11.131  13.201  64.663  1.00  0.00    -0.304 F  
ENDBRANCH  34  35
ENDBRANCH  31  34
ENDBRANCH  27  28
ENDBRANCH  26  27
ENDBRANCH  25  26
ENDBRANCH  23  25
ENDBRANCH   2  23
TORSDOF 13
ENDMDL
MODEL      127
REMARK 921   NORMALIZED FREE ENERGY PREDICTED BY IDOCK:   -5.21 KCAL/MOL
REMARK 922        TOTAL FREE ENERGY PREDICTED BY IDOCK:  -12.34 KCAL/MOL
REMARK 923 INTER-LIGAND FREE ENERGY PREDICTED BY IDOCK:   -9.66 KCAL/MOL
REMARK 924 INTRA-LIGAND FREE ENERGY PREDICTED BY IDOCK:   -2.68 KCAL/MOL
REMARK 927      BINDING AFFINITY PREDICTED BY RF-SCORE:    0.00 PKD
ROOT
HETATM    1  C   UNL     1      -9.288  10.018  63.818  1.00  0.00    -0.307 C  
HETATM    2  C   UNL     1      -9.550   9.957  65.328  1.00  0.00    -0.295 C  
ENDROOT
BRANCH   2   3
HETATM    3  C   UNL     1      -8.447  10.666  66.147  1.00  0.00    -0.159 C  
BRANCH   3   4
HETATM    4  C   UNL     1      -8.777  12.091  66.488  1.00  0.00    -0.138 A  
HETATM    5  C   UNL     1      -9.946  12.675  65.985  1.00  0.00    -0.267 A  
HETATM    6  C   UNL     1      -8.392  16.332  68.445  1.00  0.00    -0.190 A  
HETATM    7  C   UNL     1      -7.939  12.854  67.289  1.00  0.00    -0.151 A  
HETATM    8  C   UNL     1      -8.311  14.159  67.582  1.00  0.00    -0.187 A  
HETATM    9  C   UNL     1     -10.335  13.998  66.310  1.00  0.00    -0.294 A  
HETATM   10  C   UNL     1      -9.493  14.776  67.111  1.00  0.00    -0.227 A  
HETATM   11  C   UNL     1      -7.508  15.089  68.428  1.00  0.00    -0.113 A  
HETATM   12  N   UNL     1      -9.547  16.079  67.575  1.00  0.00    -0.221 NA 
BRANCH  12  13
HETATM   13  C   UNL     1     -10.579  17.091  67.462  1.00  0.00    -0.310 C  
BRANCH  13  14
HETATM   14  C   UNL     1     -10.261  18.101  66.356  1.00  0.00    -0.405 C  
BRANCH  14  15
HETATM   15  C   UNL     1     -10.487  19.548  66.774  1.00  0.00    -0.481 C  
HETATM   16  O   UNL     1      -9.687  20.402  65.954  1.00  0.00    -0.652 OA 
HETATM   17  H   UNL     1      -9.829  21.305  66.215  1.00  0.00     0.000 HD 
ENDBRANCH  14  15
ENDBRANCH  13  14
ENDBRANCH  12  13
BRANCH   9  18
HETATM   18  C   UNL     1     -11.625  14.407  65.694  1.00  0.00    -0.347 C  
HETATM   19  N   UNL     1     -12.765  13.920  66.294  1.00  0.00    -0.448 N  
HETATM   20  O   UNL     1     -11.718  15.088  64.679  1.00  0.00    -0.414 OA 
HETATM   21  H2  UNL     1     -12.726  13.314  67.113  1.00  0.00     0.000 HD 
HETATM   22  H1  UNL     1     -13.650  14.201  65.872  1.00  0.00     0.000 HD 
ENDBRANCH   9  18
ENDBRANCH   3   4
ENDBRANCH   2   3
BRANCH   2  23
HETATM   23  N   UNL     1      -9.690   8.542  65.718  1.00  0.00    -0.448 NA 
HETATM   24  H   UNL     1      -8.775   8.128  65.892  1.00  0.00     0.000 HD 
BRANCH  23  25
HETATM   25  C   UNL     1     -10.584   8.322  66.866  1.00  0.00    -0.232 C  
BRANCH  25  26
HETATM   26  C   UNL     1      -9.960   7.487  68.005  1.00  0.00    -0.172 C  
BRANCH  26  27
HETATM   27  O   UNL     1     -10.938   7.013  68.941  1.00  0.00    -0.194 OA 
BRANCH  27  28
HETATM   28  C   UNL     1     -10.726   7.305  70.264  1.00  0.00    -0.236 A  
HETATM   29  C   UNL     1     -10.978   8.887  72.081  1.00  0.00    -0.349 A  
HETATM   30  C   UNL     1      -9.962   6.497  71.126  1.00  0.00    -0.202 A  
HETATM   31  C   UNL     1     -11.238   8.513  70.764  1.00  0.00    -0.257 A  
HETATM   32  C   UNL     1     -10.208   8.080  72.922  1.00  0.00    -0.384 A  
HETATM   33  C   UNL     1      -9.698   6.881  72.436  1.00  0.00    -0.168 A  
BRANCH  31  34
HETATM   34  O   UNL     1     -11.898   9.470  70.037  1.00  0.00    -0.079 OA 
BRANCH  34  35
HETATM   35  C   UNL     1     -11.791  10.821  70.501  1.00  0.00    -0.356 C  
HETATM   36  C   UNL     1     -11.749  11.830  69.357  1.00  0.00    -0.341 C  
HETATM   37  F   UNL     1     -11.990  11.281  68.148  1.00  0.00    -0.365 F  
HETATM   38  F   UNL     1     -12.651  12.821  69.546  1.00  0.00    -0.130 F  
HETATM   39  F   UNL     1     -10.526  12.422  69.290  1.00  0.00    -0.140 F  
ENDBRANCH  34  35
ENDBRANCH  31  34
ENDBRANCH  27  28
ENDBRANCH  26  27
ENDBRANCH  25  26
ENDBRANCH  23  25
ENDBRANCH   2  23
TORSDOF 13
ENDMDL
MODEL      128
REMARK 921   NORMALIZED FREE ENERGY PREDICTED BY IDOCK:   -5.20 KCAL/MOL
REMARK 922        TOTAL FREE ENERGY PREDICTED BY IDOCK:  -12.31 KCAL/MOL
REMARK 923 INTER-LIGAND FREE ENERGY PREDICTED BY IDOCK:   -9.91 KCAL/MOL
REMARK 924 INTRA-LIGAND FREE ENERGY PREDICTED BY IDOCK:   -2.40 KCAL/MOL
REMARK 927      BINDING AFFINITY PREDICTED BY RF-SCORE:    0.00 PKD
ROOT
HETATM    1  C   UNL     1      -8.184   9.698  62.870  1.00  0.00    -0.153 C  
HETATM    2  C   UNL     1      -8.503   9.665  64.370  1.00  0.00    -0.181 C  
ENDROOT
BRANCH   2   3
HETATM    3  C   UNL     1      -8.009   8.367  65.049  1.00  0.00    -0.139 C  
BRANCH   3   4
HETATM    4  C   UNL     1      -8.590   8.148  66.417  1.00  0.00    -0.150 A  
HETATM    5  C   UNL     1      -8.191   8.964  67.481  1.00  0.00    -0.109 A  
HETATM    6  C   UNL     1     -11.253   6.304  69.804  1.00  0.00    -0.430 A  
HETATM    7  C   UNL     1      -9.514   7.141  66.654  1.00  0.00    -0.219 A  
HETATM    8  C   UNL     1     -10.027   7.003  67.938  1.00  0.00    -0.183 A  
HETATM    9  C   UNL     1      -8.737   8.837  68.782  1.00  0.00    -0.137 A  
HETATM   10  C   UNL     1      -9.665   7.821  69.033  1.00  0.00    -0.157 A  
HETATM   11  C   UNL     1     -11.025   5.967  68.334  1.00  0.00    -0.264 A  
HETATM   12  N   UNL     1     -10.347   7.403  70.163  1.00  0.00    -0.210 NA 
BRANCH  12  13
HETATM   13  C   UNL     1     -10.406   7.955  71.501  1.00  0.00    -0.201 C  
BRANCH  13  14
HETATM   14  C   UNL     1     -11.399   9.117  71.590  1.00  0.00    -0.446 C  
BRANCH  14  15
HETATM   15  C   UNL     1     -12.791   8.692  72.035  1.00  0.00    -0.379 C  
HETATM   16  O   UNL     1     -13.746   9.127  71.065  1.00  0.00    -0.584 OA 
HETATM   17  H   UNL     1     -14.615   8.861  71.343  1.00  0.00     0.000 HD 
ENDBRANCH  14  15
ENDBRANCH  13  14
ENDBRANCH  12  13
BRANCH   9  18
HETATM   18  C   UNL     1      -8.196   9.823  69.754  1.00  0.00    -0.173 C  
HETATM   19  N   UNL     1      -7.891  11.068  69.249  1.00  0.00    -0.325 N  
HETATM   20  O   UNL     1      -7.965   9.573  70.932  1.00  0.00    -0.297 OA 
HETATM   21  H2  UNL     1      -8.028  11.299  68.266  1.00  0.00     0.000 HD 
HETATM   22  H1  UNL     1      -7.519  11.745  69.917  1.00  0.00     0.000 HD 
ENDBRANCH   9  18
ENDBRANCH   3   4
ENDBRANCH   2   3
BRANCH   2  23
HETATM   23  N   UNL     1      -9.956   9.847  64.540  1.00  0.00    -0.405 NA 
HETATM   24  H   UNL     1     -10.344   9.100  65.115  1.00  0.00     0.000 HD 
BRANCH  23  25
HETATM   25  C   UNL     1     -10.338  11.164  65.074  1.00  0.00    -0.301 C  
BRANCH  25  26
HETATM   26  C   UNL     1     -11.094  11.107  66.419  1.00  0.00    -0.138 C  
BRANCH  26  27
HETATM   27  O   UNL     1     -10.362  11.719  67.489  1.00  0.00    -0.192 OA 
BRANCH  27  28
HETATM   28  C   UNL     1     -11.089  12.412  68.425  1.00  0.00    -0.250 A  
HETATM   29  C   UNL     1     -12.023  14.529  69.139  1.00  0.00    -0.344 A  
HETATM   30  C   UNL     1     -11.509  11.859  69.647  1.00  0.00    -0.337 A  
HETATM   31  C   UNL     1     -11.359  13.768  68.179  1.00  0.00    -0.284 A  
HETATM   32  C   UNL     1     -12.426  13.968  70.353  1.00  0.00    -0.418 A  
HETATM   33  C   UNL     1     -12.163  12.627  70.605  1.00  0.00    -0.373 A  
BRANCH  31  34
HETATM   34  O   UNL     1     -10.922  14.494  67.102  1.00  0.00    -0.290 OA 
BRANCH  34  35
HETATM   35  C   UNL     1     -11.885  14.774  66.078  1.00  0.00    -0.200 C  
HETATM   36  C   UNL     1     -11.254  14.869  64.693  1.00  0.00    -0.341 C  
HETATM   37  F   UNL     1      -9.954  14.508  64.669  1.00  0.00    -0.386 F  
HETATM   38  F   UNL     1     -11.914  14.094  63.801  1.00  0.00    -0.423 F  
HETATM   39  F   UNL     1     -11.321  16.145  64.226  1.00  0.00    -0.489 F  
ENDBRANCH  34  35
ENDBRANCH  31  34
ENDBRANCH  27  28
ENDBRANCH  26  27
ENDBRANCH  25  26
ENDBRANCH  23  25
ENDBRANCH   2  23
TORSDOF 13
ENDMDL
MODEL      129
REMARK 921   NORMALIZED FREE ENERGY PREDICTED BY IDOCK:   -5.19 KCAL/MOL
REMARK 922        TOTAL FREE ENERGY PREDICTED BY IDOCK:  -12.30 KCAL/MOL
REMARK 923 INTER-LIGAND FREE ENERGY PREDICTED BY IDOCK:  -10.46 KCAL/MOL
REMARK 924 INTRA-LIGAND FREE ENERGY PREDICTED BY IDOCK:   -1.84 KCAL/MOL
REMARK 927      BINDING AFFINITY PREDICTED BY RF-SCORE:    0.00 PKD
ROOT
HETATM    1  C   UNL     1     -14.095   7.780  71.794  1.00  0.00    -0.519 C  
HETATM    2  C   UNL     1     -12.611   7.818  71.405  1.00  0.00    -0.317 C  
ENDROOT
BRANCH   2   3
HETATM    3  C   UNL     1     -11.836   6.584  71.920  1.00  0.00    -0.381 C  
BRANCH   3   4
HETATM    4  C   UNL     1     -11.114   5.835  70.836  1.00  0.00    -0.267 A  
HETATM    5  C   UNL     1     -11.051   6.370  69.544  1.00  0.00    -0.460 A  
HETATM    6  C   UNL     1      -8.574   2.483  68.768  1.00  0.00    -0.074 A  
HETATM    7  C   UNL     1     -10.511   4.610  71.084  1.00  0.00    -0.065 A  
HETATM    8  C   UNL     1      -9.844   3.979  70.043  1.00  0.00    -0.198 A  
HETATM    9  C   UNL     1     -10.345   5.735  68.492  1.00  0.00    -0.274 A  
HETATM   10  C   UNL     1      -9.740   4.497  68.731  1.00  0.00    -0.143 A  
HETATM   11  C   UNL     1      -9.152   2.662  70.168  1.00  0.00    -0.186 A  
HETATM   12  N   UNL     1      -9.026   3.611  67.943  1.00  0.00    -0.118 NA 
BRANCH  12  13
HETATM   13  C   UNL     1      -8.564   3.710  66.573  1.00  0.00    -0.115 C  
BRANCH  13  14
HETATM   14  C   UNL     1      -9.448   2.903  65.618  1.00  0.00    -0.002 C  
BRANCH  14  15
HETATM   15  C   UNL     1     -10.045   3.737  64.493  1.00  0.00    -0.210 C  
HETATM   16  O   UNL     1      -9.255   4.913  64.312  1.00  0.00    -0.320 OA 
HETATM   17  H   UNL     1      -9.627   5.433  63.610  1.00  0.00     0.000 HD 
ENDBRANCH  14  15
ENDBRANCH  13  14
ENDBRANCH  12  13
BRANCH   9  18
HETATM   18  C   UNL     1     -10.379   6.489  67.212  1.00  0.00    -0.222 C  
HETATM   19  N   UNL     1     -11.611   6.599  66.605  1.00  0.00    -0.449 N  
HETATM   20  O   UNL     1      -9.388   6.953  66.660  1.00  0.00    -0.154 OA 
HETATM   21  H2  UNL     1     -12.450   6.187  67.012  1.00  0.00     0.000 HD 
HETATM   22  H1  UNL     1     -11.634   7.116  65.726  1.00  0.00     0.000 HD 
ENDBRANCH   9  18
ENDBRANCH   3   4
ENDBRANCH   2   3
BRANCH   2  23
HETATM   23  N   UNL     1     -12.031   9.074  71.913  1.00  0.00    -0.360 NA 
HETATM   24  H   UNL     1     -11.326   8.880  72.624  1.00  0.00     0.000 HD 
BRANCH  23  25
HETATM   25  C   UNL     1     -11.480   9.947  70.864  1.00  0.00    -0.376 C  
BRANCH  25  26
HETATM   26  C   UNL     1     -12.516  10.892  70.216  1.00  0.00    -0.303 C  
BRANCH  26  27
HETATM   27  O   UNL     1     -12.144  11.291  68.891  1.00  0.00    -0.455 OA 
BRANCH  27  28
HETATM   28  C   UNL     1     -12.104  12.638  68.634  1.00  0.00    -0.102 A  
HETATM   29  C   UNL     1     -11.866  14.408  66.997  1.00  0.00    -0.437 A  
HETATM   30  C   UNL     1     -12.090  13.621  69.640  1.00  0.00    -0.378 A  
HETATM   31  C   UNL     1     -11.992  13.053  67.297  1.00  0.00    -0.321 A  
HETATM   32  C   UNL     1     -11.844  15.372  68.008  1.00  0.00    -0.128 A  
HETATM   33  C   UNL     1     -11.954  14.971  69.334  1.00  0.00    -0.336 A  
BRANCH  31  34
HETATM   34  O   UNL     1     -11.870  12.231  66.207  1.00  0.00    -0.517 OA 
BRANCH  34  35
HETATM   35  C   UNL     1     -11.193  12.770  65.064  1.00  0.00    -0.298 C  
HETATM   36  C   UNL     1     -11.859  12.375  63.751  1.00  0.00    -0.502 C  
HETATM   37  F   UNL     1     -13.041  11.745  63.915  1.00  0.00    -0.540 F  
HETATM   38  F   UNL     1     -12.075  13.458  62.967  1.00  0.00    -0.582 F  
HETATM   39  F   UNL     1     -11.056  11.535  63.043  1.00  0.00    -0.347 F  
ENDBRANCH  34  35
ENDBRANCH  31  34
ENDBRANCH  27  28
ENDBRANCH  26  27
ENDBRANCH  25  26
ENDBRANCH  23  25
ENDBRANCH   2  23
TORSDOF 13
ENDMDL
MODEL      130
REMARK 921   NORMALIZED FREE ENERGY PREDICTED BY IDOCK:   -5.17 KCAL/MOL
REMARK 922        TOTAL FREE ENERGY PREDICTED BY IDOCK:  -12.27 KCAL/MOL
REMARK 923 INTER-LIGAND FREE ENERGY PREDICTED BY IDOCK:  -10.74 KCAL/MOL
REMARK 924 INTRA-LIGAND FREE ENERGY PREDICTED BY IDOCK:   -1.53 KCAL/MOL
REMARK 927      BINDING AFFINITY PREDICTED BY RF-SCORE:    0.00 PKD
ROOT
HETATM    1  C   UNL     1      -8.834  11.219  62.364  1.00  0.00    -0.254 C  
HETATM    2  C   UNL     1      -9.483  10.827  63.697  1.00  0.00    -0.291 C  
ENDROOT
BRANCH   2   3
HETATM    3  C   UNL     1      -9.094   9.400  64.144  1.00  0.00    -0.132 C  
BRANCH   3   4
HETATM    4  C   UNL     1      -9.417   9.114  65.583  1.00  0.00    -0.309 A  
HETATM    5  C   UNL     1      -9.818   7.829  65.965  1.00  0.00     0.164 A  
HETATM    6  C   UNL     1      -9.945   9.835  70.184  1.00  0.00    -0.263 A  
HETATM    7  C   UNL     1      -9.336  10.105  66.551  1.00  0.00    -0.200 A  
HETATM    8  C   UNL     1      -9.630   9.771  67.867  1.00  0.00    -0.158 A  
HETATM    9  C   UNL     1     -10.089   7.485  67.312  1.00  0.00    -0.300 A  
HETATM   10  C   UNL     1     -10.017   8.479  68.294  1.00  0.00    -0.184 A  
HETATM   11  C   UNL     1      -9.584  10.734  69.006  1.00  0.00    -0.193 A  
HETATM   12  N   UNL     1     -10.249   8.498  69.658  1.00  0.00    -0.203 NA 
BRANCH  12  13
HETATM   13  C   UNL     1     -10.569   7.432  70.587  1.00  0.00    -0.223 C  
BRANCH  13  14
HETATM   14  C   UNL     1     -12.080   7.268  70.762  1.00  0.00    -0.284 C  
BRANCH  14  15
HETATM   15  C   UNL     1     -12.631   7.992  71.982  1.00  0.00    -0.312 C  
HETATM   16  O   UNL     1     -11.648   7.978  73.018  1.00  0.00    -0.535 OA 
HETATM   17  H   UNL     1     -11.992   8.429  73.780  1.00  0.00     0.000 HD 
ENDBRANCH  14  15
ENDBRANCH  13  14
ENDBRANCH  12  13
BRANCH   9  18
HETATM   18  C   UNL     1     -10.467   6.060  67.499  1.00  0.00    -0.240 C  
HETATM   19  N   UNL     1     -11.200   5.489  66.483  1.00  0.00    -0.585 N  
HETATM   20  O   UNL     1     -10.215   5.408  68.506  1.00  0.00    -0.175 OA 
HETATM   21  H2  UNL     1     -11.467   6.013  65.650  1.00  0.00     0.000 HD 
HETATM   22  H1  UNL     1     -11.460   4.510  66.611  1.00  0.00     0.000 HD 
ENDBRANCH   9  18
ENDBRANCH   3   4
ENDBRANCH   2   3
BRANCH   2  23
HETATM   23  N   UNL     1     -10.944  10.975  63.563  1.00  0.00    -0.613 NA 
HETATM   24  H   UNL     1     -11.426  10.285  64.138  1.00  0.00     0.000 HD 
BRANCH  23  25
HETATM   25  C   UNL     1     -11.439  12.330  63.855  1.00  0.00    -0.435 C  
BRANCH  25  26
HETATM   26  C   UNL     1     -12.027  12.498  65.273  1.00  0.00    -0.438 C  
BRANCH  26  27
HETATM   27  O   UNL     1     -12.447  13.842  65.540  1.00  0.00    -0.452 OA 
BRANCH  27  28
HETATM   28  C   UNL     1     -11.536  14.671  66.144  1.00  0.00    -0.332 A  
HETATM   29  C   UNL     1     -10.662  15.605  68.202  1.00  0.00    -0.287 A  
HETATM   30  C   UNL     1     -10.679  15.531  65.436  1.00  0.00    -0.422 A  
HETATM   31  C   UNL     1     -11.515  14.717  67.548  1.00  0.00    -0.361 A  
HETATM   32  C   UNL     1      -9.823  16.460  67.484  1.00  0.00    -0.239 A  
HETATM   33  C   UNL     1      -9.838  16.422  66.094  1.00  0.00    -0.362 A  
BRANCH  31  34
HETATM   34  O   UNL     1     -12.359  14.040  68.389  1.00  0.00    -0.254 OA 
BRANCH  34  35
HETATM   35  C   UNL     1     -11.767  13.421  69.538  1.00  0.00    -0.324 C  
HETATM   36  C   UNL     1     -12.428  13.857  70.841  1.00  0.00    -0.375 C  
HETATM   37  F   UNL     1     -13.539  14.601  70.658  1.00  0.00    -0.378 F  
HETATM   38  F   UNL     1     -12.767  12.789  71.599  1.00  0.00    -0.415 F  
HETATM   39  F   UNL     1     -11.567  14.605  71.584  1.00  0.00    -0.378 F  
ENDBRANCH  34  35
ENDBRANCH  31  34
ENDBRANCH  27  28
ENDBRANCH  26  27
ENDBRANCH  25  26
ENDBRANCH  23  25
ENDBRANCH   2  23
TORSDOF 13
ENDMDL
MODEL      131
REMARK 921   NORMALIZED FREE ENERGY PREDICTED BY IDOCK:   -5.17 KCAL/MOL
REMARK 922        TOTAL FREE ENERGY PREDICTED BY IDOCK:  -12.27 KCAL/MOL
REMARK 923 INTER-LIGAND FREE ENERGY PREDICTED BY IDOCK:   -9.66 KCAL/MOL
REMARK 924 INTRA-LIGAND FREE ENERGY PREDICTED BY IDOCK:   -2.61 KCAL/MOL
REMARK 927      BINDING AFFINITY PREDICTED BY RF-SCORE:    0.00 PKD
ROOT
HETATM    1  C   UNL     1     -11.745   8.234  72.506  1.00  0.00    -0.451 C  
HETATM    2  C   UNL     1     -11.405   9.412  71.584  1.00  0.00    -0.382 C  
ENDROOT
BRANCH   2   3
HETATM    3  C   UNL     1     -12.665  10.056  70.963  1.00  0.00    -0.455 C  
BRANCH   3   4
HETATM    4  C   UNL     1     -12.375  11.299  70.172  1.00  0.00    -0.354 A  
HETATM    5  C   UNL     1     -12.477  12.553  70.784  1.00  0.00    -0.357 A  
HETATM    6  C   UNL     1     -11.130  13.998  66.549  1.00  0.00    -0.314 A  
HETATM    7  C   UNL     1     -12.013  11.235  68.834  1.00  0.00    -0.378 A  
HETATM    8  C   UNL     1     -11.739  12.420  68.165  1.00  0.00    -0.408 A  
HETATM    9  C   UNL     1     -12.169  13.759  70.105  1.00  0.00    -0.425 A  
HETATM   10  C   UNL     1     -11.810  13.704  68.754  1.00  0.00    -0.360 A  
HETATM   11  C   UNL     1     -11.339  12.499  66.729  1.00  0.00    -0.390 A  
HETATM   12  N   UNL     1     -11.493  14.662  67.808  1.00  0.00    -0.325 NA 
BRANCH  12  13
HETATM   13  C   UNL     1     -11.327  16.098  67.920  1.00  0.00    -0.182 C  
BRANCH  13  14
HETATM   14  C   UNL     1      -9.896  16.529  67.590  1.00  0.00    -0.247 C  
BRANCH  14  15
HETATM   15  C   UNL     1      -9.026  16.734  68.822  1.00  0.00    -0.254 C  
HETATM   16  O   UNL     1      -9.156  15.601  69.682  1.00  0.00    -0.273 OA 
HETATM   17  H   UNL     1      -8.613  15.729  70.451  1.00  0.00     0.000 HD 
ENDBRANCH  14  15
ENDBRANCH  13  14
ENDBRANCH  12  13
BRANCH   9  18
HETATM   18  C   UNL     1     -12.315  14.972  70.950  1.00  0.00    -0.334 C  
HETATM   19  N   UNL     1     -11.299  15.211  71.849  1.00  0.00    -0.536 N  
HETATM   20  O   UNL     1     -13.290  15.715  70.926  1.00  0.00    -0.556 OA 
HETATM   21  H2  UNL     1     -10.494  14.591  71.930  1.00  0.00     0.000 HD 
HETATM   22  H1  UNL     1     -11.399  16.044  72.430  1.00  0.00     0.000 HD 
ENDBRANCH   9  18
ENDBRANCH   3   4
ENDBRANCH   2   3
BRANCH   2  23
HETATM   23  N   UNL     1     -10.472   8.935  70.547  1.00  0.00    -0.203 NA 
HETATM   24  H   UNL     1     -10.716   9.329  69.639  1.00  0.00     0.000 HD 
BRANCH  23  25
HETATM   25  C   UNL     1      -9.055   9.184  70.856  1.00  0.00    -0.252 C  
BRANCH  25  26
HETATM   26  C   UNL     1      -8.252   7.915  71.215  1.00  0.00    -0.101 C  
BRANCH  26  27
HETATM   27  O   UNL     1      -7.604   7.332  70.077  1.00  0.00    -0.086 OA 
BRANCH  27  28
HETATM   28  C   UNL     1      -8.377   6.556  69.250  1.00  0.00    -0.123 A  
HETATM   29  C   UNL     1      -9.280   6.193  67.032  1.00  0.00    -0.127 A  
HETATM   30  C   UNL     1      -9.162   5.481  69.704  1.00  0.00    -0.163 A  
HETATM   31  C   UNL     1      -8.444   6.904  67.891  1.00  0.00    -0.120 A  
HETATM   32  C   UNL     1     -10.062   5.134  67.499  1.00  0.00    -0.213 A  
HETATM   33  C   UNL     1     -10.002   4.782  68.843  1.00  0.00    -0.197 A  
BRANCH  31  34
HETATM   34  O   UNL     1      -7.843   7.988  67.306  1.00  0.00    -0.106 OA 
BRANCH  34  35
HETATM   35  C   UNL     1      -8.635   9.175  67.178  1.00  0.00    -0.120 C  
HETATM   36  C   UNL     1      -8.958   9.507  65.725  1.00  0.00    -0.179 C  
HETATM   37  F   UNL     1      -8.588   8.541  64.858  1.00  0.00    -0.167 F  
HETATM   38  F   UNL     1     -10.283   9.726  65.557  1.00  0.00    -0.366 F  
HETATM   39  F   UNL     1      -8.322  10.648  65.345  1.00  0.00    -0.154 F  
ENDBRANCH  34  35
ENDBRANCH  31  34
ENDBRANCH  27  28
ENDBRANCH  26  27
ENDBRANCH  25  26
ENDBRANCH  23  25
ENDBRANCH   2  23
TORSDOF 13
ENDMDL
MODEL      132
REMARK 921   NORMALIZED FREE ENERGY PREDICTED BY IDOCK:   -5.17 KCAL/MOL
REMARK 922        TOTAL FREE ENERGY PREDICTED BY IDOCK:  -12.27 KCAL/MOL
REMARK 923 INTER-LIGAND FREE ENERGY PREDICTED BY IDOCK:   -9.98 KCAL/MOL
REMARK 924 INTRA-LIGAND FREE ENERGY PREDICTED BY IDOCK:   -2.29 KCAL/MOL
REMARK 927      BINDING AFFINITY PREDICTED BY RF-SCORE:    0.00 PKD
ROOT
HETATM    1  C   UNL     1     -14.405   9.285  72.445  1.00  0.00    -0.135 C  
HETATM    2  C   UNL     1     -12.901   9.347  72.152  1.00  0.00    -0.401 C  
ENDROOT
BRANCH   2   3
HETATM    3  C   UNL     1     -12.602   9.592  70.655  1.00  0.00    -0.064 C  
BRANCH   3   4
HETATM    4  C   UNL     1     -12.353  11.035  70.323  1.00  0.00    -0.410 A  
HETATM    5  C   UNL     1     -11.818  11.380  69.076  1.00  0.00    -0.415 A  
HETATM    6  C   UNL     1     -12.270  15.695  70.814  1.00  0.00    -0.418 A  
HETATM    7  C   UNL     1     -12.635  12.044  71.233  1.00  0.00    -0.357 A  
HETATM    8  C   UNL     1     -12.399  13.360  70.856  1.00  0.00    -0.436 A  
HETATM    9  C   UNL     1     -11.606  12.726  68.686  1.00  0.00    -0.352 A  
HETATM   10  C   UNL     1     -11.881  13.749  69.600  1.00  0.00    -0.333 A  
HETATM   11  C   UNL     1     -12.656  14.541  71.732  1.00  0.00    -0.417 A  
HETATM   12  N   UNL     1     -11.756  15.127  69.561  1.00  0.00    -0.308 NA 
BRANCH  12  13
HETATM   13  C   UNL     1     -11.370  16.021  68.488  1.00  0.00    -0.382 C  
BRANCH  13  14
HETATM   14  C   UNL     1      -9.916  16.477  68.627  1.00  0.00    -0.248 C  
BRANCH  14  15
HETATM   15  C   UNL     1      -9.705  17.944  68.279  1.00  0.00    -0.327 C  
HETATM   16  O   UNL     1     -10.965  18.616  68.299  1.00  0.00    -0.235 OA 
HETATM   17  H   UNL     1     -10.833  19.532  68.082  1.00  0.00     0.000 HD 
ENDBRANCH  14  15
ENDBRANCH  13  14
ENDBRANCH  12  13
BRANCH   9  18
HETATM   18  C   UNL     1     -11.060  12.868  67.311  1.00  0.00    -0.274 C  
HETATM   19  N   UNL     1     -11.808  12.306  66.300  1.00  0.00    -0.369 N  
HETATM   20  O   UNL     1      -9.985  13.395  67.049  1.00  0.00    -0.238 OA 
HETATM   21  H2  UNL     1     -12.686  11.821  66.485  1.00  0.00     0.000 HD 
HETATM   22  H1  UNL     1     -11.433  12.404  65.356  1.00  0.00     0.000 HD 
ENDBRANCH   9  18
ENDBRANCH   3   4
ENDBRANCH   2   3
BRANCH   2  23
HETATM   23  N   UNL     1     -12.283   8.097  72.630  1.00  0.00    -0.599 NA 
HETATM   24  H   UNL     1     -12.691   7.815  73.521  1.00  0.00     0.000 HD 
BRANCH  23  25
HETATM   25  C   UNL     1     -12.342   6.990  71.662  1.00  0.00    -0.368 C  
BRANCH  25  26
HETATM   26  C   UNL     1     -11.260   5.908  71.870  1.00  0.00    -0.264 C  
BRANCH  26  27
HETATM   27  O   UNL     1     -10.379   5.786  70.745  1.00  0.00    -0.212 OA 
BRANCH  27  28
HETATM   28  C   UNL     1      -9.974   6.950  70.143  1.00  0.00    -0.178 A  
HETATM   29  C   UNL     1      -9.969   8.338  68.157  1.00  0.00    -0.224 A  
HETATM   30  C   UNL     1      -9.077   7.859  70.732  1.00  0.00    -0.154 A  
HETATM   31  C   UNL     1     -10.421   7.208  68.837  1.00  0.00    -0.207 A  
HETATM   32  C   UNL     1      -9.070   9.226  68.752  1.00  0.00    -0.136 A  
HETATM   33  C   UNL     1      -8.622   8.979  70.045  1.00  0.00    -0.157 A  
BRANCH  31  34
HETATM   34  O   UNL     1     -11.197   6.376  68.072  1.00  0.00    -0.311 OA 
BRANCH  34  35
HETATM   35  C   UNL     1     -10.785   6.175  66.715  1.00  0.00    -0.299 C  
HETATM   36  C   UNL     1     -10.114   4.822  66.502  1.00  0.00    -0.257 C  
HETATM   37  F   UNL     1     -10.188   4.011  67.579  1.00  0.00    -0.148 F  
HETATM   38  F   UNL     1     -10.661   4.164  65.454  1.00  0.00    -0.230 F  
HETATM   39  F   UNL     1      -8.794   4.985  66.216  1.00  0.00    -0.114 F  
ENDBRANCH  34  35
ENDBRANCH  31  34
ENDBRANCH  27  28
ENDBRANCH  26  27
ENDBRANCH  25  26
ENDBRANCH  23  25
ENDBRANCH   2  23
TORSDOF 13
ENDMDL
MODEL      133
REMARK 921   NORMALIZED FREE ENERGY PREDICTED BY IDOCK:   -5.17 KCAL/MOL
REMARK 922        TOTAL FREE ENERGY PREDICTED BY IDOCK:  -12.26 KCAL/MOL
REMARK 923 INTER-LIGAND FREE ENERGY PREDICTED BY IDOCK:   -9.77 KCAL/MOL
REMARK 924 INTRA-LIGAND FREE ENERGY PREDICTED BY IDOCK:   -2.49 KCAL/MOL
REMARK 927      BINDING AFFINITY PREDICTED BY RF-SCORE:    0.00 PKD
ROOT
HETATM    1  C   UNL     1      -8.291  10.295  65.112  1.00  0.00    -0.162 C  
HETATM    2  C   UNL     1      -9.081  10.637  66.382  1.00  0.00    -0.164 C  
ENDROOT
BRANCH   2   3
HETATM    3  C   UNL     1     -10.141   9.565  66.722  1.00  0.00    -0.312 C  
BRANCH   3   4
HETATM    4  C   UNL     1      -9.813   8.766  67.951  1.00  0.00    -0.207 A  
HETATM    5  C   UNL     1     -10.729   8.705  69.006  1.00  0.00    -0.122 A  
HETATM    6  C   UNL     1      -7.427   5.954  70.843  1.00  0.00    -0.091 A  
HETATM    7  C   UNL     1      -8.607   8.089  68.071  1.00  0.00    -0.129 A  
HETATM    8  C   UNL     1      -8.373   7.354  69.225  1.00  0.00    -0.132 A  
HETATM    9  C   UNL     1     -10.498   7.930  70.170  1.00  0.00    -0.231 A  
HETATM   10  C   UNL     1      -9.283   7.250  70.302  1.00  0.00    -0.155 A  
HETATM   11  C   UNL     1      -7.124   6.580  69.486  1.00  0.00    -0.073 A  
HETATM   12  N   UNL     1      -8.731   6.458  71.294  1.00  0.00    -0.134 NA 
BRANCH  12  13
HETATM   13  C   UNL     1      -9.282   5.968  72.542  1.00  0.00    -0.141 C  
BRANCH  13  14
HETATM   14  C   UNL     1     -10.173   4.742  72.324  1.00  0.00    -0.252 C  
BRANCH  14  15
HETATM   15  C   UNL     1     -11.295   4.619  73.345  1.00  0.00    -0.305 C  
HETATM   16  O   UNL     1     -12.387   5.447  72.943  1.00  0.00    -0.494 OA 
HETATM   17  H   UNL     1     -13.087   5.370  73.581  1.00  0.00     0.000 HD 
ENDBRANCH  14  15
ENDBRANCH  13  14
ENDBRANCH  12  13
BRANCH   9  18
HETATM   18  C   UNL     1     -11.613   7.981  71.151  1.00  0.00    -0.282 C  
HETATM   19  N   UNL     1     -12.827   7.496  70.716  1.00  0.00    -0.572 N  
HETATM   20  O   UNL     1     -11.523   8.469  72.272  1.00  0.00    -0.355 OA 
HETATM   21  H2  UNL     1     -12.952   7.124  69.775  1.00  0.00     0.000 HD 
HETATM   22  H1  UNL     1     -13.593   7.531  71.389  1.00  0.00     0.000 HD 
ENDBRANCH   9  18
ENDBRANCH   3   4
ENDBRANCH   2   3
BRANCH   2  23
HETATM   23  N   UNL     1      -9.692  11.966  66.204  1.00  0.00    -0.227 NA 
HETATM   24  H   UNL     1      -9.291  12.439  65.394  1.00  0.00     0.000 HD 
BRANCH  23  25
HETATM   25  C   UNL     1     -11.161  11.945  66.116  1.00  0.00    -0.326 C  
BRANCH  25  26
HETATM   26  C   UNL     1     -11.858  13.104  66.861  1.00  0.00    -0.386 C  
BRANCH  26  27
HETATM   27  O   UNL     1     -11.201  13.444  68.089  1.00  0.00    -0.248 OA 
BRANCH  27  28
HETATM   28  C   UNL     1     -11.860  13.140  69.253  1.00  0.00    -0.323 A  
HETATM   29  C   UNL     1     -13.007  13.942  71.230  1.00  0.00    -0.414 A  
HETATM   30  C   UNL     1     -11.957  11.837  69.773  1.00  0.00    -0.392 A  
HETATM   31  C   UNL     1     -12.400  14.198  70.001  1.00  0.00    -0.344 A  
HETATM   32  C   UNL     1     -13.086  12.643  71.739  1.00  0.00    -0.461 A  
HETATM   33  C   UNL     1     -12.555  11.590  71.004  1.00  0.00    -0.457 A  
BRANCH  31  34
HETATM   34  O   UNL     1     -12.292  15.532  69.705  1.00  0.00    -0.334 OA 
BRANCH  34  35
HETATM   35  C   UNL     1     -11.098  16.195  70.137  1.00  0.00    -0.371 C  
HETATM   36  C   UNL     1     -10.330  16.827  68.981  1.00  0.00    -0.326 C  
HETATM   37  F   UNL     1     -10.997  16.790  67.809  1.00  0.00    -0.334 F  
HETATM   38  F   UNL     1     -10.028  18.120  69.243  1.00  0.00    -0.321 F  
HETATM   39  F   UNL     1      -9.147  16.182  68.787  1.00  0.00    -0.187 F  
ENDBRANCH  34  35
ENDBRANCH  31  34
ENDBRANCH  27  28
ENDBRANCH  26  27
ENDBRANCH  25  26
ENDBRANCH  23  25
ENDBRANCH   2  23
TORSDOF 13
ENDMDL
MODEL      134
REMARK 921   NORMALIZED FREE ENERGY PREDICTED BY IDOCK:   -5.14 KCAL/MOL
REMARK 922        TOTAL FREE ENERGY PREDICTED BY IDOCK:  -12.22 KCAL/MOL
REMARK 923 INTER-LIGAND FREE ENERGY PREDICTED BY IDOCK:   -9.94 KCAL/MOL
REMARK 924 INTRA-LIGAND FREE ENERGY PREDICTED BY IDOCK:   -2.28 KCAL/MOL
REMARK 927      BINDING AFFINITY PREDICTED BY RF-SCORE:    0.00 PKD
ROOT
HETATM    1  C   UNL     1      -9.518  11.061  65.289  1.00  0.00    -0.259 C  
HETATM    2  C   UNL     1      -9.232  11.564  66.709  1.00  0.00    -0.181 C  
ENDROOT
BRANCH   2   3
HETATM    3  C   UNL     1     -10.506  11.620  67.582  1.00  0.00    -0.219 C  
BRANCH   3   4
HETATM    4  C   UNL     1     -10.422  10.774  68.820  1.00  0.00    -0.221 A  
HETATM    5  C   UNL     1     -11.565  10.565  69.599  1.00  0.00    -0.342 A  
HETATM    6  C   UNL     1      -8.579   7.995  72.113  1.00  0.00    -0.155 A  
HETATM    7  C   UNL     1      -9.225  10.197  69.219  1.00  0.00    -0.220 A  
HETATM    8  C   UNL     1      -9.219   9.411  70.364  1.00  0.00    -0.305 A  
HETATM    9  C   UNL     1     -11.561   9.739  70.750  1.00  0.00    -0.417 A  
HETATM   10  C   UNL     1     -10.357   9.159  71.164  1.00  0.00    -0.317 A  
HETATM   11  C   UNL     1      -8.006   8.731  70.907  1.00  0.00    -0.155 A  
HETATM   12  N   UNL     1      -9.998   8.354  72.232  1.00  0.00    -0.291 NA 
BRANCH  12  13
HETATM   13  C   UNL     1     -10.796   7.738  73.273  1.00  0.00    -0.250 C  
BRANCH  13  14
HETATM   14  C   UNL     1     -10.356   6.297  73.545  1.00  0.00    -0.269 C  
BRANCH  14  15
HETATM   15  C   UNL     1     -11.127   5.265  72.735  1.00  0.00    -0.286 C  
HETATM   16  O   UNL     1     -10.325   4.838  71.633  1.00  0.00    -0.196 OA 
HETATM   17  H   UNL     1     -10.806   4.194  71.128  1.00  0.00     0.000 HD 
ENDBRANCH  14  15
ENDBRANCH  13  14
ENDBRANCH  12  13
BRANCH   9  18
HETATM   18  C   UNL     1     -12.888   9.630  71.411  1.00  0.00    -0.379 C  
HETATM   19  N   UNL     1     -13.335  10.756  72.064  1.00  0.00    -0.524 N  
HETATM   20  O   UNL     1     -13.555   8.602  71.448  1.00  0.00    -0.318 OA 
HETATM   21  H2  UNL     1     -12.787  11.616  72.093  1.00  0.00     0.000 HD 
HETATM   22  H1  UNL     1     -14.246  10.681  72.518  1.00  0.00     0.000 HD 
ENDBRANCH   9  18
ENDBRANCH   3   4
ENDBRANCH   2   3
BRANCH   2  23
HETATM   23  N   UNL     1      -8.583  12.884  66.612  1.00  0.00    -0.425 NA 
HETATM   24  H   UNL     1      -9.273  13.629  66.706  1.00  0.00     0.000 HD 
BRANCH  23  25
HETATM   25  C   UNL     1      -7.476  13.080  67.562  1.00  0.00    -0.156 C  
BRANCH  25  26
HETATM   26  C   UNL     1      -7.320  14.532  68.063  1.00  0.00    -0.138 C  
BRANCH  26  27
HETATM   27  O   UNL     1      -8.463  14.987  68.800  1.00  0.00    -0.162 OA 
BRANCH  27  28
HETATM   28  C   UNL     1      -9.086  16.122  68.347  1.00  0.00    -0.199 A  
HETATM   29  C   UNL     1     -10.754  17.102  66.889  1.00  0.00    -0.121 A  
HETATM   30  C   UNL     1      -8.672  17.422  68.684  1.00  0.00    -0.261 A  
HETATM   31  C   UNL     1     -10.146  15.974  67.437  1.00  0.00    -0.258 A  
HETATM   32  C   UNL     1     -10.325  18.388  67.226  1.00  0.00    -0.417 A  
HETATM   33  C   UNL     1      -9.277  18.544  68.126  1.00  0.00    -0.329 A  
BRANCH  31  34
HETATM   34  O   UNL     1     -10.598  14.792  66.911  1.00  0.00    -0.284 OA 
BRANCH  34  35
HETATM   35  C   UNL     1     -11.892  14.811  66.297  1.00  0.00    -0.209 C  
HETATM   36  C   UNL     1     -11.835  14.504  64.805  1.00  0.00    -0.441 C  
HETATM   37  F   UNL     1     -10.615  14.111  64.383  1.00  0.00    -0.414 F  
HETATM   38  F   UNL     1     -12.719  13.535  64.470  1.00  0.00    -0.365 F  
HETATM   39  F   UNL     1     -12.171  15.606  64.080  1.00  0.00    -0.456 F  
ENDBRANCH  34  35
ENDBRANCH  31  34
ENDBRANCH  27  28
ENDBRANCH  26  27
ENDBRANCH  25  26
ENDBRANCH  23  25
ENDBRANCH   2  23
TORSDOF 13
ENDMDL
MODEL      135
REMARK 921   NORMALIZED FREE ENERGY PREDICTED BY IDOCK:   -5.14 KCAL/MOL
REMARK 922        TOTAL FREE ENERGY PREDICTED BY IDOCK:  -12.21 KCAL/MOL
REMARK 923 INTER-LIGAND FREE ENERGY PREDICTED BY IDOCK:   -9.87 KCAL/MOL
REMARK 924 INTRA-LIGAND FREE ENERGY PREDICTED BY IDOCK:   -2.35 KCAL/MOL
REMARK 927      BINDING AFFINITY PREDICTED BY RF-SCORE:    0.00 PKD
ROOT
HETATM    1  C   UNL     1      -7.054  15.370  67.282  1.00  0.00    -0.206 C  
HETATM    2  C   UNL     1      -7.440  14.117  68.077  1.00  0.00    -0.140 C  
ENDROOT
BRANCH   2   3
HETATM    3  C   UNL     1      -8.384  13.184  67.284  1.00  0.00    -0.182 C  
BRANCH   3   4
HETATM    4  C   UNL     1      -8.869  12.006  68.080  1.00  0.00    -0.179 A  
HETATM    5  C   UNL     1      -7.986  10.968  68.396  1.00  0.00    -0.131 A  
HETATM    6  C   UNL     1     -11.780   9.275  70.536  1.00  0.00    -0.176 A  
HETATM    7  C   UNL     1     -10.187  11.916  68.505  1.00  0.00    -0.221 A  
HETATM    8  C   UNL     1     -10.567  10.810  69.253  1.00  0.00    -0.261 A  
HETATM    9  C   UNL     1      -8.371   9.855  69.183  1.00  0.00    -0.145 A  
HETATM   10  C   UNL     1      -9.699   9.753  69.610  1.00  0.00    -0.222 A  
HETATM   11  C   UNL     1     -11.948  10.585  69.774  1.00  0.00    -0.309 A  
HETATM   12  N   UNL     1     -10.401   8.808  70.338  1.00  0.00    -0.192 NA 
BRANCH  12  13
HETATM   13  C   UNL     1      -9.963   7.602  71.012  1.00  0.00    -0.182 C  
BRANCH  13  14
HETATM   14  C   UNL     1     -11.018   6.496  70.935  1.00  0.00    -0.325 C  
BRANCH  14  15
HETATM   15  C   UNL     1     -11.584   6.103  72.293  1.00  0.00    -0.313 C  
HETATM   16  O   UNL     1     -12.971   6.443  72.338  1.00  0.00    -0.537 OA 
HETATM   17  H   UNL     1     -13.324   6.197  73.186  1.00  0.00     0.000 HD 
ENDBRANCH  14  15
ENDBRANCH  13  14
ENDBRANCH  12  13
BRANCH   9  18
HETATM   18  C   UNL     1      -7.270   8.887  69.425  1.00  0.00    -0.061 C  
HETATM   19  N   UNL     1      -6.364   9.230  70.404  1.00  0.00    -0.053 N  
HETATM   20  O   UNL     1      -7.102   7.859  68.778  1.00  0.00    -0.068 OA 
HETATM   21  H2  UNL     1      -6.445  10.098  70.932  1.00  0.00     0.000 HD 
HETATM   22  H1  UNL     1      -5.608   8.565  70.570  1.00  0.00     0.000 HD 
ENDBRANCH   9  18
ENDBRANCH   3   4
ENDBRANCH   2   3
BRANCH   2  23
HETATM   23  N   UNL     1      -8.044  14.543  69.352  1.00  0.00    -0.374 NA 
HETATM   24  H   UNL     1      -7.340  14.574  70.088  1.00  0.00     0.000 HD 
BRANCH  23  25
HETATM   25  C   UNL     1      -8.768  15.823  69.274  1.00  0.00    -0.261 C  
BRANCH  25  26
HETATM   26  C   UNL     1     -10.298  15.696  69.436  1.00  0.00    -0.260 C  
BRANCH  26  27
HETATM   27  O   UNL     1     -11.017  16.224  68.313  1.00  0.00    -0.323 OA 
BRANCH  27  28
HETATM   28  C   UNL     1     -11.137  15.413  67.213  1.00  0.00    -0.302 A  
HETATM   29  C   UNL     1     -10.691  15.074  64.856  1.00  0.00    -0.420 A  
HETATM   30  C   UNL     1     -11.901  14.233  67.198  1.00  0.00    -0.454 A  
HETATM   31  C   UNL     1     -10.526  15.827  66.018  1.00  0.00    -0.338 A  
HETATM   32  C   UNL     1     -11.462  13.909  64.855  1.00  0.00    -0.354 A  
HETATM   33  C   UNL     1     -12.070  13.493  66.033  1.00  0.00    -0.489 A  
BRANCH  31  34
HETATM   34  O   UNL     1      -9.849  17.003  65.824  1.00  0.00    -0.525 OA 
BRANCH  34  35
HETATM   35  C   UNL     1     -10.641  18.189  65.685  1.00  0.00    -0.094 C  
HETATM   36  C   UNL     1     -10.189  19.306  66.619  1.00  0.00    -0.421 C  
HETATM   37  F   UNL     1      -9.039  19.031  67.269  1.00  0.00    -0.281 F  
HETATM   38  F   UNL     1     -10.013  20.466  65.944  1.00  0.00    -0.508 F  
HETATM   39  F   UNL     1     -11.135  19.545  67.567  1.00  0.00    -0.563 F  
ENDBRANCH  34  35
ENDBRANCH  31  34
ENDBRANCH  27  28
ENDBRANCH  26  27
ENDBRANCH  25  26
ENDBRANCH  23  25
ENDBRANCH   2  23
TORSDOF 13
ENDMDL
MODEL      136
REMARK 921   NORMALIZED FREE ENERGY PREDICTED BY IDOCK:   -5.14 KCAL/MOL
REMARK 922        TOTAL FREE ENERGY PREDICTED BY IDOCK:  -12.21 KCAL/MOL
REMARK 923 INTER-LIGAND FREE ENERGY PREDICTED BY IDOCK:  -10.34 KCAL/MOL
REMARK 924 INTRA-LIGAND FREE ENERGY PREDICTED BY IDOCK:   -1.87 KCAL/MOL
REMARK 927      BINDING AFFINITY PREDICTED BY RF-SCORE:    0.00 PKD
ROOT
HETATM    1  C   UNL     1     -14.375   8.086  71.815  1.00  0.00    -0.583 C  
HETATM    2  C   UNL     1     -13.107   8.947  71.754  1.00  0.00    -0.374 C  
ENDROOT
BRANCH   2   3
HETATM    3  C   UNL     1     -11.881   8.233  72.369  1.00  0.00    -0.461 C  
BRANCH   3   4
HETATM    4  C   UNL     1     -11.279   7.193  71.467  1.00  0.00    -0.273 A  
HETATM    5  C   UNL     1     -11.116   7.463  70.104  1.00  0.00    -0.265 A  
HETATM    6  C   UNL     1      -9.296   3.159  70.143  1.00  0.00    -0.168 A  
HETATM    7  C   UNL     1     -10.885   5.955  71.957  1.00  0.00    -0.303 A  
HETATM    8  C   UNL     1     -10.319   5.045  71.075  1.00  0.00    -0.254 A  
HETATM    9  C   UNL     1     -10.511   6.542  69.213  1.00  0.00    -0.259 A  
HETATM   10  C   UNL     1     -10.118   5.290  69.696  1.00  0.00    -0.257 A  
HETATM   11  C   UNL     1      -9.851   3.682  71.463  1.00  0.00    -0.227 A  
HETATM   12  N   UNL     1      -9.549   4.172  69.110  1.00  0.00    -0.181 NA 
BRANCH  12  13
HETATM   13  C   UNL     1      -9.063   3.943  67.764  1.00  0.00    -0.150 C  
BRANCH  13  14
HETATM   14  C   UNL     1      -7.819   4.783  67.461  1.00  0.00    -0.094 C  
BRANCH  14  15
HETATM   15  C   UNL     1      -6.827   4.833  68.614  1.00  0.00    -0.051 C  
HETATM   16  O   UNL     1      -6.932   6.099  69.267  1.00  0.00    -0.060 OA 
HETATM   17  H   UNL     1      -6.312   6.131  69.987  1.00  0.00     0.000 HD 
ENDBRANCH  14  15
ENDBRANCH  13  14
ENDBRANCH  12  13
BRANCH   9  18
HETATM   18  C   UNL     1     -10.409   7.042  67.818  1.00  0.00    -0.202 C  
HETATM   19  N   UNL     1     -11.313   6.521  66.919  1.00  0.00    -0.817 N  
HETATM   20  O   UNL     1      -9.552   7.828  67.429  1.00  0.00    -0.140 OA 
HETATM   21  H2  UNL     1     -12.012   5.832  67.195  1.00  0.00     0.000 HD 
HETATM   22  H1  UNL     1     -11.243   6.864  65.960  1.00  0.00     0.000 HD 
ENDBRANCH   9  18
ENDBRANCH   3   4
ENDBRANCH   2   3
BRANCH   2  23
HETATM   23  N   UNL     1     -13.383  10.228  72.428  1.00  0.00    -0.573 NA 
HETATM   24  H   UNL     1     -13.129  10.175  73.414  1.00  0.00     0.000 HD 
BRANCH  23  25
HETATM   25  C   UNL     1     -12.743  11.391  71.790  1.00  0.00    -0.254 C  
BRANCH  25  26
HETATM   26  C   UNL     1     -12.582  11.266  70.260  1.00  0.00    -0.177 C  
BRANCH  26  27
HETATM   27  O   UNL     1     -11.340  11.809  69.791  1.00  0.00    -0.244 OA 
BRANCH  27  28
HETATM   28  C   UNL     1     -11.341  12.377  68.542  1.00  0.00    -0.293 A  
HETATM   29  C   UNL     1     -10.878  14.322  67.175  1.00  0.00    -0.296 A  
HETATM   30  C   UNL     1     -11.901  11.762  67.409  1.00  0.00    -0.210 A  
HETATM   31  C   UNL     1     -10.823  13.675  68.408  1.00  0.00    -0.256 A  
HETATM   32  C   UNL     1     -11.447  13.702  66.060  1.00  0.00    -0.340 A  
HETATM   33  C   UNL     1     -11.962  12.417  66.183  1.00  0.00    -0.397 A  
BRANCH  31  34
HETATM   34  O   UNL     1     -10.351  14.463  69.425  1.00  0.00    -0.158 OA 
BRANCH  34  35
HETATM   35  C   UNL     1     -11.074  15.670  69.697  1.00  0.00    -0.299 C  
HETATM   36  C   UNL     1     -11.896  15.582  70.978  1.00  0.00    -0.382 C  
HETATM   37  F   UNL     1     -11.658  14.463  71.694  1.00  0.00    -0.346 F  
HETATM   38  F   UNL     1     -11.662  16.644  71.784  1.00  0.00    -0.497 F  
HETATM   39  F   UNL     1     -13.227  15.595  70.692  1.00  0.00    -0.500 F  
ENDBRANCH  34  35
ENDBRANCH  31  34
ENDBRANCH  27  28
ENDBRANCH  26  27
ENDBRANCH  25  26
ENDBRANCH  23  25
ENDBRANCH   2  23
TORSDOF 13
ENDMDL
MODEL      137
REMARK 921   NORMALIZED FREE ENERGY PREDICTED BY IDOCK:   -5.14 KCAL/MOL
REMARK 922        TOTAL FREE ENERGY PREDICTED BY IDOCK:  -12.21 KCAL/MOL
REMARK 923 INTER-LIGAND FREE ENERGY PREDICTED BY IDOCK:   -9.78 KCAL/MOL
REMARK 924 INTRA-LIGAND FREE ENERGY PREDICTED BY IDOCK:   -2.43 KCAL/MOL
REMARK 927      BINDING AFFINITY PREDICTED BY RF-SCORE:    0.00 PKD
ROOT
HETATM    1  C   UNL     1     -10.044   9.900  65.854  1.00  0.00    -0.316 C  
HETATM    2  C   UNL     1      -9.004  11.027  65.871  1.00  0.00    -0.195 C  
ENDROOT
BRANCH   2   3
HETATM    3  C   UNL     1      -8.356  11.209  67.262  1.00  0.00    -0.135 C  
BRANCH   3   4
HETATM    4  C   UNL     1      -9.151  10.595  68.378  1.00  0.00    -0.156 A  
HETATM    5  C   UNL     1      -8.724   9.395  68.958  1.00  0.00    -0.136 A  
HETATM    6  C   UNL     1     -12.516  10.090  71.601  1.00  0.00    -0.418 A  
HETATM    7  C   UNL     1     -10.315  11.189  68.847  1.00  0.00    -0.220 A  
HETATM    8  C   UNL     1     -10.993  10.579  69.894  1.00  0.00    -0.359 A  
HETATM    9  C   UNL     1      -9.404   8.792  70.046  1.00  0.00    -0.175 A  
HETATM   10  C   UNL     1     -10.582   9.380  70.520  1.00  0.00    -0.271 A  
HETATM   11  C   UNL     1     -12.253  11.107  70.495  1.00  0.00    -0.475 A  
HETATM   12  N   UNL     1     -11.489   9.045  71.510  1.00  0.00    -0.310 NA 
BRANCH  12  13
HETATM   13  C   UNL     1     -11.479   7.979  72.493  1.00  0.00    -0.409 C  
BRANCH  13  14
HETATM   14  C   UNL     1     -11.999   6.664  71.907  1.00  0.00    -0.386 C  
BRANCH  14  15
HETATM   15  C   UNL     1     -11.516   5.432  72.659  1.00  0.00    -0.241 C  
HETATM   16  O   UNL     1     -10.099   5.320  72.514  1.00  0.00    -0.172 OA 
HETATM   17  H   UNL     1      -9.798   4.551  72.984  1.00  0.00     0.000 HD 
ENDBRANCH  14  15
ENDBRANCH  13  14
ENDBRANCH  12  13
BRANCH   9  18
HETATM   18  C   UNL     1      -8.764   7.541  70.528  1.00  0.00    -0.146 C  
HETATM   19  N   UNL     1      -8.998   6.411  69.777  1.00  0.00    -0.141 N  
HETATM   20  O   UNL     1      -8.106   7.458  71.559  1.00  0.00    -0.098 OA 
HETATM   21  H2  UNL     1      -9.578   6.431  68.939  1.00  0.00     0.000 HD 
HETATM   22  H1  UNL     1      -8.559   5.551  70.109  1.00  0.00     0.000 HD 
ENDBRANCH   9  18
ENDBRANCH   3   4
ENDBRANCH   2   3
BRANCH   2  23
HETATM   23  N   UNL     1      -9.656  12.266  65.410  1.00  0.00    -0.429 NA 
HETATM   24  H   UNL     1      -9.134  12.679  64.638  1.00  0.00     0.000 HD 
BRANCH  23  25
HETATM   25  C   UNL     1     -11.073  12.099  65.046  1.00  0.00    -0.320 C  
BRANCH  25  26
HETATM   26  C   UNL     1     -12.049  12.939  65.896  1.00  0.00    -0.444 C  
BRANCH  26  27
HETATM   27  O   UNL     1     -11.663  14.318  65.978  1.00  0.00    -0.358 OA 
BRANCH  27  28
HETATM   28  C   UNL     1     -11.529  14.854  67.234  1.00  0.00    -0.340 A  
HETATM   29  C   UNL     1     -10.514  16.540  68.646  1.00  0.00    -0.304 A  
HETATM   30  C   UNL     1     -12.070  14.267  68.391  1.00  0.00    -0.297 A  
HETATM   31  C   UNL     1     -10.743  16.009  67.377  1.00  0.00    -0.306 A  
HETATM   32  C   UNL     1     -11.050  15.939  69.787  1.00  0.00    -0.324 A  
HETATM   33  C   UNL     1     -11.828  14.796  69.654  1.00  0.00    -0.362 A  
BRANCH  31  34
HETATM   34  O   UNL     1     -10.047  16.639  66.379  1.00  0.00    -0.287 OA 
BRANCH  34  35
HETATM   35  C   UNL     1      -8.691  16.224  66.177  1.00  0.00    -0.318 C  
HETATM   36  C   UNL     1      -7.685  17.298  66.581  1.00  0.00    -0.263 C  
HETATM   37  F   UNL     1      -8.249  18.355  67.203  1.00  0.00    -0.231 F  
HETATM   38  F   UNL     1      -6.735  16.794  67.403  1.00  0.00    -0.134 F  
HETATM   39  F   UNL     1      -7.038  17.779  65.485  1.00  0.00    -0.305 F  
ENDBRANCH  34  35
ENDBRANCH  31  34
ENDBRANCH  27  28
ENDBRANCH  26  27
ENDBRANCH  25  26
ENDBRANCH  23  25
ENDBRANCH   2  23
TORSDOF 13
ENDMDL
MODEL      138
REMARK 921   NORMALIZED FREE ENERGY PREDICTED BY IDOCK:   -5.14 KCAL/MOL
REMARK 922        TOTAL FREE ENERGY PREDICTED BY IDOCK:  -12.21 KCAL/MOL
REMARK 923 INTER-LIGAND FREE ENERGY PREDICTED BY IDOCK:   -9.68 KCAL/MOL
REMARK 924 INTRA-LIGAND FREE ENERGY PREDICTED BY IDOCK:   -2.54 KCAL/MOL
REMARK 927      BINDING AFFINITY PREDICTED BY RF-SCORE:    0.00 PKD
ROOT
HETATM    1  C   UNL     1      -6.139  13.633  70.303  1.00  0.00    -0.121 C  
HETATM    2  C   UNL     1      -6.233  12.766  69.041  1.00  0.00    -0.095 C  
ENDROOT
BRANCH   2   3
HETATM    3  C   UNL     1      -6.264  13.611  67.747  1.00  0.00    -0.159 C  
BRANCH   3   4
HETATM    4  C   UNL     1      -6.897  14.960  67.928  1.00  0.00    -0.171 A  
HETATM    5  C   UNL     1      -8.290  15.086  67.892  1.00  0.00    -0.151 A  
HETATM    6  C   UNL     1      -7.248  19.570  68.694  1.00  0.00    -0.339 A  
HETATM    7  C   UNL     1      -6.127  16.098  68.123  1.00  0.00    -0.122 A  
HETATM    8  C   UNL     1      -6.775  17.313  68.302  1.00  0.00    -0.177 A  
HETATM    9  C   UNL     1      -8.948  16.323  68.103  1.00  0.00    -0.187 A  
HETATM   10  C   UNL     1      -8.180  17.476  68.294  1.00  0.00    -0.263 A  
HETATM   11  C   UNL     1      -6.074  18.612  68.521  1.00  0.00    -0.214 A  
HETATM   12  N   UNL     1      -8.488  18.812  68.484  1.00  0.00    -0.339 NA 
BRANCH  12  13
HETATM   13  C   UNL     1      -9.761  19.484  68.651  1.00  0.00    -0.433 C  
BRANCH  13  14
HETATM   14  C   UNL     1     -10.088  20.381  67.454  1.00  0.00    -0.500 C  
BRANCH  14  15
HETATM   15  C   UNL     1     -10.743  19.636  66.299  1.00  0.00    -0.419 C  
HETATM   16  O   UNL     1      -9.797  18.728  65.731  1.00  0.00    -0.464 OA 
HETATM   17  H   UNL     1     -10.206  18.263  65.011  1.00  0.00     0.000 HD 
ENDBRANCH  14  15
ENDBRANCH  13  14
ENDBRANCH  12  13
BRANCH   9  18
HETATM   18  C   UNL     1     -10.430  16.226  68.053  1.00  0.00    -0.293 C  
HETATM   19  N   UNL     1     -10.985  16.049  66.805  1.00  0.00    -0.188 N  
HETATM   20  O   UNL     1     -11.161  16.347  69.030  1.00  0.00    -0.325 OA 
HETATM   21  H2  UNL     1     -10.412  15.988  65.965  1.00  0.00     0.000 HD 
HETATM   22  H1  UNL     1     -12.003  15.982  66.771  1.00  0.00     0.000 HD 
ENDBRANCH   9  18
ENDBRANCH   3   4
ENDBRANCH   2   3
BRANCH   2  23
HETATM   23  N   UNL     1      -7.425  11.906  69.155  1.00  0.00    -0.321 NA 
HETATM   24  H   UNL     1      -8.210  12.433  69.536  1.00  0.00     0.000 HD 
BRANCH  23  25
HETATM   25  C   UNL     1      -7.809  11.242  67.899  1.00  0.00    -0.116 C  
BRANCH  25  26
HETATM   26  C   UNL     1      -8.678   9.980  68.089  1.00  0.00    -0.122 C  
BRANCH  26  27
HETATM   27  O   UNL     1     -10.034  10.176  67.669  1.00  0.00    -0.169 OA 
BRANCH  27  28
HETATM   28  C   UNL     1     -10.829  10.954  68.472  1.00  0.00    -0.220 A  
HETATM   29  C   UNL     1     -11.983  13.060  68.794  1.00  0.00    -0.302 A  
HETATM   30  C   UNL     1     -11.188  10.601  69.785  1.00  0.00    -0.363 A  
HETATM   31  C   UNL     1     -11.242  12.203  67.981  1.00  0.00    -0.264 A  
HETATM   32  C   UNL     1     -12.323  12.700  70.100  1.00  0.00    -0.222 A  
HETATM   33  C   UNL     1     -11.919  11.465  70.594  1.00  0.00    -0.413 A  
BRANCH  31  34
HETATM   34  O   UNL     1     -10.885  12.754  66.777  1.00  0.00    -0.257 OA 
BRANCH  34  35
HETATM   35  C   UNL     1     -11.178  11.987  65.604  1.00  0.00    -0.327 C  
HETATM   36  C   UNL     1     -10.926  12.767  64.318  1.00  0.00    -0.379 C  
HETATM   37  F   UNL     1     -10.322  13.956  64.520  1.00  0.00    -0.430 F  
HETATM   38  F   UNL     1     -10.160  12.057  63.457  1.00  0.00    -0.344 F  
HETATM   39  F   UNL     1     -12.100  13.021  63.678  1.00  0.00    -0.467 F  
ENDBRANCH  34  35
ENDBRANCH  31  34
ENDBRANCH  27  28
ENDBRANCH  26  27
ENDBRANCH  25  26
ENDBRANCH  23  25
ENDBRANCH   2  23
TORSDOF 13
ENDMDL
MODEL      139
REMARK 921   NORMALIZED FREE ENERGY PREDICTED BY IDOCK:   -5.14 KCAL/MOL
REMARK 922        TOTAL FREE ENERGY PREDICTED BY IDOCK:  -12.21 KCAL/MOL
REMARK 923 INTER-LIGAND FREE ENERGY PREDICTED BY IDOCK:  -10.61 KCAL/MOL
REMARK 924 INTRA-LIGAND FREE ENERGY PREDICTED BY IDOCK:   -1.60 KCAL/MOL
REMARK 927      BINDING AFFINITY PREDICTED BY RF-SCORE:    0.00 PKD
ROOT
HETATM    1  C   UNL     1      -9.819  10.212  66.768  1.00  0.00    -0.247 C  
HETATM    2  C   UNL     1     -10.615  10.232  68.079  1.00  0.00    -0.231 C  
ENDROOT
BRANCH   2   3
HETATM    3  C   UNL     1     -11.891  11.099  67.979  1.00  0.00    -0.203 C  
BRANCH   3   4
HETATM    4  C   UNL     1     -11.609  12.570  67.864  1.00  0.00    -0.403 A  
HETATM    5  C   UNL     1     -11.882  13.417  68.944  1.00  0.00    -0.373 A  
HETATM    6  C   UNL     1     -10.165  16.625  66.011  1.00  0.00    -0.351 A  
HETATM    7  C   UNL     1     -11.088  13.116  66.700  1.00  0.00    -0.316 A  
HETATM    8  C   UNL     1     -10.833  14.480  66.666  1.00  0.00    -0.311 A  
HETATM    9  C   UNL     1     -11.594  14.804  68.914  1.00  0.00    -0.340 A  
HETATM   10  C   UNL     1     -11.075  15.364  67.742  1.00  0.00    -0.320 A  
HETATM   11  C   UNL     1     -10.274  15.198  65.482  1.00  0.00    -0.405 A  
HETATM   12  N   UNL     1     -10.725  16.650  67.368  1.00  0.00    -0.293 NA 
BRANCH  12  13
HETATM   13  C   UNL     1     -10.689  17.887  68.122  1.00  0.00    -0.274 C  
BRANCH  13  14
HETATM   14  C   UNL     1      -9.312  18.130  68.745  1.00  0.00    -0.261 C  
BRANCH  14  15
HETATM   15  C   UNL     1      -8.566  19.305  68.130  1.00  0.00    -0.327 C  
HETATM   16  O   UNL     1      -7.520  19.711  69.014  1.00  0.00    -0.358 OA 
HETATM   17  H   UNL     1      -7.054  20.444  68.629  1.00  0.00     0.000 HD 
ENDBRANCH  14  15
ENDBRANCH  13  14
ENDBRANCH  12  13
BRANCH   9  18
HETATM   18  C   UNL     1     -11.934  15.510  70.177  1.00  0.00    -0.366 C  
HETATM   19  N   UNL     1     -13.272  15.572  70.496  1.00  0.00    -0.765 N  
HETATM   20  O   UNL     1     -11.113  16.070  70.895  1.00  0.00    -0.339 OA 
HETATM   21  H2  UNL     1     -13.988  15.157  69.900  1.00  0.00     0.000 HD 
HETATM   22  H1  UNL     1     -13.506  16.057  71.363  1.00  0.00     0.000 HD 
ENDBRANCH   9  18
ENDBRANCH   3   4
ENDBRANCH   2   3
BRANCH   2  23
HETATM   23  N   UNL     1      -9.724  10.701  69.155  1.00  0.00    -0.272 NA 
HETATM   24  H   UNL     1     -10.110  10.461  70.068  1.00  0.00     0.000 HD 
BRANCH  23  25
HETATM   25  C   UNL     1      -8.337  10.222  69.037  1.00  0.00    -0.148 C  
BRANCH  25  26
HETATM   26  C   UNL     1      -7.854   9.376  70.235  1.00  0.00    -0.156 C  
BRANCH  26  27
HETATM   27  O   UNL     1      -8.904   8.587  70.811  1.00  0.00    -0.139 OA 
BRANCH  27  28
HETATM   28  C   UNL     1      -9.082   7.324  70.306  1.00  0.00    -0.152 A  
HETATM   29  C   UNL     1     -10.623   5.630  69.515  1.00  0.00    -0.384 A  
HETATM   30  C   UNL     1      -8.047   6.379  70.194  1.00  0.00    -0.120 A  
HETATM   31  C   UNL     1     -10.384   6.931  69.955  1.00  0.00    -0.200 A  
HETATM   32  C   UNL     1      -9.586   4.699  69.419  1.00  0.00    -0.257 A  
HETATM   33  C   UNL     1      -8.294   5.080  69.764  1.00  0.00    -0.088 A  
BRANCH  31  34
HETATM   34  O   UNL     1     -11.522   7.680  70.113  1.00  0.00    -0.199 OA 
BRANCH  34  35
HETATM   35  C   UNL     1     -12.327   7.396  71.264  1.00  0.00    -0.346 C  
HETATM   36  C   UNL     1     -12.152   8.433  72.368  1.00  0.00    -0.378 C  
HETATM   37  F   UNL     1     -11.414   9.499  71.994  1.00  0.00    -0.436 F  
HETATM   38  F   UNL     1     -13.350   8.894  72.801  1.00  0.00    -0.461 F  
HETATM   39  F   UNL     1     -11.534   7.880  73.447  1.00  0.00    -0.394 F  
ENDBRANCH  34  35
ENDBRANCH  31  34
ENDBRANCH  27  28
ENDBRANCH  26  27
ENDBRANCH  25  26
ENDBRANCH  23  25
ENDBRANCH   2  23
TORSDOF 13
ENDMDL
MODEL      140
REMARK 921   NORMALIZED FREE ENERGY PREDICTED BY IDOCK:   -5.13 KCAL/MOL
REMARK 922        TOTAL FREE ENERGY PREDICTED BY IDOCK:  -12.20 KCAL/MOL
REMARK 923 INTER-LIGAND FREE ENERGY PREDICTED BY IDOCK:  -10.25 KCAL/MOL
REMARK 924 INTRA-LIGAND FREE ENERGY PREDICTED BY IDOCK:   -1.95 KCAL/MOL
REMARK 927      BINDING AFFINITY PREDICTED BY RF-SCORE:    0.00 PKD
ROOT
HETATM    1  C   UNL     1      -8.010   9.018  65.463  1.00  0.00    -0.106 C  
HETATM    2  C   UNL     1      -9.151   8.869  66.477  1.00  0.00    -0.166 C  
ENDROOT
BRANCH   2   3
HETATM    3  C   UNL     1      -9.778   7.457  66.456  1.00  0.00    -0.225 C  
BRANCH   3   4
HETATM    4  C   UNL     1      -9.980   6.870  67.824  1.00  0.00    -0.180 A  
HETATM    5  C   UNL     1     -10.616   7.624  68.817  1.00  0.00    -0.169 A  
HETATM    6  C   UNL     1      -9.896   3.733  71.304  1.00  0.00    -0.149 A  
HETATM    7  C   UNL     1      -9.539   5.591  68.133  1.00  0.00    -0.144 A  
HETATM    8  C   UNL     1      -9.774   5.101  69.411  1.00  0.00    -0.248 A  
HETATM    9  C   UNL     1     -10.879   7.109  70.111  1.00  0.00    -0.279 A  
HETATM   10  C   UNL     1     -10.432   5.823  70.433  1.00  0.00    -0.273 A  
HETATM   11  C   UNL     1      -9.356   3.747  69.879  1.00  0.00    -0.248 A  
HETATM   12  N   UNL     1     -10.483   5.051  71.580  1.00  0.00    -0.192 NA 
BRANCH  12  13
HETATM   13  C   UNL     1     -11.124   5.282  72.860  1.00  0.00    -0.305 C  
BRANCH  13  14
HETATM   14  C   UNL     1     -10.100   5.553  73.965  1.00  0.00    -0.241 C  
BRANCH  14  15
HETATM   15  C   UNL     1      -9.997   7.022  74.349  1.00  0.00    -0.108 C  
HETATM   16  O   UNL     1      -9.018   7.655  73.524  1.00  0.00    -0.190 OA 
HETATM   17  H   UNL     1      -8.954   8.572  73.764  1.00  0.00     0.000 HD 
ENDBRANCH  14  15
ENDBRANCH  13  14
ENDBRANCH  12  13
BRANCH   9  18
HETATM   18  C   UNL     1     -11.592   8.064  70.999  1.00  0.00    -0.283 C  
HETATM   19  N   UNL     1     -12.967   8.041  70.935  1.00  0.00    -0.503 N  
HETATM   20  O   UNL     1     -11.032   8.883  71.719  1.00  0.00    -0.314 OA 
HETATM   21  H2  UNL     1     -13.467   7.405  70.314  1.00  0.00     0.000 HD 
HETATM   22  H1  UNL     1     -13.457   8.697  71.544  1.00  0.00     0.000 HD 
ENDBRANCH   9  18
ENDBRANCH   3   4
ENDBRANCH   2   3
BRANCH   2  23
HETATM   23  N   UNL     1     -10.155   9.913  66.202  1.00  0.00    -0.255 NA 
HETATM   24  H   UNL     1     -11.093   9.513  66.194  1.00  0.00     0.000 HD 
BRANCH  23  25
HETATM   25  C   UNL     1     -10.091  11.064  67.118  1.00  0.00    -0.193 C  
BRANCH  25  26
HETATM   26  C   UNL     1     -11.204  11.085  68.187  1.00  0.00    -0.302 C  
BRANCH  26  27
HETATM   27  O   UNL     1     -12.192  12.092  67.934  1.00  0.00    -0.438 OA 
BRANCH  27  28
HETATM   28  C   UNL     1     -11.975  13.331  68.482  1.00  0.00    -0.304 A  
HETATM   29  C   UNL     1     -11.307  15.635  68.144  1.00  0.00    -0.340 A  
HETATM   30  C   UNL     1     -12.017  13.587  69.864  1.00  0.00    -0.416 A  
HETATM   31  C   UNL     1     -11.616  14.380  67.621  1.00  0.00    -0.370 A  
HETATM   32  C   UNL     1     -11.344  15.871  69.520  1.00  0.00    -0.335 A  
HETATM   33  C   UNL     1     -11.698  14.838  70.380  1.00  0.00    -0.350 A  
BRANCH  31  34
HETATM   34  O   UNL     1     -11.412  14.279  66.269  1.00  0.00    -0.337 OA 
BRANCH  34  35
HETATM   35  C   UNL     1     -12.572  14.067  65.455  1.00  0.00    -0.505 C  
HETATM   36  C   UNL     1     -12.324  13.061  64.337  1.00  0.00    -0.376 C  
HETATM   37  F   UNL     1     -11.129  12.440  64.427  1.00  0.00    -0.311 F  
HETATM   38  F   UNL     1     -13.284  12.106  64.316  1.00  0.00    -0.513 F  
HETATM   39  F   UNL     1     -12.362  13.677  63.124  1.00  0.00    -0.579 F  
ENDBRANCH  34  35
ENDBRANCH  31  34
ENDBRANCH  27  28
ENDBRANCH  26  27
ENDBRANCH  25  26
ENDBRANCH  23  25
ENDBRANCH   2  23
TORSDOF 13
ENDMDL
MODEL      141
REMARK 921   NORMALIZED FREE ENERGY PREDICTED BY IDOCK:   -5.13 KCAL/MOL
REMARK 922        TOTAL FREE ENERGY PREDICTED BY IDOCK:  -12.19 KCAL/MOL
REMARK 923 INTER-LIGAND FREE ENERGY PREDICTED BY IDOCK:  -10.04 KCAL/MOL
REMARK 924 INTRA-LIGAND FREE ENERGY PREDICTED BY IDOCK:   -2.14 KCAL/MOL
REMARK 927      BINDING AFFINITY PREDICTED BY RF-SCORE:    0.00 PKD
ROOT
HETATM    1  C   UNL     1      -7.729   8.270  66.890  1.00  0.00    -0.095 C  
HETATM    2  C   UNL     1      -8.731   8.094  65.742  1.00  0.00    -0.154 C  
ENDROOT
BRANCH   2   3
HETATM    3  C   UNL     1      -8.674   9.258  64.727  1.00  0.00    -0.220 C  
BRANCH   3   4
HETATM    4  C   UNL     1      -9.364  10.504  65.205  1.00  0.00    -0.262 A  
HETATM    5  C   UNL     1      -8.726  11.343  66.125  1.00  0.00    -0.153 A  
HETATM    6  C   UNL     1     -12.652  13.821  65.587  1.00  0.00    -0.509 A  
HETATM    7  C   UNL     1     -10.634  10.841  64.758  1.00  0.00    -0.264 A  
HETATM    8  C   UNL     1     -11.208  12.016  65.224  1.00  0.00    -0.374 A  
HETATM    9  C   UNL     1      -9.304  12.555  66.576  1.00  0.00    -0.233 A  
HETATM   10  C   UNL     1     -10.587  12.900  66.137  1.00  0.00    -0.271 A  
HETATM   11  C   UNL     1     -12.563  12.500  64.829  1.00  0.00    -0.493 A  
HETATM   12  N   UNL     1     -11.437  13.959  66.401  1.00  0.00    -0.331 NA 
BRANCH  12  13
HETATM   13  C   UNL     1     -11.246  15.166  67.180  1.00  0.00    -0.320 C  
BRANCH  13  14
HETATM   14  C   UNL     1     -11.690  14.978  68.633  1.00  0.00    -0.363 C  
BRANCH  14  15
HETATM   15  C   UNL     1     -10.887  15.808  69.625  1.00  0.00    -0.300 C  
HETATM   16  O   UNL     1     -10.705  15.055  70.826  1.00  0.00    -0.526 OA 
HETATM   17  H   UNL     1     -10.204  15.573  71.445  1.00  0.00     0.000 HD 
ENDBRANCH  14  15
ENDBRANCH  13  14
ENDBRANCH  12  13
BRANCH   9  18
HETATM   18  C   UNL     1      -8.444  13.308  67.526  1.00  0.00    -0.202 C  
HETATM   19  N   UNL     1      -7.784  14.401  67.012  1.00  0.00    -0.329 N  
HETATM   20  O   UNL     1      -8.257  12.980  68.693  1.00  0.00    -0.101 OA 
HETATM   21  H2  UNL     1      -7.879  14.678  66.035  1.00  0.00     0.000 HD 
HETATM   22  H1  UNL     1      -7.193  14.918  67.664  1.00  0.00     0.000 HD 
ENDBRANCH   9  18
ENDBRANCH   3   4
ENDBRANCH   2   3
BRANCH   2  23
HETATM   23  N   UNL     1     -10.078   7.944  66.321  1.00  0.00    -0.478 NA 
HETATM   24  H   UNL     1     -10.784   8.315  65.684  1.00  0.00     0.000 HD 
BRANCH  23  25
HETATM   25  C   UNL     1     -10.412   6.566  66.717  1.00  0.00    -0.230 C  
BRANCH  25  26
HETATM   26  C   UNL     1     -10.985   6.438  68.145  1.00  0.00    -0.307 C  
BRANCH  26  27
HETATM   27  O   UNL     1     -10.246   7.203  69.106  1.00  0.00    -0.182 OA 
BRANCH  27  28
HETATM   28  C   UNL     1     -10.352   6.823  70.420  1.00  0.00    -0.198 A  
HETATM   29  C   UNL     1     -11.284   7.261  72.613  1.00  0.00    -0.355 A  
HETATM   30  C   UNL     1      -9.596   5.784  70.992  1.00  0.00    -0.203 A  
HETATM   31  C   UNL     1     -11.207   7.562  71.253  1.00  0.00    -0.251 A  
HETATM   32  C   UNL     1     -10.518   6.233  73.168  1.00  0.00    -0.259 A  
HETATM   33  C   UNL     1      -9.670   5.496  72.350  1.00  0.00    -0.177 A  
BRANCH  31  34
HETATM   34  O   UNL     1     -11.922   8.674  70.892  1.00  0.00    -0.276 OA 
BRANCH  34  35
HETATM   35  C   UNL     1     -11.312   9.945  71.145  1.00  0.00    -0.370 C  
HETATM   36  C   UNL     1     -11.777  11.021  70.170  1.00  0.00    -0.356 C  
HETATM   37  F   UNL     1     -12.789  10.621  69.371  1.00  0.00    -0.232 F  
HETATM   38  F   UNL     1     -12.185  12.133  70.825  1.00  0.00    -0.433 F  
HETATM   39  F   UNL     1     -10.754  11.400  69.357  1.00  0.00    -0.238 F  
ENDBRANCH  34  35
ENDBRANCH  31  34
ENDBRANCH  27  28
ENDBRANCH  26  27
ENDBRANCH  25  26
ENDBRANCH  23  25
ENDBRANCH   2  23
TORSDOF 13
ENDMDL
MODEL      142
REMARK 921   NORMALIZED FREE ENERGY PREDICTED BY IDOCK:   -5.11 KCAL/MOL
REMARK 922        TOTAL FREE ENERGY PREDICTED BY IDOCK:  -12.17 KCAL/MOL
REMARK 923 INTER-LIGAND FREE ENERGY PREDICTED BY IDOCK:  -10.38 KCAL/MOL
REMARK 924 INTRA-LIGAND FREE ENERGY PREDICTED BY IDOCK:   -1.79 KCAL/MOL
REMARK 927      BINDING AFFINITY PREDICTED BY RF-SCORE:    0.00 PKD
ROOT
HETATM    1  C   UNL     1      -9.747  10.069  65.659  1.00  0.00    -0.336 C  
HETATM    2  C   UNL     1      -8.852  11.288  65.917  1.00  0.00    -0.169 C  
ENDROOT
BRANCH   2   3
HETATM    3  C   UNL     1      -8.326  11.336  67.369  1.00  0.00    -0.137 C  
BRANCH   3   4
HETATM    4  C   UNL     1      -8.828  10.209  68.226  1.00  0.00    -0.124 A  
HETATM    5  C   UNL     1      -9.961  10.393  69.025  1.00  0.00    -0.224 A  
HETATM    6  C   UNL     1      -9.105   5.931  70.118  1.00  0.00    -0.145 A  
HETATM    7  C   UNL     1      -8.183   8.980  68.251  1.00  0.00    -0.116 A  
HETATM    8  C   UNL     1      -8.709   7.973  69.050  1.00  0.00    -0.137 A  
HETATM    9  C   UNL     1     -10.510   9.354  69.817  1.00  0.00    -0.243 A  
HETATM   10  C   UNL     1      -9.863   8.115  69.854  1.00  0.00    -0.186 A  
HETATM   11  C   UNL     1      -8.120   6.608  69.172  1.00  0.00    -0.116 A  
HETATM   12  N   UNL     1     -10.099   6.931  70.530  1.00  0.00    -0.187 NA 
BRANCH  12  13
HETATM   13  C   UNL     1     -11.191   6.525  71.393  1.00  0.00    -0.283 C  
BRANCH  13  14
HETATM   14  C   UNL     1     -10.682   5.877  72.683  1.00  0.00    -0.271 C  
BRANCH  14  15
HETATM   15  C   UNL     1     -10.402   6.879  73.794  1.00  0.00    -0.376 C  
HETATM   16  O   UNL     1      -9.595   7.938  73.277  1.00  0.00    -0.267 OA 
HETATM   17  H   UNL     1      -9.420   8.564  73.971  1.00  0.00     0.000 HD 
ENDBRANCH  14  15
ENDBRANCH  13  14
ENDBRANCH  12  13
BRANCH   9  18
HETATM   18  C   UNL     1     -11.732   9.756  70.563  1.00  0.00    -0.268 C  
HETATM   19  N   UNL     1     -12.685  10.441  69.842  1.00  0.00    -0.537 N  
HETATM   20  O   UNL     1     -11.901   9.562  71.761  1.00  0.00    -0.377 OA 
HETATM   21  H2  UNL     1     -12.559  10.660  68.854  1.00  0.00     0.000 HD 
HETATM   22  H1  UNL     1     -13.523  10.717  70.354  1.00  0.00     0.000 HD 
ENDBRANCH   9  18
ENDBRANCH   3   4
ENDBRANCH   2   3
BRANCH   2  23
HETATM   23  N   UNL     1      -9.614  12.503  65.575  1.00  0.00    -0.445 NA 
HETATM   24  H   UNL     1      -9.424  12.785  64.614  1.00  0.00     0.000 HD 
BRANCH  23  25
HETATM   25  C   UNL     1     -11.063  12.387  65.804  1.00  0.00    -0.315 C  
BRANCH  25  26
HETATM   26  C   UNL     1     -11.545  12.994  67.139  1.00  0.00    -0.358 C  
BRANCH  26  27
HETATM   27  O   UNL     1     -12.043  14.330  66.990  1.00  0.00    -0.425 OA 
BRANCH  27  28
HETATM   28  C   UNL     1     -11.254  15.346  67.468  1.00  0.00    -0.302 A  
HETATM   29  C   UNL     1     -10.570  16.692  69.363  1.00  0.00    -0.333 A  
HETATM   30  C   UNL     1     -10.471  16.175  66.646  1.00  0.00    -0.300 A  
HETATM   31  C   UNL     1     -11.293  15.617  68.846  1.00  0.00    -0.339 A  
HETATM   32  C   UNL     1      -9.805  17.513  68.531  1.00  0.00    -0.330 A  
HETATM   33  C   UNL     1      -9.761  17.251  67.167  1.00  0.00    -0.259 A  
BRANCH  31  34
HETATM   34  O   UNL     1     -12.088  14.990  69.769  1.00  0.00    -0.304 OA 
BRANCH  34  35
HETATM   35  C   UNL     1     -11.613  14.967  71.121  1.00  0.00    -0.298 C  
HETATM   36  C   UNL     1     -12.657  15.467  72.114  1.00  0.00    -0.369 C  
HETATM   37  F   UNL     1     -13.870  15.672  71.561  1.00  0.00    -0.529 F  
HETATM   38  F   UNL     1     -12.813  14.596  73.139  1.00  0.00    -0.459 F  
HETATM   39  F   UNL     1     -12.263  16.648  72.663  1.00  0.00    -0.511 F  
ENDBRANCH  34  35
ENDBRANCH  31  34
ENDBRANCH  27  28
ENDBRANCH  26  27
ENDBRANCH  25  26
ENDBRANCH  23  25
ENDBRANCH   2  23
TORSDOF 13
ENDMDL
MODEL      143
REMARK 921   NORMALIZED FREE ENERGY PREDICTED BY IDOCK:   -5.10 KCAL/MOL
REMARK 922        TOTAL FREE ENERGY PREDICTED BY IDOCK:  -12.15 KCAL/MOL
REMARK 923 INTER-LIGAND FREE ENERGY PREDICTED BY IDOCK:   -9.81 KCAL/MOL
REMARK 924 INTRA-LIGAND FREE ENERGY PREDICTED BY IDOCK:   -2.33 KCAL/MOL
REMARK 927      BINDING AFFINITY PREDICTED BY RF-SCORE:    0.00 PKD
ROOT
HETATM    1  C   UNL     1     -10.209   8.047  72.356  1.00  0.00    -0.347 C  
HETATM    2  C   UNL     1     -11.572   7.349  72.264  1.00  0.00    -0.292 C  
ENDROOT
BRANCH   2   3
HETATM    3  C   UNL     1     -11.920   6.925  70.819  1.00  0.00    -0.424 C  
BRANCH   3   4
HETATM    4  C   UNL     1     -10.817   7.189  69.835  1.00  0.00    -0.276 A  
HETATM    5  C   UNL     1     -10.780   8.404  69.140  1.00  0.00    -0.123 A  
HETATM    6  C   UNL     1      -6.908   6.501  67.343  1.00  0.00    -0.076 A  
HETATM    7  C   UNL     1      -9.829   6.246  69.588  1.00  0.00    -0.192 A  
HETATM    8  C   UNL     1      -8.827   6.560  68.680  1.00  0.00    -0.121 A  
HETATM    9  C   UNL     1      -9.740   8.731  68.236  1.00  0.00    -0.175 A  
HETATM   10  C   UNL     1      -8.744   7.784  67.976  1.00  0.00    -0.125 A  
HETATM   11  C   UNL     1      -7.706   5.644  68.320  1.00  0.00    -0.089 A  
HETATM   12  N   UNL     1      -7.637   7.761  67.145  1.00  0.00    -0.098 NA 
BRANCH  12  13
HETATM   13  C   UNL     1      -7.057   8.784  66.298  1.00  0.00    -0.082 C  
BRANCH  13  14
HETATM   14  C   UNL     1      -7.070   8.371  64.823  1.00  0.00    -0.080 C  
BRANCH  14  15
HETATM   15  C   UNL     1      -8.052   9.172  63.979  1.00  0.00    -0.151 C  
HETATM   16  O   UNL     1      -8.218  10.468  64.556  1.00  0.00    -0.248 OA 
HETATM   17  H   UNL     1      -8.830  10.967  64.028  1.00  0.00     0.000 HD 
ENDBRANCH  14  15
ENDBRANCH  13  14
ENDBRANCH  12  13
BRANCH   9  18
HETATM   18  C   UNL     1      -9.878  10.082  67.632  1.00  0.00    -0.162 C  
HETATM   19  N   UNL     1      -9.484  11.141  68.419  1.00  0.00    -0.182 N  
HETATM   20  O   UNL     1     -10.362  10.295  66.526  1.00  0.00    -0.232 OA 
HETATM   21  H2  UNL     1      -9.119  11.006  69.361  1.00  0.00     0.000 HD 
HETATM   22  H1  UNL     1      -9.579  12.069  68.005  1.00  0.00     0.000 HD 
ENDBRANCH   9  18
ENDBRANCH   3   4
ENDBRANCH   2   3
BRANCH   2  23
HETATM   23  N   UNL     1     -12.594   8.252  72.826  1.00  0.00    -0.610 NA 
HETATM   24  H   UNL     1     -12.187   8.847  73.546  1.00  0.00     0.000 HD 
BRANCH  23  25
HETATM   25  C   UNL     1     -13.295   9.064  71.818  1.00  0.00    -0.397 C  
BRANCH  25  26
HETATM   26  C   UNL     1     -13.385  10.566  72.166  1.00  0.00    -0.241 C  
BRANCH  26  27
HETATM   27  O   UNL     1     -12.684  11.392  71.227  1.00  0.00    -0.405 OA 
BRANCH  27  28
HETATM   28  C   UNL     1     -12.936  12.740  71.273  1.00  0.00    -0.220 A  
HETATM   29  C   UNL     1     -12.602  14.924  70.280  1.00  0.00    -0.361 A  
HETATM   30  C   UNL     1     -13.597  13.370  72.342  1.00  0.00    -0.708 A  
HETATM   31  C   UNL     1     -12.439  13.540  70.232  1.00  0.00    -0.239 A  
HETATM   32  C   UNL     1     -13.252  15.537  71.354  1.00  0.00    -0.587 A  
HETATM   33  C   UNL     1     -13.747  14.752  72.389  1.00  0.00    -0.576 A  
BRANCH  31  34
HETATM   34  O   UNL     1     -11.674  13.109  69.180  1.00  0.00    -0.287 OA 
BRANCH  34  35
HETATM   35  C   UNL     1     -11.230  14.108  68.252  1.00  0.00    -0.272 C  
HETATM   36  C   UNL     1     -11.501  13.720  66.803  1.00  0.00    -0.348 C  
HETATM   37  F   UNL     1     -12.250  12.604  66.676  1.00  0.00    -0.445 F  
HETATM   38  F   UNL     1     -12.131  14.716  66.139  1.00  0.00    -0.370 F  
HETATM   39  F   UNL     1     -10.332  13.491  66.145  1.00  0.00    -0.272 F  
ENDBRANCH  34  35
ENDBRANCH  31  34
ENDBRANCH  27  28
ENDBRANCH  26  27
ENDBRANCH  25  26
ENDBRANCH  23  25
ENDBRANCH   2  23
TORSDOF 13
ENDMDL
MODEL      144
REMARK 921   NORMALIZED FREE ENERGY PREDICTED BY IDOCK:   -5.10 KCAL/MOL
REMARK 922        TOTAL FREE ENERGY PREDICTED BY IDOCK:  -12.14 KCAL/MOL
REMARK 923 INTER-LIGAND FREE ENERGY PREDICTED BY IDOCK:  -10.12 KCAL/MOL
REMARK 924 INTRA-LIGAND FREE ENERGY PREDICTED BY IDOCK:   -2.02 KCAL/MOL
REMARK 927      BINDING AFFINITY PREDICTED BY RF-SCORE:    0.00 PKD
ROOT
HETATM    1  C   UNL     1     -13.341  13.823  71.623  1.00  0.00    -0.430 C  
HETATM    2  C   UNL     1     -12.521  14.131  70.363  1.00  0.00    -0.357 C  
ENDROOT
BRANCH   2   3
HETATM    3  C   UNL     1     -12.548  12.969  69.345  1.00  0.00     0.385 C  
BRANCH   3   4
HETATM    4  C   UNL     1     -12.064  11.665  69.912  1.00  0.00    -0.373 A  
HETATM    5  C   UNL     1     -10.839  11.135  69.493  1.00  0.00    -0.241 A  
HETATM    6  C   UNL     1     -11.986   7.794  72.553  1.00  0.00    -0.253 A  
HETATM    7  C   UNL     1     -12.815  10.961  70.843  1.00  0.00    -0.418 A  
HETATM    8  C   UNL     1     -12.303   9.770  71.342  1.00  0.00    -0.480 A  
HETATM    9  C   UNL     1     -10.307   9.935  70.026  1.00  0.00    -0.320 A  
HETATM   10  C   UNL     1     -11.060   9.215  70.960  1.00  0.00    -0.305 A  
HETATM   11  C   UNL     1     -13.000   8.913  72.345  1.00  0.00    -0.467 A  
HETATM   12  N   UNL     1     -10.864   8.021  71.633  1.00  0.00    -0.230 NA 
BRANCH  12  13
HETATM   13  C   UNL     1      -9.728   7.122  71.671  1.00  0.00    -0.159 C  
BRANCH  13  14
HETATM   14  C   UNL     1      -9.818   6.050  70.582  1.00  0.00    -0.222 C  
BRANCH  14  15
HETATM   15  C   UNL     1     -11.150   6.046  69.845  1.00  0.00    -0.399 C  
HETATM   16  O   UNL     1     -11.049   6.880  68.689  1.00  0.00    -0.444 OA 
HETATM   17  H   UNL     1     -11.880   6.877  68.229  1.00  0.00     0.000 HD 
ENDBRANCH  14  15
ENDBRANCH  13  14
ENDBRANCH  12  13
BRANCH   9  18
HETATM   18  C   UNL     1      -8.980   9.570  69.465  1.00  0.00    -0.181 C  
HETATM   19  N   UNL     1      -7.893  10.219  70.007  1.00  0.00    -0.328 N  
HETATM   20  O   UNL     1      -8.817   8.787  68.535  1.00  0.00    -0.137 OA 
HETATM   21  H2  UNL     1      -7.993  10.909  70.751  1.00  0.00     0.000 HD 
HETATM   22  H1  UNL     1      -6.982   9.969  69.622  1.00  0.00     0.000 HD 
ENDBRANCH   9  18
ENDBRANCH   3   4
ENDBRANCH   2   3
BRANCH   2  23
HETATM   23  N   UNL     1     -11.145  14.461  70.775  1.00  0.00    -0.466 NA 
HETATM   24  H   UNL     1     -10.494  13.746  70.451  1.00  0.00     0.000 HD 
BRANCH  23  25
HETATM   25  C   UNL     1     -10.696  15.798  70.351  1.00  0.00    -0.289 C  
BRANCH  25  26
HETATM   26  C   UNL     1     -11.073  16.162  68.899  1.00  0.00    -0.347 C  
BRANCH  26  27
HETATM   27  O   UNL     1      -9.927  16.283  68.046  1.00  0.00    -0.233 OA 
BRANCH  27  28
HETATM   28  C   UNL     1      -9.122  15.179  67.924  1.00  0.00    -0.179 A  
HETATM   29  C   UNL     1      -8.837  12.934  67.062  1.00  0.00    -0.208 A  
HETATM   30  C   UNL     1      -7.895  15.035  68.595  1.00  0.00    -0.138 A  
HETATM   31  C   UNL     1      -9.586  14.106  67.147  1.00  0.00    -0.244 A  
HETATM   32  C   UNL     1      -7.625  12.801  67.743  1.00  0.00    -0.141 A  
HETATM   33  C   UNL     1      -7.157  13.859  68.514  1.00  0.00    -0.104 A  
BRANCH  31  34
HETATM   34  O   UNL     1     -10.805  14.030  66.525  1.00  0.00    -0.296 OA 
BRANCH  34  35
HETATM   35  C   UNL     1     -10.854  14.422  65.148  1.00  0.00    -0.386 C  
HETATM   36  C   UNL     1     -11.558  13.392  64.271  1.00  0.00    -0.402 C  
HETATM   37  F   UNL     1     -12.145  12.400  64.974  1.00  0.00    -0.410 F  
HETATM   38  F   UNL     1     -12.511  13.972  63.504  1.00  0.00    -0.499 F  
HETATM   39  F   UNL     1     -10.673  12.807  63.420  1.00  0.00    -0.418 F  
ENDBRANCH  34  35
ENDBRANCH  31  34
ENDBRANCH  27  28
ENDBRANCH  26  27
ENDBRANCH  25  26
ENDBRANCH  23  25
ENDBRANCH   2  23
TORSDOF 13
ENDMDL
MODEL      145
REMARK 921   NORMALIZED FREE ENERGY PREDICTED BY IDOCK:   -5.09 KCAL/MOL
REMARK 922        TOTAL FREE ENERGY PREDICTED BY IDOCK:  -12.13 KCAL/MOL
REMARK 923 INTER-LIGAND FREE ENERGY PREDICTED BY IDOCK:   -9.94 KCAL/MOL
REMARK 924 INTRA-LIGAND FREE ENERGY PREDICTED BY IDOCK:   -2.20 KCAL/MOL
REMARK 927      BINDING AFFINITY PREDICTED BY RF-SCORE:    0.00 PKD
ROOT
HETATM    1  C   UNL     1      -8.219  13.328  67.856  1.00  0.00    -0.163 C  
HETATM    2  C   UNL     1      -9.014  12.048  67.567  1.00  0.00    -0.174 C  
ENDROOT
BRANCH   2   3
HETATM    3  C   UNL     1      -8.944  11.634  66.079  1.00  0.00    -0.149 C  
BRANCH   3   4
HETATM    4  C   UNL     1      -8.818  10.152  65.875  1.00  0.00    -0.167 A  
HETATM    5  C   UNL     1      -9.553   9.274  66.679  1.00  0.00    -0.263 A  
HETATM    6  C   UNL     1      -7.426   6.088  64.002  1.00  0.00    -0.080 A  
HETATM    7  C   UNL     1      -7.976   9.626  64.905  1.00  0.00    -0.124 A  
HETATM    8  C   UNL     1      -7.920   8.247  64.755  1.00  0.00    -0.146 A  
HETATM    9  C   UNL     1      -9.514   7.868  66.503  1.00  0.00    -0.277 A  
HETATM   10  C   UNL     1      -8.663   7.329  65.533  1.00  0.00    -0.024 A  
HETATM   11  C   UNL     1      -7.061   7.547  63.755  1.00  0.00    -0.070 A  
HETATM   12  N   UNL     1      -8.360   6.039  65.135  1.00  0.00    -0.148 NA 
BRANCH  12  13
HETATM   13  C   UNL     1      -8.910   4.760  65.539  1.00  0.00    -0.139 C  
BRANCH  13  14
HETATM   14  C   UNL     1      -9.151   3.843  64.338  1.00  0.00    -0.137 C  
BRANCH  14  15
HETATM   15  C   UNL     1     -10.611   3.770  63.913  1.00  0.00    -0.261 C  
HETATM   16  O   UNL     1     -11.411   4.470  64.868  1.00  0.00    -1.056 OA 
HETATM   17  H   UNL     1     -12.323   4.425  64.603  1.00  0.00     0.000 HD 
ENDBRANCH  14  15
ENDBRANCH  13  14
ENDBRANCH  12  13
BRANCH   9  18
HETATM   18  C   UNL     1     -10.394   7.126  67.443  1.00  0.00    -0.254 C  
HETATM   19  N   UNL     1     -11.513   6.541  66.892  1.00  0.00    -0.780 N  
HETATM   20  O   UNL     1     -10.209   7.058  68.652  1.00  0.00    -0.164 OA 
HETATM   21  H2  UNL     1     -11.725   6.613  65.897  1.00  0.00     0.000 HD 
HETATM   22  H1  UNL     1     -12.118   6.031  67.537  1.00  0.00     0.000 HD 
ENDBRANCH   9  18
ENDBRANCH   3   4
ENDBRANCH   2   3
BRANCH   2  23
HETATM   23  N   UNL     1     -10.406  12.257  68.006  1.00  0.00    -0.208 NA 
HETATM   24  H   UNL     1     -10.789  11.397  68.398  1.00  0.00     0.000 HD 
BRANCH  23  25
HETATM   25  C   UNL     1     -10.576  13.376  68.947  1.00  0.00    -0.155 C  
BRANCH  25  26
HETATM   26  C   UNL     1     -12.022  13.909  69.043  1.00  0.00    -0.364 C  
BRANCH  26  27
HETATM   27  O   UNL     1     -12.160  15.229  68.501  1.00  0.00    -0.250 OA 
BRANCH  27  28
HETATM   28  C   UNL     1     -11.154  15.675  67.682  1.00  0.00    -0.305 A  
HETATM   29  C   UNL     1     -10.085  15.582  65.510  1.00  0.00    -0.406 A  
HETATM   30  C   UNL     1     -10.104  16.500  68.120  1.00  0.00    -0.255 A  
HETATM   31  C   UNL     1     -11.134  15.219  66.354  1.00  0.00    -0.273 A  
HETATM   32  C   UNL     1      -9.043  16.394  65.964  1.00  0.00    -0.317 A  
HETATM   33  C   UNL     1      -9.055  16.850  67.277  1.00  0.00    -0.225 A  
BRANCH  31  34
HETATM   34  O   UNL     1     -12.006  14.320  65.797  1.00  0.00    -0.375 OA 
BRANCH  34  35
HETATM   35  C   UNL     1     -11.952  14.166  64.373  1.00  0.00    -0.457 C  
HETATM   36  C   UNL     1     -11.749  12.715  63.950  1.00  0.00    -0.457 C  
HETATM   37  F   UNL     1     -11.827  11.840  64.975  1.00  0.00    -0.350 F  
HETATM   38  F   UNL     1     -12.661  12.343  63.021  1.00  0.00    -0.548 F  
HETATM   39  F   UNL     1     -10.523  12.553  63.381  1.00  0.00    -0.418 F  
ENDBRANCH  34  35
ENDBRANCH  31  34
ENDBRANCH  27  28
ENDBRANCH  26  27
ENDBRANCH  25  26
ENDBRANCH  23  25
ENDBRANCH   2  23
TORSDOF 13
ENDMDL
MODEL      146
REMARK 921   NORMALIZED FREE ENERGY PREDICTED BY IDOCK:   -5.08 KCAL/MOL
REMARK 922        TOTAL FREE ENERGY PREDICTED BY IDOCK:  -12.11 KCAL/MOL
REMARK 923 INTER-LIGAND FREE ENERGY PREDICTED BY IDOCK:   -9.14 KCAL/MOL
REMARK 924 INTRA-LIGAND FREE ENERGY PREDICTED BY IDOCK:   -2.97 KCAL/MOL
REMARK 927      BINDING AFFINITY PREDICTED BY RF-SCORE:    0.00 PKD
ROOT
HETATM    1  C   UNL     1      -6.818  15.993  69.249  1.00  0.00    -0.201 C  
HETATM    2  C   UNL     1      -8.024  15.096  68.942  1.00  0.00    -0.178 C  
ENDROOT
BRANCH   2   3
HETATM    3  C   UNL     1      -7.956  14.483  67.525  1.00  0.00    -0.208 C  
BRANCH   3   4
HETATM    4  C   UNL     1      -8.159  12.995  67.505  1.00  0.00    -0.179 A  
HETATM    5  C   UNL     1      -8.368  12.336  66.289  1.00  0.00     0.268 A  
HETATM    6  C   UNL     1      -8.522   8.600  69.091  1.00  0.00    -0.124 A  
HETATM    7  C   UNL     1      -8.155  12.251  68.677  1.00  0.00    -0.029 A  
HETATM    8  C   UNL     1      -8.330  10.876  68.589  1.00  0.00    -0.148 A  
HETATM    9  C   UNL     1      -8.517  10.930  66.200  1.00  0.00    -0.171 A  
HETATM   10  C   UNL     1      -8.521  10.173  67.377  1.00  0.00    -0.122 A  
HETATM   11  C   UNL     1      -8.346   9.957  69.764  1.00  0.00    -0.196 A  
HETATM   12  N   UNL     1      -8.678   8.825  67.648  1.00  0.00    -0.135 NA 
BRANCH  12  13
HETATM   13  C   UNL     1      -8.805   7.682  66.766  1.00  0.00    -0.136 C  
BRANCH  13  14
HETATM   14  C   UNL     1      -9.569   6.535  67.433  1.00  0.00    -0.142 C  
BRANCH  14  15
HETATM   15  C   UNL     1     -11.023   6.439  66.994  1.00  0.00    -0.389 C  
HETATM   16  O   UNL     1     -11.151   5.402  66.021  1.00  0.00    -0.761 OA 
HETATM   17  H   UNL     1     -12.059   5.342  65.747  1.00  0.00     0.000 HD 
ENDBRANCH  14  15
ENDBRANCH  13  14
ENDBRANCH  12  13
BRANCH   9  18
HETATM   18  C   UNL     1      -8.696  10.436  64.810  1.00  0.00    -0.186 C  
HETATM   19  N   UNL     1      -7.555  10.354  64.044  1.00  0.00    -0.314 N  
HETATM   20  O   UNL     1      -9.782  10.160  64.312  1.00  0.00    -0.310 OA 
HETATM   21  H2  UNL     1      -6.641  10.617  64.409  1.00  0.00     0.000 HD 
HETATM   22  H1  UNL     1      -7.678  10.015  63.089  1.00  0.00     0.000 HD 
ENDBRANCH   9  18
ENDBRANCH   3   4
ENDBRANCH   2   3
BRANCH   2  23
HETATM   23  N   UNL     1      -9.252  15.888  69.132  1.00  0.00    -0.240 NA 
HETATM   24  H   UNL     1      -9.798  15.913  68.271  1.00  0.00     0.000 HD 
BRANCH  23  25
HETATM   25  C   UNL     1     -10.085  15.443  70.261  1.00  0.00    -0.031 C  
BRANCH  25  26
HETATM   26  C   UNL     1     -11.480  16.102  70.318  1.00  0.00    -0.308 C  
BRANCH  26  27
HETATM   27  O   UNL     1     -12.460  15.387  69.553  1.00  0.00    -0.218 OA 
BRANCH  27  28
HETATM   28  C   UNL     1     -12.230  14.052  69.339  1.00  0.00    -0.292 A  
HETATM   29  C   UNL     1     -11.733  12.285  67.758  1.00  0.00    -0.403 A  
HETATM   30  C   UNL     1     -12.384  13.068  70.331  1.00  0.00    -0.351 A  
HETATM   31  C   UNL     1     -11.896  13.641  68.038  1.00  0.00    -0.362 A  
HETATM   32  C   UNL     1     -11.900  11.318  68.752  1.00  0.00    -0.396 A  
HETATM   33  C   UNL     1     -12.230  11.716  70.042  1.00  0.00    -0.338 A  
BRANCH  31  34
HETATM   34  O   UNL     1     -11.822  14.447  66.932  1.00  0.00    -0.392 OA 
BRANCH  34  35
HETATM   35  C   UNL     1     -12.590  14.049  65.790  1.00  0.00    -0.479 C  
HETATM   36  C   UNL     1     -11.956  14.492  64.476  1.00  0.00    -0.468 C  
HETATM   37  F   UNL     1     -10.722  15.018  64.626  1.00  0.00    -0.396 F  
HETATM   38  F   UNL     1     -11.861  13.459  63.606  1.00  0.00    -0.456 F  
HETATM   39  F   UNL     1     -12.723  15.441  63.874  1.00  0.00    -0.349 F  
ENDBRANCH  34  35
ENDBRANCH  31  34
ENDBRANCH  27  28
ENDBRANCH  26  27
ENDBRANCH  25  26
ENDBRANCH  23  25
ENDBRANCH   2  23
TORSDOF 13
ENDMDL
MODEL      147
REMARK 921   NORMALIZED FREE ENERGY PREDICTED BY IDOCK:   -5.07 KCAL/MOL
REMARK 922        TOTAL FREE ENERGY PREDICTED BY IDOCK:  -12.08 KCAL/MOL
REMARK 923 INTER-LIGAND FREE ENERGY PREDICTED BY IDOCK:  -10.01 KCAL/MOL
REMARK 924 INTRA-LIGAND FREE ENERGY PREDICTED BY IDOCK:   -2.07 KCAL/MOL
REMARK 927      BINDING AFFINITY PREDICTED BY RF-SCORE:    0.00 PKD
ROOT
HETATM    1  C   UNL     1      -8.902  10.662  64.775  1.00  0.00    -0.196 C  
HETATM    2  C   UNL     1      -9.172  10.498  66.276  1.00  0.00    -0.168 C  
ENDROOT
BRANCH   2   3
HETATM    3  C   UNL     1     -10.139   9.329  66.575  1.00  0.00    -0.343 C  
BRANCH   3   4
HETATM    4  C   UNL     1      -9.674   8.438  67.692  1.00  0.00    -0.201 A  
HETATM    5  C   UNL     1     -10.501   8.224  68.800  1.00  0.00    -0.200 A  
HETATM    6  C   UNL     1      -6.928   5.510  70.110  1.00  0.00    -0.064 A  
HETATM    7  C   UNL     1      -8.430   7.825  67.655  1.00  0.00    -0.121 A  
HETATM    8  C   UNL     1      -8.069   6.999  68.711  1.00  0.00    -0.121 A  
HETATM    9  C   UNL     1     -10.140   7.357  69.862  1.00  0.00    -0.195 A  
HETATM   10  C   UNL     1      -8.884   6.740  69.837  1.00  0.00    -0.141 A  
HETATM   11  C   UNL     1      -6.765   6.278  68.802  1.00  0.00    -0.061 A  
HETATM   12  N   UNL     1      -8.217   5.891  70.702  1.00  0.00    -0.118 NA 
BRANCH  12  13
HETATM   13  C   UNL     1      -8.642   5.254  71.933  1.00  0.00    -0.130 C  
BRANCH  13  14
HETATM   14  C   UNL     1      -9.633   4.118  71.667  1.00  0.00    -0.232 C  
BRANCH  14  15
HETATM   15  C   UNL     1     -10.330   3.615  72.923  1.00  0.00    -0.166 C  
HETATM   16  O   UNL     1     -11.290   4.585  73.346  1.00  0.00    -0.312 OA 
HETATM   17  H   UNL     1     -11.725   4.271  74.130  1.00  0.00     0.000 HD 
ENDBRANCH  14  15
ENDBRANCH  13  14
ENDBRANCH  12  13
BRANCH   9  18
HETATM   18  C   UNL     1     -11.176   7.249  70.922  1.00  0.00    -0.272 C  
HETATM   19  N   UNL     1     -12.472   7.083  70.488  1.00  0.00    -0.615 N  
HETATM   20  O   UNL     1     -10.947   7.354  72.121  1.00  0.00    -0.228 OA 
HETATM   21  H2  UNL     1     -12.707   7.037  69.497  1.00  0.00     0.000 HD 
HETATM   22  H1  UNL     1     -13.184   7.009  71.216  1.00  0.00     0.000 HD 
ENDBRANCH   9  18
ENDBRANCH   3   4
ENDBRANCH   2   3
BRANCH   2  23
HETATM   23  N   UNL     1      -9.689  11.776  66.798  1.00  0.00    -0.194 NA 
HETATM   24  H   UNL     1      -9.108  12.552  66.480  1.00  0.00     0.000 HD 
BRANCH  23  25
HETATM   25  C   UNL     1     -11.104  12.025  66.480  1.00  0.00    -0.314 C  
BRANCH  25  26
HETATM   26  C   UNL     1     -11.774  13.094  67.370  1.00  0.00    -0.370 C  
BRANCH  26  27
HETATM   27  O   UNL     1     -11.233  13.125  68.697  1.00  0.00    -0.245 OA 
BRANCH  27  28
HETATM   28  C   UNL     1     -11.964  12.510  69.682  1.00  0.00    -0.272 A  
HETATM   29  C   UNL     1     -13.220  12.727  71.742  1.00  0.00    -0.471 A  
HETATM   30  C   UNL     1     -12.105  11.115  69.789  1.00  0.00    -0.414 A  
HETATM   31  C   UNL     1     -12.538  13.316  70.679  1.00  0.00    -0.231 A  
HETATM   32  C   UNL     1     -13.342  11.339  71.840  1.00  0.00    -0.413 A  
HETATM   33  C   UNL     1     -12.778  10.533  70.858  1.00  0.00    -0.495 A  
BRANCH  31  34
HETATM   34  O   UNL     1     -12.399  14.674  70.795  1.00  0.00    -0.285 OA 
BRANCH  34  35
HETATM   35  C   UNL     1     -11.486  15.147  71.793  1.00  0.00    -0.380 C  
HETATM   36  C   UNL     1     -12.190  15.884  72.928  1.00  0.00    -0.500 C  
HETATM   37  F   UNL     1     -13.536  15.804  72.866  1.00  0.00    -0.522 F  
HETATM   38  F   UNL     1     -11.804  15.407  74.134  1.00  0.00    -0.565 F  
HETATM   39  F   UNL     1     -11.868  17.206  72.909  1.00  0.00    -0.457 F  
ENDBRANCH  34  35
ENDBRANCH  31  34
ENDBRANCH  27  28
ENDBRANCH  26  27
ENDBRANCH  25  26
ENDBRANCH  23  25
ENDBRANCH   2  23
TORSDOF 13
ENDMDL
MODEL      148
REMARK 921   NORMALIZED FREE ENERGY PREDICTED BY IDOCK:   -5.06 KCAL/MOL
REMARK 922        TOTAL FREE ENERGY PREDICTED BY IDOCK:  -12.08 KCAL/MOL
REMARK 923 INTER-LIGAND FREE ENERGY PREDICTED BY IDOCK:   -8.84 KCAL/MOL
REMARK 924 INTRA-LIGAND FREE ENERGY PREDICTED BY IDOCK:   -3.24 KCAL/MOL
REMARK 927      BINDING AFFINITY PREDICTED BY RF-SCORE:    0.00 PKD
ROOT
HETATM    1  C   UNL     1      -7.850  15.379  68.943  1.00  0.00    -0.177 C  
HETATM    2  C   UNL     1      -7.693  14.535  67.672  1.00  0.00    -0.179 C  
ENDROOT
BRANCH   2   3
HETATM    3  C   UNL     1      -6.913  13.226  67.928  1.00  0.00    -0.137 C  
BRANCH   3   4
HETATM    4  C   UNL     1      -7.775  11.996  67.880  1.00  0.00    -0.134 A  
HETATM    5  C   UNL     1      -8.270  11.541  66.654  1.00  0.00    -0.156 A  
HETATM    6  C   UNL     1     -10.096   8.210  69.377  1.00  0.00    -0.194 A  
HETATM    7  C   UNL     1      -8.102  11.300  69.035  1.00  0.00    -0.045 A  
HETATM    8  C   UNL     1      -8.887  10.160  68.920  1.00  0.00    -0.154 A  
HETATM    9  C   UNL     1      -9.047  10.361  66.538  1.00  0.00    -0.175 A  
HETATM   10  C   UNL     1      -9.388   9.657  67.697  1.00  0.00    -0.126 A  
HETATM   11  C   UNL     1      -9.314   9.317  70.075  1.00  0.00    -0.232 A  
HETATM   12  N   UNL     1     -10.142   8.523  67.942  1.00  0.00    -0.196 NA 
BRANCH  12  13
HETATM   13  C   UNL     1     -10.784   7.589  67.039  1.00  0.00    -0.297 C  
BRANCH  13  14
HETATM   14  C   UNL     1     -10.078   6.231  67.033  1.00  0.00    -0.225 C  
BRANCH  14  15
HETATM   15  C   UNL     1      -8.852   6.188  66.131  1.00  0.00    -0.152 C  
HETATM   16  O   UNL     1      -7.748   6.786  66.813  1.00  0.00    -0.101 OA 
HETATM   17  H   UNL     1      -6.983   6.759  66.250  1.00  0.00     0.000 HD 
ENDBRANCH  14  15
ENDBRANCH  13  14
ENDBRANCH  12  13
BRANCH   9  18
HETATM   18  C   UNL     1      -9.443  10.043  65.141  1.00  0.00    -0.270 C  
HETATM   19  N   UNL     1     -10.489  10.775  64.625  1.00  0.00    -0.329 N  
HETATM   20  O   UNL     1      -8.937   9.152  64.469  1.00  0.00    -0.180 OA 
HETATM   21  H2  UNL     1     -10.964  11.494  65.170  1.00  0.00     0.000 HD 
HETATM   22  H1  UNL     1     -10.761  10.557  63.666  1.00  0.00     0.000 HD 
ENDBRANCH   9  18
ENDBRANCH   3   4
ENDBRANCH   2   3
BRANCH   2  23
HETATM   23  N   UNL     1      -7.040  15.364  66.643  1.00  0.00    -0.176 NA 
HETATM   24  H   UNL     1      -7.715  15.653  65.935  1.00  0.00     0.000 HD 
BRANCH  23  25
HETATM   25  C   UNL     1      -6.321  16.531  67.180  1.00  0.00    -0.185 C  
BRANCH  25  26
HETATM   26  C   UNL     1      -6.190  17.706  66.187  1.00  0.00    -0.233 C  
BRANCH  26  27
HETATM   27  O   UNL     1      -7.426  18.012  65.528  1.00  0.00    -0.538 OA 
BRANCH  27  28
HETATM   28  C   UNL     1      -8.417  18.575  66.292  1.00  0.00    -0.207 A  
HETATM   29  C   UNL     1     -10.671  18.419  67.166  1.00  0.00    -0.366 A  
HETATM   30  C   UNL     1      -8.334  19.865  66.844  1.00  0.00    -0.366 A  
HETATM   31  C   UNL     1      -9.608  17.851  66.466  1.00  0.00    -0.313 A  
HETATM   32  C   UNL     1     -10.577  19.707  67.700  1.00  0.00    -0.556 A  
HETATM   33  C   UNL     1      -9.402  20.430  67.532  1.00  0.00    -0.500 A  
BRANCH  31  34
HETATM   34  O   UNL     1      -9.904  16.638  65.901  1.00  0.00    -0.415 OA 
BRANCH  34  35
HETATM   35  C   UNL     1     -10.883  15.835  66.571  1.00  0.00    -0.230 C  
HETATM   36  C   UNL     1     -10.939  14.410  66.030  1.00  0.00    -0.316 C  
HETATM   37  F   UNL     1      -9.953  14.129  65.152  1.00  0.00    -0.358 F  
HETATM   38  F   UNL     1     -10.869  13.503  67.032  1.00  0.00    -0.272 F  
HETATM   39  F   UNL     1     -12.118  14.191  65.387  1.00  0.00    -0.348 F  
ENDBRANCH  34  35
ENDBRANCH  31  34
ENDBRANCH  27  28
ENDBRANCH  26  27
ENDBRANCH  25  26
ENDBRANCH  23  25
ENDBRANCH   2  23
TORSDOF 13
ENDMDL
MODEL      149
REMARK 921   NORMALIZED FREE ENERGY PREDICTED BY IDOCK:   -5.06 KCAL/MOL
REMARK 922        TOTAL FREE ENERGY PREDICTED BY IDOCK:  -12.07 KCAL/MOL
REMARK 923 INTER-LIGAND FREE ENERGY PREDICTED BY IDOCK:   -9.30 KCAL/MOL
REMARK 924 INTRA-LIGAND FREE ENERGY PREDICTED BY IDOCK:   -2.77 KCAL/MOL
REMARK 927      BINDING AFFINITY PREDICTED BY RF-SCORE:    0.00 PKD
ROOT
HETATM    1  C   UNL     1     -12.507   7.267  70.893  1.00  0.00    -0.266 C  
HETATM    2  C   UNL     1     -11.790   8.621  70.967  1.00  0.00    -0.265 C  
ENDROOT
BRANCH   2   3
HETATM    3  C   UNL     1     -10.697   8.769  69.884  1.00  0.00    -0.228 C  
BRANCH   3   4
HETATM    4  C   UNL     1     -10.891   9.966  68.997  1.00  0.00    -0.242 A  
HETATM    5  C   UNL     1     -11.247  11.198  69.558  1.00  0.00    -0.341 A  
HETATM    6  C   UNL     1     -11.022  12.552  65.091  1.00  0.00    -0.297 A  
HETATM    7  C   UNL     1     -10.734   9.878  67.621  1.00  0.00    -0.339 A  
HETATM    8  C   UNL     1     -10.910  11.026  66.860  1.00  0.00    -0.324 A  
HETATM    9  C   UNL     1     -11.397  12.373  68.781  1.00  0.00    -0.339 A  
HETATM   10  C   UNL     1     -11.247  12.291  67.392  1.00  0.00    -0.301 A  
HETATM   11  C   UNL     1     -10.771  11.075  65.375  1.00  0.00    -0.222 A  
HETATM   12  N   UNL     1     -11.360  13.208  66.361  1.00  0.00    -0.305 NA 
BRANCH  12  13
HETATM   13  C   UNL     1     -11.589  14.639  66.376  1.00  0.00    -0.339 C  
BRANCH  13  14
HETATM   14  C   UNL     1     -10.450  15.401  65.693  1.00  0.00    -0.391 C  
BRANCH  14  15
HETATM   15  C   UNL     1     -10.895  16.705  65.046  1.00  0.00    -0.176 C  
HETATM   16  O   UNL     1     -11.552  16.414  63.811  1.00  0.00    -1.605 OA 
HETATM   17  H   UNL     1     -11.830  17.228  63.408  1.00  0.00     0.000 HD 
ENDBRANCH  14  15
ENDBRANCH  13  14
ENDBRANCH  12  13
BRANCH   9  18
HETATM   18  C   UNL     1     -11.747  13.576  69.580  1.00  0.00    -0.314 C  
HETATM   19  N   UNL     1     -10.751  14.516  69.729  1.00  0.00    -0.443 N  
HETATM   20  O   UNL     1     -12.824  13.740  70.141  1.00  0.00    -0.173 OA 
HETATM   21  H2  UNL     1      -9.828  14.393  69.315  1.00  0.00     0.000 HD 
HETATM   22  H1  UNL     1     -10.991  15.342  70.278  1.00  0.00     0.000 HD 
ENDBRANCH   9  18
ENDBRANCH   3   4
ENDBRANCH   2   3
BRANCH   2  23
HETATM   23  N   UNL     1     -11.234   8.778  72.323  1.00  0.00    -0.332 NA 
HETATM   24  H   UNL     1     -11.913   9.225  72.938  1.00  0.00     0.000 HD 
BRANCH  23  25
HETATM   25  C   UNL     1     -10.742   7.525  72.919  1.00  0.00    -0.358 C  
BRANCH  25  26
HETATM   26  C   UNL     1      -9.204   7.394  72.940  1.00  0.00    -0.152 C  
BRANCH  26  27
HETATM   27  O   UNL     1      -8.755   6.100  72.515  1.00  0.00    -0.122 OA 
BRANCH  27  28
HETATM   28  C   UNL     1      -8.800   5.835  71.170  1.00  0.00    -0.136 A  
HETATM   29  C   UNL     1      -7.872   6.238  68.969  1.00  0.00    -0.109 A  
HETATM   30  C   UNL     1      -9.818   5.081  70.560  1.00  0.00    -0.290 A  
HETATM   31  C   UNL     1      -7.817   6.414  70.351  1.00  0.00    -0.107 A  
HETATM   32  C   UNL     1      -8.895   5.495  68.377  1.00  0.00    -0.107 A  
HETATM   33  C   UNL     1      -9.872   4.918  69.180  1.00  0.00    -0.263 A  
BRANCH  31  34
HETATM   34  O   UNL     1      -6.828   7.270  70.761  1.00  0.00    -0.051 OA 
BRANCH  34  35
HETATM   35  C   UNL     1      -6.261   8.127  69.763  1.00  0.00    -0.029 C  
HETATM   36  C   UNL     1      -6.864   9.528  69.785  1.00  0.00    -0.064 C  
HETATM   37  F   UNL     1      -7.683   9.744  70.836  1.00  0.00    -0.157 F  
HETATM   38  F   UNL     1      -5.898  10.476  69.814  1.00  0.00    -0.040 F  
HETATM   39  F   UNL     1      -7.594   9.749  68.658  1.00  0.00    -0.075 F  
ENDBRANCH  34  35
ENDBRANCH  31  34
ENDBRANCH  27  28
ENDBRANCH  26  27
ENDBRANCH  25  26
ENDBRANCH  23  25
ENDBRANCH   2  23
TORSDOF 13
ENDMDL
MODEL      150
REMARK 921   NORMALIZED FREE ENERGY PREDICTED BY IDOCK:   -5.06 KCAL/MOL
REMARK 922        TOTAL FREE ENERGY PREDICTED BY IDOCK:  -12.07 KCAL/MOL
REMARK 923 INTER-LIGAND FREE ENERGY PREDICTED BY IDOCK:   -9.91 KCAL/MOL
REMARK 924 INTRA-LIGAND FREE ENERGY PREDICTED BY IDOCK:   -2.16 KCAL/MOL
REMARK 927      BINDING AFFINITY PREDICTED BY RF-SCORE:    0.00 PKD
ROOT
HETATM    1  C   UNL     1      -9.502  10.455  62.700  1.00  0.00    -0.324 C  
HETATM    2  C   UNL     1      -9.435  10.442  64.233  1.00  0.00    -0.294 C  
ENDROOT
BRANCH   2   3
HETATM    3  C   UNL     1      -8.937   9.088  64.788  1.00  0.00    -0.146 C  
BRANCH   3   4
HETATM    4  C   UNL     1      -9.203   8.909  66.256  1.00  0.00    -0.261 A  
HETATM    5  C   UNL     1      -8.626   9.787  67.180  1.00  0.00    -0.129 A  
HETATM    6  C   UNL     1     -10.994   7.120  70.200  1.00  0.00    -0.267 A  
HETATM    7  C   UNL     1     -10.007   7.879  66.723  1.00  0.00    -0.333 A  
HETATM    8  C   UNL     1     -10.227   7.780  68.090  1.00  0.00    -0.244 A  
HETATM    9  C   UNL     1      -8.877   9.699  68.572  1.00  0.00    -0.124 A  
HETATM   10  C   UNL     1      -9.680   8.660  69.052  1.00  0.00    -0.173 A  
HETATM   11  C   UNL     1     -11.068   6.725  68.729  1.00  0.00    -0.234 A  
HETATM   12  N   UNL     1     -10.086   8.268  70.316  1.00  0.00    -0.190 NA 
BRANCH  12  13
HETATM   13  C   UNL     1      -9.885   8.878  71.615  1.00  0.00    -0.317 C  
BRANCH  13  14
HETATM   14  C   UNL     1      -9.356   7.869  72.638  1.00  0.00    -0.275 C  
BRANCH  14  15
HETATM   15  C   UNL     1      -7.848   7.677  72.576  1.00  0.00    -0.101 C  
HETATM   16  O   UNL     1      -7.216   8.955  72.483  1.00  0.00    -0.335 OA 
HETATM   17  H   UNL     1      -6.274   8.834  72.444  1.00  0.00     0.000 HD 
ENDBRANCH  14  15
ENDBRANCH  13  14
ENDBRANCH  12  13
BRANCH   9  18
HETATM   18  C   UNL     1      -8.189  10.749  69.368  1.00  0.00    -0.023 C  
HETATM   19  N   UNL     1      -8.522  12.051  69.071  1.00  0.00    -0.349 N  
HETATM   20  O   UNL     1      -7.328  10.520  70.210  1.00  0.00    -0.206 OA 
HETATM   21  H2  UNL     1      -9.201  12.282  68.347  1.00  0.00     0.000 HD 
HETATM   22  H1  UNL     1      -8.049  12.772  69.618  1.00  0.00     0.000 HD 
ENDBRANCH   9  18
ENDBRANCH   3   4
ENDBRANCH   2   3
BRANCH   2  23
HETATM   23  N   UNL     1     -10.768  10.787  64.758  1.00  0.00    -0.202 NA 
HETATM   24  H   UNL     1     -10.953  10.280  65.624  1.00  0.00     0.000 HD 
BRANCH  23  25
HETATM   25  C   UNL     1     -10.983  12.231  64.948  1.00  0.00    -0.302 C  
BRANCH  25  26
HETATM   26  C   UNL     1     -11.745  12.594  66.241  1.00  0.00    -0.402 C  
BRANCH  26  27
HETATM   27  O   UNL     1     -10.870  12.997  67.302  1.00  0.00    -0.247 OA 
BRANCH  27  28
HETATM   28  C   UNL     1     -11.444  13.624  68.379  1.00  0.00    -0.311 A  
HETATM   29  C   UNL     1     -11.954  15.706  69.506  1.00  0.00    -0.363 A  
HETATM   30  C   UNL     1     -11.951  12.939  69.497  1.00  0.00    -0.346 A  
HETATM   31  C   UNL     1     -11.454  15.028  68.396  1.00  0.00    -0.323 A  
HETATM   32  C   UNL     1     -12.445  15.012  70.615  1.00  0.00    -0.422 A  
HETATM   33  C   UNL     1     -12.438  13.622  70.606  1.00  0.00    -0.417 A  
BRANCH  31  34
HETATM   34  O   UNL     1     -10.898  15.850  67.450  1.00  0.00    -0.316 OA 
BRANCH  34  35
HETATM   35  C   UNL     1     -10.547  17.174  67.871  1.00  0.00    -0.376 C  
HETATM   36  C   UNL     1     -10.370  18.132  66.698  1.00  0.00    -0.376 C  
HETATM   37  F   UNL     1     -10.740  17.604  65.512  1.00  0.00    -0.401 F  
HETATM   38  F   UNL     1     -11.083  19.268  66.883  1.00  0.00    -0.515 F  
HETATM   39  F   UNL     1      -9.067  18.504  66.580  1.00  0.00    -0.270 F  
ENDBRANCH  34  35
ENDBRANCH  31  34
ENDBRANCH  27  28
ENDBRANCH  26  27
ENDBRANCH  25  26
ENDBRANCH  23  25
ENDBRANCH   2  23
TORSDOF 13
ENDMDL
MODEL      151
REMARK 921   NORMALIZED FREE ENERGY PREDICTED BY IDOCK:   -5.04 KCAL/MOL
REMARK 922        TOTAL FREE ENERGY PREDICTED BY IDOCK:  -12.04 KCAL/MOL
REMARK 923 INTER-LIGAND FREE ENERGY PREDICTED BY IDOCK:   -9.29 KCAL/MOL
REMARK 924 INTRA-LIGAND FREE ENERGY PREDICTED BY IDOCK:   -2.76 KCAL/MOL
REMARK 927      BINDING AFFINITY PREDICTED BY RF-SCORE:    0.00 PKD
ROOT
HETATM    1  C   UNL     1      -5.482  14.627  69.969  1.00  0.00    -0.107 C  
HETATM    2  C   UNL     1      -5.746  15.366  68.651  1.00  0.00    -0.092 C  
ENDROOT
BRANCH   2   3
HETATM    3  C   UNL     1      -6.986  16.286  68.731  1.00  0.00    -0.159 C  
BRANCH   3   4
HETATM    4  C   UNL     1      -8.232  15.662  68.171  1.00  0.00    -0.144 A  
HETATM    5  C   UNL     1      -8.913  16.289  67.122  1.00  0.00    -0.213 A  
HETATM    6  C   UNL     1     -11.686  12.554  67.566  1.00  0.00    -0.374 A  
HETATM    7  C   UNL     1      -8.735  14.473  68.680  1.00  0.00    -0.172 A  
HETATM    8  C   UNL     1      -9.881  13.940  68.106  1.00  0.00    -0.240 A  
HETATM    9  C   UNL     1     -10.066  15.727  66.520  1.00  0.00    -0.292 A  
HETATM   10  C   UNL     1     -10.584  14.532  67.031  1.00  0.00    -0.278 A  
HETATM   11  C   UNL     1     -10.529  12.671  68.551  1.00  0.00    -0.249 A  
HETATM   12  N   UNL     1     -11.683  13.752  66.716  1.00  0.00    -0.369 NA 
BRANCH  12  13
HETATM   13  C   UNL     1     -12.657  13.861  65.649  1.00  0.00    -0.517 C  
BRANCH  13  14
HETATM   14  C   UNL     1     -12.766  12.561  64.848  1.00  0.00    -0.371 C  
BRANCH  14  15
HETATM   15  C   UNL     1     -12.256  12.684  63.419  1.00  0.00    -0.517 C  
HETATM   16  O   UNL     1     -12.197  11.385  62.828  1.00  0.00    -0.847 OA 
HETATM   17  H   UNL     1     -11.879  11.462  61.936  1.00  0.00     0.000 HD 
ENDBRANCH  14  15
ENDBRANCH  13  14
ENDBRANCH  12  13
BRANCH   9  18
HETATM   18  C   UNL     1     -10.612  16.540  65.403  1.00  0.00    -0.276 C  
HETATM   19  N   UNL     1     -10.919  15.857  64.247  1.00  0.00    -0.578 N  
HETATM   20  O   UNL     1     -10.745  17.758  65.440  1.00  0.00    -0.626 OA 
HETATM   21  H2  UNL     1     -10.780  14.850  64.164  1.00  0.00     0.000 HD 
HETATM   22  H1  UNL     1     -11.294  16.416  63.480  1.00  0.00     0.000 HD 
ENDBRANCH   9  18
ENDBRANCH   3   4
ENDBRANCH   2   3
BRANCH   2  23
HETATM   23  N   UNL     1      -5.882  14.366  67.577  1.00  0.00    -0.350 NA 
HETATM   24  H   UNL     1      -5.426  14.692  66.726  1.00  0.00     0.000 HD 
BRANCH  23  25
HETATM   25  C   UNL     1      -5.398  13.024  67.943  1.00  0.00    -0.113 C  
BRANCH  25  26
HETATM   26  C   UNL     1      -5.837  11.906  66.973  1.00  0.00    -0.153 C  
BRANCH  26  27
HETATM   27  O   UNL     1      -6.758  10.986  67.573  1.00  0.00    -0.067 OA 
BRANCH  27  28
HETATM   28  C   UNL     1      -7.886  10.676  66.856  1.00  0.00    -0.121 A  
HETATM   29  C   UNL     1      -9.715   9.134  66.476  1.00  0.00    -0.306 A  
HETATM   30  C   UNL     1      -8.312  11.399  65.728  1.00  0.00     0.100 A  
HETATM   31  C   UNL     1      -8.609   9.531  67.226  1.00  0.00    -0.128 A  
HETATM   32  C   UNL     1     -10.120   9.856  65.351  1.00  0.00    -0.270 A  
HETATM   33  C   UNL     1      -9.410  10.992  64.978  1.00  0.00    -0.250 A  
BRANCH  31  34
HETATM   34  O   UNL     1      -8.269   8.649  68.219  1.00  0.00    -0.120 OA 
BRANCH  34  35
HETATM   35  C   UNL     1      -9.256   8.398  69.226  1.00  0.00    -0.154 C  
HETATM   36  C   UNL     1      -9.158   9.371  70.396  1.00  0.00    -0.256 C  
HETATM   37  F   UNL     1      -8.283  10.377  70.186  1.00  0.00    -0.157 F  
HETATM   38  F   UNL     1     -10.362   9.923  70.675  1.00  0.00    -0.321 F  
HETATM   39  F   UNL     1      -8.756   8.721  71.522  1.00  0.00    -0.198 F  
ENDBRANCH  34  35
ENDBRANCH  31  34
ENDBRANCH  27  28
ENDBRANCH  26  27
ENDBRANCH  25  26
ENDBRANCH  23  25
ENDBRANCH   2  23
TORSDOF 13
ENDMDL
MODEL      152
REMARK 921   NORMALIZED FREE ENERGY PREDICTED BY IDOCK:   -5.04 KCAL/MOL
REMARK 922        TOTAL FREE ENERGY PREDICTED BY IDOCK:  -12.04 KCAL/MOL
REMARK 923 INTER-LIGAND FREE ENERGY PREDICTED BY IDOCK:  -10.01 KCAL/MOL
REMARK 924 INTRA-LIGAND FREE ENERGY PREDICTED BY IDOCK:   -2.04 KCAL/MOL
REMARK 927      BINDING AFFINITY PREDICTED BY RF-SCORE:    0.00 PKD
ROOT
HETATM    1  C   UNL     1      -8.976  10.102  69.435  1.00  0.00    -0.205 C  
HETATM    2  C   UNL     1      -9.855   9.018  70.071  1.00  0.00    -0.184 C  
ENDROOT
BRANCH   2   3
HETATM    3  C   UNL     1     -10.768   8.318  69.039  1.00  0.00    -0.098 C  
BRANCH   3   4
HETATM    4  C   UNL     1     -10.427   6.871  68.823  1.00  0.00    -0.223 A  
HETATM    5  C   UNL     1     -10.343   6.363  67.522  1.00  0.00    -0.245 A  
HETATM    6  C   UNL     1      -9.262   2.445  69.828  1.00  0.00    -0.118 A  
HETATM    7  C   UNL     1     -10.202   6.016  69.892  1.00  0.00    -0.265 A  
HETATM    8  C   UNL     1      -9.873   4.694  69.623  1.00  0.00    -0.293 A  
HETATM    9  C   UNL     1      -9.979   5.021  67.252  1.00  0.00    -0.220 A  
HETATM   10  C   UNL     1      -9.757   4.149  68.323  1.00  0.00    -0.082 A  
HETATM   11  C   UNL     1      -9.605   3.667  70.673  1.00  0.00    -0.254 A  
HETATM   12  N   UNL     1      -9.434   2.807  68.415  1.00  0.00    -0.189 NA 
BRANCH  12  13
HETATM   13  C   UNL     1      -9.113   1.829  67.394  1.00  0.00    -0.128 C  
BRANCH  13  14
HETATM   14  C   UNL     1      -7.601   1.627  67.261  1.00  0.00    -0.059 C  
BRANCH  14  15
HETATM   15  C   UNL     1      -6.811   2.927  67.290  1.00  0.00    -0.045 C  
HETATM   16  O   UNL     1      -6.203   3.134  66.014  1.00  0.00    -0.023 OA 
HETATM   17  H   UNL     1      -5.709   3.946  66.032  1.00  0.00     0.000 HD 
ENDBRANCH  14  15
ENDBRANCH  13  14
ENDBRANCH  12  13
BRANCH   9  18
HETATM   18  C   UNL     1      -9.919   4.699  65.802  1.00  0.00    -0.230 C  
HETATM   19  N   UNL     1     -11.124   4.443  65.187  1.00  0.00    -0.915 N  
HETATM   20  O   UNL     1      -8.879   4.600  65.161  1.00  0.00    -0.136 OA 
HETATM   21  H2  UNL     1     -12.007   4.472  65.697  1.00  0.00     0.000 HD 
HETATM   22  H1  UNL     1     -11.083   4.222  64.191  1.00  0.00     0.000 HD 
ENDBRANCH   9  18
ENDBRANCH   3   4
ENDBRANCH   2   3
BRANCH   2  23
HETATM   23  N   UNL     1     -10.639   9.635  71.157  1.00  0.00    -0.309 NA 
HETATM   24  H   UNL     1     -10.301  10.578  71.350  1.00  0.00     0.000 HD 
BRANCH  23  25
HETATM   25  C   UNL     1     -12.091   9.645  70.918  1.00  0.00    -0.300 C  
BRANCH  25  26
HETATM   26  C   UNL     1     -12.701  11.056  70.774  1.00  0.00    -0.323 C  
BRANCH  26  27
HETATM   27  O   UNL     1     -11.709  12.062  70.527  1.00  0.00    -0.227 OA 
BRANCH  27  28
HETATM   28  C   UNL     1     -11.734  12.673  69.299  1.00  0.00    -0.322 A  
HETATM   29  C   UNL     1     -11.997  14.721  68.032  1.00  0.00    -0.261 A  
HETATM   30  C   UNL     1     -11.692  11.971  68.082  1.00  0.00    -0.398 A  
HETATM   31  C   UNL     1     -11.886  14.068  69.259  1.00  0.00    -0.344 A  
HETATM   32  C   UNL     1     -11.964  14.008  66.831  1.00  0.00    -0.479 A  
HETATM   33  C   UNL     1     -11.814  12.627  66.862  1.00  0.00    -0.425 A  
BRANCH  31  34
HETATM   34  O   UNL     1     -12.062  14.891  70.341  1.00  0.00    -0.288 OA 
BRANCH  34  35
HETATM   35  C   UNL     1     -13.411  15.108  70.774  1.00  0.00    -0.341 C  
HETATM   36  C   UNL     1     -13.590  14.871  72.270  1.00  0.00    -0.434 C  
HETATM   37  F   UNL     1     -12.427  14.670  72.925  1.00  0.00    -0.403 F  
HETATM   38  F   UNL     1     -14.219  15.915  72.859  1.00  0.00    -0.657 F  
HETATM   39  F   UNL     1     -14.365  13.774  72.488  1.00  0.00    -0.584 F  
ENDBRANCH  34  35
ENDBRANCH  31  34
ENDBRANCH  27  28
ENDBRANCH  26  27
ENDBRANCH  25  26
ENDBRANCH  23  25
ENDBRANCH   2  23
TORSDOF 13
ENDMDL
MODEL      153
REMARK 921   NORMALIZED FREE ENERGY PREDICTED BY IDOCK:   -5.04 KCAL/MOL
REMARK 922        TOTAL FREE ENERGY PREDICTED BY IDOCK:  -12.04 KCAL/MOL
REMARK 923 INTER-LIGAND FREE ENERGY PREDICTED BY IDOCK:  -10.19 KCAL/MOL
REMARK 924 INTRA-LIGAND FREE ENERGY PREDICTED BY IDOCK:   -1.85 KCAL/MOL
REMARK 927      BINDING AFFINITY PREDICTED BY RF-SCORE:    0.00 PKD
ROOT
HETATM    1  C   UNL     1      -6.906  15.906  68.031  1.00  0.00    -0.137 C  
HETATM    2  C   UNL     1      -7.236  14.547  68.661  1.00  0.00    -0.124 C  
ENDROOT
BRANCH   2   3
HETATM    3  C   UNL     1      -7.487  13.451  67.601  1.00  0.00    -0.182 C  
BRANCH   3   4
HETATM    4  C   UNL     1      -8.073  12.190  68.169  1.00  0.00    -0.161 A  
HETATM    5  C   UNL     1      -9.415  12.164  68.565  1.00  0.00    -0.125 A  
HETATM    6  C   UNL     1      -8.345   7.728  69.577  1.00  0.00    -0.129 A  
HETATM    7  C   UNL     1      -7.308  11.043  68.321  1.00  0.00    -0.088 A  
HETATM    8  C   UNL     1      -7.916   9.905  68.835  1.00  0.00    -0.096 A  
HETATM    9  C   UNL     1     -10.039  10.993  69.063  1.00  0.00    -0.197 A  
HETATM   10  C   UNL     1      -9.273   9.834  69.226  1.00  0.00    -0.192 A  
HETATM   11  C   UNL     1      -7.214   8.606  69.051  1.00  0.00    -0.072 A  
HETATM   12  N   UNL     1      -9.545   8.565  69.707  1.00  0.00    -0.169 NA 
BRANCH  12  13
HETATM   13  C   UNL     1     -10.787   7.953  70.137  1.00  0.00    -0.243 C  
BRANCH  13  14
HETATM   14  C   UNL     1     -10.727   7.522  71.604  1.00  0.00    -0.242 C  
BRANCH  14  15
HETATM   15  C   UNL     1     -11.981   7.874  72.392  1.00  0.00    -0.320 C  
HETATM   16  O   UNL     1     -12.956   6.847  72.206  1.00  0.00    -0.534 OA 
HETATM   17  H   UNL     1     -13.738   7.067  72.697  1.00  0.00     0.000 HD 
ENDBRANCH  14  15
ENDBRANCH  13  14
ENDBRANCH  12  13
BRANCH   9  18
HETATM   18  C   UNL     1     -11.476  11.178  69.394  1.00  0.00    -0.298 C  
HETATM   19  N   UNL     1     -11.757  11.541  70.692  1.00  0.00    -0.444 N  
HETATM   20  O   UNL     1     -12.394  10.974  68.609  1.00  0.00    -0.539 OA 
HETATM   21  H2  UNL     1     -11.022  11.676  71.386  1.00  0.00     0.000 HD 
HETATM   22  H1  UNL     1     -12.744  11.668  70.920  1.00  0.00     0.000 HD 
ENDBRANCH   9  18
ENDBRANCH   3   4
ENDBRANCH   2   3
BRANCH   2  23
HETATM   23  N   UNL     1      -8.399  14.717  69.551  1.00  0.00    -0.400 NA 
HETATM   24  H   UNL     1      -8.112  14.667  70.528  1.00  0.00     0.000 HD 
BRANCH  23  25
HETATM   25  C   UNL     1      -9.170  15.946  69.300  1.00  0.00    -0.254 C  
BRANCH  25  26
HETATM   26  C   UNL     1     -10.687  15.804  69.551  1.00  0.00    -0.278 C  
BRANCH  26  27
HETATM   27  O   UNL     1     -11.466  16.059  68.374  1.00  0.00    -0.369 OA 
BRANCH  27  28
HETATM   28  C   UNL     1     -11.319  15.184  67.328  1.00  0.00    -0.303 A  
HETATM   29  C   UNL     1     -10.352  14.731  65.153  1.00  0.00    -0.439 A  
HETATM   30  C   UNL     1     -12.030  13.976  67.219  1.00  0.00    -0.448 A  
HETATM   31  C   UNL     1     -10.468  15.553  66.273  1.00  0.00    -0.307 A  
HETATM   32  C   UNL     1     -11.073  13.539  65.055  1.00  0.00    -0.338 A  
HETATM   33  C   UNL     1     -11.917  13.166  66.095  1.00  0.00    -0.478 A  
BRANCH  31  34
HETATM   34  O   UNL     1      -9.795  16.742  66.160  1.00  0.00    -0.294 OA 
BRANCH  34  35
HETATM   35  C   UNL     1     -10.557  17.878  65.735  1.00  0.00    -0.174 C  
HETATM   36  C   UNL     1     -10.212  19.139  66.520  1.00  0.00    -0.429 C  
HETATM   37  F   UNL     1      -9.149  18.989  67.338  1.00  0.00    -0.292 F  
HETATM   38  F   UNL     1      -9.950  20.176  65.690  1.00  0.00    -0.506 F  
HETATM   39  F   UNL     1     -11.262  19.517  67.298  1.00  0.00    -0.580 F  
ENDBRANCH  34  35
ENDBRANCH  31  34
ENDBRANCH  27  28
ENDBRANCH  26  27
ENDBRANCH  25  26
ENDBRANCH  23  25
ENDBRANCH   2  23
TORSDOF 13
ENDMDL
MODEL      154
REMARK 921   NORMALIZED FREE ENERGY PREDICTED BY IDOCK:   -5.04 KCAL/MOL
REMARK 922        TOTAL FREE ENERGY PREDICTED BY IDOCK:  -12.03 KCAL/MOL
REMARK 923 INTER-LIGAND FREE ENERGY PREDICTED BY IDOCK:   -9.52 KCAL/MOL
REMARK 924 INTRA-LIGAND FREE ENERGY PREDICTED BY IDOCK:   -2.51 KCAL/MOL
REMARK 927      BINDING AFFINITY PREDICTED BY RF-SCORE:    0.00 PKD
ROOT
HETATM    1  C   UNL     1      -6.599  14.458  69.322  1.00  0.00    -0.122 C  
HETATM    2  C   UNL     1      -7.247  14.273  67.944  1.00  0.00    -0.158 C  
ENDROOT
BRANCH   2   3
HETATM    3  C   UNL     1      -6.990  12.867  67.357  1.00  0.00    -0.129 C  
BRANCH   3   4
HETATM    4  C   UNL     1      -7.660  11.764  68.126  1.00  0.00    -0.117 A  
HETATM    5  C   UNL     1      -8.993  11.437  67.854  1.00  0.00    -0.153 A  
HETATM    6  C   UNL     1      -8.197   8.248  71.177  1.00  0.00    -0.120 A  
HETATM    7  C   UNL     1      -6.986  11.063  69.116  1.00  0.00    -0.104 A  
HETATM    8  C   UNL     1      -7.658  10.043  69.777  1.00  0.00    -0.167 A  
HETATM    9  C   UNL     1      -9.665  10.376  68.511  1.00  0.00    -0.174 A  
HETATM   10  C   UNL     1      -8.996   9.668  69.515  1.00  0.00    -0.194 A  
HETATM   11  C   UNL     1      -7.057   9.208  70.859  1.00  0.00    -0.108 A  
HETATM   12  N   UNL     1      -9.356   8.632  70.359  1.00  0.00    -0.163 NA 
BRANCH  12  13
HETATM   13  C   UNL     1     -10.564   7.835  70.431  1.00  0.00    -0.227 C  
BRANCH  13  14
HETATM   14  C   UNL     1     -11.683   8.570  71.173  1.00  0.00    -0.322 C  
BRANCH  14  15
HETATM   15  C   UNL     1     -11.997   7.978  72.539  1.00  0.00    -0.327 C  
HETATM   16  O   UNL     1     -13.040   8.738  73.151  1.00  0.00    -0.794 OA 
HETATM   17  H   UNL     1     -13.235   8.367  74.005  1.00  0.00     0.000 HD 
ENDBRANCH  14  15
ENDBRANCH  13  14
ENDBRANCH  12  13
BRANCH   9  18
HETATM   18  C   UNL     1     -11.064  10.180  68.049  1.00  0.00    -0.240 C  
HETATM   19  N   UNL     1     -11.276   9.123  67.193  1.00  0.00    -0.066 N  
HETATM   20  O   UNL     1     -11.995  10.922  68.340  1.00  0.00    -0.543 OA 
HETATM   21  H2  UNL     1     -10.518   8.511  66.893  1.00  0.00     0.000 HD 
HETATM   22  H1  UNL     1     -12.237   8.988  66.875  1.00  0.00     0.000 HD 
ENDBRANCH   9  18
ENDBRANCH   3   4
ENDBRANCH   2   3
BRANCH   2  23
HETATM   23  N   UNL     1      -6.747  15.334  67.051  1.00  0.00    -0.270 NA 
HETATM   24  H   UNL     1      -6.516  14.950  66.135  1.00  0.00     0.000 HD 
BRANCH  23  25
HETATM   25  C   UNL     1      -7.657  16.483  66.916  1.00  0.00    -0.237 C  
BRANCH  25  26
HETATM   26  C   UNL     1      -8.935  16.187  66.102  1.00  0.00    -0.337 C  
BRANCH  26  27
HETATM   27  O   UNL     1     -10.123  16.661  66.749  1.00  0.00    -0.272 OA 
BRANCH  27  28
HETATM   28  C   UNL     1     -10.649  15.871  67.741  1.00  0.00    -0.302 A  
HETATM   29  C   UNL     1     -12.180  14.097  68.354  1.00  0.00    -0.200 A  
HETATM   30  C   UNL     1     -10.384  16.062  69.108  1.00  0.00    -0.247 A  
HETATM   31  C   UNL     1     -11.560  14.868  67.372  1.00  0.00    -0.332 A  
HETATM   32  C   UNL     1     -11.915  14.306  69.709  1.00  0.00    -0.394 A  
HETATM   33  C   UNL     1     -11.014  15.296  70.083  1.00  0.00    -0.312 A  
BRANCH  31  34
HETATM   34  O   UNL     1     -12.021  14.625  66.105  1.00  0.00    -0.338 OA 
BRANCH  34  35
HETATM   35  C   UNL     1     -12.402  13.277  65.803  1.00  0.00    -0.447 C  
HETATM   36  C   UNL     1     -11.558  12.667  64.689  1.00  0.00    -0.342 C  
HETATM   37  F   UNL     1     -10.515  13.440  64.320  1.00  0.00    -0.402 F  
HETATM   38  F   UNL     1     -11.066  11.459  65.053  1.00  0.00    -0.342 F  
HETATM   39  F   UNL     1     -12.315  12.461  63.578  1.00  0.00    -0.516 F  
ENDBRANCH  34  35
ENDBRANCH  31  34
ENDBRANCH  27  28
ENDBRANCH  26  27
ENDBRANCH  25  26
ENDBRANCH  23  25
ENDBRANCH   2  23
TORSDOF 13
ENDMDL
MODEL      155
REMARK 921   NORMALIZED FREE ENERGY PREDICTED BY IDOCK:   -5.03 KCAL/MOL
REMARK 922        TOTAL FREE ENERGY PREDICTED BY IDOCK:  -12.02 KCAL/MOL
REMARK 923 INTER-LIGAND FREE ENERGY PREDICTED BY IDOCK:   -9.11 KCAL/MOL
REMARK 924 INTRA-LIGAND FREE ENERGY PREDICTED BY IDOCK:   -2.91 KCAL/MOL
REMARK 927      BINDING AFFINITY PREDICTED BY RF-SCORE:    0.00 PKD
ROOT
HETATM    1  C   UNL     1     -14.173   8.714  72.196  1.00  0.00    -0.520 C  
HETATM    2  C   UNL     1     -12.807   8.630  71.504  1.00  0.00    -0.319 C  
ENDROOT
BRANCH   2   3
HETATM    3  C   UNL     1     -11.951   7.456  72.031  1.00  0.00    -0.333 C  
BRANCH   3   4
HETATM    4  C   UNL     1     -11.326   6.634  70.941  1.00  0.00    -0.377 A  
HETATM    5  C   UNL     1     -10.521   5.537  71.271  1.00  0.00    -0.306 A  
HETATM    6  C   UNL     1     -10.264   5.166  66.619  1.00  0.00    -0.261 A  
HETATM    7  C   UNL     1     -11.520   6.944  69.602  1.00  0.00    -0.204 A  
HETATM    8  C   UNL     1     -10.929   6.132  68.643  1.00  0.00    -0.415 A  
HETATM    9  C   UNL     1      -9.943   4.695  70.288  1.00  0.00    -0.309 A  
HETATM   10  C   UNL     1     -10.129   5.004  68.936  1.00  0.00    -0.144 A  
HETATM   11  C   UNL     1     -11.055   6.347  67.172  1.00  0.00    -0.422 A  
HETATM   12  N   UNL     1      -9.687   4.435  67.755  1.00  0.00    -0.159 NA 
BRANCH  12  13
HETATM   13  C   UNL     1      -8.930   3.225  67.502  1.00  0.00    -0.151 C  
BRANCH  13  14
HETATM   14  C   UNL     1      -7.600   3.525  66.805  1.00  0.00    -0.080 C  
BRANCH  14  15
HETATM   15  C   UNL     1      -6.608   4.269  67.688  1.00  0.00    -0.046 C  
HETATM   16  O   UNL     1      -6.900   5.667  67.645  1.00  0.00    -0.057 OA 
HETATM   17  H   UNL     1      -6.281   6.131  68.196  1.00  0.00     0.000 HD 
ENDBRANCH  14  15
ENDBRANCH  13  14
ENDBRANCH  12  13
BRANCH   9  18
HETATM   18  C   UNL     1      -9.153   3.572  70.856  1.00  0.00    -0.112 C  
HETATM   19  N   UNL     1      -9.874   2.572  71.468  1.00  0.00    -0.157 N  
HETATM   20  O   UNL     1      -7.928   3.524  70.856  1.00  0.00    -0.056 OA 
HETATM   21  H2  UNL     1     -10.891   2.600  71.528  1.00  0.00     0.000 HD 
HETATM   22  H1  UNL     1      -9.331   1.800  71.859  1.00  0.00     0.000 HD 
ENDBRANCH   9  18
ENDBRANCH   3   4
ENDBRANCH   2   3
BRANCH   2  23
HETATM   23  N   UNL     1     -12.120   9.923  71.677  1.00  0.00    -0.398 NA 
HETATM   24  H   UNL     1     -11.348  10.008  71.016  1.00  0.00     0.000 HD 
BRANCH  23  25
HETATM   25  C   UNL     1     -13.010  11.092  71.587  1.00  0.00    -0.443 C  
BRANCH  25  26
HETATM   26  C   UNL     1     -12.429  12.269  70.773  1.00  0.00    -0.265 C  
BRANCH  26  27
HETATM   27  O   UNL     1     -11.519  11.838  69.753  1.00  0.00    -0.280 OA 
BRANCH  27  28
HETATM   28  C   UNL     1     -11.670  12.394  68.508  1.00  0.00    -0.326 A  
HETATM   29  C   UNL     1     -11.590  12.094  66.105  1.00  0.00    -0.418 A  
HETATM   30  C   UNL     1     -11.886  13.766  68.290  1.00  0.00    -0.413 A  
HETATM   31  C   UNL     1     -11.525  11.557  67.390  1.00  0.00    -0.274 A  
HETATM   32  C   UNL     1     -11.794  13.462  65.905  1.00  0.00    -0.414 A  
HETATM   33  C   UNL     1     -11.940  14.297  67.006  1.00  0.00    -0.463 A  
BRANCH  31  34
HETATM   34  O   UNL     1     -11.194  10.227  67.416  1.00  0.00    -0.274 OA 
BRANCH  34  35
HETATM   35  C   UNL     1      -9.816   9.899  67.202  1.00  0.00    -0.186 C  
HETATM   36  C   UNL     1      -9.110   9.476  68.486  1.00  0.00    -0.131 C  
HETATM   37  F   UNL     1      -9.946   9.329  69.535  1.00  0.00    -0.167 F  
HETATM   38  F   UNL     1      -8.448   8.307  68.318  1.00  0.00    -0.129 F  
HETATM   39  F   UNL     1      -8.180  10.403  68.844  1.00  0.00    -0.099 F  
ENDBRANCH  34  35
ENDBRANCH  31  34
ENDBRANCH  27  28
ENDBRANCH  26  27
ENDBRANCH  25  26
ENDBRANCH  23  25
ENDBRANCH   2  23
TORSDOF 13
ENDMDL
MODEL      156
REMARK 921   NORMALIZED FREE ENERGY PREDICTED BY IDOCK:   -5.02 KCAL/MOL
REMARK 922        TOTAL FREE ENERGY PREDICTED BY IDOCK:  -12.00 KCAL/MOL
REMARK 923 INTER-LIGAND FREE ENERGY PREDICTED BY IDOCK:   -9.74 KCAL/MOL
REMARK 924 INTRA-LIGAND FREE ENERGY PREDICTED BY IDOCK:   -2.26 KCAL/MOL
REMARK 927      BINDING AFFINITY PREDICTED BY RF-SCORE:    0.00 PKD
ROOT
HETATM    1  C   UNL     1     -13.271  10.862  71.874  1.00  0.00    -0.508 C  
HETATM    2  C   UNL     1     -12.292  10.440  70.771  1.00  0.00    -0.367 C  
ENDROOT
BRANCH   2   3
HETATM    3  C   UNL     1     -11.198   9.480  71.291  1.00  0.00    -0.452 C  
BRANCH   3   4
HETATM    4  C   UNL     1     -10.101   9.226  70.296  1.00  0.00    -0.262 A  
HETATM    5  C   UNL     1     -10.421   8.945  68.964  1.00  0.00    -0.231 A  
HETATM    6  C   UNL     1      -5.768   8.781  68.568  1.00  0.00    -0.038 A  
HETATM    7  C   UNL     1      -8.765   9.254  70.672  1.00  0.00    -0.282 A  
HETATM    8  C   UNL     1      -7.800   9.029  69.700  1.00  0.00    -0.088 A  
HETATM    9  C   UNL     1      -9.432   8.745  67.969  1.00  0.00    -0.158 A  
HETATM   10  C   UNL     1      -8.083   8.764  68.341  1.00  0.00    -0.117 A  
HETATM   11  C   UNL     1      -6.331   9.030  69.963  1.00  0.00    -0.038 A  
HETATM   12  N   UNL     1      -6.898   8.573  67.653  1.00  0.00    -0.070 NA 
BRANCH  12  13
HETATM   13  C   UNL     1      -6.633   8.372  66.242  1.00  0.00    -0.058 C  
BRANCH  13  14
HETATM   14  C   UNL     1      -5.755   9.486  65.667  1.00  0.00    -0.053 C  
BRANCH  14  15
HETATM   15  C   UNL     1      -6.246  10.884  66.013  1.00  0.00    -0.115 C  
HETATM   16  O   UNL     1      -7.576  11.049  65.519  1.00  0.00    -0.359 OA 
HETATM   17  H   UNL     1      -7.883  11.923  65.735  1.00  0.00     0.000 HD 
ENDBRANCH  14  15
ENDBRANCH  13  14
ENDBRANCH  12  13
BRANCH   9  18
HETATM   18  C   UNL     1      -9.990   8.491  66.615  1.00  0.00    -0.293 C  
HETATM   19  N   UNL     1     -10.422   7.208  66.368  1.00  0.00    -0.456 N  
HETATM   20  O   UNL     1     -10.032   9.328  65.721  1.00  0.00    -0.299 OA 
HETATM   21  H2  UNL     1     -10.362   6.473  67.072  1.00  0.00     0.000 HD 
HETATM   22  H1  UNL     1     -10.805   7.034  65.438  1.00  0.00     0.000 HD 
ENDBRANCH   9  18
ENDBRANCH   3   4
ENDBRANCH   2   3
BRANCH   2  23
HETATM   23  N   UNL     1     -11.708  11.656  70.177  1.00  0.00    -0.458 NA 
HETATM   24  H   UNL     1     -11.662  11.571  69.162  1.00  0.00     0.000 HD 
BRANCH  23  25
HETATM   25  C   UNL     1     -12.395  12.900  70.561  1.00  0.00    -0.283 C  
BRANCH  25  26
HETATM   26  C   UNL     1     -11.771  14.179  69.963  1.00  0.00    -0.291 C  
BRANCH  26  27
HETATM   27  O   UNL     1     -11.407  14.023  68.586  1.00  0.00    -0.244 OA 
BRANCH  27  28
HETATM   28  C   UNL     1     -11.035  15.155  67.907  1.00  0.00    -0.302 A  
HETATM   29  C   UNL     1      -9.989  16.121  65.947  1.00  0.00    -0.384 A  
HETATM   30  C   UNL     1     -11.133  16.451  68.445  1.00  0.00    -0.351 A  
HETATM   31  C   UNL     1     -10.455  15.003  66.637  1.00  0.00    -0.284 A  
HETATM   32  C   UNL     1     -10.084  17.401  66.499  1.00  0.00    -0.320 A  
HETATM   33  C   UNL     1     -10.657  17.561  67.755  1.00  0.00    -0.375 A  
BRANCH  31  34
HETATM   34  O   UNL     1     -10.175  13.814  66.016  1.00  0.00    -0.292 OA 
BRANCH  34  35
HETATM   35  C   UNL     1     -10.811  13.579  64.754  1.00  0.00    -0.381 C  
HETATM   36  C   UNL     1     -11.863  12.478  64.825  1.00  0.00    -0.383 C  
HETATM   37  F   UNL     1     -12.115  12.056  66.082  1.00  0.00    -0.412 F  
HETATM   38  F   UNL     1     -13.035  12.885  64.285  1.00  0.00    -0.327 F  
HETATM   39  F   UNL     1     -11.463  11.389  64.113  1.00  0.00    -0.412 F  
ENDBRANCH  34  35
ENDBRANCH  31  34
ENDBRANCH  27  28
ENDBRANCH  26  27
ENDBRANCH  25  26
ENDBRANCH  23  25
ENDBRANCH   2  23
TORSDOF 13
ENDMDL
MODEL      157
REMARK 921   NORMALIZED FREE ENERGY PREDICTED BY IDOCK:   -5.02 KCAL/MOL
REMARK 922        TOTAL FREE ENERGY PREDICTED BY IDOCK:  -12.00 KCAL/MOL
REMARK 923 INTER-LIGAND FREE ENERGY PREDICTED BY IDOCK:   -9.77 KCAL/MOL
REMARK 924 INTRA-LIGAND FREE ENERGY PREDICTED BY IDOCK:   -2.23 KCAL/MOL
REMARK 927      BINDING AFFINITY PREDICTED BY RF-SCORE:    0.00 PKD
ROOT
HETATM    1  C   UNL     1     -10.565   6.083  66.267  1.00  0.00    -0.024 C  
HETATM    2  C   UNL     1     -10.183   7.439  66.874  1.00  0.00    -0.276 C  
ENDROOT
BRANCH   2   3
HETATM    3  C   UNL     1      -9.293   8.278  65.928  1.00  0.00    -0.165 C  
BRANCH   3   4
HETATM    4  C   UNL     1      -9.484   9.760  66.084  1.00  0.00    -0.261 A  
HETATM    5  C   UNL     1     -10.488  10.412  65.360  1.00  0.00    -0.187 A  
HETATM    6  C   UNL     1      -8.841  14.119  67.681  1.00  0.00    -0.194 A  
HETATM    7  C   UNL     1      -8.675  10.507  66.929  1.00  0.00    -0.130 A  
HETATM    8  C   UNL     1      -8.917  11.869  67.042  1.00  0.00    -0.190 A  
HETATM    9  C   UNL     1     -10.749  11.798  65.499  1.00  0.00    -0.329 A  
HETATM   10  C   UNL     1      -9.934  12.560  66.344  1.00  0.00    -0.252 A  
HETATM   11  C   UNL     1      -8.127  12.791  67.911  1.00  0.00    -0.159 A  
HETATM   12  N   UNL     1      -9.887  13.903  66.673  1.00  0.00    -0.276 NA 
BRANCH  12  13
HETATM   13  C   UNL     1     -10.756  15.006  66.313  1.00  0.00    -0.322 C  
BRANCH  13  14
HETATM   14  C   UNL     1     -10.654  16.157  67.317  1.00  0.00    -0.305 C  
BRANCH  14  15
HETATM   15  C   UNL     1     -11.647  16.049  68.466  1.00  0.00    -0.316 C  
HETATM   16  O   UNL     1     -12.466  14.895  68.271  1.00  0.00    -0.542 OA 
HETATM   17  H   UNL     1     -13.085  14.828  68.988  1.00  0.00     0.000 HD 
ENDBRANCH  14  15
ENDBRANCH  13  14
ENDBRANCH  12  13
BRANCH   9  18
HETATM   18  C   UNL     1     -11.878  12.279  64.661  1.00  0.00    -0.367 C  
HETATM   19  N   UNL     1     -11.681  12.244  63.299  1.00  0.00    -0.718 N  
HETATM   20  O   UNL     1     -12.920  12.742  65.111  1.00  0.00    -0.768 OA 
HETATM   21  H2  UNL     1     -10.810  11.908  62.889  1.00  0.00     0.000 HD 
HETATM   22  H1  UNL     1     -12.456  12.575  62.724  1.00  0.00     0.000 HD 
ENDBRANCH   9  18
ENDBRANCH   3   4
ENDBRANCH   2   3
BRANCH   2  23
HETATM   23  N   UNL     1      -9.521   7.198  68.169  1.00  0.00    -0.132 NA 
HETATM   24  H   UNL     1      -9.633   8.004  68.783  1.00  0.00     0.000 HD 
BRANCH  23  25
HETATM   25  C   UNL     1      -9.960   5.967  68.846  1.00  0.00    -0.157 C  
BRANCH  25  26
HETATM   26  C   UNL     1     -11.296   6.104  69.608  1.00  0.00    -0.372 C  
BRANCH  26  27
HETATM   27  O   UNL     1     -11.128   6.661  70.919  1.00  0.00    -0.255 OA 
BRANCH  27  28
HETATM   28  C   UNL     1     -11.764   7.849  71.177  1.00  0.00    -0.285 A  
HETATM   29  C   UNL     1     -11.663  10.269  71.182  1.00  0.00    -0.430 A  
HETATM   30  C   UNL     1     -13.017   7.938  71.808  1.00  0.00    -0.351 A  
HETATM   31  C   UNL     1     -11.089   9.040  70.862  1.00  0.00    -0.280 A  
HETATM   32  C   UNL     1     -12.905  10.342  71.818  1.00  0.00    -0.565 A  
HETATM   33  C   UNL     1     -13.579   9.168  72.133  1.00  0.00    -0.534 A  
BRANCH  31  34
HETATM   34  O   UNL     1      -9.819   9.137  70.357  1.00  0.00    -0.187 OA 
BRANCH  34  35
HETATM   35  C   UNL     1      -8.752   8.690  71.203  1.00  0.00    -0.197 C  
HETATM   36  C   UNL     1      -7.377   9.021  70.633  1.00  0.00    -0.098 C  
HETATM   37  F   UNL     1      -7.424   9.812  69.540  1.00  0.00    -0.067 F  
HETATM   38  F   UNL     1      -6.601   9.639  71.554  1.00  0.00    -0.046 F  
HETATM   39  F   UNL     1      -6.724   7.883  70.272  1.00  0.00    -0.037 F  
ENDBRANCH  34  35
ENDBRANCH  31  34
ENDBRANCH  27  28
ENDBRANCH  26  27
ENDBRANCH  25  26
ENDBRANCH  23  25
ENDBRANCH   2  23
TORSDOF 13
ENDMDL
MODEL      158
REMARK 921   NORMALIZED FREE ENERGY PREDICTED BY IDOCK:   -5.02 KCAL/MOL
REMARK 922        TOTAL FREE ENERGY PREDICTED BY IDOCK:  -12.00 KCAL/MOL
REMARK 923 INTER-LIGAND FREE ENERGY PREDICTED BY IDOCK:   -9.25 KCAL/MOL
REMARK 924 INTRA-LIGAND FREE ENERGY PREDICTED BY IDOCK:   -2.75 KCAL/MOL
REMARK 927      BINDING AFFINITY PREDICTED BY RF-SCORE:    0.00 PKD
ROOT
HETATM    1  C   UNL     1      -5.423  13.686  70.939  1.00  0.00    -0.178 C  
HETATM    2  C   UNL     1      -5.303  12.354  70.188  1.00  0.00    -0.113 C  
ENDROOT
BRANCH   2   3
HETATM    3  C   UNL     1      -5.544  12.511  68.669  1.00  0.00    -0.054 C  
BRANCH   3   4
HETATM    4  C   UNL     1      -6.990  12.697  68.309  1.00  0.00    -0.095 A  
HETATM    5  C   UNL     1      -7.514  13.988  68.178  1.00  0.00    -0.131 A  
HETATM    6  C   UNL     1     -11.391  11.596  67.134  1.00  0.00    -0.306 A  
HETATM    7  C   UNL     1      -7.830  11.610  68.110  1.00  0.00    -0.133 A  
HETATM    8  C   UNL     1      -9.152  11.851  67.760  1.00  0.00    -0.180 A  
HETATM    9  C   UNL     1      -8.856  14.228  67.793  1.00  0.00    -0.185 A  
HETATM   10  C   UNL     1      -9.712  13.139  67.597  1.00  0.00    -0.213 A  
HETATM   11  C   UNL     1     -10.162  10.779  67.516  1.00  0.00    -0.231 A  
HETATM   12  N   UNL     1     -11.050  13.019  67.264  1.00  0.00    -0.265 NA 
BRANCH  12  13
HETATM   13  C   UNL     1     -12.037  14.016  66.901  1.00  0.00    -0.430 C  
BRANCH  13  14
HETATM   14  C   UNL     1     -12.616  13.757  65.508  1.00  0.00    -0.551 C  
BRANCH  14  15
HETATM   15  C   UNL     1     -11.711  14.227  64.378  1.00  0.00    -0.389 C  
HETATM   16  O   UNL     1     -12.294  13.857  63.127  1.00  0.00    -1.122 OA 
HETATM   17  H   UNL     1     -11.729  14.151  62.422  1.00  0.00     0.000 HD 
ENDBRANCH  14  15
ENDBRANCH  13  14
ENDBRANCH  12  13
BRANCH   9  18
HETATM   18  C   UNL     1      -9.196  15.671  67.683  1.00  0.00    -0.193 C  
HETATM   19  N   UNL     1      -9.472  16.321  68.866  1.00  0.00    -0.242 N  
HETATM   20  O   UNL     1      -9.293  16.276  66.622  1.00  0.00    -0.220 OA 
HETATM   21  H2  UNL     1      -9.445  15.840  69.764  1.00  0.00     0.000 HD 
HETATM   22  H1  UNL     1      -9.705  17.312  68.791  1.00  0.00     0.000 HD 
ENDBRANCH   9  18
ENDBRANCH   3   4
ENDBRANCH   2   3
BRANCH   2  23
HETATM   23  N   UNL     1      -6.245  11.395  70.791  1.00  0.00    -0.497 NA 
HETATM   24  H   UNL     1      -7.011  11.195  70.148  1.00  0.00     0.000 HD 
BRANCH  23  25
HETATM   25  C   UNL     1      -5.617  10.146  71.252  1.00  0.00    -0.044 C  
BRANCH  25  26
HETATM   26  C   UNL     1      -6.528   8.903  71.150  1.00  0.00    -0.066 C  
BRANCH  26  27
HETATM   27  O   UNL     1      -7.920   9.243  71.104  1.00  0.00    -0.292 OA 
BRANCH  27  28
HETATM   28  C   UNL     1      -8.699   8.560  70.205  1.00  0.00    -0.137 A  
HETATM   29  C   UNL     1     -10.895   7.728  69.610  1.00  0.00    -0.185 A  
HETATM   30  C   UNL     1      -8.181   7.874  69.092  1.00  0.00    -0.132 A  
HETATM   31  C   UNL     1     -10.079   8.479  70.454  1.00  0.00    -0.189 A  
HETATM   32  C   UNL     1     -10.364   7.043  68.514  1.00  0.00    -0.204 A  
HETATM   33  C   UNL     1      -8.999   7.117  68.260  1.00  0.00    -0.125 A  
BRANCH  31  34
HETATM   34  O   UNL     1     -10.730   8.984  71.549  1.00  0.00    -0.297 OA 
BRANCH  34  35
HETATM   35  C   UNL     1     -12.136   9.225  71.410  1.00  0.00    -0.348 C  
HETATM   36  C   UNL     1     -12.444  10.659  70.992  1.00  0.00    -0.413 C  
HETATM   37  F   UNL     1     -11.344  11.373  70.671  1.00  0.00    -0.304 F  
HETATM   38  F   UNL     1     -13.280  10.690  69.928  1.00  0.00    -0.233 F  
HETATM   39  F   UNL     1     -13.070  11.324  72.001  1.00  0.00    -0.556 F  
ENDBRANCH  34  35
ENDBRANCH  31  34
ENDBRANCH  27  28
ENDBRANCH  26  27
ENDBRANCH  25  26
ENDBRANCH  23  25
ENDBRANCH   2  23
TORSDOF 13
ENDMDL
MODEL      159
REMARK 921   NORMALIZED FREE ENERGY PREDICTED BY IDOCK:   -5.01 KCAL/MOL
REMARK 922        TOTAL FREE ENERGY PREDICTED BY IDOCK:  -11.98 KCAL/MOL
REMARK 923 INTER-LIGAND FREE ENERGY PREDICTED BY IDOCK:   -9.93 KCAL/MOL
REMARK 924 INTRA-LIGAND FREE ENERGY PREDICTED BY IDOCK:   -2.05 KCAL/MOL
REMARK 927      BINDING AFFINITY PREDICTED BY RF-SCORE:    0.00 PKD
ROOT
HETATM    1  C   UNL     1      -6.049  11.916  69.868  1.00  0.00    -0.153 C  
HETATM    2  C   UNL     1      -6.961  11.507  68.704  1.00  0.00    -0.089 C  
ENDROOT
BRANCH   2   3
HETATM    3  C   UNL     1      -6.870  12.487  67.512  1.00  0.00    -0.150 C  
BRANCH   3   4
HETATM    4  C   UNL     1      -7.624  13.767  67.730  1.00  0.00    -0.173 A  
HETATM    5  C   UNL     1      -6.929  14.939  68.047  1.00  0.00    -0.150 A  
HETATM    6  C   UNL     1     -11.246  16.729  67.997  1.00  0.00    -0.119 A  
HETATM    7  C   UNL     1      -9.008  13.814  67.632  1.00  0.00    -0.194 A  
HETATM    8  C   UNL     1      -9.644  15.034  67.827  1.00  0.00    -0.203 A  
HETATM    9  C   UNL     1      -7.580  16.187  68.216  1.00  0.00    -0.146 A  
HETATM   10  C   UNL     1      -8.975  16.243  68.127  1.00  0.00    -0.187 A  
HETATM   11  C   UNL     1     -11.121  15.229  67.752  1.00  0.00    -0.318 A  
HETATM   12  N   UNL     1      -9.904  17.258  68.273  1.00  0.00    -0.289 NA 
BRANCH  12  13
HETATM   13  C   UNL     1      -9.738  18.682  68.484  1.00  0.00    -0.370 C  
BRANCH  13  14
HETATM   14  C   UNL     1     -10.608  19.501  67.528  1.00  0.00    -0.599 C  
BRANCH  14  15
HETATM   15  C   UNL     1     -10.081  19.527  66.100  1.00  0.00    -0.469 C  
HETATM   16  O   UNL     1      -8.889  18.743  66.026  1.00  0.00    -0.479 OA 
HETATM   17  H   UNL     1      -8.560  18.760  65.135  1.00  0.00     0.000 HD 
ENDBRANCH  14  15
ENDBRANCH  13  14
ENDBRANCH  12  13
BRANCH   9  18
HETATM   18  C   UNL     1      -6.651  17.307  68.518  1.00  0.00    -0.174 C  
HETATM   19  N   UNL     1      -6.224  17.407  69.823  1.00  0.00    -0.234 N  
HETATM   20  O   UNL     1      -6.302  18.151  67.700  1.00  0.00    -0.171 OA 
HETATM   21  H2  UNL     1      -6.528  16.751  70.541  1.00  0.00     0.000 HD 
HETATM   22  H1  UNL     1      -5.586  18.177  70.030  1.00  0.00     0.000 HD 
ENDBRANCH   9  18
ENDBRANCH   3   4
ENDBRANCH   2   3
BRANCH   2  23
HETATM   23  N   UNL     1      -8.341  11.398  69.211  1.00  0.00    -0.369 NA 
HETATM   24  H   UNL     1      -8.855  12.261  69.037  1.00  0.00     0.000 HD 
BRANCH  23  25
HETATM   25  C   UNL     1      -9.082  10.239  68.688  1.00  0.00    -0.152 C  
BRANCH  25  26
HETATM   26  C   UNL     1     -10.493  10.575  68.160  1.00  0.00    -0.186 C  
BRANCH  26  27
HETATM   27  O   UNL     1     -11.529  10.198  69.076  1.00  0.00    -0.183 OA 
BRANCH  27  28
HETATM   28  C   UNL     1     -11.955  11.155  69.963  1.00  0.00    -0.367 A  
HETATM   29  C   UNL     1     -13.229  11.683  71.955  1.00  0.00    -0.475 A  
HETATM   30  C   UNL     1     -11.742  12.533  69.782  1.00  0.00    -0.355 A  
HETATM   31  C   UNL     1     -12.708  10.737  71.073  1.00  0.00    -0.415 A  
HETATM   32  C   UNL     1     -13.018  13.049  71.755  1.00  0.00    -0.420 A  
HETATM   33  C   UNL     1     -12.273  13.471  70.660  1.00  0.00    -0.434 A  
BRANCH  31  34
HETATM   34  O   UNL     1     -13.109   9.454  71.338  1.00  0.00    -0.341 OA 
BRANCH  34  35
HETATM   35  C   UNL     1     -12.663   8.880  72.572  1.00  0.00    -0.313 C  
HETATM   36  C   UNL     1     -11.548   7.858  72.373  1.00  0.00    -0.380 C  
HETATM   37  F   UNL     1     -11.081   7.813  71.108  1.00  0.00    -0.236 F  
HETATM   38  F   UNL     1     -10.500   8.113  73.190  1.00  0.00    -0.388 F  
HETATM   39  F   UNL     1     -11.988   6.608  72.680  1.00  0.00    -0.249 F  
ENDBRANCH  34  35
ENDBRANCH  31  34
ENDBRANCH  27  28
ENDBRANCH  26  27
ENDBRANCH  25  26
ENDBRANCH  23  25
ENDBRANCH   2  23
TORSDOF 13
ENDMDL
MODEL      160
REMARK 921   NORMALIZED FREE ENERGY PREDICTED BY IDOCK:   -4.99 KCAL/MOL
REMARK 922        TOTAL FREE ENERGY PREDICTED BY IDOCK:  -11.95 KCAL/MOL
REMARK 923 INTER-LIGAND FREE ENERGY PREDICTED BY IDOCK:   -9.89 KCAL/MOL
REMARK 924 INTRA-LIGAND FREE ENERGY PREDICTED BY IDOCK:   -2.06 KCAL/MOL
REMARK 927      BINDING AFFINITY PREDICTED BY RF-SCORE:    0.00 PKD
ROOT
HETATM    1  C   UNL     1     -10.263  11.537  64.334  1.00  0.00    -0.350 C  
HETATM    2  C   UNL     1     -10.335  11.269  65.842  1.00  0.00    -0.253 C  
ENDROOT
BRANCH   2   3
HETATM    3  C   UNL     1     -10.202   9.767  66.180  1.00  0.00    -0.278 C  
BRANCH   3   4
HETATM    4  C   UNL     1      -9.741   9.507  67.586  1.00  0.00    -0.188 A  
HETATM    5  C   UNL     1     -10.663   9.101  68.557  1.00  0.00    -0.160 A  
HETATM    6  C   UNL     1      -6.833   9.068  71.235  1.00  0.00    -0.086 A  
HETATM    7  C   UNL     1      -8.412   9.671  67.951  1.00  0.00    -0.122 A  
HETATM    8  C   UNL     1      -8.048   9.397  69.263  1.00  0.00    -0.105 A  
HETATM    9  C   UNL     1     -10.282   8.795  69.887  1.00  0.00    -0.206 A  
HETATM   10  C   UNL     1      -8.946   8.964  70.266  1.00  0.00    -0.183 A  
HETATM   11  C   UNL     1      -6.659   9.529  69.792  1.00  0.00    -0.051 A  
HETATM   12  N   UNL     1      -8.260   8.800  71.456  1.00  0.00    -0.243 NA 
BRANCH  12  13
HETATM   13  C   UNL     1      -8.688   8.288  72.743  1.00  0.00    -0.219 C  
BRANCH  13  14
HETATM   14  C   UNL     1      -8.162   6.872  72.993  1.00  0.00    -0.117 C  
BRANCH  14  15
HETATM   15  C   UNL     1      -8.746   5.833  72.047  1.00  0.00    -0.137 C  
HETATM   16  O   UNL     1      -7.818   5.586  70.990  1.00  0.00    -0.099 OA 
HETATM   17  H   UNL     1      -8.183   4.937  70.400  1.00  0.00     0.000 HD 
ENDBRANCH  14  15
ENDBRANCH  13  14
ENDBRANCH  12  13
BRANCH   9  18
HETATM   18  C   UNL     1     -11.413   8.353  70.744  1.00  0.00    -0.255 C  
HETATM   19  N   UNL     1     -11.987   7.145  70.417  1.00  0.00    -0.559 N  
HETATM   20  O   UNL     1     -11.880   9.017  71.663  1.00  0.00    -0.312 OA 
HETATM   21  H2  UNL     1     -11.655   6.586  69.631  1.00  0.00     0.000 HD 
HETATM   22  H1  UNL     1     -12.764   6.842  71.005  1.00  0.00     0.000 HD 
ENDBRANCH   9  18
ENDBRANCH   3   4
ENDBRANCH   2   3
BRANCH   2  23
HETATM   23  N   UNL     1     -11.599  11.829  66.353  1.00  0.00    -0.485 NA 
HETATM   24  H   UNL     1     -12.225  11.083  66.655  1.00  0.00     0.000 HD 
BRANCH  23  25
HETATM   25  C   UNL     1     -11.425  12.824  67.424  1.00  0.00    -0.340 C  
BRANCH  25  26
HETATM   26  C   UNL     1     -11.862  12.335  68.821  1.00  0.00    -0.306 C  
BRANCH  26  27
HETATM   27  O   UNL     1     -11.296  13.117  69.881  1.00  0.00    -0.139 OA 
BRANCH  27  28
HETATM   28  C   UNL     1     -12.174  13.745  70.729  1.00  0.00    -0.363 A  
HETATM   29  C   UNL     1     -12.965  15.824  71.688  1.00  0.00    -0.509 A  
HETATM   30  C   UNL     1     -13.040  13.059  71.598  1.00  0.00    -0.440 A  
HETATM   31  C   UNL     1     -12.148  15.148  70.783  1.00  0.00    -0.336 A  
HETATM   32  C   UNL     1     -13.813  15.128  72.553  1.00  0.00    -0.602 A  
HETATM   33  C   UNL     1     -13.845  13.739  72.506  1.00  0.00    -0.626 A  
BRANCH  31  34
HETATM   34  O   UNL     1     -11.288  15.966  70.098  1.00  0.00    -0.310 OA 
BRANCH  34  35
HETATM   35  C   UNL     1     -11.619  16.253  68.734  1.00  0.00    -0.223 C  
HETATM   36  C   UNL     1     -10.535  17.060  68.027  1.00  0.00    -0.353 C  
HETATM   37  F   UNL     1      -9.409  17.203  68.758  1.00  0.00    -0.249 F  
HETATM   38  F   UNL     1     -10.191  16.491  66.848  1.00  0.00    -0.268 F  
HETATM   39  F   UNL     1     -10.984  18.312  67.740  1.00  0.00    -0.418 F  
ENDBRANCH  34  35
ENDBRANCH  31  34
ENDBRANCH  27  28
ENDBRANCH  26  27
ENDBRANCH  25  26
ENDBRANCH  23  25
ENDBRANCH   2  23
TORSDOF 13
ENDMDL
MODEL      161
REMARK 921   NORMALIZED FREE ENERGY PREDICTED BY IDOCK:   -4.99 KCAL/MOL
REMARK 922        TOTAL FREE ENERGY PREDICTED BY IDOCK:  -11.95 KCAL/MOL
REMARK 923 INTER-LIGAND FREE ENERGY PREDICTED BY IDOCK:   -9.42 KCAL/MOL
REMARK 924 INTRA-LIGAND FREE ENERGY PREDICTED BY IDOCK:   -2.53 KCAL/MOL
REMARK 927      BINDING AFFINITY PREDICTED BY RF-SCORE:    0.00 PKD
ROOT
HETATM    1  C   UNL     1     -12.028  13.730  67.148  1.00  0.00    -0.442 C  
HETATM    2  C   UNL     1     -10.882  14.240  68.031  1.00  0.00    -0.239 C  
ENDROOT
BRANCH   2   3
HETATM    3  C   UNL     1      -9.507  14.126  67.335  1.00  0.00    -0.220 C  
BRANCH   3   4
HETATM    4  C   UNL     1      -8.750  15.423  67.287  1.00  0.00    -0.215 A  
HETATM    5  C   UNL     1      -9.443  16.626  67.112  1.00  0.00    -0.236 A  
HETATM    6  C   UNL     1      -5.127  18.392  67.430  1.00  0.00    -0.140 A  
HETATM    7  C   UNL     1      -7.368  15.456  67.403  1.00  0.00    -0.244 A  
HETATM    8  C   UNL     1      -6.731  16.690  67.370  1.00  0.00    -0.199 A  
HETATM    9  C   UNL     1      -8.791  17.885  67.107  1.00  0.00    -0.250 A  
HETATM   10  C   UNL     1      -7.397  17.927  67.217  1.00  0.00    -0.192 A  
HETATM   11  C   UNL     1      -5.254  16.873  67.484  1.00  0.00    -0.150 A  
HETATM   12  N   UNL     1      -6.467  18.952  67.209  1.00  0.00    -0.188 NA 
BRANCH  12  13
HETATM   13  C   UNL     1      -6.631  20.392  67.176  1.00  0.00    -0.232 C  
BRANCH  13  14
HETATM   14  C   UNL     1      -5.921  21.014  65.971  1.00  0.00    -0.301 C  
BRANCH  14  15
HETATM   15  C   UNL     1      -6.587  20.692  64.641  1.00  0.00    -0.230 C  
HETATM   16  O   UNL     1      -6.270  19.348  64.272  1.00  0.00    -0.411 OA 
HETATM   17  H   UNL     1      -6.686  19.147  63.442  1.00  0.00     0.000 HD 
ENDBRANCH  14  15
ENDBRANCH  13  14
ENDBRANCH  12  13
BRANCH   9  18
HETATM   18  C   UNL     1      -9.718  19.035  66.939  1.00  0.00    -0.324 C  
HETATM   19  N   UNL     1     -10.324  19.150  65.708  1.00  0.00    -0.362 N  
HETATM   20  O   UNL     1      -9.918  19.888  67.796  1.00  0.00    -0.372 OA 
HETATM   21  H2  UNL     1     -10.147  18.485  64.955  1.00  0.00     0.000 HD 
HETATM   22  H1  UNL     1     -10.960  19.940  65.592  1.00  0.00     0.000 HD 
ENDBRANCH   9  18
ENDBRANCH   3   4
ENDBRANCH   2   3
BRANCH   2  23
HETATM   23  N   UNL     1     -10.909  13.495  69.302  1.00  0.00    -0.433 NA 
HETATM   24  H   UNL     1     -10.090  13.720  69.866  1.00  0.00     0.000 HD 
BRANCH  23  25
HETATM   25  C   UNL     1     -12.143  13.685  70.083  1.00  0.00    -0.361 C  
BRANCH  25  26
HETATM   26  C   UNL     1     -12.468  12.524  71.048  1.00  0.00    -0.258 C  
BRANCH  26  27
HETATM   27  O   UNL     1     -12.701  11.287  70.362  1.00  0.00    -0.223 OA 
BRANCH  27  28
HETATM   28  C   UNL     1     -11.807  10.271  70.587  1.00  0.00    -0.347 A  
HETATM   29  C   UNL     1      -9.957   8.946  69.757  1.00  0.00    -0.196 A  
HETATM   30  C   UNL     1     -11.861   9.423  71.707  1.00  0.00    -0.452 A  
HETATM   31  C   UNL     1     -10.834  10.019  69.607  1.00  0.00    -0.260 A  
HETATM   32  C   UNL     1     -10.029   8.106  70.871  1.00  0.00    -0.214 A  
HETATM   33  C   UNL     1     -10.990   8.348  71.846  1.00  0.00    -0.375 A  
BRANCH  31  34
HETATM   34  O   UNL     1     -10.714  10.667  68.405  1.00  0.00    -0.193 OA 
BRANCH  34  35
HETATM   35  C   UNL     1      -9.532  10.398  67.641  1.00  0.00    -0.148 C  
HETATM   36  C   UNL     1      -9.774  10.488  66.138  1.00  0.00    -0.209 C  
HETATM   37  F   UNL     1     -10.997  10.963  65.818  1.00  0.00    -0.280 F  
HETATM   38  F   UNL     1      -8.855  11.281  65.540  1.00  0.00    -0.196 F  
HETATM   39  F   UNL     1      -9.662   9.259  65.565  1.00  0.00    -0.324 F  
ENDBRANCH  34  35
ENDBRANCH  31  34
ENDBRANCH  27  28
ENDBRANCH  26  27
ENDBRANCH  25  26
ENDBRANCH  23  25
ENDBRANCH   2  23
TORSDOF 13
ENDMDL
MODEL      162
REMARK 921   NORMALIZED FREE ENERGY PREDICTED BY IDOCK:   -4.99 KCAL/MOL
REMARK 922        TOTAL FREE ENERGY PREDICTED BY IDOCK:  -11.94 KCAL/MOL
REMARK 923 INTER-LIGAND FREE ENERGY PREDICTED BY IDOCK:   -9.15 KCAL/MOL
REMARK 924 INTRA-LIGAND FREE ENERGY PREDICTED BY IDOCK:   -2.79 KCAL/MOL
REMARK 927      BINDING AFFINITY PREDICTED BY RF-SCORE:    0.00 PKD
ROOT
HETATM    1  C   UNL     1      -7.432   9.605  65.859  1.00  0.00    -0.099 C  
HETATM    2  C   UNL     1      -8.398  10.796  65.838  1.00  0.00    -0.162 C  
ENDROOT
BRANCH   2   3
HETATM    3  C   UNL     1      -8.223  11.718  67.066  1.00  0.00    -0.172 C  
BRANCH   3   4
HETATM    4  C   UNL     1      -8.591  13.149  66.798  1.00  0.00    -0.049 A  
HETATM    5  C   UNL     1      -7.828  14.181  67.356  1.00  0.00    -0.195 A  
HETATM    6  C   UNL     1     -10.894  16.824  65.022  1.00  0.00    -0.117 A  
HETATM    7  C   UNL     1      -9.685  13.477  66.009  1.00  0.00    -0.233 A  
HETATM    8  C   UNL     1      -9.960  14.820  65.785  1.00  0.00    -0.375 A  
HETATM    9  C   UNL     1      -8.095  15.549  67.101  1.00  0.00    -0.249 A  
HETATM   10  C   UNL     1      -9.200  15.889  66.314  1.00  0.00    -0.337 A  
HETATM   11  C   UNL     1     -11.101  15.315  64.960  1.00  0.00    -0.436 A  
HETATM   12  N   UNL     1      -9.755  17.090  65.910  1.00  0.00    -0.523 NA 
BRANCH  12  13
HETATM   13  C   UNL     1      -9.311  18.458  66.095  1.00  0.00    -0.137 C  
BRANCH  13  14
HETATM   14  C   UNL     1     -10.475  19.386  66.452  1.00  0.00    -0.581 C  
BRANCH  14  15
HETATM   15  C   UNL     1     -10.890  19.303  67.914  1.00  0.00    -0.211 C  
HETATM   16  O   UNL     1     -10.087  18.323  68.574  1.00  0.00    -0.369 OA 
HETATM   17  H   UNL     1     -10.347  18.271  69.487  1.00  0.00     0.000 HD 
ENDBRANCH  14  15
ENDBRANCH  13  14
ENDBRANCH  12  13
BRANCH   9  18
HETATM   18  C   UNL     1      -7.144  16.476  67.768  1.00  0.00    -0.137 C  
HETATM   19  N   UNL     1      -5.994  16.771  67.070  1.00  0.00    -0.172 N  
HETATM   20  O   UNL     1      -7.302  16.931  68.895  1.00  0.00    -0.216 OA 
HETATM   21  H2  UNL     1      -5.807  16.376  66.149  1.00  0.00     0.000 HD 
HETATM   22  H1  UNL     1      -5.341  17.407  67.527  1.00  0.00     0.000 HD 
ENDBRANCH   9  18
ENDBRANCH   3   4
ENDBRANCH   2   3
BRANCH   2  23
HETATM   23  N   UNL     1      -9.774  10.276  65.742  1.00  0.00    -0.220 NA 
HETATM   24  H   UNL     1      -9.877   9.688  64.915  1.00  0.00     0.000 HD 
BRANCH  23  25
HETATM   25  C   UNL     1     -10.230   9.561  66.945  1.00  0.00    -0.249 C  
BRANCH  25  26
HETATM   26  C   UNL     1     -11.158  10.388  67.860  1.00  0.00    -0.299 C  
BRANCH  26  27
HETATM   27  O   UNL     1     -10.748  10.359  69.233  1.00  0.00    -0.205 OA 
BRANCH  27  28
HETATM   28  C   UNL     1     -11.733  10.477  70.181  1.00  0.00    -0.326 A  
HETATM   29  C   UNL     1     -13.020  11.929  71.631  1.00  0.00    -0.447 A  
HETATM   30  C   UNL     1     -12.356   9.376  70.796  1.00  0.00    -0.185 A  
HETATM   31  C   UNL     1     -12.082  11.767  70.613  1.00  0.00    -0.311 A  
HETATM   32  C   UNL     1     -13.622  10.826  72.240  1.00  0.00     0.028 A  
HETATM   33  C   UNL     1     -13.283   9.545  71.818  1.00  0.00    -0.505 A  
BRANCH  31  34
HETATM   34  O   UNL     1     -11.494  12.938  70.210  1.00  0.00    -0.058 OA 
BRANCH  34  35
HETATM   35  C   UNL     1     -12.368  14.042  69.945  1.00  0.00    -0.310 C  
HETATM   36  C   UNL     1     -11.609  15.339  69.688  1.00  0.00    -0.321 C  
HETATM   37  F   UNL     1     -10.273  15.170  69.591  1.00  0.00    -0.216 F  
HETATM   38  F   UNL     1     -12.032  15.937  68.550  1.00  0.00    -0.381 F  
HETATM   39  F   UNL     1     -11.826  16.225  70.698  1.00  0.00    -0.371 F  
ENDBRANCH  34  35
ENDBRANCH  31  34
ENDBRANCH  27  28
ENDBRANCH  26  27
ENDBRANCH  25  26
ENDBRANCH  23  25
ENDBRANCH   2  23
TORSDOF 13
ENDMDL
MODEL      163
REMARK 921   NORMALIZED FREE ENERGY PREDICTED BY IDOCK:   -4.98 KCAL/MOL
REMARK 922        TOTAL FREE ENERGY PREDICTED BY IDOCK:  -11.94 KCAL/MOL
REMARK 923 INTER-LIGAND FREE ENERGY PREDICTED BY IDOCK:   -8.97 KCAL/MOL
REMARK 924 INTRA-LIGAND FREE ENERGY PREDICTED BY IDOCK:   -2.96 KCAL/MOL
REMARK 927      BINDING AFFINITY PREDICTED BY RF-SCORE:    0.00 PKD
ROOT
HETATM    1  C   UNL     1      -7.317  15.691  69.365  1.00  0.00    -0.216 C  
HETATM    2  C   UNL     1      -7.295  14.646  68.243  1.00  0.00    -0.117 C  
ENDROOT
BRANCH   2   3
HETATM    3  C   UNL     1      -6.462  13.398  68.616  1.00  0.00    -0.091 C  
BRANCH   3   4
HETATM    4  C   UNL     1      -7.284  12.148  68.752  1.00  0.00    -0.103 A  
HETATM    5  C   UNL     1      -6.902  11.160  69.665  1.00  0.00    -0.117 A  
HETATM    6  C   UNL     1     -10.766   9.094  68.039  1.00  0.00    -0.147 A  
HETATM    7  C   UNL     1      -8.419  11.944  67.979  1.00  0.00    -0.162 A  
HETATM    8  C   UNL     1      -9.145  10.775  68.167  1.00  0.00    -0.151 A  
HETATM    9  C   UNL     1      -7.661   9.982  69.872  1.00  0.00    -0.183 A  
HETATM   10  C   UNL     1      -8.803   9.764  69.094  1.00  0.00    -0.160 A  
HETATM   11  C   UNL     1     -10.382  10.427  67.408  1.00  0.00    -0.275 A  
HETATM   12  N   UNL     1      -9.725   8.735  69.012  1.00  0.00    -0.169 NA 
BRANCH  12  13
HETATM   13  C   UNL     1      -9.882   7.528  69.799  1.00  0.00    -0.180 C  
BRANCH  13  14
HETATM   14  C   UNL     1     -11.134   7.586  70.679  1.00  0.00    -0.280 C  
BRANCH  14  15
HETATM   15  C   UNL     1     -11.003   8.540  71.857  1.00  0.00    -0.324 C  
HETATM   16  O   UNL     1     -11.315   9.865  71.424  1.00  0.00    -0.364 OA 
HETATM   17  H   UNL     1     -11.233  10.461  72.160  1.00  0.00     0.000 HD 
ENDBRANCH  14  15
ENDBRANCH  13  14
ENDBRANCH  12  13
BRANCH   9  18
HETATM   18  C   UNL     1      -7.093   9.081  70.909  1.00  0.00    -0.098 C  
HETATM   19  N   UNL     1      -6.140   8.186  70.478  1.00  0.00    -0.032 N  
HETATM   20  O   UNL     1      -7.460   9.060  72.079  1.00  0.00    -0.337 OA 
HETATM   21  H2  UNL     1      -5.841   8.143  69.504  1.00  0.00     0.000 HD 
HETATM   22  H1  UNL     1      -5.749   7.567  71.190  1.00  0.00     0.000 HD 
ENDBRANCH   9  18
ENDBRANCH   3   4
ENDBRANCH   2   3
BRANCH   2  23
HETATM   23  N   UNL     1      -6.786  15.291  67.019  1.00  0.00    -0.283 NA 
HETATM   24  H   UNL     1      -7.544  15.443  66.354  1.00  0.00     0.000 HD 
BRANCH  23  25
HETATM   25  C   UNL     1      -6.052  16.543  67.261  1.00  0.00    -0.169 C  
BRANCH  25  26
HETATM   26  C   UNL     1      -6.299  17.638  66.201  1.00  0.00    -0.239 C  
BRANCH  26  27
HETATM   27  O   UNL     1      -7.623  17.587  65.655  1.00  0.00    -0.480 OA 
BRANCH  27  28
HETATM   28  C   UNL     1      -8.603  18.270  66.331  1.00  0.00    -0.242 A  
HETATM   29  C   UNL     1     -10.682  18.180  67.570  1.00  0.00    -0.365 A  
HETATM   30  C   UNL     1      -8.681  19.673  66.378  1.00  0.00    -0.404 A  
HETATM   31  C   UNL     1      -9.624  17.525  66.943  1.00  0.00    -0.278 A  
HETATM   32  C   UNL     1     -10.751  19.575  67.600  1.00  0.00    -0.527 A  
HETATM   33  C   UNL     1      -9.745  20.320  66.997  1.00  0.00    -0.598 A  
BRANCH  31  34
HETATM   34  O   UNL     1      -9.769  16.163  66.892  1.00  0.00    -0.227 OA 
BRANCH  34  35
HETATM   35  C   UNL     1     -10.708  15.648  65.940  1.00  0.00    -0.329 C  
HETATM   36  C   UNL     1     -11.342  14.338  66.396  1.00  0.00    -0.343 C  
HETATM   37  F   UNL     1     -11.032  14.004  67.666  1.00  0.00    -0.255 F  
HETATM   38  F   UNL     1     -12.691  14.389  66.301  1.00  0.00    -0.450 F  
HETATM   39  F   UNL     1     -10.933  13.310  65.603  1.00  0.00    -0.278 F  
ENDBRANCH  34  35
ENDBRANCH  31  34
ENDBRANCH  27  28
ENDBRANCH  26  27
ENDBRANCH  25  26
ENDBRANCH  23  25
ENDBRANCH   2  23
TORSDOF 13
ENDMDL
MODEL      164
REMARK 921   NORMALIZED FREE ENERGY PREDICTED BY IDOCK:   -4.97 KCAL/MOL
REMARK 922        TOTAL FREE ENERGY PREDICTED BY IDOCK:  -11.91 KCAL/MOL
REMARK 923 INTER-LIGAND FREE ENERGY PREDICTED BY IDOCK:   -9.95 KCAL/MOL
REMARK 924 INTRA-LIGAND FREE ENERGY PREDICTED BY IDOCK:   -1.96 KCAL/MOL
REMARK 927      BINDING AFFINITY PREDICTED BY RF-SCORE:    0.00 PKD
ROOT
HETATM    1  C   UNL     1     -12.309  13.767  66.956  1.00  0.00    -0.289 C  
HETATM    2  C   UNL     1     -10.868  14.101  67.363  1.00  0.00    -0.287 C  
ENDROOT
BRANCH   2   3
HETATM    3  C   UNL     1     -10.054  14.713  66.200  1.00  0.00    -0.316 C  
BRANCH   3   4
HETATM    4  C   UNL     1      -9.127  15.813  66.631  1.00  0.00    -0.298 A  
HETATM    5  C   UNL     1      -9.641  17.078  66.935  1.00  0.00    -0.263 A  
HETATM    6  C   UNL     1      -5.140  17.970  67.819  1.00  0.00    -0.142 A  
HETATM    7  C   UNL     1      -7.758  15.605  66.727  1.00  0.00    -0.169 A  
HETATM    8  C   UNL     1      -6.958  16.658  67.150  1.00  0.00    -0.226 A  
HETATM    9  C   UNL     1      -8.824  18.141  67.393  1.00  0.00    -0.256 A  
HETATM   10  C   UNL     1      -7.443  17.943  67.486  1.00  0.00    -0.205 A  
HETATM   11  C   UNL     1      -5.475  16.576  67.299  1.00  0.00    -0.163 A  
HETATM   12  N   UNL     1      -6.381  18.754  67.849  1.00  0.00    -0.203 NA 
BRANCH  12  13
HETATM   13  C   UNL     1      -6.346  20.109  68.364  1.00  0.00    -0.291 C  
BRANCH  13  14
HETATM   14  C   UNL     1      -6.788  20.168  69.828  1.00  0.00    -0.155 C  
BRANCH  14  15
HETATM   15  C   UNL     1      -5.629  20.298  70.806  1.00  0.00    -0.298 C  
HETATM   16  O   UNL     1      -6.139  20.655  72.092  1.00  0.00    -0.739 OA 
HETATM   17  H   UNL     1      -5.415  20.736  72.702  1.00  0.00     0.000 HD 
ENDBRANCH  14  15
ENDBRANCH  13  14
ENDBRANCH  12  13
BRANCH   9  18
HETATM   18  C   UNL     1      -9.578  19.388  67.687  1.00  0.00    -0.324 C  
HETATM   19  N   UNL     1     -10.074  19.510  68.966  1.00  0.00    -0.592 N  
HETATM   20  O   UNL     1      -9.820  20.258  66.858  1.00  0.00    -0.420 OA 
HETATM   21  H2  UNL     1      -9.932  18.786  69.670  1.00  0.00     0.000 HD 
HETATM   22  H1  UNL     1     -10.592  20.366  69.168  1.00  0.00     0.000 HD 
ENDBRANCH   9  18
ENDBRANCH   3   4
ENDBRANCH   2   3
BRANCH   2  23
HETATM   23  N   UNL     1     -10.236  12.875  67.881  1.00  0.00    -0.227 NA 
HETATM   24  H   UNL     1     -10.939  12.244  68.264  1.00  0.00     0.000 HD 
BRANCH  23  25
HETATM   25  C   UNL     1      -9.393  12.173  66.899  1.00  0.00    -0.203 C  
BRANCH  25  26
HETATM   26  C   UNL     1     -10.115  11.040  66.138  1.00  0.00    -0.237 C  
BRANCH  26  27
HETATM   27  O   UNL     1     -11.013  10.300  66.975  1.00  0.00    -0.224 OA 
BRANCH  27  28
HETATM   28  C   UNL     1     -10.544   9.126  67.508  1.00  0.00    -0.249 A  
HETATM   29  C   UNL     1      -9.718   7.943  69.453  1.00  0.00    -0.170 A  
HETATM   30  C   UNL     1     -10.250   7.987  66.738  1.00  0.00    -0.367 A  
HETATM   31  C   UNL     1     -10.272   9.089  68.885  1.00  0.00    -0.208 A  
HETATM   32  C   UNL     1      -9.421   6.822  68.674  1.00  0.00    -0.132 A  
HETATM   33  C   UNL     1      -9.688   6.850  67.310  1.00  0.00    -0.184 A  
BRANCH  31  34
HETATM   34  O   UNL     1     -10.385  10.139  69.757  1.00  0.00    -0.235 OA 
BRANCH  34  35
HETATM   35  C   UNL     1     -11.296   9.975  70.851  1.00  0.00    -0.361 C  
HETATM   36  C   UNL     1     -12.638  10.654  70.600  1.00  0.00    -0.365 C  
HETATM   37  F   UNL     1     -12.774  11.128  69.343  1.00  0.00    -0.276 F  
HETATM   38  F   UNL     1     -13.667   9.805  70.833  1.00  0.00    -0.418 F  
HETATM   39  F   UNL     1     -12.804  11.709  71.443  1.00  0.00    -0.457 F  
ENDBRANCH  34  35
ENDBRANCH  31  34
ENDBRANCH  27  28
ENDBRANCH  26  27
ENDBRANCH  25  26
ENDBRANCH  23  25
ENDBRANCH   2  23
TORSDOF 13
ENDMDL
MODEL      165
REMARK 921   NORMALIZED FREE ENERGY PREDICTED BY IDOCK:   -4.94 KCAL/MOL
REMARK 922        TOTAL FREE ENERGY PREDICTED BY IDOCK:  -11.86 KCAL/MOL
REMARK 923 INTER-LIGAND FREE ENERGY PREDICTED BY IDOCK:   -9.58 KCAL/MOL
REMARK 924 INTRA-LIGAND FREE ENERGY PREDICTED BY IDOCK:   -2.29 KCAL/MOL
REMARK 927      BINDING AFFINITY PREDICTED BY RF-SCORE:    0.00 PKD
ROOT
HETATM    1  C   UNL     1      -8.926  11.146  62.351  1.00  0.00    -0.321 C  
HETATM    2  C   UNL     1      -9.302  10.760  63.787  1.00  0.00    -0.266 C  
ENDROOT
BRANCH   2   3
HETATM    3  C   UNL     1      -8.616   9.452  64.244  1.00  0.00    -0.216 C  
BRANCH   3   4
HETATM    4  C   UNL     1      -8.890   9.101  65.679  1.00  0.00    -0.222 A  
HETATM    5  C   UNL     1      -9.507   7.885  65.992  1.00  0.00    -0.086 A  
HETATM    6  C   UNL     1      -8.952   9.483  70.349  1.00  0.00    -0.243 A  
HETATM    7  C   UNL     1      -8.551   9.966  66.710  1.00  0.00    -0.133 A  
HETATM    8  C   UNL     1      -8.815   9.574  68.015  1.00  0.00    -0.123 A  
HETATM    9  C   UNL     1      -9.748   7.477  67.328  1.00  0.00    -0.217 A  
HETATM   10  C   UNL     1      -9.416   8.345  68.373  1.00  0.00    -0.139 A  
HETATM   11  C   UNL     1      -8.504  10.402  69.218  1.00  0.00    -0.162 A  
HETATM   12  N   UNL     1      -9.547   8.282  69.749  1.00  0.00    -0.170 NA 
BRANCH  12  13
HETATM   13  C   UNL     1     -10.005   7.214  70.617  1.00  0.00    -0.190 C  
BRANCH  13  14
HETATM   14  C   UNL     1     -11.416   7.482  71.146  1.00  0.00    -0.295 C  
BRANCH  14  15
HETATM   15  C   UNL     1     -11.966   6.351  72.004  1.00  0.00    -0.326 C  
HETATM   16  O   UNL     1     -11.089   5.227  71.916  1.00  0.00    -0.163 OA 
HETATM   17  H   UNL     1     -11.433   4.521  72.452  1.00  0.00     0.000 HD 
ENDBRANCH  14  15
ENDBRANCH  13  14
ENDBRANCH  12  13
BRANCH   9  18
HETATM   18  C   UNL     1     -10.384   6.138  67.436  1.00  0.00    -0.211 C  
HETATM   19  N   UNL     1     -11.149   5.742  66.361  1.00  0.00    -0.767 N  
HETATM   20  O   UNL     1     -10.309   5.418  68.425  1.00  0.00    -0.179 OA 
HETATM   21  H2  UNL     1     -11.272   6.332  65.540  1.00  0.00     0.000 HD 
HETATM   22  H1  UNL     1     -11.587   4.822  66.436  1.00  0.00     0.000 HD 
ENDBRANCH   9  18
ENDBRANCH   3   4
ENDBRANCH   2   3
BRANCH   2  23
HETATM   23  N   UNL     1     -10.770  10.660  63.871  1.00  0.00    -0.358 NA 
HETATM   24  H   UNL     1     -11.046  10.146  64.708  1.00  0.00     0.000 HD 
BRANCH  23  25
HETATM   25  C   UNL     1     -11.465  11.957  63.808  1.00  0.00    -0.454 C  
BRANCH  25  26
HETATM   26  C   UNL     1     -11.936  12.491  65.178  1.00  0.00    -0.434 C  
BRANCH  26  27
HETATM   27  O   UNL     1     -10.924  12.384  66.188  1.00  0.00    -0.267 OA 
BRANCH  27  28
HETATM   28  C   UNL     1     -11.350  12.277  67.488  1.00  0.00    -0.325 A  
HETATM   29  C   UNL     1     -11.524  13.293  69.680  1.00  0.00    -0.267 A  
HETATM   30  C   UNL     1     -11.877  11.094  68.037  1.00  0.00    -0.203 A  
HETATM   31  C   UNL     1     -11.180  13.385  68.332  1.00  0.00    -0.279 A  
HETATM   32  C   UNL     1     -12.037  12.108  70.214  1.00  0.00    -0.385 A  
HETATM   33  C   UNL     1     -12.209  11.005  69.385  1.00  0.00    -0.329 A  
BRANCH  31  34
HETATM   34  O   UNL     1     -10.577  14.569  67.996  1.00  0.00    -0.233 OA 
BRANCH  34  35
HETATM   35  C   UNL     1     -11.316  15.768  68.259  1.00  0.00    -0.354 C  
HETATM   36  C   UNL     1     -10.501  16.798  69.035  1.00  0.00    -0.336 C  
HETATM   37  F   UNL     1      -9.202  16.459  69.177  1.00  0.00    -0.237 F  
HETATM   38  F   UNL     1     -10.547  18.011  68.436  1.00  0.00    -0.358 F  
HETATM   39  F   UNL     1     -11.010  16.961  70.287  1.00  0.00    -0.328 F  
ENDBRANCH  34  35
ENDBRANCH  31  34
ENDBRANCH  27  28
ENDBRANCH  26  27
ENDBRANCH  25  26
ENDBRANCH  23  25
ENDBRANCH   2  23
TORSDOF 13
ENDMDL
MODEL      166
REMARK 921   NORMALIZED FREE ENERGY PREDICTED BY IDOCK:   -4.92 KCAL/MOL
REMARK 922        TOTAL FREE ENERGY PREDICTED BY IDOCK:  -11.83 KCAL/MOL
REMARK 923 INTER-LIGAND FREE ENERGY PREDICTED BY IDOCK:   -9.99 KCAL/MOL
REMARK 924 INTRA-LIGAND FREE ENERGY PREDICTED BY IDOCK:   -1.84 KCAL/MOL
REMARK 927      BINDING AFFINITY PREDICTED BY RF-SCORE:    0.00 PKD
ROOT
HETATM    1  C   UNL     1     -12.109  11.945  63.450  1.00  0.00    -0.539 C  
HETATM    2  C   UNL     1     -10.930  11.974  64.431  1.00  0.00    -0.333 C  
ENDROOT
BRANCH   2   3
HETATM    3  C   UNL     1     -11.388  11.871  65.904  1.00  0.00    -0.365 C  
BRANCH   3   4
HETATM    4  C   UNL     1     -10.486  11.023  66.754  1.00  0.00    -0.300 A  
HETATM    5  C   UNL     1     -10.706   9.644  66.841  1.00  0.00    -0.185 A  
HETATM    6  C   UNL     1      -6.937   9.883  69.594  1.00  0.00    -0.086 A  
HETATM    7  C   UNL     1      -9.435  11.580  67.469  1.00  0.00    -0.173 A  
HETATM    8  C   UNL     1      -8.627  10.738  68.221  1.00  0.00    -0.135 A  
HETATM    9  C   UNL     1      -9.861   8.784  67.587  1.00  0.00    -0.228 A  
HETATM   10  C   UNL     1      -8.804   9.338  68.316  1.00  0.00    -0.129 A  
HETATM   11  C   UNL     1      -7.465  11.200  69.036  1.00  0.00    -0.124 A  
HETATM   12  N   UNL     1      -7.839   8.810  69.156  1.00  0.00    -0.096 NA 
BRANCH  12  13
HETATM   13  C   UNL     1      -7.525   7.439  69.507  1.00  0.00    -0.090 C  
BRANCH  13  14
HETATM   14  C   UNL     1      -8.037   7.082  70.905  1.00  0.00    -0.109 C  
BRANCH  14  15
HETATM   15  C   UNL     1      -8.838   8.197  71.561  1.00  0.00    -0.154 C  
HETATM   16  O   UNL     1      -8.040   8.816  72.571  1.00  0.00    -0.381 OA 
HETATM   17  H   UNL     1      -8.541   9.512  72.980  1.00  0.00     0.000 HD 
ENDBRANCH  14  15
ENDBRANCH  13  14
ENDBRANCH  12  13
BRANCH   9  18
HETATM   18  C   UNL     1     -10.257   7.353  67.518  1.00  0.00    -0.224 C  
HETATM   19  N   UNL     1     -10.939   6.859  68.608  1.00  0.00    -0.441 N  
HETATM   20  O   UNL     1      -9.965   6.602  66.594  1.00  0.00    -0.175 OA 
HETATM   21  H2  UNL     1     -11.160   7.442  69.415  1.00  0.00     0.000 HD 
HETATM   22  H1  UNL     1     -11.210   5.877  68.561  1.00  0.00     0.000 HD 
ENDBRANCH   9  18
ENDBRANCH   3   4
ENDBRANCH   2   3
BRANCH   2  23
HETATM   23  N   UNL     1     -10.156  13.205  64.190  1.00  0.00    -0.721 NA 
HETATM   24  H   UNL     1      -9.875  13.264  63.211  1.00  0.00     0.000 HD 
BRANCH  23  25
HETATM   25  C   UNL     1     -10.843  14.438  64.606  1.00  0.00    -0.346 C  
BRANCH  25  26
HETATM   26  C   UNL     1     -10.104  15.238  65.700  1.00  0.00    -0.371 C  
BRANCH  26  27
HETATM   27  O   UNL     1     -10.987  16.062  66.472  1.00  0.00    -0.226 OA 
BRANCH  27  28
HETATM   28  C   UNL     1     -11.188  15.705  67.781  1.00  0.00    -0.297 A  
HETATM   29  C   UNL     1     -10.639  16.066  70.113  1.00  0.00    -0.269 A  
HETATM   30  C   UNL     1     -11.955  14.594  68.174  1.00  0.00    -0.281 A  
HETATM   31  C   UNL     1     -10.528  16.445  68.776  1.00  0.00    -0.300 A  
HETATM   32  C   UNL     1     -11.397  14.954  70.487  1.00  0.00    -0.280 A  
HETATM   33  C   UNL     1     -12.054  14.216  69.509  1.00  0.00    -0.388 A  
BRANCH  31  34
HETATM   34  O   UNL     1      -9.651  17.476  68.564  1.00  0.00    -0.283 OA 
BRANCH  34  35
HETATM   35  C   UNL     1     -10.217  18.782  68.401  1.00  0.00    -0.361 C  
HETATM   36  C   UNL     1      -9.779  19.451  67.103  1.00  0.00    -0.333 C  
HETATM   37  F   UNL     1      -9.088  18.631  66.282  1.00  0.00    -0.298 F  
HETATM   38  F   UNL     1     -10.843  19.923  66.412  1.00  0.00    -0.550 F  
HETATM   39  F   UNL     1      -8.978  20.520  67.364  1.00  0.00    -0.415 F  
ENDBRANCH  34  35
ENDBRANCH  31  34
ENDBRANCH  27  28
ENDBRANCH  26  27
ENDBRANCH  25  26
ENDBRANCH  23  25
ENDBRANCH   2  23
TORSDOF 13
ENDMDL
MODEL      167
REMARK 921   NORMALIZED FREE ENERGY PREDICTED BY IDOCK:   -4.92 KCAL/MOL
REMARK 922        TOTAL FREE ENERGY PREDICTED BY IDOCK:  -11.82 KCAL/MOL
REMARK 923 INTER-LIGAND FREE ENERGY PREDICTED BY IDOCK:   -8.68 KCAL/MOL
REMARK 924 INTRA-LIGAND FREE ENERGY PREDICTED BY IDOCK:   -3.15 KCAL/MOL
REMARK 927      BINDING AFFINITY PREDICTED BY RF-SCORE:    0.00 PKD
ROOT
HETATM    1  C   UNL     1     -14.228   7.363  71.710  1.00  0.00    -0.544 C  
HETATM    2  C   UNL     1     -12.734   7.522  71.399  1.00  0.00    -0.348 C  
ENDROOT
BRANCH   2   3
HETATM    3  C   UNL     1     -11.915   6.273  71.794  1.00  0.00    -0.313 C  
BRANCH   3   4
HETATM    4  C   UNL     1     -11.031   5.762  70.692  1.00  0.00    -0.319 A  
HETATM    5  C   UNL     1     -11.249   6.181  69.375  1.00  0.00    -0.466 A  
HETATM    6  C   UNL     1      -7.548   3.437  68.589  1.00  0.00    -0.052 A  
HETATM    7  C   UNL     1      -9.999   4.870  70.950  1.00  0.00    -0.287 A  
HETATM    8  C   UNL     1      -9.207   4.451  69.889  1.00  0.00    -0.202 A  
HETATM    9  C   UNL     1     -10.421   5.773  68.300  1.00  0.00    -0.281 A  
HETATM   10  C   UNL     1      -9.383   4.868  68.549  1.00  0.00    -0.131 A  
HETATM   11  C   UNL     1      -8.067   3.498  70.021  1.00  0.00    -0.056 A  
HETATM   12  N   UNL     1      -8.437   4.251  67.749  1.00  0.00    -0.098 NA 
BRANCH  12  13
HETATM   13  C   UNL     1      -8.128   4.407  66.342  1.00  0.00    -0.102 C  
BRANCH  13  14
HETATM   14  C   UNL     1      -7.322   5.682  66.078  1.00  0.00    -0.077 C  
BRANCH  14  15
HETATM   15  C   UNL     1      -7.788   6.450  64.849  1.00  0.00    -0.113 C  
HETATM   16  O   UNL     1      -6.872   6.218  63.777  1.00  0.00    -0.039 OA 
HETATM   17  H   UNL     1      -7.163   6.698  63.010  1.00  0.00     0.000 HD 
ENDBRANCH  14  15
ENDBRANCH  13  14
ENDBRANCH  12  13
BRANCH   9  18
HETATM   18  C   UNL     1     -10.811   6.359  66.992  1.00  0.00    -0.392 C  
HETATM   19  N   UNL     1     -11.177   5.464  66.011  1.00  0.00    -0.774 N  
HETATM   20  O   UNL     1     -10.769   7.556  66.734  1.00  0.00    -0.319 OA 
HETATM   21  H2  UNL     1     -11.181   4.457  66.174  1.00  0.00     0.000 HD 
HETATM   22  H1  UNL     1     -11.445   5.866  65.112  1.00  0.00     0.000 HD 
ENDBRANCH   9  18
ENDBRANCH   3   4
ENDBRANCH   2   3
BRANCH   2  23
HETATM   23  N   UNL     1     -12.244   8.732  72.083  1.00  0.00    -0.370 NA 
HETATM   24  H   UNL     1     -11.379   9.059  71.654  1.00  0.00     0.000 HD 
BRANCH  23  25
HETATM   25  C   UNL     1     -13.231   9.822  72.155  1.00  0.00    -0.436 C  
BRANCH  25  26
HETATM   26  C   UNL     1     -13.262  10.732  70.908  1.00  0.00    -0.078 C  
BRANCH  26  27
HETATM   27  O   UNL     1     -12.010  11.389  70.674  1.00  0.00    -0.352 OA 
BRANCH  27  28
HETATM   28  C   UNL     1     -11.659  11.614  69.367  1.00  0.00    -0.327 A  
HETATM   29  C   UNL     1     -10.373  10.910  67.439  1.00  0.00    -0.248 A  
HETATM   30  C   UNL     1     -12.033  12.764  68.649  1.00  0.00    -0.272 A  
HETATM   31  C   UNL     1     -10.819  10.680  68.739  1.00  0.00    -0.229 A  
HETATM   32  C   UNL     1     -10.744  12.063  66.742  1.00  0.00    -0.280 A  
HETATM   33  C   UNL     1     -11.575  12.992  67.356  1.00  0.00    -0.407 A  
BRANCH  31  34
HETATM   34  O   UNL     1     -10.267   9.571  69.326  1.00  0.00    -0.186 OA 
BRANCH  34  35
HETATM   35  C   UNL     1      -8.876   9.334  69.076  1.00  0.00    -0.136 C  
HETATM   36  C   UNL     1      -8.205   8.556  70.202  1.00  0.00    -0.121 C  
HETATM   37  F   UNL     1      -9.072   8.096  71.129  1.00  0.00    -0.139 F  
HETATM   38  F   UNL     1      -7.515   7.495  69.721  1.00  0.00    -0.081 F  
HETATM   39  F   UNL     1      -7.306   9.342  70.854  1.00  0.00    -0.101 F  
ENDBRANCH  34  35
ENDBRANCH  31  34
ENDBRANCH  27  28
ENDBRANCH  26  27
ENDBRANCH  25  26
ENDBRANCH  23  25
ENDBRANCH   2  23
TORSDOF 13
ENDMDL
MODEL      168
REMARK 921   NORMALIZED FREE ENERGY PREDICTED BY IDOCK:   -4.91 KCAL/MOL
REMARK 922        TOTAL FREE ENERGY PREDICTED BY IDOCK:  -11.81 KCAL/MOL
REMARK 923 INTER-LIGAND FREE ENERGY PREDICTED BY IDOCK:   -9.71 KCAL/MOL
REMARK 924 INTRA-LIGAND FREE ENERGY PREDICTED BY IDOCK:   -2.10 KCAL/MOL
REMARK 927      BINDING AFFINITY PREDICTED BY RF-SCORE:    0.00 PKD
ROOT
HETATM    1  C   UNL     1     -12.656  12.498  71.436  1.00  0.00    -0.297 C  
HETATM    2  C   UNL     1     -12.257  12.714  69.970  1.00  0.00    -0.197 C  
ENDROOT
BRANCH   2   3
HETATM    3  C   UNL     1     -12.002  11.383  69.227  1.00  0.00    -0.400 C  
BRANCH   3   4
HETATM    4  C   UNL     1     -11.174  10.407  70.014  1.00  0.00    -0.385 A  
HETATM    5  C   UNL     1      -9.822  10.229  69.700  1.00  0.00    -0.230 A  
HETATM    6  C   UNL     1     -10.061   7.240  73.285  1.00  0.00    -0.295 A  
HETATM    7  C   UNL     1     -11.724   9.664  71.049  1.00  0.00    -0.433 A  
HETATM    8  C   UNL     1     -10.900   8.793  71.749  1.00  0.00    -0.416 A  
HETATM    9  C   UNL     1      -8.978   9.360  70.435  1.00  0.00    -0.294 A  
HETATM   10  C   UNL     1      -9.526   8.602  71.475  1.00  0.00    -0.250 A  
HETATM   11  C   UNL     1     -11.357   7.935  72.881  1.00  0.00    -0.399 A  
HETATM   12  N   UNL     1      -9.011   7.656  72.345  1.00  0.00    -0.134 NA 
BRANCH  12  13
HETATM   13  C   UNL     1      -7.657   7.179  72.545  1.00  0.00    -0.088 C  
BRANCH  13  14
HETATM   14  C   UNL     1      -7.626   5.679  72.850  1.00  0.00    -0.097 C  
BRANCH  14  15
HETATM   15  C   UNL     1      -7.780   4.805  71.612  1.00  0.00    -0.096 C  
HETATM   16  O   UNL     1      -8.092   5.633  70.491  1.00  0.00    -0.101 OA 
HETATM   17  H   UNL     1      -8.188   5.088  69.718  1.00  0.00     0.000 HD 
ENDBRANCH  14  15
ENDBRANCH  13  14
ENDBRANCH  12  13
BRANCH   9  18
HETATM   18  C   UNL     1      -7.572   9.346  69.952  1.00  0.00    -0.109 C  
HETATM   19  N   UNL     1      -6.724  10.265  70.528  1.00  0.00    -0.113 N  
HETATM   20  O   UNL     1      -7.160   8.617  69.057  1.00  0.00    -0.063 OA 
HETATM   21  H2  UNL     1      -7.042  10.918  71.243  1.00  0.00     0.000 HD 
HETATM   22  H1  UNL     1      -5.759  10.255  70.196  1.00  0.00     0.000 HD 
ENDBRANCH   9  18
ENDBRANCH   3   4
ENDBRANCH   2   3
BRANCH   2  23
HETATM   23  N   UNL     1     -11.073  13.590  69.936  1.00  0.00    -0.459 NA 
HETATM   24  H   UNL     1     -10.236  13.052  69.711  1.00  0.00     0.000 HD 
BRANCH  23  25
HETATM   25  C   UNL     1     -11.205  14.743  69.030  1.00  0.00    -0.270 C  
BRANCH  25  26
HETATM   26  C   UNL     1     -11.590  14.370  67.582  1.00  0.00    -0.370 C  
BRANCH  26  27
HETATM   27  O   UNL     1     -10.496  14.515  66.667  1.00  0.00    -0.269 OA 
BRANCH  27  28
HETATM   28  C   UNL     1      -9.453  13.632  66.797  1.00  0.00    -0.270 A  
HETATM   29  C   UNL     1      -8.631  11.373  66.506  1.00  0.00    -0.175 A  
HETATM   30  C   UNL     1      -8.247  13.946  67.448  1.00  0.00    -0.198 A  
HETATM   31  C   UNL     1      -9.633  12.323  66.321  1.00  0.00    -0.242 A  
HETATM   32  C   UNL     1      -7.442  11.696  67.164  1.00  0.00    -0.146 A  
HETATM   33  C   UNL     1      -7.255  12.990  67.638  1.00  0.00    -0.151 A  
BRANCH  31  34
HETATM   34  O   UNL     1     -10.782  11.816  65.773  1.00  0.00    -0.264 OA 
BRANCH  34  35
HETATM   35  C   UNL     1     -10.999  12.069  64.379  1.00  0.00    -0.333 C  
HETATM   36  C   UNL     1     -12.409  12.570  64.088  1.00  0.00    -0.462 C  
HETATM   37  F   UNL     1     -13.124  12.840  65.201  1.00  0.00    -0.531 F  
HETATM   38  F   UNL     1     -12.384  13.693  63.332  1.00  0.00    -0.548 F  
HETATM   39  F   UNL     1     -13.109  11.640  63.382  1.00  0.00    -0.626 F  
ENDBRANCH  34  35
ENDBRANCH  31  34
ENDBRANCH  27  28
ENDBRANCH  26  27
ENDBRANCH  25  26
ENDBRANCH  23  25
ENDBRANCH   2  23
TORSDOF 13
ENDMDL
MODEL      169
REMARK 921   NORMALIZED FREE ENERGY PREDICTED BY IDOCK:   -4.91 KCAL/MOL
REMARK 922        TOTAL FREE ENERGY PREDICTED BY IDOCK:  -11.81 KCAL/MOL
REMARK 923 INTER-LIGAND FREE ENERGY PREDICTED BY IDOCK:   -9.96 KCAL/MOL
REMARK 924 INTRA-LIGAND FREE ENERGY PREDICTED BY IDOCK:   -1.85 KCAL/MOL
REMARK 927      BINDING AFFINITY PREDICTED BY RF-SCORE:    0.00 PKD
ROOT
HETATM    1  C   UNL     1      -8.433   9.830  65.416  1.00  0.00    -0.154 C  
HETATM    2  C   UNL     1      -9.215  11.130  65.642  1.00  0.00    -0.218 C  
ENDROOT
BRANCH   2   3
HETATM    3  C   UNL     1      -8.634  11.973  66.801  1.00  0.00    -0.177 C  
BRANCH   3   4
HETATM    4  C   UNL     1      -8.853  13.449  66.636  1.00  0.00    -0.076 A  
HETATM    5  C   UNL     1      -8.018  14.355  67.299  1.00  0.00    -0.204 A  
HETATM    6  C   UNL     1     -10.725  17.457  65.086  1.00  0.00     0.139 A  
HETATM    7  C   UNL     1      -9.879  13.942  65.842  1.00  0.00    -0.287 A  
HETATM    8  C   UNL     1     -10.017  15.318  65.717  1.00  0.00    -0.391 A  
HETATM    9  C   UNL     1      -8.144  15.758  67.146  1.00  0.00    -0.244 A  
HETATM   10  C   UNL     1      -9.180  16.264  66.353  1.00  0.00    -0.299 A  
HETATM   11  C   UNL     1     -11.072  15.984  64.897  1.00  0.00    -0.381 A  
HETATM   12  N   UNL     1      -9.602  17.542  66.029  1.00  0.00    -0.509 NA 
BRANCH  12  13
HETATM   13  C   UNL     1      -9.038  18.841  66.337  1.00  0.00    -0.300 C  
BRANCH  13  14
HETATM   14  C   UNL     1     -10.127  19.869  66.653  1.00  0.00    -0.598 C  
BRANCH  14  15
HETATM   15  C   UNL     1     -10.630  19.798  68.087  1.00  0.00    -0.254 C  
HETATM   16  O   UNL     1      -9.705  19.043  68.871  1.00  0.00    -0.388 OA 
HETATM   17  H   UNL     1     -10.019  18.998  69.767  1.00  0.00     0.000 HD 
ENDBRANCH  14  15
ENDBRANCH  13  14
ENDBRANCH  12  13
BRANCH   9  18
HETATM   18  C   UNL     1      -7.137  16.535  67.914  1.00  0.00    -0.137 C  
HETATM   19  N   UNL     1      -5.845  16.488  67.440  1.00  0.00    -0.145 N  
HETATM   20  O   UNL     1      -7.382  17.148  68.947  1.00  0.00    -0.232 OA 
HETATM   21  H2  UNL     1      -5.594  15.952  66.610  1.00  0.00     0.000 HD 
HETATM   22  H1  UNL     1      -5.152  17.021  67.968  1.00  0.00     0.000 HD 
ENDBRANCH   9  18
ENDBRANCH   3   4
ENDBRANCH   2   3
BRANCH   2  23
HETATM   23  N   UNL     1     -10.629  10.787  65.878  1.00  0.00    -0.192 NA 
HETATM   24  H   UNL     1     -10.907   9.999  65.293  1.00  0.00     0.000 HD 
BRANCH  23  25
HETATM   25  C   UNL     1     -10.956  10.524  67.289  1.00  0.00    -0.260 C  
BRANCH  25  26
HETATM   26  C   UNL     1     -11.802  11.627  67.960  1.00  0.00    -0.225 C  
BRANCH  26  27
HETATM   27  O   UNL     1     -11.165  12.185  69.116  1.00  0.00    -0.239 OA 
BRANCH  27  28
HETATM   28  C   UNL     1     -11.968  12.487  70.186  1.00  0.00    -0.301 A  
HETATM   29  C   UNL     1     -13.359  11.680  71.999  1.00  0.00    -0.405 A  
HETATM   30  C   UNL     1     -12.374  13.794  70.509  1.00  0.00    -0.429 A  
HETATM   31  C   UNL     1     -12.474  11.424  70.952  1.00  0.00    -0.379 A  
HETATM   32  C   UNL     1     -13.760  12.983  72.301  1.00  0.00    -0.608 A  
HETATM   33  C   UNL     1     -13.265  14.041  71.548  1.00  0.00    -0.431 A  
BRANCH  31  34
HETATM   34  O   UNL     1     -12.280  10.090  70.706  1.00  0.00    -0.293 OA 
BRANCH  34  35
HETATM   35  C   UNL     1     -11.656   9.325  71.746  1.00  0.00    -0.388 C  
HETATM   36  C   UNL     1     -11.159   7.969  71.255  1.00  0.00    -0.247 C  
HETATM   37  F   UNL     1     -11.246   7.817  69.917  1.00  0.00    -0.250 F  
HETATM   38  F   UNL     1      -9.870   7.763  71.611  1.00  0.00    -0.170 F  
HETATM   39  F   UNL     1     -11.885   6.965  71.818  1.00  0.00    -0.287 F  
ENDBRANCH  34  35
ENDBRANCH  31  34
ENDBRANCH  27  28
ENDBRANCH  26  27
ENDBRANCH  25  26
ENDBRANCH  23  25
ENDBRANCH   2  23
TORSDOF 13
ENDMDL
MODEL      170
REMARK 921   NORMALIZED FREE ENERGY PREDICTED BY IDOCK:   -4.90 KCAL/MOL
REMARK 922        TOTAL FREE ENERGY PREDICTED BY IDOCK:  -11.79 KCAL/MOL
REMARK 923 INTER-LIGAND FREE ENERGY PREDICTED BY IDOCK:   -9.92 KCAL/MOL
REMARK 924 INTRA-LIGAND FREE ENERGY PREDICTED BY IDOCK:   -1.87 KCAL/MOL
REMARK 927      BINDING AFFINITY PREDICTED BY RF-SCORE:    0.00 PKD
ROOT
HETATM    1  C   UNL     1      -6.200  13.715  70.389  1.00  0.00    -0.053 C  
HETATM    2  C   UNL     1      -6.313  12.732  69.217  1.00  0.00    -0.108 C  
ENDROOT
BRANCH   2   3
HETATM    3  C   UNL     1      -5.907  13.372  67.870  1.00  0.00    -0.135 C  
BRANCH   3   4
HETATM    4  C   UNL     1      -6.334  14.806  67.736  1.00  0.00    -0.172 A  
HETATM    5  C   UNL     1      -7.576  15.112  67.169  1.00  0.00    -0.204 A  
HETATM    6  C   UNL     1      -6.186  19.476  68.100  1.00  0.00    -0.226 A  
HETATM    7  C   UNL     1      -5.515  15.845  68.155  1.00  0.00    -0.119 A  
HETATM    8  C   UNL     1      -5.976  17.147  68.020  1.00  0.00    -0.127 A  
HETATM    9  C   UNL     1      -8.055  16.441  67.059  1.00  0.00    -0.235 A  
HETATM   10  C   UNL     1      -7.233  17.495  67.473  1.00  0.00    -0.169 A  
HETATM   11  C   UNL     1      -5.203  18.357  68.429  1.00  0.00    -0.169 A  
HETATM   12  N   UNL     1      -7.368  18.873  67.471  1.00  0.00    -0.226 NA 
BRANCH  12  13
HETATM   13  C   UNL     1      -8.485  19.723  67.112  1.00  0.00    -0.317 C  
BRANCH  13  14
HETATM   14  C   UNL     1      -9.608  19.649  68.150  1.00  0.00    -0.474 C  
BRANCH  14  15
HETATM   15  C   UNL     1     -10.996  19.537  67.535  1.00  0.00    -0.268 C  
HETATM   16  O   UNL     1     -10.901  19.737  66.124  1.00  0.00    -0.420 OA 
HETATM   17  H   UNL     1     -11.767  19.667  65.740  1.00  0.00     0.000 HD 
ENDBRANCH  14  15
ENDBRANCH  13  14
ENDBRANCH  12  13
BRANCH   9  18
HETATM   18  C   UNL     1      -9.410  16.538  66.456  1.00  0.00    -0.269 C  
HETATM   19  N   UNL     1     -10.432  15.947  67.163  1.00  0.00    -0.309 N  
HETATM   20  O   UNL     1      -9.644  17.054  65.368  1.00  0.00    -0.393 OA 
HETATM   21  H2  UNL     1     -10.269  15.470  68.049  1.00  0.00     0.000 HD 
HETATM   22  H1  UNL     1     -11.363  16.013  66.749  1.00  0.00     0.000 HD 
ENDBRANCH   9  18
ENDBRANCH   3   4
ENDBRANCH   2   3
BRANCH   2  23
HETATM   23  N   UNL     1      -7.692  12.214  69.177  1.00  0.00    -0.334 NA 
HETATM   24  H   UNL     1      -8.274  12.792  68.572  1.00  0.00     0.000 HD 
BRANCH  23  25
HETATM   25  C   UNL     1      -7.789  10.797  68.789  1.00  0.00    -0.129 C  
BRANCH  25  26
HETATM   26  C   UNL     1      -9.236  10.283  68.625  1.00  0.00    -0.159 C  
BRANCH  26  27
HETATM   27  O   UNL     1     -10.214  11.252  69.023  1.00  0.00    -0.205 OA 
BRANCH  27  28
HETATM   28  C   UNL     1     -11.163  10.845  69.926  1.00  0.00    -0.282 A  
HETATM   29  C   UNL     1     -12.916  11.465  71.480  1.00  0.00    -0.505 A  
HETATM   30  C   UNL     1     -11.300   9.516  70.363  1.00  0.00    -0.318 A  
HETATM   31  C   UNL     1     -11.992  11.823  70.499  1.00  0.00    -0.289 A  
HETATM   32  C   UNL     1     -13.032  10.141  71.912  1.00  0.00    -0.549 A  
HETATM   33  C   UNL     1     -12.216   9.166  71.350  1.00  0.00    -0.407 A  
BRANCH  31  34
HETATM   34  O   UNL     1     -11.916  13.174  70.279  1.00  0.00    -0.335 OA 
BRANCH  34  35
HETATM   35  C   UNL     1     -12.893  13.991  70.933  1.00  0.00    -0.318 C  
HETATM   36  C   UNL     1     -12.283  14.884  72.008  1.00  0.00    -0.358 C  
HETATM   37  F   UNL     1     -10.933  14.861  72.023  1.00  0.00    -0.355 F  
HETATM   38  F   UNL     1     -12.671  16.172  71.853  1.00  0.00    -0.486 F  
HETATM   39  F   UNL     1     -12.701  14.496  73.243  1.00  0.00    -0.502 F  
ENDBRANCH  34  35
ENDBRANCH  31  34
ENDBRANCH  27  28
ENDBRANCH  26  27
ENDBRANCH  25  26
ENDBRANCH  23  25
ENDBRANCH   2  23
TORSDOF 13
ENDMDL
MODEL      171
REMARK 921   NORMALIZED FREE ENERGY PREDICTED BY IDOCK:   -4.87 KCAL/MOL
REMARK 922        TOTAL FREE ENERGY PREDICTED BY IDOCK:  -11.73 KCAL/MOL
REMARK 923 INTER-LIGAND FREE ENERGY PREDICTED BY IDOCK:   -9.79 KCAL/MOL
REMARK 924 INTRA-LIGAND FREE ENERGY PREDICTED BY IDOCK:   -1.94 KCAL/MOL
REMARK 927      BINDING AFFINITY PREDICTED BY RF-SCORE:    0.00 PKD
ROOT
HETATM    1  C   UNL     1      -6.721  15.309  70.086  1.00  0.00    -0.037 C  
HETATM    2  C   UNL     1      -6.171  14.203  69.177  1.00  0.00    -0.101 C  
ENDROOT
BRANCH   2   3
HETATM    3  C   UNL     1      -5.803  14.725  67.770  1.00  0.00    -0.105 C  
BRANCH   3   4
HETATM    4  C   UNL     1      -6.563  15.957  67.370  1.00  0.00    -0.222 A  
HETATM    5  C   UNL     1      -7.880  15.843  66.911  1.00  0.00    -0.282 A  
HETATM    6  C   UNL     1      -7.491  20.493  66.647  1.00  0.00    -0.210 A  
HETATM    7  C   UNL     1      -5.983  17.216  67.436  1.00  0.00    -0.169 A  
HETATM    8  C   UNL     1      -6.747  18.316  67.070  1.00  0.00    -0.205 A  
HETATM    9  C   UNL     1      -8.665  16.971  66.565  1.00  0.00    -0.297 A  
HETATM   10  C   UNL     1      -8.086  18.244  66.622  1.00  0.00    -0.260 A  
HETATM   11  C   UNL     1      -6.252  19.724  67.092  1.00  0.00    -0.199 A  
HETATM   12  N   UNL     1      -8.540  19.517  66.326  1.00  0.00    -0.357 NA 
BRANCH  12  13
HETATM   13  C   UNL     1      -9.850  19.995  65.929  1.00  0.00    -0.332 C  
BRANCH  13  14
HETATM   14  C   UNL     1     -10.905  19.708  67.000  1.00  0.00    -0.518 C  
BRANCH  14  15
HETATM   15  C   UNL     1     -10.367  19.794  68.421  1.00  0.00    -0.391 C  
HETATM   16  O   UNL     1     -10.647  18.570  69.102  1.00  0.00    -0.356 OA 
HETATM   17  H   UNL     1     -10.311  18.624  69.989  1.00  0.00     0.000 HD 
ENDBRANCH  14  15
ENDBRANCH  13  14
ENDBRANCH  12  13
BRANCH   9  18
HETATM   18  C   UNL     1     -10.045  16.627  66.133  1.00  0.00    -0.345 C  
HETATM   19  N   UNL     1     -10.883  16.141  67.111  1.00  0.00    -0.268 N  
HETATM   20  O   UNL     1     -10.441  16.700  64.975  1.00  0.00    -0.664 OA 
HETATM   21  H2  UNL     1     -10.575  16.024  68.076  1.00  0.00     0.000 HD 
HETATM   22  H1  UNL     1     -11.831  15.905  66.814  1.00  0.00     0.000 HD 
ENDBRANCH   9  18
ENDBRANCH   3   4
ENDBRANCH   2   3
BRANCH   2  23
HETATM   23  N   UNL     1      -7.168  13.119  69.110  1.00  0.00    -0.291 NA 
HETATM   24  H   UNL     1      -8.107  13.488  69.255  1.00  0.00     0.000 HD 
BRANCH  23  25
HETATM   25  C   UNL     1      -7.110  12.326  67.871  1.00  0.00    -0.105 C  
BRANCH  25  26
HETATM   26  C   UNL     1      -7.484  10.839  68.052  1.00  0.00    -0.090 C  
BRANCH  26  27
HETATM   27  O   UNL     1      -8.749  10.513  67.460  1.00  0.00    -0.125 OA 
BRANCH  27  28
HETATM   28  C   UNL     1      -8.756  10.242  66.115  1.00  0.00    -0.152 A  
HETATM   29  C   UNL     1      -9.758  10.646  63.947  1.00  0.00    -0.378 A  
HETATM   30  C   UNL     1      -7.963   9.245  65.520  1.00  0.00    -0.104 A  
HETATM   31  C   UNL     1      -9.660  10.947  65.305  1.00  0.00    -0.229 A  
HETATM   32  C   UNL     1      -8.971   9.645  63.372  1.00  0.00    -0.246 A  
HETATM   33  C   UNL     1      -8.073   8.942  64.167  1.00  0.00    -0.160 A  
BRANCH  31  34
HETATM   34  O   UNL     1     -10.585  11.862  65.736  1.00  0.00    -0.250 OA 
BRANCH  34  35
HETATM   35  C   UNL     1     -10.687  13.080  64.989  1.00  0.00    -0.315 C  
HETATM   36  C   UNL     1     -12.080  13.294  64.407  1.00  0.00    -0.415 C  
HETATM   37  F   UNL     1     -12.988  12.394  64.841  1.00  0.00    -0.560 F  
HETATM   38  F   UNL     1     -12.549  14.528  64.702  1.00  0.00    -0.438 F  
HETATM   39  F   UNL     1     -12.048  13.202  63.049  1.00  0.00    -0.615 F  
ENDBRANCH  34  35
ENDBRANCH  31  34
ENDBRANCH  27  28
ENDBRANCH  26  27
ENDBRANCH  25  26
ENDBRANCH  23  25
ENDBRANCH   2  23
TORSDOF 13
ENDMDL
MODEL      172
REMARK 921   NORMALIZED FREE ENERGY PREDICTED BY IDOCK:   -4.86 KCAL/MOL
REMARK 922        TOTAL FREE ENERGY PREDICTED BY IDOCK:  -11.72 KCAL/MOL
REMARK 923 INTER-LIGAND FREE ENERGY PREDICTED BY IDOCK:   -9.39 KCAL/MOL
REMARK 924 INTRA-LIGAND FREE ENERGY PREDICTED BY IDOCK:   -2.33 KCAL/MOL
REMARK 927      BINDING AFFINITY PREDICTED BY RF-SCORE:    0.00 PKD
ROOT
HETATM    1  C   UNL     1      -6.633  12.133  67.261  1.00  0.00    -0.146 C  
HETATM    2  C   UNL     1      -8.104  12.555  67.150  1.00  0.00    -0.156 C  
ENDROOT
BRANCH   2   3
HETATM    3  C   UNL     1      -8.606  13.280  68.419  1.00  0.00    -0.130 C  
BRANCH   3   4
HETATM    4  C   UNL     1      -8.306  14.751  68.427  1.00  0.00    -0.154 A  
HETATM    5  C   UNL     1      -9.095  15.627  67.674  1.00  0.00    -0.193 A  
HETATM    6  C   UNL     1      -6.207  18.791  69.543  1.00  0.00    -0.268 A  
HETATM    7  C   UNL     1      -7.248  15.268  69.163  1.00  0.00    -0.169 A  
HETATM    8  C   UNL     1      -7.036  16.640  69.142  1.00  0.00    -0.227 A  
HETATM    9  C   UNL     1      -8.893  17.029  67.679  1.00  0.00    -0.220 A  
HETATM   10  C   UNL     1      -7.825  17.558  68.412  1.00  0.00    -0.263 A  
HETATM   11  C   UNL     1      -5.940  17.329  69.885  1.00  0.00    -0.230 A  
HETATM   12  N   UNL     1      -7.332  18.838  68.599  1.00  0.00    -0.298 NA 
BRANCH  12  13
HETATM   13  C   UNL     1      -7.827  20.126  68.157  1.00  0.00    -0.165 C  
BRANCH  13  14
HETATM   14  C   UNL     1      -6.833  20.825  67.226  1.00  0.00    -0.405 C  
BRANCH  14  15
HETATM   15  C   UNL     1      -6.213  19.895  66.193  1.00  0.00    -0.184 C  
HETATM   16  O   UNL     1      -7.255  19.257  65.452  1.00  0.00    -0.448 OA 
HETATM   17  H   UNL     1      -6.868  18.676  64.807  1.00  0.00     0.000 HD 
ENDBRANCH  14  15
ENDBRANCH  13  14
ENDBRANCH  12  13
BRANCH   9  18
HETATM   18  C   UNL     1      -9.863  17.775  66.835  1.00  0.00    -0.312 C  
HETATM   19  N   UNL     1     -10.878  18.420  67.504  1.00  0.00    -0.357 N  
HETATM   20  O   UNL     1      -9.835  17.795  65.609  1.00  0.00    -0.528 OA 
HETATM   21  H2  UNL     1     -10.960  18.389  68.520  1.00  0.00     0.000 HD 
HETATM   22  H1  UNL     1     -11.545  18.932  66.925  1.00  0.00     0.000 HD 
ENDBRANCH   9  18
ENDBRANCH   3   4
ENDBRANCH   2   3
BRANCH   2  23
HETATM   23  N   UNL     1      -8.909  11.357  66.855  1.00  0.00    -0.167 NA 
HETATM   24  H   UNL     1      -9.812  11.621  66.461  1.00  0.00     0.000 HD 
BRANCH  23  25
HETATM   25  C   UNL     1      -8.233  10.377  65.988  1.00  0.00    -0.144 C  
BRANCH  25  26
HETATM   26  C   UNL     1      -9.046   9.091  65.730  1.00  0.00    -0.219 C  
BRANCH  26  27
HETATM   27  O   UNL     1     -10.336   9.119  66.356  1.00  0.00    -0.258 OA 
BRANCH  27  28
HETATM   28  C   UNL     1     -10.557   8.219  67.368  1.00  0.00    -0.253 A  
HETATM   29  C   UNL     1     -10.797   7.825  69.746  1.00  0.00    -0.211 A  
HETATM   30  C   UNL     1     -10.618   6.829  67.171  1.00  0.00    -0.401 A  
HETATM   31  C   UNL     1     -10.653   8.711  68.679  1.00  0.00    -0.129 A  
HETATM   32  C   UNL     1     -10.844   6.445  69.535  1.00  0.00    -0.381 A  
HETATM   33  C   UNL     1     -10.751   5.949  68.240  1.00  0.00    -0.319 A  
BRANCH  31  34
HETATM   34  O   UNL     1     -10.497  10.018  69.063  1.00  0.00    -0.192 OA 
BRANCH  34  35
HETATM   35  C   UNL     1     -11.680  10.824  69.105  1.00  0.00    -0.296 C  
HETATM   36  C   UNL     1     -12.246  10.960  70.515  1.00  0.00    -0.367 C  
HETATM   37  F   UNL     1     -11.441  10.444  71.468  1.00  0.00    -0.360 F  
HETATM   38  F   UNL     1     -12.475  12.257  70.827  1.00  0.00    -0.411 F  
HETATM   39  F   UNL     1     -13.441  10.317  70.612  1.00  0.00    -0.429 F  
ENDBRANCH  34  35
ENDBRANCH  31  34
ENDBRANCH  27  28
ENDBRANCH  26  27
ENDBRANCH  25  26
ENDBRANCH  23  25
ENDBRANCH   2  23
TORSDOF 13
ENDMDL
MODEL      173
REMARK 921   NORMALIZED FREE ENERGY PREDICTED BY IDOCK:   -4.86 KCAL/MOL
REMARK 922        TOTAL FREE ENERGY PREDICTED BY IDOCK:  -11.71 KCAL/MOL
REMARK 923 INTER-LIGAND FREE ENERGY PREDICTED BY IDOCK:   -9.05 KCAL/MOL
REMARK 924 INTRA-LIGAND FREE ENERGY PREDICTED BY IDOCK:   -2.66 KCAL/MOL
REMARK 927      BINDING AFFINITY PREDICTED BY RF-SCORE:    0.00 PKD
ROOT
HETATM    1  C   UNL     1     -10.082   8.118  73.078  1.00  0.00    -0.290 C  
HETATM    2  C   UNL     1     -11.121   7.466  72.157  1.00  0.00    -0.252 C  
ENDROOT
BRANCH   2   3
HETATM    3  C   UNL     1     -12.374   8.349  71.965  1.00  0.00    -0.413 C  
BRANCH   3   4
HETATM    4  C   UNL     1     -12.122   9.575  71.134  1.00  0.00    -0.429 A  
HETATM    5  C   UNL     1     -11.351   9.480  69.970  1.00  0.00    -0.204 A  
HETATM    6  C   UNL     1     -12.340  14.041  69.731  1.00  0.00    -0.291 A  
HETATM    7  C   UNL     1     -12.632  10.812  71.500  1.00  0.00    -0.500 A  
HETATM    8  C   UNL     1     -12.377  11.902  70.678  1.00  0.00    -0.405 A  
HETATM    9  C   UNL     1     -11.117  10.589  69.119  1.00  0.00    -0.302 A  
HETATM   10  C   UNL     1     -11.621  11.842  69.485  1.00  0.00    -0.332 A  
HETATM   11  C   UNL     1     -12.862  13.287  70.950  1.00  0.00    -0.257 A  
HETATM   12  N   UNL     1     -11.549  13.104  68.922  1.00  0.00    -0.289 NA 
BRANCH  12  13
HETATM   13  C   UNL     1     -10.984  13.560  67.668  1.00  0.00    -0.263 C  
BRANCH  13  14
HETATM   14  C   UNL     1     -11.999  14.359  66.847  1.00  0.00    -0.425 C  
BRANCH  14  15
HETATM   15  C   UNL     1     -12.537  13.599  65.643  1.00  0.00    -0.484 C  
HETATM   16  O   UNL     1     -12.343  12.199  65.848  1.00  0.00    -0.561 OA 
HETATM   17  H   UNL     1     -12.679  11.725  65.096  1.00  0.00     0.000 HD 
ENDBRANCH  14  15
ENDBRANCH  13  14
ENDBRANCH  12  13
BRANCH   9  18
HETATM   18  C   UNL     1     -10.300  10.260  67.923  1.00  0.00    -0.196 C  
HETATM   19  N   UNL     1      -8.934  10.286  68.095  1.00  0.00    -0.128 N  
HETATM   20  O   UNL     1     -10.766  10.031  66.812  1.00  0.00    -0.187 OA 
HETATM   21  H2  UNL     1      -8.508  10.516  68.993  1.00  0.00     0.000 HD 
HETATM   22  H1  UNL     1      -8.372  10.060  67.274  1.00  0.00     0.000 HD 
ENDBRANCH   9  18
ENDBRANCH   3   4
ENDBRANCH   2   3
BRANCH   2  23
HETATM   23  N   UNL     1     -11.468   6.145  72.711  1.00  0.00    -0.452 NA 
HETATM   24  H   UNL     1     -12.218   5.716  72.170  1.00  0.00     0.000 HD 
BRANCH  23  25
HETATM   25  C   UNL     1     -10.325   5.225  72.831  1.00  0.00    -0.196 C  
BRANCH  25  26
HETATM   26  C   UNL     1      -9.450   5.133  71.562  1.00  0.00    -0.151 C  
BRANCH  26  27
HETATM   27  O   UNL     1      -9.999   4.249  70.576  1.00  0.00    -0.209 OA 
BRANCH  27  28
HETATM   28  C   UNL     1     -10.215   4.768  69.325  1.00  0.00    -0.074 A  
HETATM   29  C   UNL     1      -9.815   4.608  66.941  1.00  0.00    -0.235 A  
HETATM   30  C   UNL     1     -10.868   5.992  69.094  1.00  0.00    -0.422 A  
HETATM   31  C   UNL     1      -9.689   4.075  68.223  1.00  0.00    -0.066 A  
HETATM   32  C   UNL     1     -10.457   5.830  66.728  1.00  0.00    -0.350 A  
HETATM   33  C   UNL     1     -10.981   6.523  67.813  1.00  0.00    -0.407 A  
BRANCH  31  34
HETATM   34  O   UNL     1      -8.927   2.937  68.276  1.00  0.00    -0.111 OA 
BRANCH  34  35
HETATM   35  C   UNL     1      -7.505   3.112  68.295  1.00  0.00    -0.053 C  
HETATM   36  C   UNL     1      -6.886   2.723  69.634  1.00  0.00    -0.034 C  
HETATM   37  F   UNL     1      -7.759   2.134  70.478  1.00  0.00    -0.041 F  
HETATM   38  F   UNL     1      -5.844   1.876  69.463  1.00  0.00    -0.019 F  
HETATM   39  F   UNL     1      -6.397   3.822  70.269  1.00  0.00    -0.024 F  
ENDBRANCH  34  35
ENDBRANCH  31  34
ENDBRANCH  27  28
ENDBRANCH  26  27
ENDBRANCH  25  26
ENDBRANCH  23  25
ENDBRANCH   2  23
TORSDOF 13
ENDMDL
MODEL      174
REMARK 921   NORMALIZED FREE ENERGY PREDICTED BY IDOCK:   -4.84 KCAL/MOL
REMARK 922        TOTAL FREE ENERGY PREDICTED BY IDOCK:  -11.68 KCAL/MOL
REMARK 923 INTER-LIGAND FREE ENERGY PREDICTED BY IDOCK:   -9.28 KCAL/MOL
REMARK 924 INTRA-LIGAND FREE ENERGY PREDICTED BY IDOCK:   -2.40 KCAL/MOL
REMARK 927      BINDING AFFINITY PREDICTED BY RF-SCORE:    0.00 PKD
ROOT
HETATM    1  C   UNL     1      -8.695  10.923  67.067  1.00  0.00    -0.141 C  
HETATM    2  C   UNL     1      -9.347  10.138  68.213  1.00  0.00    -0.133 C  
ENDROOT
BRANCH   2   3
HETATM    3  C   UNL     1     -10.532   9.270  67.733  1.00  0.00    -0.313 C  
BRANCH   3   4
HETATM    4  C   UNL     1     -10.333   7.800  67.971  1.00  0.00    -0.263 A  
HETATM    5  C   UNL     1     -10.324   6.915  66.888  1.00  0.00    -0.332 A  
HETATM    6  C   UNL     1      -9.564   3.800  70.288  1.00  0.00    -0.187 A  
HETATM    7  C   UNL     1     -10.165   7.294  69.252  1.00  0.00    -0.193 A  
HETATM    8  C   UNL     1      -9.967   5.927  69.402  1.00  0.00    -0.229 A  
HETATM    9  C   UNL     1     -10.094   5.525  67.043  1.00  0.00    -0.226 A  
HETATM   10  C   UNL     1      -9.931   5.005  68.331  1.00  0.00    -0.136 A  
HETATM   11  C   UNL     1      -9.773   5.249  70.717  1.00  0.00    -0.247 A  
HETATM   12  N   UNL     1      -9.733   3.729  68.831  1.00  0.00    -0.102 NA 
BRANCH  12  13
HETATM   13  C   UNL     1      -9.526   2.461  68.159  1.00  0.00    -0.158 C  
BRANCH  13  14
HETATM   14  C   UNL     1      -8.194   1.821  68.557  1.00  0.00    -0.072 C  
BRANCH  14  15
HETATM   15  C   UNL     1      -7.081   2.059  67.547  1.00  0.00    -0.047 C  
HETATM   16  O   UNL     1      -7.035   3.449  67.219  1.00  0.00    -0.055 OA 
HETATM   17  H   UNL     1      -6.340   3.597  66.589  1.00  0.00     0.000 HD 
ENDBRANCH  14  15
ENDBRANCH  13  14
ENDBRANCH  12  13
BRANCH   9  18
HETATM   18  C   UNL     1     -10.095   4.774  65.761  1.00  0.00    -0.214 C  
HETATM   19  N   UNL     1     -11.330   4.531  65.202  1.00  0.00    -0.949 N  
HETATM   20  O   UNL     1      -9.088   4.326  65.224  1.00  0.00    -0.129 OA 
HETATM   21  H2  UNL     1     -12.193   4.849  65.642  1.00  0.00     0.000 HD 
HETATM   22  H1  UNL     1     -11.332   4.015  64.321  1.00  0.00     0.000 HD 
ENDBRANCH   9  18
ENDBRANCH   3   4
ENDBRANCH   2   3
BRANCH   2  23
HETATM   23  N   UNL     1      -9.762  11.096  69.254  1.00  0.00    -0.424 NA 
HETATM   24  H   UNL     1      -9.438  12.035  69.025  1.00  0.00     0.000 HD 
BRANCH  23  25
HETATM   25  C   UNL     1     -11.210  11.099  69.522  1.00  0.00    -0.277 C  
BRANCH  25  26
HETATM   26  C   UNL     1     -11.928  12.403  69.113  1.00  0.00    -0.240 C  
BRANCH  26  27
HETATM   27  O   UNL     1     -11.069  13.305  68.403  1.00  0.00    -0.245 OA 
BRANCH  27  28
HETATM   28  C   UNL     1     -11.334  13.501  67.071  1.00  0.00    -0.324 A  
HETATM   29  C   UNL     1     -11.526  15.059  65.226  1.00  0.00    -0.308 A  
HETATM   30  C   UNL     1     -11.816  12.493  66.219  1.00  0.00    -0.453 A  
HETATM   31  C   UNL     1     -11.189  14.798  66.553  1.00  0.00    -0.342 A  
HETATM   32  C   UNL     1     -12.013  14.048  64.394  1.00  0.00    -0.480 A  
HETATM   33  C   UNL     1     -12.160  12.762  64.898  1.00  0.00    -0.490 A  
BRANCH  31  34
HETATM   34  O   UNL     1     -10.847  15.918  67.267  1.00  0.00    -0.319 OA 
BRANCH  34  35
HETATM   35  C   UNL     1     -10.315  17.021  66.524  1.00  0.00    -0.298 C  
HETATM   36  C   UNL     1      -8.917  17.417  66.986  1.00  0.00    -0.242 C  
HETATM   37  F   UNL     1      -8.383  16.558  67.881  1.00  0.00    -0.165 F  
HETATM   38  F   UNL     1      -8.062  17.506  65.941  1.00  0.00    -0.281 F  
HETATM   39  F   UNL     1      -8.941  18.642  67.577  1.00  0.00    -0.269 F  
ENDBRANCH  34  35
ENDBRANCH  31  34
ENDBRANCH  27  28
ENDBRANCH  26  27
ENDBRANCH  25  26
ENDBRANCH  23  25
ENDBRANCH   2  23
TORSDOF 13
ENDMDL
MODEL      175
REMARK 921   NORMALIZED FREE ENERGY PREDICTED BY IDOCK:   -4.84 KCAL/MOL
REMARK 922        TOTAL FREE ENERGY PREDICTED BY IDOCK:  -11.68 KCAL/MOL
REMARK 923 INTER-LIGAND FREE ENERGY PREDICTED BY IDOCK:  -10.73 KCAL/MOL
REMARK 924 INTRA-LIGAND FREE ENERGY PREDICTED BY IDOCK:   -0.95 KCAL/MOL
REMARK 927      BINDING AFFINITY PREDICTED BY RF-SCORE:    0.00 PKD
ROOT
HETATM    1  C   UNL     1     -12.782  11.706  63.861  1.00  0.00    -0.160 C  
HETATM    2  C   UNL     1     -11.978  12.883  63.295  1.00  0.00    -0.440 C  
ENDROOT
BRANCH   2   3
HETATM    3  C   UNL     1     -10.465  12.754  63.580  1.00  0.00    -0.239 C  
BRANCH   3   4
HETATM    4  C   UNL     1     -10.098  11.492  64.307  1.00  0.00    -0.338 A  
HETATM    5  C   UNL     1      -9.289  10.537  63.680  1.00  0.00    -0.324 A  
HETATM    6  C   UNL     1      -9.838   8.346  67.772  1.00  0.00    -0.174 A  
HETATM    7  C   UNL     1     -10.554  11.242  65.594  1.00  0.00    -0.303 A  
HETATM    8  C   UNL     1     -10.163  10.064  66.217  1.00  0.00    -0.285 A  
HETATM    9  C   UNL     1      -8.870   9.350  64.331  1.00  0.00    -0.225 A  
HETATM   10  C   UNL     1      -9.330   9.087  65.625  1.00  0.00    -0.222 A  
HETATM   11  C   UNL     1     -10.577   9.669  67.596  1.00  0.00    -0.334 A  
HETATM   12  N   UNL     1      -9.153   8.038  66.510  1.00  0.00    -0.164 NA 
BRANCH  12  13
HETATM   13  C   UNL     1      -8.324   6.851  66.430  1.00  0.00    -0.125 C  
BRANCH  13  14
HETATM   14  C   UNL     1      -9.049   5.702  65.724  1.00  0.00    -0.139 C  
BRANCH  14  15
HETATM   15  C   UNL     1     -10.182   5.104  66.546  1.00  0.00    -0.264 C  
HETATM   16  O   UNL     1     -11.399   5.782  66.228  1.00  0.00    -0.733 OA 
HETATM   17  H   UNL     1     -12.107   5.408  66.741  1.00  0.00     0.000 HD 
ENDBRANCH  14  15
ENDBRANCH  13  14
ENDBRANCH  12  13
BRANCH   9  18
HETATM   18  C   UNL     1      -7.990   8.492  63.495  1.00  0.00    -0.161 C  
HETATM   19  N   UNL     1      -8.514   7.277  63.114  1.00  0.00    -0.356 N  
HETATM   20  O   UNL     1      -6.839   8.780  63.186  1.00  0.00    -0.090 OA 
HETATM   21  H2  UNL     1      -9.450   6.983  63.389  1.00  0.00     0.000 HD 
HETATM   22  H1  UNL     1      -7.910   6.687  62.540  1.00  0.00     0.000 HD 
ENDBRANCH   9  18
ENDBRANCH   3   4
ENDBRANCH   2   3
BRANCH   2  23
HETATM   23  N   UNL     1     -12.530  14.132  63.851  1.00  0.00    -0.915 NA 
HETATM   24  H   UNL     1     -13.380  13.942  64.381  1.00  0.00     0.000 HD 
BRANCH  23  25
HETATM   25  C   UNL     1     -11.574  14.900  64.666  1.00  0.00    -0.395 C  
BRANCH  25  26
HETATM   26  C   UNL     1     -11.679  14.636  66.183  1.00  0.00    -0.313 C  
BRANCH  26  27
HETATM   27  O   UNL     1     -11.111  15.694  66.967  1.00  0.00    -0.297 OA 
BRANCH  27  28
HETATM   28  C   UNL     1      -9.792  15.567  67.322  1.00  0.00    -0.224 A  
HETATM   29  C   UNL     1      -7.840  16.567  68.350  1.00  0.00    -0.187 A  
HETATM   30  C   UNL     1      -8.986  14.480  66.941  1.00  0.00    -0.267 A  
HETATM   31  C   UNL     1      -9.198  16.618  68.040  1.00  0.00    -0.223 A  
HETATM   32  C   UNL     1      -7.050  15.485  67.956  1.00  0.00    -0.136 A  
HETATM   33  C   UNL     1      -7.629  14.441  67.245  1.00  0.00    -0.135 A  
BRANCH  31  34
HETATM   34  O   UNL     1      -9.801  17.799  68.387  1.00  0.00    -0.309 OA 
BRANCH  34  35
HETATM   35  C   UNL     1      -9.069  19.001  68.119  1.00  0.00    -0.320 C  
HETATM   36  C   UNL     1      -9.771  19.900  67.108  1.00  0.00    -0.393 C  
HETATM   37  F   UNL     1     -11.014  19.481  66.788  1.00  0.00    -0.543 F  
HETATM   38  F   UNL     1      -9.870  21.169  67.567  1.00  0.00    -0.607 F  
HETATM   39  F   UNL     1      -9.060  19.958  65.949  1.00  0.00    -0.392 F  
ENDBRANCH  34  35
ENDBRANCH  31  34
ENDBRANCH  27  28
ENDBRANCH  26  27
ENDBRANCH  25  26
ENDBRANCH  23  25
ENDBRANCH   2  23
TORSDOF 13
ENDMDL
MODEL      176
REMARK 921   NORMALIZED FREE ENERGY PREDICTED BY IDOCK:   -4.84 KCAL/MOL
REMARK 922        TOTAL FREE ENERGY PREDICTED BY IDOCK:  -11.68 KCAL/MOL
REMARK 923 INTER-LIGAND FREE ENERGY PREDICTED BY IDOCK:   -8.32 KCAL/MOL
REMARK 924 INTRA-LIGAND FREE ENERGY PREDICTED BY IDOCK:   -3.36 KCAL/MOL
REMARK 927      BINDING AFFINITY PREDICTED BY RF-SCORE:    0.00 PKD
ROOT
HETATM    1  C   UNL     1     -12.782  11.854  63.431  1.00  0.00    -0.496 C  
HETATM    2  C   UNL     1     -11.550  12.447  64.126  1.00  0.00    -0.386 C  
ENDROOT
BRANCH   2   3
HETATM    3  C   UNL     1     -11.584  12.247  65.658  1.00  0.00    -0.433 C  
BRANCH   3   4
HETATM    4  C   UNL     1     -10.347  11.593  66.205  1.00  0.00    -0.280 A  
HETATM    5  C   UNL     1      -9.955  10.337  65.729  1.00  0.00    -0.337 A  
HETATM    6  C   UNL     1      -6.449  11.020  68.742  1.00  0.00    -0.051 A  
HETATM    7  C   UNL     1      -9.582  12.206  67.187  1.00  0.00    -0.195 A  
HETATM    8  C   UNL     1      -8.439  11.556  67.636  1.00  0.00    -0.135 A  
HETATM    9  C   UNL     1      -8.774   9.691  66.170  1.00  0.00    -0.152 A  
HETATM   10  C   UNL     1      -8.000  10.298  67.164  1.00  0.00    -0.114 A  
HETATM   11  C   UNL     1      -7.526  12.098  68.684  1.00  0.00    -0.105 A  
HETATM   12  N   UNL     1      -6.842   9.937  67.832  1.00  0.00    -0.075 NA 
BRANCH  12  13
HETATM   13  C   UNL     1      -5.953   8.806  67.657  1.00  0.00    -0.047 C  
BRANCH  13  14
HETATM   14  C   UNL     1      -6.006   7.854  68.854  1.00  0.00    -0.038 C  
BRANCH  14  15
HETATM   15  C   UNL     1      -7.380   7.237  69.078  1.00  0.00    -0.091 C  
HETATM   16  O   UNL     1      -7.573   6.173  68.144  1.00  0.00    -0.094 OA 
HETATM   17  H   UNL     1      -8.430   5.788  68.283  1.00  0.00     0.000 HD 
ENDBRANCH  14  15
ENDBRANCH  13  14
ENDBRANCH  12  13
BRANCH   9  18
HETATM   18  C   UNL     1      -8.530   8.381  65.512  1.00  0.00    -0.168 C  
HETATM   19  N   UNL     1      -7.728   8.403  64.393  1.00  0.00    -0.125 N  
HETATM   20  O   UNL     1      -9.037   7.325  65.874  1.00  0.00    -0.128 OA 
HETATM   21  H2  UNL     1      -7.325   9.269  64.036  1.00  0.00     0.000 HD 
HETATM   22  H1  UNL     1      -7.561   7.503  63.941  1.00  0.00     0.000 HD 
ENDBRANCH   9  18
ENDBRANCH   3   4
ENDBRANCH   2   3
BRANCH   2  23
HETATM   23  N   UNL     1     -11.457  13.874  63.768  1.00  0.00    -0.562 NA 
HETATM   24  H   UNL     1     -12.001  14.068  62.928  1.00  0.00     0.000 HD 
BRANCH  23  25
HETATM   25  C   UNL     1     -11.838  14.791  64.855  1.00  0.00    -0.377 C  
BRANCH  25  26
HETATM   26  C   UNL     1     -10.932  16.036  64.980  1.00  0.00    -0.380 C  
BRANCH  26  27
HETATM   27  O   UNL     1     -10.811  16.495  66.333  1.00  0.00    -0.196 OA 
BRANCH  27  28
HETATM   28  C   UNL     1      -9.657  16.171  67.000  1.00  0.00    -0.224 A  
HETATM   29  C   UNL     1      -8.553  15.791  69.122  1.00  0.00    -0.256 A  
HETATM   30  C   UNL     1      -8.407  16.039  66.370  1.00  0.00    -0.344 A  
HETATM   31  C   UNL     1      -9.717  16.039  68.397  1.00  0.00    -0.213 A  
HETATM   32  C   UNL     1      -7.316  15.673  68.483  1.00  0.00    -0.122 A  
HETATM   33  C   UNL     1      -7.248  15.801  67.101  1.00  0.00    -0.241 A  
BRANCH  31  34
HETATM   34  O   UNL     1     -10.822  16.252  69.179  1.00  0.00    -0.271 OA 
BRANCH  34  35
HETATM   35  C   UNL     1     -11.114  15.258  70.168  1.00  0.00    -0.293 C  
HETATM   36  C   UNL     1     -12.099  14.207  69.668  1.00  0.00    -0.349 C  
HETATM   37  F   UNL     1     -12.375  14.314  68.351  1.00  0.00    -0.345 F  
HETATM   38  F   UNL     1     -11.636  12.955  69.891  1.00  0.00    -0.342 F  
HETATM   39  F   UNL     1     -13.283  14.310  70.332  1.00  0.00    -0.361 F  
ENDBRANCH  34  35
ENDBRANCH  31  34
ENDBRANCH  27  28
ENDBRANCH  26  27
ENDBRANCH  25  26
ENDBRANCH  23  25
ENDBRANCH   2  23
TORSDOF 13
ENDMDL
MODEL      177
REMARK 921   NORMALIZED FREE ENERGY PREDICTED BY IDOCK:   -4.82 KCAL/MOL
REMARK 922        TOTAL FREE ENERGY PREDICTED BY IDOCK:  -11.65 KCAL/MOL
REMARK 923 INTER-LIGAND FREE ENERGY PREDICTED BY IDOCK:  -10.26 KCAL/MOL
REMARK 924 INTRA-LIGAND FREE ENERGY PREDICTED BY IDOCK:   -1.39 KCAL/MOL
REMARK 927      BINDING AFFINITY PREDICTED BY RF-SCORE:    0.00 PKD
ROOT
HETATM    1  C   UNL     1     -14.123   8.829  72.357  1.00  0.00    -0.485 C  
HETATM    2  C   UNL     1     -12.958   8.328  71.494  1.00  0.00    -0.291 C  
ENDROOT
BRANCH   2   3
HETATM    3  C   UNL     1     -12.744   6.803  71.623  1.00  0.00    -0.360 C  
BRANCH   3   4
HETATM    4  C   UNL     1     -11.617   6.283  70.778  1.00  0.00    -0.347 A  
HETATM    5  C   UNL     1     -11.575   6.584  69.412  1.00  0.00    -0.249 A  
HETATM    6  C   UNL     1      -7.631   4.087  69.656  1.00  0.00    -0.053 A  
HETATM    7  C   UNL     1     -10.611   5.495  71.321  1.00  0.00    -0.304 A  
HETATM    8  C   UNL     1      -9.588   5.062  70.489  1.00  0.00    -0.252 A  
HETATM    9  C   UNL     1     -10.513   6.163  68.573  1.00  0.00    -0.284 A  
HETATM   10  C   UNL     1      -9.499   5.364  69.110  1.00  0.00    -0.133 A  
HETATM   11  C   UNL     1      -8.446   4.213  70.939  1.00  0.00    -0.101 A  
HETATM   12  N   UNL     1      -8.369   4.764  68.581  1.00  0.00    -0.083 NA 
BRANCH  12  13
HETATM   13  C   UNL     1      -7.778   4.840  67.260  1.00  0.00    -0.091 C  
BRANCH  13  14
HETATM   14  C   UNL     1      -7.448   3.451  66.708  1.00  0.00    -0.076 C  
BRANCH  14  15
HETATM   15  C   UNL     1      -7.200   3.438  65.206  1.00  0.00    -0.067 C  
HETATM   16  O   UNL     1      -8.114   4.336  64.574  1.00  0.00    -0.091 OA 
HETATM   17  H   UNL     1      -7.959   4.328  63.636  1.00  0.00     0.000 HD 
ENDBRANCH  14  15
ENDBRANCH  13  14
ENDBRANCH  12  13
BRANCH   9  18
HETATM   18  C   UNL     1     -10.651   6.618  67.165  1.00  0.00    -0.331 C  
HETATM   19  N   UNL     1     -11.142   5.691  66.273  1.00  0.00    -0.772 N  
HETATM   20  O   UNL     1     -10.307   7.724  66.762  1.00  0.00    -0.301 OA 
HETATM   21  H2  UNL     1     -11.397   4.747  66.562  1.00  0.00     0.000 HD 
HETATM   22  H1  UNL     1     -11.236   6.004  65.306  1.00  0.00     0.000 HD 
ENDBRANCH   9  18
ENDBRANCH   3   4
ENDBRANCH   2   3
BRANCH   2  23
HETATM   23  N   UNL     1     -11.747   9.079  71.868  1.00  0.00    -0.367 NA 
HETATM   24  H   UNL     1     -11.047   8.453  72.265  1.00  0.00     0.000 HD 
BRANCH  23  25
HETATM   25  C   UNL     1     -11.170   9.872  70.771  1.00  0.00    -0.353 C  
BRANCH  25  26
HETATM   26  C   UNL     1     -12.177  10.809  70.068  1.00  0.00    -0.334 C  
BRANCH  26  27
HETATM   27  O   UNL     1     -11.688  12.151  69.945  1.00  0.00    -0.314 OA 
BRANCH  27  28
HETATM   28  C   UNL     1     -12.359  13.125  70.641  1.00  0.00    -0.326 A  
HETATM   29  C   UNL     1     -12.631  15.483  71.121  1.00  0.00    -0.509 A  
HETATM   30  C   UNL     1     -13.299  12.851  71.650  1.00  0.00    -0.358 A  
HETATM   31  C   UNL     1     -12.032  14.465  70.381  1.00  0.00    -0.325 A  
HETATM   32  C   UNL     1     -13.555  15.195  72.128  1.00  0.00    -0.558 A  
HETATM   33  C   UNL     1     -13.885  13.870  72.392  1.00  0.00    -0.668 A  
BRANCH  31  34
HETATM   34  O   UNL     1     -11.059  14.905  69.522  1.00  0.00    -0.260 OA 
BRANCH  34  35
HETATM   35  C   UNL     1     -11.469  15.212  68.184  1.00  0.00    -0.342 C  
HETATM   36  C   UNL     1     -10.599  16.285  67.538  1.00  0.00    -0.310 C  
HETATM   37  F   UNL     1      -9.518  16.616  68.275  1.00  0.00    -0.210 F  
HETATM   38  F   UNL     1     -10.161  15.892  66.319  1.00  0.00    -0.258 F  
HETATM   39  F   UNL     1     -11.315  17.426  67.346  1.00  0.00    -0.102 F  
ENDBRANCH  34  35
ENDBRANCH  31  34
ENDBRANCH  27  28
ENDBRANCH  26  27
ENDBRANCH  25  26
ENDBRANCH  23  25
ENDBRANCH   2  23
TORSDOF 13
ENDMDL
MODEL      178
REMARK 921   NORMALIZED FREE ENERGY PREDICTED BY IDOCK:   -4.81 KCAL/MOL
REMARK 922        TOTAL FREE ENERGY PREDICTED BY IDOCK:  -11.63 KCAL/MOL
REMARK 923 INTER-LIGAND FREE ENERGY PREDICTED BY IDOCK:   -9.50 KCAL/MOL
REMARK 924 INTRA-LIGAND FREE ENERGY PREDICTED BY IDOCK:   -2.13 KCAL/MOL
REMARK 927      BINDING AFFINITY PREDICTED BY RF-SCORE:    0.00 PKD
ROOT
HETATM    1  C   UNL     1      -5.691  10.851  66.584  1.00  0.00    -0.090 C  
HETATM    2  C   UNL     1      -7.114  11.251  66.995  1.00  0.00    -0.129 C  
ENDROOT
BRANCH   2   3
HETATM    3  C   UNL     1      -7.145  12.023  68.333  1.00  0.00    -0.084 C  
BRANCH   3   4
HETATM    4  C   UNL     1      -7.780  13.380  68.228  1.00  0.00    -0.141 A  
HETATM    5  C   UNL     1      -9.085  13.502  67.740  1.00  0.00    -0.207 A  
HETATM    6  C   UNL     1      -8.278  18.026  68.592  1.00  0.00    -0.278 A  
HETATM    7  C   UNL     1      -7.093  14.528  68.598  1.00  0.00    -0.113 A  
HETATM    8  C   UNL     1      -7.744  15.750  68.494  1.00  0.00    -0.137 A  
HETATM    9  C   UNL     1      -9.755  14.748  67.662  1.00  0.00    -0.213 A  
HETATM   10  C   UNL     1      -9.068  15.911  68.027  1.00  0.00    -0.184 A  
HETATM   11  C   UNL     1      -7.127  17.061  68.856  1.00  0.00    -0.233 A  
HETATM   12  N   UNL     1      -9.398  17.256  68.036  1.00  0.00    -0.257 NA 
BRANCH  12  13
HETATM   13  C   UNL     1     -10.646  17.935  67.748  1.00  0.00    -0.389 C  
BRANCH  13  14
HETATM   14  C   UNL     1     -10.438  19.438  67.549  1.00  0.00    -0.577 C  
BRANCH  14  15
HETATM   15  C   UNL     1     -10.231  19.835  66.094  1.00  0.00    -0.516 C  
HETATM   16  O   UNL     1      -8.933  20.411  65.946  1.00  0.00    -0.587 OA 
HETATM   17  H   UNL     1      -8.803  20.658  65.037  1.00  0.00     0.000 HD 
ENDBRANCH  14  15
ENDBRANCH  13  14
ENDBRANCH  12  13
BRANCH   9  18
HETATM   18  C   UNL     1     -11.144  14.647  67.144  1.00  0.00    -0.326 C  
HETATM   19  N   UNL     1     -11.273  14.425  65.791  1.00  0.00    -0.320 N  
HETATM   20  O   UNL     1     -12.148  14.802  67.831  1.00  0.00    -0.288 OA 
HETATM   21  H2  UNL     1     -10.461  14.336  65.180  1.00  0.00     0.000 HD 
HETATM   22  H1  UNL     1     -12.227  14.356  65.436  1.00  0.00     0.000 HD 
ENDBRANCH   9  18
ENDBRANCH   3   4
ENDBRANCH   2   3
BRANCH   2  23
HETATM   23  N   UNL     1      -7.940  10.032  67.052  1.00  0.00    -0.106 NA 
HETATM   24  H   UNL     1      -8.186   9.812  68.016  1.00  0.00     0.000 HD 
BRANCH  23  25
HETATM   25  C   UNL     1      -9.147  10.086  66.210  1.00  0.00    -0.151 C  
BRANCH  25  26
HETATM   26  C   UNL     1     -10.462   9.802  66.968  1.00  0.00    -0.227 C  
BRANCH  26  27
HETATM   27  O   UNL     1     -10.238   9.358  68.313  1.00  0.00    -0.180 OA 
BRANCH  27  28
HETATM   28  C   UNL     1     -10.921  10.011  69.307  1.00  0.00    -0.228 A  
HETATM   29  C   UNL     1     -12.178   9.860  71.372  1.00  0.00    -0.499 A  
HETATM   30  C   UNL     1     -11.222  11.384  69.270  1.00  0.00    -0.342 A  
HETATM   31  C   UNL     1     -11.410   9.251  70.381  1.00  0.00    -0.242 A  
HETATM   32  C   UNL     1     -12.478  11.224  71.316  1.00  0.00    -0.441 A  
HETATM   33  C   UNL     1     -11.997  11.984  70.256  1.00  0.00    -0.398 A  
BRANCH  31  34
HETATM   34  O   UNL     1     -11.313   7.890  70.515  1.00  0.00    -0.273 OA 
BRANCH  34  35
HETATM   35  C   UNL     1     -10.359   7.401  71.466  1.00  0.00    -0.200 C  
HETATM   36  C   UNL     1     -10.971   6.414  72.453  1.00  0.00    -0.250 C  
HETATM   37  F   UNL     1     -12.237   6.061  72.145  1.00  0.00    -0.376 F  
HETATM   38  F   UNL     1     -10.236   5.280  72.532  1.00  0.00    -0.196 F  
HETATM   39  F   UNL     1     -11.000   6.948  73.704  1.00  0.00    -0.324 F  
ENDBRANCH  34  35
ENDBRANCH  31  34
ENDBRANCH  27  28
ENDBRANCH  26  27
ENDBRANCH  25  26
ENDBRANCH  23  25
ENDBRANCH   2  23
TORSDOF 13
ENDMDL
MODEL      179
REMARK 921   NORMALIZED FREE ENERGY PREDICTED BY IDOCK:   -4.81 KCAL/MOL
REMARK 922        TOTAL FREE ENERGY PREDICTED BY IDOCK:  -11.63 KCAL/MOL
REMARK 923 INTER-LIGAND FREE ENERGY PREDICTED BY IDOCK:   -8.71 KCAL/MOL
REMARK 924 INTRA-LIGAND FREE ENERGY PREDICTED BY IDOCK:   -2.92 KCAL/MOL
REMARK 927      BINDING AFFINITY PREDICTED BY RF-SCORE:    0.00 PKD
ROOT
HETATM    1  C   UNL     1      -8.057  14.635  67.019  1.00  0.00    -0.153 C  
HETATM    2  C   UNL     1      -7.813  14.130  68.447  1.00  0.00    -0.143 C  
ENDROOT
BRANCH   2   3
HETATM    3  C   UNL     1      -6.901  12.883  68.484  1.00  0.00    -0.095 C  
BRANCH   3   4
HETATM    4  C   UNL     1      -7.616  11.608  68.139  1.00  0.00    -0.115 A  
HETATM    5  C   UNL     1      -8.522  11.050  69.048  1.00  0.00    -0.082 A  
HETATM    6  C   UNL     1      -8.973   7.881  65.643  1.00  0.00    -0.030 A  
HETATM    7  C   UNL     1      -7.391  10.958  66.933  1.00  0.00    -0.128 A  
HETATM    8  C   UNL     1      -8.098   9.793  66.668  1.00  0.00    -0.116 A  
HETATM    9  C   UNL     1      -9.262   9.877  68.761  1.00  0.00    -0.147 A  
HETATM   10  C   UNL     1      -9.037   9.211  67.551  1.00  0.00    -0.124 A  
HETATM   11  C   UNL     1      -7.955   8.994  65.416  1.00  0.00    -0.111 A  
HETATM   12  N   UNL     1      -9.542   8.053  66.986  1.00  0.00    -0.180 NA 
BRANCH  12  13
HETATM   13  C   UNL     1     -10.586   7.151  67.429  1.00  0.00    -0.302 C  
BRANCH  13  14
HETATM   14  C   UNL     1     -10.032   6.047  68.334  1.00  0.00    -0.173 C  
BRANCH  14  15
HETATM   15  C   UNL     1     -10.864   5.817  69.588  1.00  0.00    -0.348 C  
HETATM   16  O   UNL     1     -12.043   6.620  69.522  1.00  0.00    -0.573 OA 
HETATM   17  H   UNL     1     -12.563   6.476  70.305  1.00  0.00     0.000 HD 
ENDBRANCH  14  15
ENDBRANCH  13  14
ENDBRANCH  12  13
BRANCH   9  18
HETATM   18  C   UNL     1     -10.190   9.476  69.850  1.00  0.00    -0.231 C  
HETATM   19  N   UNL     1     -11.534   9.555  69.563  1.00  0.00    -0.442 N  
HETATM   20  O   UNL     1      -9.829   9.143  70.974  1.00  0.00    -0.253 OA 
HETATM   21  H2  UNL     1     -11.873   9.871  68.654  1.00  0.00     0.000 HD 
HETATM   22  H1  UNL     1     -12.171   9.280  70.311  1.00  0.00     0.000 HD 
ENDBRANCH   9  18
ENDBRANCH   3   4
ENDBRANCH   2   3
BRANCH   2  23
HETATM   23  N   UNL     1      -9.120  13.865  69.075  1.00  0.00    -0.383 NA 
HETATM   24  H   UNL     1      -9.045  13.908  70.090  1.00  0.00     0.000 HD 
BRANCH  23  25
HETATM   25  C   UNL     1     -10.203  14.741  68.599  1.00  0.00    -0.236 C  
BRANCH  25  26
HETATM   26  C   UNL     1     -11.623  14.205  68.882  1.00  0.00    -0.310 C  
BRANCH  26  27
HETATM   27  O   UNL     1     -12.377  13.982  67.683  1.00  0.00    -0.274 OA 
BRANCH  27  28
HETATM   28  C   UNL     1     -11.709  13.430  66.619  1.00  0.00    -0.385 A  
HETATM   29  C   UNL     1     -10.781  13.729  64.402  1.00  0.00    -0.333 A  
HETATM   30  C   UNL     1     -11.397  12.063  66.523  1.00  0.00    -0.413 A  
HETATM   31  C   UNL     1     -11.387  14.265  65.537  1.00  0.00    -0.325 A  
HETATM   32  C   UNL     1     -10.486  12.366  64.317  1.00  0.00    -0.389 A  
HETATM   33  C   UNL     1     -10.801  11.533  65.384  1.00  0.00    -0.318 A  
BRANCH  31  34
HETATM   34  O   UNL     1     -11.722  15.588  65.412  1.00  0.00    -0.036 OA 
BRANCH  34  35
HETATM   35  C   UNL     1     -10.692  16.475  64.960  1.00  0.00    -0.209 C  
HETATM   36  C   UNL     1     -10.396  17.586  65.962  1.00  0.00    -0.306 C  
HETATM   37  F   UNL     1     -11.030  17.427  67.143  1.00  0.00    -0.270 F  
HETATM   38  F   UNL     1      -9.069  17.675  66.216  1.00  0.00    -0.268 F  
HETATM   39  F   UNL     1     -10.780  18.792  65.463  1.00  0.00    -0.505 F  
ENDBRANCH  34  35
ENDBRANCH  31  34
ENDBRANCH  27  28
ENDBRANCH  26  27
ENDBRANCH  25  26
ENDBRANCH  23  25
ENDBRANCH   2  23
TORSDOF 13
ENDMDL
MODEL      180
REMARK 921   NORMALIZED FREE ENERGY PREDICTED BY IDOCK:   -4.81 KCAL/MOL
REMARK 922        TOTAL FREE ENERGY PREDICTED BY IDOCK:  -11.63 KCAL/MOL
REMARK 923 INTER-LIGAND FREE ENERGY PREDICTED BY IDOCK:   -9.05 KCAL/MOL
REMARK 924 INTRA-LIGAND FREE ENERGY PREDICTED BY IDOCK:   -2.58 KCAL/MOL
REMARK 927      BINDING AFFINITY PREDICTED BY RF-SCORE:    0.00 PKD
ROOT
HETATM    1  C   UNL     1     -12.680  14.361  70.600  1.00  0.00    -0.421 C  
HETATM    2  C   UNL     1     -12.114  13.825  69.279  1.00  0.00    -0.329 C  
ENDROOT
BRANCH   2   3
HETATM    3  C   UNL     1     -11.807  12.311  69.342  1.00  0.00    -0.370 C  
BRANCH   3   4
HETATM    4  C   UNL     1     -10.849  11.850  68.280  1.00  0.00    -0.261 A  
HETATM    5  C   UNL     1     -11.132  12.097  66.933  1.00  0.00    -0.348 A  
HETATM    6  C   UNL     1      -7.025   9.942  66.358  1.00  0.00    -0.095 A  
HETATM    7  C   UNL     1      -9.684  11.170  68.607  1.00  0.00    -0.202 A  
HETATM    8  C   UNL     1      -8.831  10.788  67.580  1.00  0.00    -0.128 A  
HETATM    9  C   UNL     1     -10.245  11.730  65.890  1.00  0.00    -0.272 A  
HETATM   10  C   UNL     1      -9.072  11.039  66.209  1.00  0.00    -0.182 A  
HETATM   11  C   UNL     1      -7.548  10.054  67.786  1.00  0.00    -0.090 A  
HETATM   12  N   UNL     1      -8.035  10.512  65.458  1.00  0.00    -0.157 NA 
BRANCH  12  13
HETATM   13  C   UNL     1      -7.755  10.581  64.037  1.00  0.00     0.054 C  
BRANCH  13  14
HETATM   14  C   UNL     1      -6.953   9.367  63.560  1.00  0.00    -0.098 C  
BRANCH  14  15
HETATM   15  C   UNL     1      -7.825   8.198  63.125  1.00  0.00    -0.149 C  
HETATM   16  O   UNL     1      -8.437   7.615  64.277  1.00  0.00    -0.368 OA 
HETATM   17  H   UNL     1      -8.981   6.886  64.005  1.00  0.00     0.000 HD 
ENDBRANCH  14  15
ENDBRANCH  13  14
ENDBRANCH  12  13
BRANCH   9  18
HETATM   18  C   UNL     1     -10.725  12.114  64.537  1.00  0.00    -0.310 C  
HETATM   19  N   UNL     1     -10.375  13.373  64.103  1.00  0.00    -0.638 N  
HETATM   20  O   UNL     1     -11.441  11.409  63.835  1.00  0.00    -0.341 OA 
HETATM   21  H2  UNL     1      -9.818  14.005  64.678  1.00  0.00     0.000 HD 
HETATM   22  H1  UNL     1     -10.705  13.637  63.174  1.00  0.00     0.000 HD 
ENDBRANCH   9  18
ENDBRANCH   3   4
ENDBRANCH   2   3
BRANCH   2  23
HETATM   23  N   UNL     1     -10.914  14.608  68.936  1.00  0.00    -0.243 NA 
HETATM   24  H   UNL     1     -10.210  14.012  68.503  1.00  0.00     0.000 HD 
BRANCH  23  25
HETATM   25  C   UNL     1     -11.185  15.784  68.094  1.00  0.00    -0.344 C  
BRANCH  25  26
HETATM   26  C   UNL     1     -10.768  15.617  66.617  1.00  0.00    -0.296 C  
BRANCH  26  27
HETATM   27  O   UNL     1     -10.387  16.857  66.008  1.00  0.00    -0.338 OA 
BRANCH  27  28
HETATM   28  C   UNL     1      -9.678  17.740  66.782  1.00  0.00    -0.309 A  
HETATM   29  C   UNL     1      -7.574  18.313  67.836  1.00  0.00    -0.246 A  
HETATM   30  C   UNL     1     -10.261  18.839  67.438  1.00  0.00    -0.444 A  
HETATM   31  C   UNL     1      -8.313  17.487  66.991  1.00  0.00    -0.219 A  
HETATM   32  C   UNL     1      -8.169  19.395  68.489  1.00  0.00    -0.392 A  
HETATM   33  C   UNL     1      -9.520  19.653  68.289  1.00  0.00    -0.453 A  
BRANCH  31  34
HETATM   34  O   UNL     1      -7.615  16.402  66.529  1.00  0.00    -0.250 OA 
BRANCH  34  35
HETATM   35  C   UNL     1      -6.819  15.691  67.485  1.00  0.00    -0.191 C  
HETATM   36  C   UNL     1      -7.253  14.238  67.642  1.00  0.00    -0.183 C  
HETATM   37  F   UNL     1      -8.182  13.854  66.741  1.00  0.00    -0.156 F  
HETATM   38  F   UNL     1      -6.199  13.397  67.530  1.00  0.00    -0.144 F  
HETATM   39  F   UNL     1      -7.788  14.032  68.876  1.00  0.00    -0.132 F  
ENDBRANCH  34  35
ENDBRANCH  31  34
ENDBRANCH  27  28
ENDBRANCH  26  27
ENDBRANCH  25  26
ENDBRANCH  23  25
ENDBRANCH   2  23
TORSDOF 13
ENDMDL
MODEL      181
REMARK 921   NORMALIZED FREE ENERGY PREDICTED BY IDOCK:   -4.79 KCAL/MOL
REMARK 922        TOTAL FREE ENERGY PREDICTED BY IDOCK:  -11.60 KCAL/MOL
REMARK 923 INTER-LIGAND FREE ENERGY PREDICTED BY IDOCK:   -9.73 KCAL/MOL
REMARK 924 INTRA-LIGAND FREE ENERGY PREDICTED BY IDOCK:   -1.87 KCAL/MOL
REMARK 927      BINDING AFFINITY PREDICTED BY RF-SCORE:    0.00 PKD
ROOT
HETATM    1  C   UNL     1      -9.919   8.570  71.652  1.00  0.00    -0.329 C  
HETATM    2  C   UNL     1     -11.263   8.432  70.926  1.00  0.00    -0.262 C  
ENDROOT
BRANCH   2   3
HETATM    3  C   UNL     1     -12.382   9.261  71.595  1.00  0.00    -0.450 C  
BRANCH   3   4
HETATM    4  C   UNL     1     -12.386  10.706  71.183  1.00  0.00    -0.505 A  
HETATM    5  C   UNL     1     -11.609  11.121  70.096  1.00  0.00    -0.410 A  
HETATM    6  C   UNL     1     -13.519  15.253  71.155  1.00  0.00    -0.489 A  
HETATM    7  C   UNL     1     -13.142  11.649  71.865  1.00  0.00    -0.490 A  
HETATM    8  C   UNL     1     -13.116  12.964  71.422  1.00  0.00    -0.331 A  
HETATM    9  C   UNL     1     -11.607  12.459  69.630  1.00  0.00    -0.330 A  
HETATM   10  C   UNL     1     -12.361  13.418  70.316  1.00  0.00    -0.284 A  
HETATM   11  C   UNL     1     -13.878  14.078  72.059  1.00  0.00    -0.582 A  
HETATM   12  N   UNL     1     -12.549  14.780  70.159  1.00  0.00    -0.305 NA 
BRANCH  12  13
HETATM   13  C   UNL     1     -12.087  15.697  69.135  1.00  0.00    -0.227 C  
BRANCH  13  14
HETATM   14  C   UNL     1     -10.816  16.432  69.568  1.00  0.00    -0.338 C  
BRANCH  14  15
HETATM   15  C   UNL     1     -10.209  17.292  68.468  1.00  0.00    -0.358 C  
HETATM   16  O   UNL     1     -10.677  18.634  68.611  1.00  0.00    -0.320 OA 
HETATM   17  H   UNL     1     -10.298  19.170  67.924  1.00  0.00     0.000 HD 
ENDBRANCH  14  15
ENDBRANCH  13  14
ENDBRANCH  12  13
BRANCH   9  18
HETATM   18  C   UNL     1     -10.736  12.676  68.445  1.00  0.00    -0.242 C  
HETATM   19  N   UNL     1     -11.378  12.996  67.270  1.00  0.00    -0.290 N  
HETATM   20  O   UNL     1      -9.518  12.534  68.451  1.00  0.00    -0.214 OA 
HETATM   21  H2  UNL     1     -12.393  13.079  67.216  1.00  0.00     0.000 HD 
HETATM   22  H1  UNL     1     -10.780  13.145  66.457  1.00  0.00     0.000 HD 
ENDBRANCH   9  18
ENDBRANCH   3   4
ENDBRANCH   2   3
BRANCH   2  23
HETATM   23  N   UNL     1     -11.612   7.001  70.862  1.00  0.00    -0.311 NA 
HETATM   24  H   UNL     1     -12.537   6.841  71.260  1.00  0.00     0.000 HD 
BRANCH  23  25
HETATM   25  C   UNL     1     -11.521   6.421  69.513  1.00  0.00    -0.343 C  
BRANCH  25  26
HETATM   26  C   UNL     1     -10.320   5.471  69.311  1.00  0.00    -0.265 C  
BRANCH  26  27
HETATM   27  O   UNL     1      -9.275   6.062  68.528  1.00  0.00    -0.116 OA 
BRANCH  27  28
HETATM   28  C   UNL     1      -9.154   5.640  67.229  1.00  0.00    -0.110 A  
HETATM   29  C   UNL     1      -8.285   6.063  65.008  1.00  0.00    -0.136 A  
HETATM   30  C   UNL     1      -9.833   4.525  66.708  1.00  0.00    -0.242 A  
HETATM   31  C   UNL     1      -8.369   6.410  66.355  1.00  0.00    -0.119 A  
HETATM   32  C   UNL     1      -8.974   4.958  64.503  1.00  0.00    -0.096 A  
HETATM   33  C   UNL     1      -9.753   4.190  65.361  1.00  0.00    -0.201 A  
BRANCH  31  34
HETATM   34  O   UNL     1      -7.739   7.587  66.664  1.00  0.00    -0.097 OA 
BRANCH  34  35
HETATM   35  C   UNL     1      -7.960   8.691  65.776  1.00  0.00    -0.106 C  
HETATM   36  C   UNL     1      -9.153   9.545  66.193  1.00  0.00    -0.166 C  
HETATM   37  F   UNL     1      -9.664   9.205  67.395  1.00  0.00    -0.163 F  
HETATM   38  F   UNL     1      -8.823  10.856  66.241  1.00  0.00    -0.155 F  
HETATM   39  F   UNL     1     -10.161   9.429  65.285  1.00  0.00    -0.349 F  
ENDBRANCH  34  35
ENDBRANCH  31  34
ENDBRANCH  27  28
ENDBRANCH  26  27
ENDBRANCH  25  26
ENDBRANCH  23  25
ENDBRANCH   2  23
TORSDOF 13
ENDMDL
MODEL      182
REMARK 921   NORMALIZED FREE ENERGY PREDICTED BY IDOCK:   -4.78 KCAL/MOL
REMARK 922        TOTAL FREE ENERGY PREDICTED BY IDOCK:  -11.59 KCAL/MOL
REMARK 923 INTER-LIGAND FREE ENERGY PREDICTED BY IDOCK:   -8.35 KCAL/MOL
REMARK 924 INTRA-LIGAND FREE ENERGY PREDICTED BY IDOCK:   -3.23 KCAL/MOL
REMARK 927      BINDING AFFINITY PREDICTED BY RF-SCORE:    0.00 PKD
ROOT
HETATM    1  C   UNL     1     -12.151  12.346  70.286  1.00  0.00    -0.377 C  
HETATM    2  C   UNL     1     -11.568  12.775  68.934  1.00  0.00    -0.316 C  
ENDROOT
BRANCH   2   3
HETATM    3  C   UNL     1     -11.994  14.207  68.537  1.00  0.00    -0.367 C  
BRANCH   3   4
HETATM    4  C   UNL     1     -10.872  15.204  68.597  1.00  0.00    -0.245 A  
HETATM    5  C   UNL     1      -9.555  14.761  68.761  1.00  0.00    -0.215 A  
HETATM    6  C   UNL     1      -8.678  19.345  68.514  1.00  0.00    -0.367 A  
HETATM    7  C   UNL     1     -11.113  16.568  68.503  1.00  0.00    -0.335 A  
HETATM    8  C   UNL     1     -10.029  17.435  68.548  1.00  0.00    -0.331 A  
HETATM    9  C   UNL     1      -8.450  15.648  68.777  1.00  0.00    -0.192 A  
HETATM   10  C   UNL     1      -8.684  17.024  68.690  1.00  0.00    -0.261 A  
HETATM   11  C   UNL     1     -10.142  18.921  68.458  1.00  0.00    -0.460 A  
HETATM   12  N   UNL     1      -7.864  18.139  68.713  1.00  0.00    -0.286 NA 
BRANCH  12  13
HETATM   13  C   UNL     1      -6.420  18.262  68.743  1.00  0.00    -0.225 C  
BRANCH  13  14
HETATM   14  C   UNL     1      -5.916  19.269  67.706  1.00  0.00    -0.211 C  
BRANCH  14  15
HETATM   15  C   UNL     1      -5.616  18.644  66.351  1.00  0.00    -0.151 C  
HETATM   16  O   UNL     1      -6.116  17.306  66.331  1.00  0.00    -0.201 OA 
HETATM   17  H   UNL     1      -5.929  16.917  65.484  1.00  0.00     0.000 HD 
ENDBRANCH  14  15
ENDBRANCH  13  14
ENDBRANCH  12  13
BRANCH   9  18
HETATM   18  C   UNL     1      -7.139  14.964  68.930  1.00  0.00    -0.117 C  
HETATM   19  N   UNL     1      -6.870  14.439  70.174  1.00  0.00    -0.388 N  
HETATM   20  O   UNL     1      -6.291  14.898  68.047  1.00  0.00    -0.124 OA 
HETATM   21  H2  UNL     1      -7.532  14.515  70.945  1.00  0.00     0.000 HD 
HETATM   22  H1  UNL     1      -5.970  13.970  70.279  1.00  0.00     0.000 HD 
ENDBRANCH   9  18
ENDBRANCH   3   4
ENDBRANCH   2   3
BRANCH   2  23
HETATM   23  N   UNL     1     -11.975  11.787  67.918  1.00  0.00    -0.597 NA 
HETATM   24  H   UNL     1     -12.980  11.622  67.963  1.00  0.00     0.000 HD 
BRANCH  23  25
HETATM   25  C   UNL     1     -11.567  12.135  66.547  1.00  0.00    -0.359 C  
BRANCH  25  26
HETATM   26  C   UNL     1     -10.054  11.991  66.279  1.00  0.00    -0.222 C  
BRANCH  26  27
HETATM   27  O   UNL     1      -9.496  10.817  66.885  1.00  0.00    -0.165 OA 
BRANCH  27  28
HETATM   28  C   UNL     1      -8.251  10.939  67.449  1.00  0.00    -0.117 A  
HETATM   29  C   UNL     1      -6.900  10.913  69.459  1.00  0.00    -0.125 A  
HETATM   30  C   UNL     1      -7.110  11.342  66.734  1.00  0.00    -0.132 A  
HETATM   31  C   UNL     1      -8.130  10.721  68.831  1.00  0.00    -0.145 A  
HETATM   32  C   UNL     1      -5.777  11.324  68.737  1.00  0.00    -0.042 A  
HETATM   33  C   UNL     1      -5.889  11.541  67.369  1.00  0.00    -0.081 A  
BRANCH  31  34
HETATM   34  O   UNL     1      -9.155  10.441  69.696  1.00  0.00    -0.163 OA 
BRANCH  34  35
HETATM   35  C   UNL     1      -9.170   9.132  70.278  1.00  0.00    -0.218 C  
HETATM   36  C   UNL     1     -10.341   8.287  69.785  1.00  0.00    -0.216 C  
HETATM   37  F   UNL     1     -11.034   8.863  68.781  1.00  0.00    -0.196 F  
HETATM   38  F   UNL     1      -9.922   7.074  69.354  1.00  0.00    -0.157 F  
HETATM   39  F   UNL     1     -11.221   8.059  70.797  1.00  0.00    -0.250 F  
ENDBRANCH  34  35
ENDBRANCH  31  34
ENDBRANCH  27  28
ENDBRANCH  26  27
ENDBRANCH  25  26
ENDBRANCH  23  25
ENDBRANCH   2  23
TORSDOF 13
ENDMDL
MODEL      183
REMARK 921   NORMALIZED FREE ENERGY PREDICTED BY IDOCK:   -4.78 KCAL/MOL
REMARK 922        TOTAL FREE ENERGY PREDICTED BY IDOCK:  -11.57 KCAL/MOL
REMARK 923 INTER-LIGAND FREE ENERGY PREDICTED BY IDOCK:   -8.14 KCAL/MOL
REMARK 924 INTRA-LIGAND FREE ENERGY PREDICTED BY IDOCK:   -3.44 KCAL/MOL
REMARK 927      BINDING AFFINITY PREDICTED BY RF-SCORE:    0.00 PKD
ROOT
HETATM    1  C   UNL     1     -13.113  10.810  71.570  1.00  0.00    -0.517 C  
HETATM    2  C   UNL     1     -11.945  10.174  70.806  1.00  0.00    -0.348 C  
ENDROOT
BRANCH   2   3
HETATM    3  C   UNL     1     -11.024   9.341  71.725  1.00  0.00    -0.383 C  
BRANCH   3   4
HETATM    4  C   UNL     1      -9.985   8.553  70.978  1.00  0.00    -0.255 A  
HETATM    5  C   UNL     1     -10.329   7.333  70.386  1.00  0.00    -0.217 A  
HETATM    6  C   UNL     1      -5.846   7.460  69.071  1.00  0.00    -0.022 A  
HETATM    7  C   UNL     1      -8.678   9.006  70.868  1.00  0.00    -0.280 A  
HETATM    8  C   UNL     1      -7.771   8.240  70.148  1.00  0.00    -0.084 A  
HETATM    9  C   UNL     1      -9.408   6.569  69.628  1.00  0.00    -0.144 A  
HETATM   10  C   UNL     1      -8.086   7.014  69.518  1.00  0.00    -0.130 A  
HETATM   11  C   UNL     1      -6.337   8.606  69.950  1.00  0.00    -0.038 A  
HETATM   12  N   UNL     1      -6.953   6.509  68.905  1.00  0.00    -0.076 NA 
BRANCH  12  13
HETATM   13  C   UNL     1      -6.762   5.348  68.057  1.00  0.00    -0.055 C  
BRANCH  13  14
HETATM   14  C   UNL     1      -6.679   5.736  66.579  1.00  0.00    -0.057 C  
BRANCH  14  15
HETATM   15  C   UNL     1      -7.930   5.379  65.787  1.00  0.00    -0.106 C  
HETATM   16  O   UNL     1      -8.401   4.098  66.209  1.00  0.00    -0.104 OA 
HETATM   17  H   UNL     1      -9.182   3.875  65.715  1.00  0.00     0.000 HD 
ENDBRANCH  14  15
ENDBRANCH  13  14
ENDBRANCH  12  13
BRANCH   9  18
HETATM   18  C   UNL     1      -9.989   5.324  69.062  1.00  0.00    -0.189 C  
HETATM   19  N   UNL     1      -9.783   4.173  69.789  1.00  0.00    -0.215 N  
HETATM   20  O   UNL     1     -10.576   5.265  67.987  1.00  0.00    -0.127 OA 
HETATM   21  H2  UNL     1      -9.261   4.175  70.665  1.00  0.00     0.000 HD 
HETATM   22  H1  UNL     1     -10.182   3.318  69.400  1.00  0.00     0.000 HD 
ENDBRANCH   9  18
ENDBRANCH   3   4
ENDBRANCH   2   3
BRANCH   2  23
HETATM   23  N   UNL     1     -11.201  11.245  70.119  1.00  0.00    -0.490 NA 
HETATM   24  H   UNL     1     -10.963  10.963  69.169  1.00  0.00     0.000 HD 
BRANCH  23  25
HETATM   25  C   UNL     1     -11.890  12.546  70.115  1.00  0.00    -0.258 C  
BRANCH  25  26
HETATM   26  C   UNL     1     -11.957  13.223  68.729  1.00  0.00    -0.300 C  
BRANCH  26  27
HETATM   27  O   UNL     1     -11.370  12.422  67.696  1.00  0.00    -0.271 OA 
BRANCH  27  28
HETATM   28  C   UNL     1     -11.541  12.850  66.403  1.00  0.00    -0.371 A  
HETATM   29  C   UNL     1     -10.790  12.771  64.101  1.00  0.00    -0.437 A  
HETATM   30  C   UNL     1     -12.452  13.854  66.031  1.00  0.00    -0.501 A  
HETATM   31  C   UNL     1     -10.706  12.307  65.413  1.00  0.00    -0.284 A  
HETATM   32  C   UNL     1     -11.693  13.777  63.749  1.00  0.00    -0.219 A  
HETATM   33  C   UNL     1     -12.524  14.320  64.723  1.00  0.00    -0.390 A  
BRANCH  31  34
HETATM   34  O   UNL     1      -9.688  11.412  65.619  1.00  0.00    -0.216 OA 
BRANCH  34  35
HETATM   35  C   UNL     1     -10.033  10.022  65.586  1.00  0.00    -0.285 C  
HETATM   36  C   UNL     1      -9.678   9.301  66.882  1.00  0.00    -0.190 C  
HETATM   37  F   UNL     1      -9.269  10.132  67.864  1.00  0.00    -0.135 F  
HETATM   38  F   UNL     1     -10.732   8.595  67.353  1.00  0.00    -0.326 F  
HETATM   39  F   UNL     1      -8.673   8.409  66.670  1.00  0.00    -0.116 F  
ENDBRANCH  34  35
ENDBRANCH  31  34
ENDBRANCH  27  28
ENDBRANCH  26  27
ENDBRANCH  25  26
ENDBRANCH  23  25
ENDBRANCH   2  23
TORSDOF 13
ENDMDL
MODEL      184
REMARK 921   NORMALIZED FREE ENERGY PREDICTED BY IDOCK:   -4.74 KCAL/MOL
REMARK 922        TOTAL FREE ENERGY PREDICTED BY IDOCK:  -11.50 KCAL/MOL
REMARK 923 INTER-LIGAND FREE ENERGY PREDICTED BY IDOCK:   -9.29 KCAL/MOL
REMARK 924 INTRA-LIGAND FREE ENERGY PREDICTED BY IDOCK:   -2.21 KCAL/MOL
REMARK 927      BINDING AFFINITY PREDICTED BY RF-SCORE:    0.00 PKD
ROOT
HETATM    1  C   UNL     1      -8.901  11.778  63.235  1.00  0.00     0.423 C  
HETATM    2  C   UNL     1      -9.558  11.003  64.384  1.00  0.00    -0.259 C  
ENDROOT
BRANCH   2   3
HETATM    3  C   UNL     1      -9.165   9.509  64.387  1.00  0.00    -0.192 C  
BRANCH   3   4
HETATM    4  C   UNL     1      -9.336   8.846  65.724  1.00  0.00    -0.286 A  
HETATM    5  C   UNL     1      -9.834   9.581  66.806  1.00  0.00    -0.277 A  
HETATM    6  C   UNL     1      -9.333   5.473  68.978  1.00  0.00    -0.121 A  
HETATM    7  C   UNL     1      -9.000   7.514  65.918  1.00  0.00    -0.128 A  
HETATM    8  C   UNL     1      -9.200   6.957  67.174  1.00  0.00    -0.153 A  
HETATM    9  C   UNL     1     -10.063   9.001  68.079  1.00  0.00    -0.234 A  
HETATM   10  C   UNL     1      -9.721   7.660  68.284  1.00  0.00    -0.157 A  
HETATM   11  C   UNL     1      -8.884   5.540  67.522  1.00  0.00    -0.105 A  
HETATM   12  N   UNL     1      -9.773   6.815  69.379  1.00  0.00    -0.152 NA 
BRANCH  12  13
HETATM   13  C   UNL     1     -10.308   7.012  70.712  1.00  0.00    -0.206 C  
BRANCH  13  14
HETATM   14  C   UNL     1     -11.825   6.814  70.748  1.00  0.00    -0.446 C  
BRANCH  14  15
HETATM   15  C   UNL     1     -12.495   7.478  71.943  1.00  0.00    -0.303 C  
HETATM   16  O   UNL     1     -12.696   8.863  71.658  1.00  0.00    -0.319 OA 
HETATM   17  H   UNL     1     -13.114   9.277  72.404  1.00  0.00     0.000 HD 
ENDBRANCH  14  15
ENDBRANCH  13  14
ENDBRANCH  12  13
BRANCH   9  18
HETATM   18  C   UNL     1     -10.624   9.951  69.074  1.00  0.00    -0.220 C  
HETATM   19  N   UNL     1     -11.945  10.300  68.902  1.00  0.00    -0.477 N  
HETATM   20  O   UNL     1      -9.975  10.464  69.978  1.00  0.00    -0.156 OA 
HETATM   21  H2  UNL     1     -12.505   9.929  68.135  1.00  0.00     0.000 HD 
HETATM   22  H1  UNL     1     -12.331  10.953  69.585  1.00  0.00     0.000 HD 
ENDBRANCH   9  18
ENDBRANCH   3   4
ENDBRANCH   2   3
BRANCH   2  23
HETATM   23  N   UNL     1     -11.018  11.180  64.288  1.00  0.00    -0.346 NA 
HETATM   24  H   UNL     1     -11.438  11.196  65.217  1.00  0.00     0.000 HD 
BRANCH  23  25
HETATM   25  C   UNL     1     -11.430  12.362  63.513  1.00  0.00    -0.483 C  
BRANCH  25  26
HETATM   26  C   UNL     1     -12.017  13.507  64.367  1.00  0.00    -0.422 C  
BRANCH  26  27
HETATM   27  O   UNL     1     -11.029  14.473  64.748  1.00  0.00    -0.390 OA 
BRANCH  27  28
HETATM   28  C   UNL     1     -10.736  14.569  66.085  1.00  0.00    -0.310 A  
HETATM   29  C   UNL     1      -9.881  15.921  67.904  1.00  0.00    -0.218 A  
HETATM   30  C   UNL     1     -10.805  13.484  66.976  1.00  0.00    -0.287 A  
HETATM   31  C   UNL     1     -10.267  15.801  66.570  1.00  0.00    -0.286 A  
HETATM   32  C   UNL     1      -9.946  14.830  68.775  1.00  0.00    -0.234 A  
HETATM   33  C   UNL     1     -10.408  13.608  68.303  1.00  0.00    -0.251 A  
BRANCH  31  34
HETATM   34  O   UNL     1     -10.025  16.923  65.821  1.00  0.00    -0.510 OA 
BRANCH  34  35
HETATM   35  C   UNL     1     -10.627  18.142  66.271  1.00  0.00    -0.274 C  
HETATM   36  C   UNL     1      -9.606  19.255  66.482  1.00  0.00    -0.363 C  
HETATM   37  F   UNL     1      -8.368  18.937  66.049  1.00  0.00    -0.301 F  
HETATM   38  F   UNL     1      -9.984  20.392  65.852  1.00  0.00    -0.508 F  
HETATM   39  F   UNL     1      -9.499  19.558  67.805  1.00  0.00    -0.345 F  
ENDBRANCH  34  35
ENDBRANCH  31  34
ENDBRANCH  27  28
ENDBRANCH  26  27
ENDBRANCH  25  26
ENDBRANCH  23  25
ENDBRANCH   2  23
TORSDOF 13
ENDMDL
MODEL      185
REMARK 921   NORMALIZED FREE ENERGY PREDICTED BY IDOCK:   -4.72 KCAL/MOL
REMARK 922        TOTAL FREE ENERGY PREDICTED BY IDOCK:  -11.48 KCAL/MOL
REMARK 923 INTER-LIGAND FREE ENERGY PREDICTED BY IDOCK:   -9.84 KCAL/MOL
REMARK 924 INTRA-LIGAND FREE ENERGY PREDICTED BY IDOCK:   -1.64 KCAL/MOL
REMARK 927      BINDING AFFINITY PREDICTED BY RF-SCORE:    0.00 PKD
ROOT
HETATM    1  C   UNL     1     -12.880  13.815  65.705  1.00  0.00    -0.456 C  
HETATM    2  C   UNL     1     -11.635  14.386  66.397  1.00  0.00    -0.375 C  
ENDROOT
BRANCH   2   3
HETATM    3  C   UNL     1     -10.600  14.933  65.388  1.00  0.00    -0.391 C  
BRANCH   3   4
HETATM    4  C   UNL     1      -9.641  15.920  65.990  1.00  0.00    -0.385 A  
HETATM    5  C   UNL     1     -10.032  17.252  66.167  1.00  0.00    -0.288 A  
HETATM    6  C   UNL     1      -5.727  17.589  67.955  1.00  0.00    -0.144 A  
HETATM    7  C   UNL     1      -8.361  15.542  66.370  1.00  0.00    -0.153 A  
HETATM    8  C   UNL     1      -7.529  16.499  66.938  1.00  0.00    -0.256 A  
HETATM    9  C   UNL     1      -9.190  18.218  66.772  1.00  0.00    -0.288 A  
HETATM   10  C   UNL     1      -7.896  17.847  67.152  1.00  0.00    -0.208 A  
HETATM   11  C   UNL     1      -6.133  16.231  67.392  1.00  0.00    -0.197 A  
HETATM   12  N   UNL     1      -6.832  18.528  67.718  1.00  0.00    -0.211 NA 
BRANCH  12  13
HETATM   13  C   UNL     1      -6.721  19.885  68.214  1.00  0.00    -0.288 C  
BRANCH  13  14
HETATM   14  C   UNL     1      -6.698  19.928  69.744  1.00  0.00    -0.311 C  
BRANCH  14  15
HETATM   15  C   UNL     1      -5.464  20.614  70.313  1.00  0.00    -0.295 C  
HETATM   16  O   UNL     1      -5.439  20.435  71.730  1.00  0.00    -0.473 OA 
HETATM   17  H   UNL     1      -4.669  20.864  72.084  1.00  0.00     0.000 HD 
ENDBRANCH  14  15
ENDBRANCH  13  14
ENDBRANCH  12  13
BRANCH   9  18
HETATM   18  C   UNL     1      -9.814  19.562  66.890  1.00  0.00    -0.369 C  
HETATM   19  N   UNL     1     -10.000  20.249  65.712  1.00  0.00    -0.582 N  
HETATM   20  O   UNL     1     -10.109  20.092  67.955  1.00  0.00    -0.409 OA 
HETATM   21  H2  UNL     1      -9.726  19.859  64.811  1.00  0.00     0.000 HD 
HETATM   22  H1  UNL     1     -10.429  21.172  65.793  1.00  0.00     0.000 HD 
ENDBRANCH   9  18
ENDBRANCH   3   4
ENDBRANCH   2   3
BRANCH   2  23
HETATM   23  N   UNL     1     -11.057  13.335  67.252  1.00  0.00    -0.272 NA 
HETATM   24  H   UNL     1     -10.713  13.734  68.125  1.00  0.00     0.000 HD 
BRANCH  23  25
HETATM   25  C   UNL     1     -11.968  12.210  67.521  1.00  0.00    -0.105 C  
BRANCH  25  26
HETATM   26  C   UNL     1     -11.707  11.489  68.860  1.00  0.00    -0.339 C  
BRANCH  26  27
HETATM   27  O   UNL     1     -10.402  10.899  68.924  1.00  0.00    -0.188 OA 
BRANCH  27  28
HETATM   28  C   UNL     1     -10.340   9.540  69.101  1.00  0.00    -0.207 A  
HETATM   29  C   UNL     1     -10.494   7.334  68.113  1.00  0.00    -0.244 A  
HETATM   30  C   UNL     1     -10.229   8.926  70.361  1.00  0.00    -0.236 A  
HETATM   31  C   UNL     1     -10.470   8.720  67.969  1.00  0.00    -0.204 A  
HETATM   32  C   UNL     1     -10.394   6.738  69.373  1.00  0.00    -0.221 A  
HETATM   33  C   UNL     1     -10.264   7.542  70.499  1.00  0.00    -0.201 A  
BRANCH  31  34
HETATM   34  O   UNL     1     -10.705   9.147  66.688  1.00  0.00    -0.145 OA 
BRANCH  34  35
HETATM   35  C   UNL     1      -9.559   9.508  65.907  1.00  0.00    -0.261 C  
HETATM   36  C   UNL     1      -9.891  10.521  64.816  1.00  0.00    -0.323 C  
HETATM   37  F   UNL     1     -11.147  11.008  64.900  1.00  0.00    -0.309 F  
HETATM   38  F   UNL     1      -9.038  11.572  64.849  1.00  0.00    -0.177 F  
HETATM   39  F   UNL     1      -9.764   9.953  63.586  1.00  0.00    -0.329 F  
ENDBRANCH  34  35
ENDBRANCH  31  34
ENDBRANCH  27  28
ENDBRANCH  26  27
ENDBRANCH  25  26
ENDBRANCH  23  25
ENDBRANCH   2  23
TORSDOF 13
ENDMDL
MODEL      186
REMARK 921   NORMALIZED FREE ENERGY PREDICTED BY IDOCK:   -4.71 KCAL/MOL
REMARK 922        TOTAL FREE ENERGY PREDICTED BY IDOCK:  -11.46 KCAL/MOL
REMARK 923 INTER-LIGAND FREE ENERGY PREDICTED BY IDOCK:   -9.48 KCAL/MOL
REMARK 924 INTRA-LIGAND FREE ENERGY PREDICTED BY IDOCK:   -1.98 KCAL/MOL
REMARK 927      BINDING AFFINITY PREDICTED BY RF-SCORE:    0.00 PKD
ROOT
HETATM    1  C   UNL     1     -12.035  13.584  66.931  1.00  0.00    -0.447 C  
HETATM    2  C   UNL     1     -10.939  13.218  67.940  1.00  0.00    -0.249 C  
ENDROOT
BRANCH   2   3
HETATM    3  C   UNL     1     -10.896  14.189  69.142  1.00  0.00    -0.254 C  
BRANCH   3   4
HETATM    4  C   UNL     1      -9.990  15.368  68.927  1.00  0.00    -0.219 A  
HETATM    5  C   UNL     1     -10.463  16.495  68.247  1.00  0.00    -0.313 A  
HETATM    6  C   UNL     1      -6.147  18.041  69.156  1.00  0.00    -0.232 A  
HETATM    7  C   UNL     1      -8.678  15.361  69.381  1.00  0.00    -0.252 A  
HETATM    8  C   UNL     1      -7.899  16.490  69.166  1.00  0.00    -0.192 A  
HETATM    9  C   UNL     1      -9.673  17.656  68.056  1.00  0.00    -0.301 A  
HETATM   10  C   UNL     1      -8.348  17.656  68.504  1.00  0.00    -0.291 A  
HETATM   11  C   UNL     1      -6.477  16.620  69.601  1.00  0.00    -0.195 A  
HETATM   12  N   UNL     1      -7.317  18.578  68.448  1.00  0.00    -0.274 NA 
BRANCH  12  13
HETATM   13  C   UNL     1      -7.285  19.945  67.969  1.00  0.00    -0.292 C  
BRANCH  13  14
HETATM   14  C   UNL     1      -6.284  20.120  66.823  1.00  0.00    -0.208 C  
BRANCH  14  15
HETATM   15  C   UNL     1      -6.873  19.816  65.453  1.00  0.00    -0.291 C  
HETATM   16  O   UNL     1      -7.321  18.460  65.426  1.00  0.00    -0.521 OA 
HETATM   17  H   UNL     1      -7.689  18.270  64.570  1.00  0.00     0.000 HD 
ENDBRANCH  14  15
ENDBRANCH  13  14
ENDBRANCH  12  13
BRANCH   9  18
HETATM   18  C   UNL     1     -10.381  18.747  67.337  1.00  0.00    -0.418 C  
HETATM   19  N   UNL     1     -10.490  18.604  65.972  1.00  0.00    -0.458 N  
HETATM   20  O   UNL     1     -10.809  19.761  67.877  1.00  0.00    -0.327 OA 
HETATM   21  H2  UNL     1     -10.107  17.796  65.483  1.00  0.00     0.000 HD 
HETATM   22  H1  UNL     1     -10.976  19.354  65.479  1.00  0.00     0.000 HD 
ENDBRANCH   9  18
ENDBRANCH   3   4
ENDBRANCH   2   3
BRANCH   2  23
HETATM   23  N   UNL     1      -9.649  13.176  67.230  1.00  0.00    -0.226 NA 
HETATM   24  H   UNL     1      -9.030  13.912  67.569  1.00  0.00     0.000 HD 
BRANCH  23  25
HETATM   25  C   UNL     1      -8.975  11.868  67.285  1.00  0.00    -0.176 C  
BRANCH  25  26
HETATM   26  C   UNL     1      -8.800  11.305  68.712  1.00  0.00    -0.102 C  
BRANCH  26  27
HETATM   27  O   UNL     1      -8.865   9.873  68.751  1.00  0.00    -0.126 OA 
BRANCH  27  28
HETATM   28  C   UNL     1      -8.621   9.271  69.959  1.00  0.00    -0.182 A  
HETATM   29  C   UNL     1      -9.520   8.183  71.928  1.00  0.00    -0.260 A  
HETATM   30  C   UNL     1      -7.352   9.232  70.565  1.00  0.00    -0.120 A  
HETATM   31  C   UNL     1      -9.711   8.732  70.660  1.00  0.00    -0.197 A  
HETATM   32  C   UNL     1      -8.256   8.162  72.521  1.00  0.00    -0.215 A  
HETATM   33  C   UNL     1      -7.171   8.693  71.833  1.00  0.00    -0.092 A  
BRANCH  31  34
HETATM   34  O   UNL     1     -11.025   8.790  70.275  1.00  0.00    -0.237 OA 
BRANCH  34  35
HETATM   35  C   UNL     1     -11.881   9.659  71.027  1.00  0.00    -0.347 C  
HETATM   36  C   UNL     1     -13.022   8.909  71.706  1.00  0.00    -0.367 C  
HETATM   37  F   UNL     1     -12.915   7.567  71.613  1.00  0.00    -0.330 F  
HETATM   38  F   UNL     1     -13.102   9.226  73.020  1.00  0.00    -0.391 F  
HETATM   39  F   UNL     1     -14.215   9.252  71.149  1.00  0.00    -0.379 F  
ENDBRANCH  34  35
ENDBRANCH  31  34
ENDBRANCH  27  28
ENDBRANCH  26  27
ENDBRANCH  25  26
ENDBRANCH  23  25
ENDBRANCH   2  23
TORSDOF 13
ENDMDL
MODEL      187
REMARK 921   NORMALIZED FREE ENERGY PREDICTED BY IDOCK:   -4.71 KCAL/MOL
REMARK 922        TOTAL FREE ENERGY PREDICTED BY IDOCK:  -11.46 KCAL/MOL
REMARK 923 INTER-LIGAND FREE ENERGY PREDICTED BY IDOCK:   -9.13 KCAL/MOL
REMARK 924 INTRA-LIGAND FREE ENERGY PREDICTED BY IDOCK:   -2.33 KCAL/MOL
REMARK 927      BINDING AFFINITY PREDICTED BY RF-SCORE:    0.00 PKD
ROOT
HETATM    1  C   UNL     1     -12.687   6.597  72.183  1.00  0.00    -0.122 C  
HETATM    2  C   UNL     1     -12.014   6.962  70.854  1.00  0.00    -0.381 C  
ENDROOT
BRANCH   2   3
HETATM    3  C   UNL     1     -10.538   6.506  70.797  1.00  0.00    -0.278 C  
BRANCH   3   4
HETATM    4  C   UNL     1      -9.946   6.565  69.418  1.00  0.00    -0.178 A  
HETATM    5  C   UNL     1     -10.213   5.543  68.501  1.00  0.00    -0.250 A  
HETATM    6  C   UNL     1      -7.538   8.210  65.749  1.00  0.00    -0.082 A  
HETATM    7  C   UNL     1      -9.124   7.615  69.030  1.00  0.00    -0.144 A  
HETATM    8  C   UNL     1      -8.624   7.619  67.735  1.00  0.00    -0.121 A  
HETATM    9  C   UNL     1      -9.723   5.566  67.171  1.00  0.00    -0.155 A  
HETATM   10  C   UNL     1      -8.889   6.617  66.774  1.00  0.00    -0.130 A  
HETATM   11  C   UNL     1      -7.732   8.682  67.186  1.00  0.00    -0.096 A  
HETATM   12  N   UNL     1      -8.225   6.921  65.598  1.00  0.00    -0.129 NA 
BRANCH  12  13
HETATM   13  C   UNL     1      -8.242   6.279  64.299  1.00  0.00    -0.021 C  
BRANCH  13  14
HETATM   14  C   UNL     1      -7.201   5.160  64.207  1.00  0.00    -0.054 C  
BRANCH  14  15
HETATM   15  C   UNL     1      -7.745   3.875  63.598  1.00  0.00    -0.074 C  
HETATM   16  O   UNL     1      -7.617   2.816  64.547  1.00  0.00    -0.073 OA 
HETATM   17  H   UNL     1      -7.957   2.014  64.167  1.00  0.00     0.000 HD 
ENDBRANCH  14  15
ENDBRANCH  13  14
ENDBRANCH  12  13
BRANCH   9  18
HETATM   18  C   UNL     1     -10.152   4.399  66.358  1.00  0.00    -0.209 C  
HETATM   19  N   UNL     1      -9.592   3.187  66.693  1.00  0.00    -0.408 N  
HETATM   20  O   UNL     1     -10.912   4.471  65.398  1.00  0.00    -0.256 OA 
HETATM   21  H2  UNL     1      -8.922   3.096  67.456  1.00  0.00     0.000 HD 
HETATM   22  H1  UNL     1      -9.886   2.385  66.135  1.00  0.00     0.000 HD 
ENDBRANCH   9  18
ENDBRANCH   3   4
ENDBRANCH   2   3
BRANCH   2  23
HETATM   23  N   UNL     1     -12.140   8.416  70.654  1.00  0.00    -0.493 NA 
HETATM   24  H   UNL     1     -12.886   8.622  69.990  1.00  0.00     0.000 HD 
BRANCH  23  25
HETATM   25  C   UNL     1     -12.330   9.179  71.898  1.00  0.00    -0.385 C  
BRANCH  25  26
HETATM   26  C   UNL     1     -13.062  10.526  71.711  1.00  0.00    -0.464 C  
BRANCH  26  27
HETATM   27  O   UNL     1     -12.329  11.441  70.885  1.00  0.00    -0.379 OA 
BRANCH  27  28
HETATM   28  C   UNL     1     -12.641  12.772  71.001  1.00  0.00    -0.271 A  
HETATM   29  C   UNL     1     -12.289  15.036  70.216  1.00  0.00    -0.392 A  
HETATM   30  C   UNL     1     -13.443  13.295  72.031  1.00  0.00    -0.596 A  
HETATM   31  C   UNL     1     -12.064  13.667  70.086  1.00  0.00    -0.361 A  
HETATM   32  C   UNL     1     -13.080  15.542  71.251  1.00  0.00    -0.581 A  
HETATM   33  C   UNL     1     -13.655  14.663  72.161  1.00  0.00    -0.514 A  
BRANCH  31  34
HETATM   34  O   UNL     1     -11.168  13.345  69.100  1.00  0.00    -0.255 OA 
BRANCH  34  35
HETATM   35  C   UNL     1     -11.674  12.600  67.985  1.00  0.00    -0.350 C  
HETATM   36  C   UNL     1     -10.912  11.299  67.758  1.00  0.00    -0.252 C  
HETATM   37  F   UNL     1     -10.029  11.015  68.739  1.00  0.00    -0.178 F  
HETATM   38  F   UNL     1     -11.759  10.248  67.651  1.00  0.00    -0.270 F  
HETATM   39  F   UNL     1     -10.210  11.355  66.594  1.00  0.00    -0.226 F  
ENDBRANCH  34  35
ENDBRANCH  31  34
ENDBRANCH  27  28
ENDBRANCH  26  27
ENDBRANCH  25  26
ENDBRANCH  23  25
ENDBRANCH   2  23
TORSDOF 13
ENDMDL
MODEL      188
REMARK 921   NORMALIZED FREE ENERGY PREDICTED BY IDOCK:   -4.71 KCAL/MOL
REMARK 922        TOTAL FREE ENERGY PREDICTED BY IDOCK:  -11.46 KCAL/MOL
REMARK 923 INTER-LIGAND FREE ENERGY PREDICTED BY IDOCK:   -9.52 KCAL/MOL
REMARK 924 INTRA-LIGAND FREE ENERGY PREDICTED BY IDOCK:   -1.94 KCAL/MOL
REMARK 927      BINDING AFFINITY PREDICTED BY RF-SCORE:    0.00 PKD
ROOT
HETATM    1  C   UNL     1     -11.965  12.994  69.761  1.00  0.00    -0.377 C  
HETATM    2  C   UNL     1     -10.900  13.305  68.703  1.00  0.00    -0.259 C  
ENDROOT
BRANCH   2   3
HETATM    3  C   UNL     1     -11.367  14.380  67.695  1.00  0.00    -0.348 C  
BRANCH   3   4
HETATM    4  C   UNL     1     -10.527  15.626  67.716  1.00  0.00    -0.273 A  
HETATM    5  C   UNL     1      -9.133  15.524  67.765  1.00  0.00    -0.178 A  
HETATM    6  C   UNL     1      -9.448  20.186  67.646  1.00  0.00    -0.387 A  
HETATM    7  C   UNL     1     -11.107  16.887  67.697  1.00  0.00    -0.064 A  
HETATM    8  C   UNL     1     -10.274  17.997  67.699  1.00  0.00    -0.376 A  
HETATM    9  C   UNL     1      -8.286  16.660  67.738  1.00  0.00    -0.184 A  
HETATM   10  C   UNL     1      -8.861  17.935  67.725  1.00  0.00    -0.251 A  
HETATM   11  C   UNL     1     -10.759  19.409  67.679  1.00  0.00    -0.536 A  
HETATM   12  N   UNL     1      -8.345  19.219  67.736  1.00  0.00    -0.292 NA 
BRANCH  12  13
HETATM   13  C   UNL     1      -6.980  19.700  67.666  1.00  0.00    -0.240 C  
BRANCH  13  14
HETATM   14  C   UNL     1      -6.823  20.807  66.620  1.00  0.00    -0.329 C  
BRANCH  14  15
HETATM   15  C   UNL     1      -6.648  20.281  65.203  1.00  0.00    -0.295 C  
HETATM   16  O   UNL     1      -6.844  18.866  65.201  1.00  0.00    -0.496 OA 
HETATM   17  H   UNL     1      -6.736  18.537  64.316  1.00  0.00     0.000 HD 
ENDBRANCH  14  15
ENDBRANCH  13  14
ENDBRANCH  12  13
BRANCH   9  18
HETATM   18  C   UNL     1      -6.838  16.325  67.766  1.00  0.00    -0.135 C  
HETATM   19  N   UNL     1      -6.326  15.952  68.989  1.00  0.00    -0.126 N  
HETATM   20  O   UNL     1      -6.092  16.416  66.798  1.00  0.00    -0.314 OA 
HETATM   21  H2  UNL     1      -6.907  15.907  69.826  1.00  0.00     0.000 HD 
HETATM   22  H1  UNL     1      -5.332  15.722  69.008  1.00  0.00     0.000 HD 
ENDBRANCH   9  18
ENDBRANCH   3   4
ENDBRANCH   2   3
BRANCH   2  23
HETATM   23  N   UNL     1     -10.537  12.048  68.025  1.00  0.00    -0.201 NA 
HETATM   24  H   UNL     1     -10.628  12.148  67.014  1.00  0.00     0.000 HD 
BRANCH  23  25
HETATM   25  C   UNL     1      -9.202  11.539  68.377  1.00  0.00    -0.190 C  
BRANCH  25  26
HETATM   26  C   UNL     1      -9.218  10.245  69.218  1.00  0.00    -0.202 C  
BRANCH  26  27
HETATM   27  O   UNL     1     -10.433   9.500  69.061  1.00  0.00    -0.202 OA 
BRANCH  27  28
HETATM   28  C   UNL     1     -10.800   8.679  70.097  1.00  0.00    -0.233 A  
HETATM   29  C   UNL     1     -11.504   6.477  70.818  1.00  0.00    -0.419 A  
HETATM   30  C   UNL     1     -11.010   9.134  71.411  1.00  0.00    -0.414 A  
HETATM   31  C   UNL     1     -11.052   7.328  69.811  1.00  0.00    -0.182 A  
HETATM   32  C   UNL     1     -11.719   6.945  72.116  1.00  0.00    -0.327 A  
HETATM   33  C   UNL     1     -11.471   8.281  72.408  1.00  0.00    -0.463 A  
BRANCH  31  34
HETATM   34  O   UNL     1     -11.013   6.746  68.571  1.00  0.00    -0.231 OA 
BRANCH  34  35
HETATM   35  C   UNL     1      -9.859   5.956  68.263  1.00  0.00    -0.137 C  
HETATM   36  C   UNL     1     -10.007   5.191  66.952  1.00  0.00    -0.201 C  
HETATM   37  F   UNL     1     -11.111   5.530  66.254  1.00  0.00    -0.310 F  
HETATM   38  F   UNL     1      -8.935   5.385  66.149  1.00  0.00    -0.125 F  
HETATM   39  F   UNL     1     -10.081   3.853  67.188  1.00  0.00    -0.221 F  
ENDBRANCH  34  35
ENDBRANCH  31  34
ENDBRANCH  27  28
ENDBRANCH  26  27
ENDBRANCH  25  26
ENDBRANCH  23  25
ENDBRANCH   2  23
TORSDOF 13
ENDMDL
MODEL      189
REMARK 921   NORMALIZED FREE ENERGY PREDICTED BY IDOCK:   -4.71 KCAL/MOL
REMARK 922        TOTAL FREE ENERGY PREDICTED BY IDOCK:  -11.46 KCAL/MOL
REMARK 923 INTER-LIGAND FREE ENERGY PREDICTED BY IDOCK:   -9.63 KCAL/MOL
REMARK 924 INTRA-LIGAND FREE ENERGY PREDICTED BY IDOCK:   -1.82 KCAL/MOL
REMARK 927      BINDING AFFINITY PREDICTED BY RF-SCORE:    0.00 PKD
ROOT
HETATM    1  C   UNL     1     -12.205  13.527  67.957  1.00  0.00    -0.158 C  
HETATM    2  C   UNL     1     -11.415  13.228  69.238  1.00  0.00    -0.288 C  
ENDROOT
BRANCH   2   3
HETATM    3  C   UNL     1     -12.251  12.447  70.277  1.00  0.00    -0.345 C  
BRANCH   3   4
HETATM    4  C   UNL     1     -11.952  10.975  70.303  1.00  0.00    -0.452 A  
HETATM    5  C   UNL     1     -11.233  10.392  69.254  1.00  0.00    -0.304 A  
HETATM    6  C   UNL     1     -11.805   6.560  71.867  1.00  0.00    -0.334 A  
HETATM    7  C   UNL     1     -12.383  10.170  71.349  1.00  0.00    -0.515 A  
HETATM    8  C   UNL     1     -12.056   8.821  71.322  1.00  0.00    -0.344 A  
HETATM    9  C   UNL     1     -10.879   9.020  69.245  1.00  0.00    -0.131 A  
HETATM   10  C   UNL     1     -11.314   8.200  70.291  1.00  0.00    -0.132 A  
HETATM   11  C   UNL     1     -12.453   7.843  72.377  1.00  0.00    -0.208 A  
HETATM   12  N   UNL     1     -11.184   6.850  70.568  1.00  0.00    -0.288 NA 
BRANCH  12  13
HETATM   13  C   UNL     1     -10.445   5.803  69.891  1.00  0.00    -0.290 C  
BRANCH  13  14
HETATM   14  C   UNL     1     -10.213   4.595  70.802  1.00  0.00    -0.214 C  
BRANCH  14  15
HETATM   15  C   UNL     1      -8.882   3.899  70.559  1.00  0.00    -0.081 C  
HETATM   16  O   UNL     1      -8.913   2.604  71.161  1.00  0.00    -0.077 OA 
HETATM   17  H   UNL     1      -8.082   2.169  71.009  1.00  0.00     0.000 HD 
ENDBRANCH  14  15
ENDBRANCH  13  14
ENDBRANCH  12  13
BRANCH   9  18
HETATM   18  C   UNL     1     -10.089   8.617  68.052  1.00  0.00    -0.196 C  
HETATM   19  N   UNL     1      -8.726   8.787  68.141  1.00  0.00    -0.134 N  
HETATM   20  O   UNL     1     -10.583   8.206  67.008  1.00  0.00    -0.329 OA 
HETATM   21  H2  UNL     1      -8.283   9.168  68.977  1.00  0.00     0.000 HD 
HETATM   22  H1  UNL     1      -8.184   8.510  67.321  1.00  0.00     0.000 HD 
ENDBRANCH   9  18
ENDBRANCH   3   4
ENDBRANCH   2   3
BRANCH   2  23
HETATM   23  N   UNL     1     -10.921  14.503  69.787  1.00  0.00    -0.404 NA 
HETATM   24  H   UNL     1      -9.943  14.645  69.536  1.00  0.00     0.000 HD 
BRANCH  23  25
HETATM   25  C   UNL     1     -11.728  15.673  69.406  1.00  0.00    -0.383 C  
BRANCH  25  26
HETATM   26  C   UNL     1     -10.903  16.945  69.112  1.00  0.00    -0.237 C  
BRANCH  26  27
HETATM   27  O   UNL     1     -10.843  17.251  67.712  1.00  0.00    -0.351 OA 
BRANCH  27  28
HETATM   28  C   UNL     1     -10.142  18.373  67.350  1.00  0.00    -0.353 A  
HETATM   29  C   UNL     1      -8.259  19.317  66.155  1.00  0.00    -0.291 A  
HETATM   30  C   UNL     1     -10.414  19.656  67.857  1.00  0.00    -0.556 A  
HETATM   31  C   UNL     1      -9.048  18.216  66.485  1.00  0.00    -0.276 A  
HETATM   32  C   UNL     1      -8.534  20.584  66.675  1.00  0.00    -0.154 A  
HETATM   33  C   UNL     1      -9.616  20.748  67.532  1.00  0.00    -0.439 A  
BRANCH  31  34
HETATM   34  O   UNL     1      -8.572  17.028  65.995  1.00  0.00    -0.473 OA 
BRANCH  34  35
HETATM   35  C   UNL     1      -7.531  16.390  66.745  1.00  0.00    -0.243 C  
HETATM   36  C   UNL     1      -7.979  15.068  67.358  1.00  0.00    -0.194 C  
HETATM   37  F   UNL     1      -9.200  14.670  66.943  1.00  0.00    -0.206 F  
HETATM   38  F   UNL     1      -7.104  14.075  67.074  1.00  0.00    -0.127 F  
HETATM   39  F   UNL     1      -8.032  15.166  68.714  1.00  0.00    -0.127 F  
ENDBRANCH  34  35
ENDBRANCH  31  34
ENDBRANCH  27  28
ENDBRANCH  26  27
ENDBRANCH  25  26
ENDBRANCH  23  25
ENDBRANCH   2  23
TORSDOF 13
ENDMDL
MODEL      190
REMARK 921   NORMALIZED FREE ENERGY PREDICTED BY IDOCK:   -4.71 KCAL/MOL
REMARK 922        TOTAL FREE ENERGY PREDICTED BY IDOCK:  -11.45 KCAL/MOL
REMARK 923 INTER-LIGAND FREE ENERGY PREDICTED BY IDOCK:   -9.99 KCAL/MOL
REMARK 924 INTRA-LIGAND FREE ENERGY PREDICTED BY IDOCK:   -1.47 KCAL/MOL
REMARK 927      BINDING AFFINITY PREDICTED BY RF-SCORE:    0.00 PKD
ROOT
HETATM    1  C   UNL     1     -10.482  14.625  65.903  1.00  0.00    -0.325 C  
HETATM    2  C   UNL     1     -11.023  13.972  67.182  1.00  0.00    -0.296 C  
ENDROOT
BRANCH   2   3
HETATM    3  C   UNL     1     -11.891  12.728  66.886  1.00  0.00    -0.440 C  
BRANCH   3   4
HETATM    4  C   UNL     1     -11.655  11.593  67.841  1.00  0.00    -0.369 A  
HETATM    5  C   UNL     1     -10.915  10.479  67.430  1.00  0.00    -0.352 A  
HETATM    6  C   UNL     1     -11.767   9.116  71.818  1.00  0.00    -0.386 A  
HETATM    7  C   UNL     1     -12.167  11.617  69.131  1.00  0.00    -0.201 A  
HETATM    8  C   UNL     1     -11.898  10.544  69.970  1.00  0.00    -0.388 A  
HETATM    9  C   UNL     1     -10.618   9.400  68.298  1.00  0.00    -0.256 A  
HETATM   10  C   UNL     1     -11.136   9.413  69.598  1.00  0.00    -0.142 A  
HETATM   11  C   UNL     1     -12.383  10.439  71.378  1.00  0.00    -0.500 A  
HETATM   12  N   UNL     1     -11.076   8.530  70.662  1.00  0.00    -0.251 NA 
BRANCH  12  13
HETATM   13  C   UNL     1     -10.351   7.286  70.831  1.00  0.00    -0.201 C  
BRANCH  13  14
HETATM   14  C   UNL     1     -11.104   6.105  70.214  1.00  0.00    -0.436 C  
BRANCH  14  15
HETATM   15  C   UNL     1     -10.188   5.051  69.608  1.00  0.00    -0.236 C  
HETATM   16  O   UNL     1      -9.515   4.356  70.660  1.00  0.00    -0.141 OA 
HETATM   17  H   UNL     1      -8.943   3.698  70.282  1.00  0.00     0.000 HD 
ENDBRANCH  14  15
ENDBRANCH  13  14
ENDBRANCH  12  13
BRANCH   9  18
HETATM   18  C   UNL     1      -9.793   8.337  67.668  1.00  0.00    -0.169 C  
HETATM   19  N   UNL     1     -10.429   7.549  66.734  1.00  0.00    -0.476 N  
HETATM   20  O   UNL     1      -8.629   8.099  67.970  1.00  0.00    -0.128 OA 
HETATM   21  H2  UNL     1     -11.409   7.688  66.490  1.00  0.00     0.000 HD 
HETATM   22  H1  UNL     1      -9.863   6.819  66.301  1.00  0.00     0.000 HD 
ENDBRANCH   9  18
ENDBRANCH   3   4
ENDBRANCH   2   3
BRANCH   2  23
HETATM   23  N   UNL     1     -11.774  14.989  67.940  1.00  0.00    -0.404 NA 
HETATM   24  H   UNL     1     -12.764  14.749  67.976  1.00  0.00     0.000 HD 
BRANCH  23  25
HETATM   25  C   UNL     1     -11.250  15.236  69.293  1.00  0.00    -0.284 C  
BRANCH  25  26
HETATM   26  C   UNL     1     -10.898  16.712  69.577  1.00  0.00    -0.285 C  
BRANCH  26  27
HETATM   27  O   UNL     1      -9.560  17.044  69.185  1.00  0.00    -0.230 OA 
BRANCH  27  28
HETATM   28  C   UNL     1      -9.409  18.084  68.303  1.00  0.00    -0.295 A  
HETATM   29  C   UNL     1      -7.905  19.470  67.003  1.00  0.00    -0.286 A  
HETATM   30  C   UNL     1     -10.464  18.922  67.902  1.00  0.00    -0.459 A  
HETATM   31  C   UNL     1      -8.116  18.372  67.837  1.00  0.00    -0.259 A  
HETATM   32  C   UNL     1      -8.962  20.299  66.622  1.00  0.00    -0.363 A  
HETATM   33  C   UNL     1     -10.246  20.021  67.079  1.00  0.00    -0.587 A  
BRANCH  31  34
HETATM   34  O   UNL     1      -6.962  17.737  68.217  1.00  0.00    -0.208 OA 
BRANCH  34  35
HETATM   35  C   UNL     1      -6.897  16.324  67.989  1.00  0.00    -0.131 C  
HETATM   36  C   UNL     1      -6.450  15.553  69.226  1.00  0.00    -0.141 C  
HETATM   37  F   UNL     1      -6.366  16.317  70.335  1.00  0.00    -0.124 F  
HETATM   38  F   UNL     1      -7.293  14.528  69.495  1.00  0.00    -0.145 F  
HETATM   39  F   UNL     1      -5.221  15.004  69.027  1.00  0.00    -0.094 F  
ENDBRANCH  34  35
ENDBRANCH  31  34
ENDBRANCH  27  28
ENDBRANCH  26  27
ENDBRANCH  25  26
ENDBRANCH  23  25
ENDBRANCH   2  23
TORSDOF 13
ENDMDL
MODEL      191
REMARK 921   NORMALIZED FREE ENERGY PREDICTED BY IDOCK:   -4.70 KCAL/MOL
REMARK 922        TOTAL FREE ENERGY PREDICTED BY IDOCK:  -11.45 KCAL/MOL
REMARK 923 INTER-LIGAND FREE ENERGY PREDICTED BY IDOCK:   -9.54 KCAL/MOL
REMARK 924 INTRA-LIGAND FREE ENERGY PREDICTED BY IDOCK:   -1.90 KCAL/MOL
REMARK 927      BINDING AFFINITY PREDICTED BY RF-SCORE:    0.00 PKD
ROOT
HETATM    1  C   UNL     1     -10.491  10.022  67.355  1.00  0.00    -0.316 C  
HETATM    2  C   UNL     1     -10.042  11.133  68.312  1.00  0.00    -0.185 C  
ENDROOT
BRANCH   2   3
HETATM    3  C   UNL     1      -8.567  11.538  68.093  1.00  0.00    -0.156 C  
BRANCH   3   4
HETATM    4  C   UNL     1      -8.344  13.024  68.117  1.00  0.00    -0.164 A  
HETATM    5  C   UNL     1      -9.413  13.884  68.392  1.00  0.00    -0.211 A  
HETATM    6  C   UNL     1      -6.077  17.119  67.902  1.00  0.00    -0.137 A  
HETATM    7  C   UNL     1      -7.094  13.569  67.862  1.00  0.00    -0.140 A  
HETATM    8  C   UNL     1      -6.951  14.949  67.918  1.00  0.00    -0.170 A  
HETATM    9  C   UNL     1      -9.256  15.289  68.477  1.00  0.00    -0.200 A  
HETATM   10  C   UNL     1      -8.001  15.849  68.214  1.00  0.00    -0.139 A  
HETATM   11  C   UNL     1      -5.667  15.669  67.667  1.00  0.00    -0.133 A  
HETATM   12  N   UNL     1      -7.520  17.146  68.172  1.00  0.00    -0.198 NA 
BRANCH  12  13
HETATM   13  C   UNL     1      -8.154  18.410  68.488  1.00  0.00    -0.319 C  
BRANCH  13  14
HETATM   14  C   UNL     1      -8.941  18.962  67.296  1.00  0.00    -0.298 C  
BRANCH  14  15
HETATM   15  C   UNL     1     -10.280  19.572  67.684  1.00  0.00    -0.434 C  
HETATM   16  O   UNL     1     -10.368  19.644  69.108  1.00  0.00    -0.617 OA 
HETATM   17  H   UNL     1     -11.204  20.025  69.350  1.00  0.00     0.000 HD 
ENDBRANCH  14  15
ENDBRANCH  13  14
ENDBRANCH  12  13
BRANCH   9  18
HETATM   18  C   UNL     1     -10.512  16.010  68.810  1.00  0.00    -0.248 C  
HETATM   19  N   UNL     1     -11.492  16.001  67.842  1.00  0.00    -0.215 N  
HETATM   20  O   UNL     1     -10.690  16.639  69.847  1.00  0.00    -0.309 OA 
HETATM   21  H2  UNL     1     -11.362  15.527  66.949  1.00  0.00     0.000 HD 
HETATM   22  H1  UNL     1     -12.354  16.497  68.071  1.00  0.00     0.000 HD 
ENDBRANCH   9  18
ENDBRANCH   3   4
ENDBRANCH   2   3
BRANCH   2  23
HETATM   23  N   UNL     1     -10.280  10.679  69.694  1.00  0.00    -0.407 NA 
HETATM   24  H   UNL     1      -9.589  11.082  70.326  1.00  0.00     0.000 HD 
BRANCH  23  25
HETATM   25  C   UNL     1     -11.644  10.938  70.184  1.00  0.00    -0.338 C  
BRANCH  25  26
HETATM   26  C   UNL     1     -12.144   9.922  71.234  1.00  0.00    -0.394 C  
BRANCH  26  27
HETATM   27  O   UNL     1     -12.158   8.577  70.736  1.00  0.00    -0.206 OA 
BRANCH  27  28
HETATM   28  C   UNL     1     -11.467   7.638  71.458  1.00  0.00    -0.264 A  
HETATM   29  C   UNL     1     -10.438   5.446  71.516  1.00  0.00    -0.289 A  
HETATM   30  C   UNL     1     -11.202   7.756  72.833  1.00  0.00    -0.434 A  
HETATM   31  C   UNL     1     -11.071   6.461  70.801  1.00  0.00    -0.307 A  
HETATM   32  C   UNL     1     -10.191   5.573  72.885  1.00  0.00    -0.214 A  
HETATM   33  C   UNL     1     -10.579   6.735  73.543  1.00  0.00    -0.358 A  
BRANCH  31  34
HETATM   34  O   UNL     1     -11.352   6.131  69.501  1.00  0.00    -0.418 OA 
BRANCH  34  35
HETATM   35  C   UNL     1     -10.244   5.742  68.680  1.00  0.00    -0.197 C  
HETATM   36  C   UNL     1     -10.493   6.007  67.199  1.00  0.00    -0.264 C  
HETATM   37  F   UNL     1     -11.624   6.704  66.961  1.00  0.00    -0.426 F  
HETATM   38  F   UNL     1      -9.464   6.689  66.644  1.00  0.00    -0.154 F  
HETATM   39  F   UNL     1     -10.598   4.834  66.517  1.00  0.00    -0.283 F  
ENDBRANCH  34  35
ENDBRANCH  31  34
ENDBRANCH  27  28
ENDBRANCH  26  27
ENDBRANCH  25  26
ENDBRANCH  23  25
ENDBRANCH   2  23
TORSDOF 13
ENDMDL
MODEL      192
REMARK 921   NORMALIZED FREE ENERGY PREDICTED BY IDOCK:   -4.70 KCAL/MOL
REMARK 922        TOTAL FREE ENERGY PREDICTED BY IDOCK:  -11.44 KCAL/MOL
REMARK 923 INTER-LIGAND FREE ENERGY PREDICTED BY IDOCK:   -9.67 KCAL/MOL
REMARK 924 INTRA-LIGAND FREE ENERGY PREDICTED BY IDOCK:   -1.77 KCAL/MOL
REMARK 927      BINDING AFFINITY PREDICTED BY RF-SCORE:    0.00 PKD
ROOT
HETATM    1  C   UNL     1      -6.753  10.154  65.541  1.00  0.00    -0.122 C  
HETATM    2  C   UNL     1      -8.033  10.366  66.359  1.00  0.00    -0.130 C  
ENDROOT
BRANCH   2   3
HETATM    3  C   UNL     1      -7.818  11.330  67.549  1.00  0.00    -0.123 C  
BRANCH   3   4
HETATM    4  C   UNL     1      -8.236  12.743  67.257  1.00  0.00    -0.181 A  
HETATM    5  C   UNL     1      -9.545  13.010  66.841  1.00  0.00    -0.243 A  
HETATM    6  C   UNL     1      -7.955  17.404  66.863  1.00  0.00    -0.227 A  
HETATM    7  C   UNL     1      -7.345  13.799  67.383  1.00  0.00    -0.125 A  
HETATM    8  C   UNL     1      -7.800  15.084  67.117  1.00  0.00    -0.224 A  
HETATM    9  C   UNL     1     -10.013  14.325  66.598  1.00  0.00    -0.279 A  
HETATM   10  C   UNL     1      -9.120  15.395  66.716  1.00  0.00    -0.259 A  
HETATM   11  C   UNL     1      -6.953  16.309  67.212  1.00  0.00    -0.227 A  
HETATM   12  N   UNL     1      -9.229  16.761  66.519  1.00  0.00    -0.252 NA 
BRANCH  12  13
HETATM   13  C   UNL     1     -10.375  17.591  66.203  1.00  0.00    -0.329 C  
BRANCH  13  14
HETATM   14  C   UNL     1     -10.619  18.652  67.280  1.00  0.00    -0.480 C  
BRANCH  14  15
HETATM   15  C   UNL     1     -10.581  20.077  66.747  1.00  0.00    -0.330 C  
HETATM   16  O   UNL     1      -9.577  20.172  65.736  1.00  0.00    -0.536 OA 
HETATM   17  H   UNL     1      -9.553  21.062  65.403  1.00  0.00     0.000 HD 
ENDBRANCH  14  15
ENDBRANCH  13  14
ENDBRANCH  12  13
BRANCH   9  18
HETATM   18  C   UNL     1     -11.443  14.385  66.197  1.00  0.00    -0.357 C  
HETATM   19  N   UNL     1     -12.361  14.400  67.223  1.00  0.00    -0.594 N  
HETATM   20  O   UNL     1     -11.832  14.364  65.035  1.00  0.00    -0.367 OA 
HETATM   21  H2  UNL     1     -12.076  14.373  68.201  1.00  0.00     0.000 HD 
HETATM   22  H1  UNL     1     -13.343  14.441  66.947  1.00  0.00     0.000 HD 
ENDBRANCH   9  18
ENDBRANCH   3   4
ENDBRANCH   2   3
BRANCH   2  23
HETATM   23  N   UNL     1      -8.519   9.050  66.809  1.00  0.00    -0.118 NA 
HETATM   24  H   UNL     1      -8.213   8.862  67.763  1.00  0.00     0.000 HD 
BRANCH  23  25
HETATM   25  C   UNL     1      -9.976   8.875  66.690  1.00  0.00    -0.276 C  
BRANCH  25  26
HETATM   26  C   UNL     1     -10.654   8.317  67.960  1.00  0.00    -0.127 C  
BRANCH  26  27
HETATM   27  O   UNL     1      -9.740   8.175  69.055  1.00  0.00    -0.159 OA 
BRANCH  27  28
HETATM   28  C   UNL     1      -9.994   7.169  69.953  1.00  0.00    -0.182 A  
HETATM   29  C   UNL     1     -10.713   6.540  72.179  1.00  0.00    -0.249 A  
HETATM   30  C   UNL     1      -9.689   5.818  69.712  1.00  0.00    -0.210 A  
HETATM   31  C   UNL     1     -10.516   7.521  71.208  1.00  0.00    -0.207 A  
HETATM   32  C   UNL     1     -10.395   5.203  71.928  1.00  0.00    -0.275 A  
HETATM   33  C   UNL     1      -9.878   4.846  70.688  1.00  0.00    -0.289 A  
BRANCH  31  34
HETATM   34  O   UNL     1     -10.757   8.795  71.652  1.00  0.00    -0.272 OA 
BRANCH  34  35
HETATM   35  C   UNL     1     -12.091   9.086  72.086  1.00  0.00    -0.342 C  
HETATM   36  C   UNL     1     -12.735  10.211  71.283  1.00  0.00    -0.407 C  
HETATM   37  F   UNL     1     -12.002  10.599  70.218  1.00  0.00    -0.298 F  
HETATM   38  F   UNL     1     -13.959   9.850  70.830  1.00  0.00    -0.335 F  
HETATM   39  F   UNL     1     -12.916  11.310  72.064  1.00  0.00    -0.543 F  
ENDBRANCH  34  35
ENDBRANCH  31  34
ENDBRANCH  27  28
ENDBRANCH  26  27
ENDBRANCH  25  26
ENDBRANCH  23  25
ENDBRANCH   2  23
TORSDOF 13
ENDMDL
MODEL      193
REMARK 921   NORMALIZED FREE ENERGY PREDICTED BY IDOCK:   -4.70 KCAL/MOL
REMARK 922        TOTAL FREE ENERGY PREDICTED BY IDOCK:  -11.44 KCAL/MOL
REMARK 923 INTER-LIGAND FREE ENERGY PREDICTED BY IDOCK:   -9.57 KCAL/MOL
REMARK 924 INTRA-LIGAND FREE ENERGY PREDICTED BY IDOCK:   -1.87 KCAL/MOL
REMARK 927      BINDING AFFINITY PREDICTED BY RF-SCORE:    0.00 PKD
ROOT
HETATM    1  C   UNL     1      -9.966   9.919  65.696  1.00  0.00    -0.353 C  
HETATM    2  C   UNL     1      -9.510  10.896  66.787  1.00  0.00    -0.177 C  
ENDROOT
BRANCH   2   3
HETATM    3  C   UNL     1     -10.553  11.042  67.919  1.00  0.00    -0.244 C  
BRANCH   3   4
HETATM    4  C   UNL     1     -10.249  10.202  69.126  1.00  0.00    -0.229 A  
HETATM    5  C   UNL     1     -11.289   9.562  69.809  1.00  0.00    -0.117 A  
HETATM    6  C   UNL     1      -7.740   8.033  72.437  1.00  0.00    -0.114 A  
HETATM    7  C   UNL     1      -8.950  10.052  69.591  1.00  0.00    -0.221 A  
HETATM    8  C   UNL     1      -8.734   9.246  70.702  1.00  0.00    -0.282 A  
HETATM    9  C   UNL     1     -11.061   8.719  70.924  1.00  0.00    -0.320 A  
HETATM   10  C   UNL     1      -9.756   8.566  71.404  1.00  0.00    -0.220 A  
HETATM   11  C   UNL     1      -7.393   8.996  71.307  1.00  0.00    -0.093 A  
HETATM   12  N   UNL     1      -9.199   7.870  72.463  1.00  0.00    -0.170 NA 
BRANCH  12  13
HETATM   13  C   UNL     1      -9.789   6.952  73.418  1.00  0.00    -0.218 C  
BRANCH  13  14
HETATM   14  C   UNL     1     -10.082   5.590  72.785  1.00  0.00    -0.208 C  
BRANCH  14  15
HETATM   15  C   UNL     1     -11.258   4.865  73.424  1.00  0.00    -0.338 C  
HETATM   16  O   UNL     1     -12.476   5.447  72.958  1.00  0.00    -0.466 OA 
HETATM   17  H   UNL     1     -13.210   4.994  73.357  1.00  0.00     0.000 HD 
ENDBRANCH  14  15
ENDBRANCH  13  14
ENDBRANCH  12  13
BRANCH   9  18
HETATM   18  C   UNL     1     -12.301   8.115  71.479  1.00  0.00    -0.306 C  
HETATM   19  N   UNL     1     -12.719   8.600  72.698  1.00  0.00    -0.556 N  
HETATM   20  O   UNL     1     -12.917   7.199  70.948  1.00  0.00    -0.269 OA 
HETATM   21  H2  UNL     1     -12.207   9.331  73.192  1.00  0.00     0.000 HD 
HETATM   22  H1  UNL     1     -13.570   8.186  73.079  1.00  0.00     0.000 HD 
ENDBRANCH   9  18
ENDBRANCH   3   4
ENDBRANCH   2   3
BRANCH   2  23
HETATM   23  N   UNL     1      -9.212  12.193  66.154  1.00  0.00    -0.353 NA 
HETATM   24  H   UNL     1      -9.991  12.493  65.569  1.00  0.00     0.000 HD 
BRANCH  23  25
HETATM   25  C   UNL     1      -8.841  13.254  67.105  1.00  0.00    -0.222 C  
BRANCH  25  26
HETATM   26  C   UNL     1      -8.684  14.651  66.466  1.00  0.00    -0.080 C  
BRANCH  26  27
HETATM   27  O   UNL     1      -8.260  15.643  67.410  1.00  0.00    -0.151 OA 
BRANCH  27  28
HETATM   28  C   UNL     1      -8.914  16.849  67.381  1.00  0.00    -0.209 A  
HETATM   29  C   UNL     1     -10.780  18.189  68.149  1.00  0.00    -0.242 A  
HETATM   30  C   UNL     1      -8.564  17.902  66.517  1.00  0.00    -0.279 A  
HETATM   31  C   UNL     1     -10.039  17.010  68.206  1.00  0.00    -0.306 A  
HETATM   32  C   UNL     1     -10.427  19.222  67.278  1.00  0.00    -0.566 A  
HETATM   33  C   UNL     1      -9.314  19.072  66.458  1.00  0.00    -0.365 A  
BRANCH  31  34
HETATM   34  O   UNL     1     -10.588  16.050  69.016  1.00  0.00    -0.225 OA 
BRANCH  34  35
HETATM   35  C   UNL     1     -11.232  16.506  70.212  1.00  0.00    -0.124 C  
HETATM   36  C   UNL     1     -11.839  15.363  71.020  1.00  0.00    -0.360 C  
HETATM   37  F   UNL     1     -11.511  14.141  70.552  1.00  0.00    -0.308 F  
HETATM   38  F   UNL     1     -11.455  15.424  72.317  1.00  0.00    -0.450 F  
HETATM   39  F   UNL     1     -13.197  15.443  71.010  1.00  0.00    -0.430 F  
ENDBRANCH  34  35
ENDBRANCH  31  34
ENDBRANCH  27  28
ENDBRANCH  26  27
ENDBRANCH  25  26
ENDBRANCH  23  25
ENDBRANCH   2  23
TORSDOF 13
ENDMDL
MODEL      194
REMARK 921   NORMALIZED FREE ENERGY PREDICTED BY IDOCK:   -4.67 KCAL/MOL
REMARK 922        TOTAL FREE ENERGY PREDICTED BY IDOCK:  -11.39 KCAL/MOL
REMARK 923 INTER-LIGAND FREE ENERGY PREDICTED BY IDOCK:   -9.28 KCAL/MOL
REMARK 924 INTRA-LIGAND FREE ENERGY PREDICTED BY IDOCK:   -2.11 KCAL/MOL
REMARK 927      BINDING AFFINITY PREDICTED BY RF-SCORE:    0.00 PKD
ROOT
HETATM    1  C   UNL     1      -9.357  11.653  62.689  1.00  0.00     0.061 C  
HETATM    2  C   UNL     1      -9.929  11.085  63.994  1.00  0.00    -0.335 C  
ENDROOT
BRANCH   2   3
HETATM    3  C   UNL     1      -9.400   9.666  64.300  1.00  0.00    -0.178 C  
BRANCH   3   4
HETATM    4  C   UNL     1      -9.558   9.266  65.740  1.00  0.00    -0.341 A  
HETATM    5  C   UNL     1     -10.280  10.085  66.615  1.00  0.00    -0.288 A  
HETATM    6  C   UNL     1      -9.196   6.689  69.638  1.00  0.00    -0.145 A  
HETATM    7  C   UNL     1      -8.992   8.097  66.229  1.00  0.00    -0.215 A  
HETATM    8  C   UNL     1      -9.191   7.775  67.566  1.00  0.00    -0.147 A  
HETATM    9  C   UNL     1     -10.504   9.738  67.970  1.00  0.00    -0.271 A  
HETATM   10  C   UNL     1      -9.932   8.566  68.474  1.00  0.00    -0.184 A  
HETATM   11  C   UNL     1      -8.642   6.553  68.223  1.00  0.00    -0.115 A  
HETATM   12  N   UNL     1      -9.918   7.966  69.722  1.00  0.00    -0.184 NA 
BRANCH  12  13
HETATM   13  C   UNL     1     -10.594   8.313  70.956  1.00  0.00    -0.204 C  
BRANCH  13  14
HETATM   14  C   UNL     1     -11.831   7.440  71.187  1.00  0.00    -0.330 C  
BRANCH  14  15
HETATM   15  C   UNL     1     -11.600   6.313  72.183  1.00  0.00    -0.319 C  
HETATM   16  O   UNL     1     -11.129   6.864  73.414  1.00  0.00    -0.509 OA 
HETATM   17  H   UNL     1     -10.985   6.160  74.035  1.00  0.00     0.000 HD 
ENDBRANCH  14  15
ENDBRANCH  13  14
ENDBRANCH  12  13
BRANCH   9  18
HETATM   18  C   UNL     1     -11.321  10.734  68.712  1.00  0.00    -0.288 C  
HETATM   19  N   UNL     1     -10.787  11.197  69.894  1.00  0.00    -0.470 N  
HETATM   20  O   UNL     1     -12.435  11.107  68.363  1.00  0.00    -0.390 OA 
HETATM   21  H2  UNL     1      -9.883  10.876  70.239  1.00  0.00     0.000 HD 
HETATM   22  H1  UNL     1     -11.348  11.880  70.404  1.00  0.00     0.000 HD 
ENDBRANCH   9  18
ENDBRANCH   3   4
ENDBRANCH   2   3
BRANCH   2  23
HETATM   23  N   UNL     1     -11.400  11.108  63.903  1.00  0.00    -0.385 NA 
HETATM   24  H   UNL     1     -11.813  10.542  64.645  1.00  0.00     0.000 HD 
BRANCH  23  25
HETATM   25  C   UNL     1     -11.981  12.461  63.901  1.00  0.00    -0.486 C  
BRANCH  25  26
HETATM   26  C   UNL     1     -12.342  12.998  65.303  1.00  0.00    -0.486 C  
BRANCH  26  27
HETATM   27  O   UNL     1     -11.600  14.175  65.650  1.00  0.00    -0.325 OA 
BRANCH  27  28
HETATM   28  C   UNL     1     -10.569  14.021  66.541  1.00  0.00    -0.279 A  
HETATM   29  C   UNL     1      -9.757  14.303  68.806  1.00  0.00    -0.173 A  
HETATM   30  C   UNL     1      -9.277  13.610  66.171  1.00  0.00    -0.009 A  
HETATM   31  C   UNL     1     -10.799  14.367  67.883  1.00  0.00    -0.251 A  
HETATM   32  C   UNL     1      -8.475  13.903  68.420  1.00  0.00    -0.159 A  
HETATM   33  C   UNL     1      -8.239  13.558  67.095  1.00  0.00    -0.126 A  
BRANCH  31  34
HETATM   34  O   UNL     1     -11.957  14.897  68.391  1.00  0.00    -0.299 OA 
BRANCH  34  35
HETATM   35  C   UNL     1     -12.634  14.127  69.392  1.00  0.00     0.100 C  
HETATM   36  C   UNL     1     -12.839  14.905  70.688  1.00  0.00    -0.353 C  
HETATM   37  F   UNL     1     -12.501  16.208  70.591  1.00  0.00    -0.382 F  
HETATM   38  F   UNL     1     -14.128  14.843  71.097  1.00  0.00    -0.446 F  
HETATM   39  F   UNL     1     -12.085  14.371  71.687  1.00  0.00    -0.374 F  
ENDBRANCH  34  35
ENDBRANCH  31  34
ENDBRANCH  27  28
ENDBRANCH  26  27
ENDBRANCH  25  26
ENDBRANCH  23  25
ENDBRANCH   2  23
TORSDOF 13
ENDMDL
MODEL      195
REMARK 921   NORMALIZED FREE ENERGY PREDICTED BY IDOCK:   -4.67 KCAL/MOL
REMARK 922        TOTAL FREE ENERGY PREDICTED BY IDOCK:  -11.39 KCAL/MOL
REMARK 923 INTER-LIGAND FREE ENERGY PREDICTED BY IDOCK:   -9.70 KCAL/MOL
REMARK 924 INTRA-LIGAND FREE ENERGY PREDICTED BY IDOCK:   -1.69 KCAL/MOL
REMARK 927      BINDING AFFINITY PREDICTED BY RF-SCORE:    0.00 PKD
ROOT
HETATM    1  C   UNL     1      -8.237  12.895  67.514  1.00  0.00    -0.184 C  
HETATM    2  C   UNL     1      -8.683  11.438  67.692  1.00  0.00    -0.136 C  
ENDROOT
BRANCH   2   3
HETATM    3  C   UNL     1      -9.583  10.952  66.533  1.00  0.00    -0.224 C  
BRANCH   3   4
HETATM    4  C   UNL     1      -9.150   9.638  65.949  1.00  0.00    -0.221 A  
HETATM    5  C   UNL     1      -9.614   8.441  66.506  1.00  0.00    -0.304 A  
HETATM    6  C   UNL     1      -7.038   6.607  63.066  1.00  0.00    -0.054 A  
HETATM    7  C   UNL     1      -8.285   9.581  64.865  1.00  0.00    -0.140 A  
HETATM    8  C   UNL     1      -7.938   8.334  64.360  1.00  0.00    -0.144 A  
HETATM    9  C   UNL     1      -9.280   7.173  65.971  1.00  0.00    -0.069 A  
HETATM   10  C   UNL     1      -8.403   7.105  64.883  1.00  0.00    -0.013 A  
HETATM   11  C   UNL     1      -7.021   8.125  63.202  1.00  0.00    -0.086 A  
HETATM   12  N   UNL     1      -7.853   6.062  64.159  1.00  0.00    -0.112 NA 
BRANCH  12  13
HETATM   13  C   UNL     1      -8.078   4.631  64.224  1.00  0.00    -0.103 C  
BRANCH  13  14
HETATM   14  C   UNL     1      -9.066   4.165  63.152  1.00  0.00    -0.125 C  
BRANCH  14  15
HETATM   15  C   UNL     1     -10.440   3.813  63.706  1.00  0.00    -0.249 C  
HETATM   16  O   UNL     1     -10.297   2.804  64.707  1.00  0.00    -0.356 OA 
HETATM   17  H   UNL     1     -11.154   2.584  65.052  1.00  0.00     0.000 HD 
ENDBRANCH  14  15
ENDBRANCH  13  14
ENDBRANCH  12  13
BRANCH   9  18
HETATM   18  C   UNL     1      -9.905   6.036  66.696  1.00  0.00    -0.164 C  
HETATM   19  N   UNL     1     -11.252   5.847  66.483  1.00  0.00    -0.741 N  
HETATM   20  O   UNL     1      -9.311   5.318  67.492  1.00  0.00    -0.113 OA 
HETATM   21  H2  UNL     1     -11.789   6.452  65.862  1.00  0.00     0.000 HD 
HETATM   22  H1  UNL     1     -11.681   5.067  66.981  1.00  0.00     0.000 HD 
ENDBRANCH   9  18
ENDBRANCH   3   4
ENDBRANCH   2   3
BRANCH   2  23
HETATM   23  N   UNL     1      -9.362  11.317  68.994  1.00  0.00    -0.400 NA 
HETATM   24  H   UNL     1      -9.162  12.128  69.579  1.00  0.00     0.000 HD 
BRANCH  23  25
HETATM   25  C   UNL     1     -10.815  11.097  68.895  1.00  0.00    -0.216 C  
BRANCH  25  26
HETATM   26  C   UNL     1     -11.661  12.052  69.764  1.00  0.00    -0.319 C  
BRANCH  26  27
HETATM   27  O   UNL     1     -12.402  12.998  68.983  1.00  0.00    -0.126 OA 
BRANCH  27  28
HETATM   28  C   UNL     1     -11.808  14.212  68.747  1.00  0.00    -0.349 A  
HETATM   29  C   UNL     1     -11.079  16.345  69.634  1.00  0.00    -0.306 A  
HETATM   30  C   UNL     1     -11.462  14.672  67.464  1.00  0.00    -0.378 A  
HETATM   31  C   UNL     1     -11.605  15.071  69.840  1.00  0.00    -0.293 A  
HETATM   32  C   UNL     1     -10.750  16.792  68.352  1.00  0.00    -0.362 A  
HETATM   33  C   UNL     1     -10.947  15.949  67.265  1.00  0.00    -0.234 A  
BRANCH  31  34
HETATM   34  O   UNL     1     -11.991  14.833  71.133  1.00  0.00    -0.304 OA 
BRANCH  34  35
HETATM   35  C   UNL     1     -12.191  15.980  71.969  1.00  0.00    -0.506 C  
HETATM   36  C   UNL     1     -12.982  15.652  73.231  1.00  0.00    -0.550 C  
HETATM   37  F   UNL     1     -13.193  14.331  73.405  1.00  0.00    -0.579 F  
HETATM   38  F   UNL     1     -12.354  16.118  74.336  1.00  0.00    -0.572 F  
HETATM   39  F   UNL     1     -14.204  16.249  73.195  1.00  0.00    -0.670 F  
ENDBRANCH  34  35
ENDBRANCH  31  34
ENDBRANCH  27  28
ENDBRANCH  26  27
ENDBRANCH  25  26
ENDBRANCH  23  25
ENDBRANCH   2  23
TORSDOF 13
ENDMDL
MODEL      196
REMARK 921   NORMALIZED FREE ENERGY PREDICTED BY IDOCK:   -4.67 KCAL/MOL
REMARK 922        TOTAL FREE ENERGY PREDICTED BY IDOCK:  -11.39 KCAL/MOL
REMARK 923 INTER-LIGAND FREE ENERGY PREDICTED BY IDOCK:   -8.86 KCAL/MOL
REMARK 924 INTRA-LIGAND FREE ENERGY PREDICTED BY IDOCK:   -2.53 KCAL/MOL
REMARK 927      BINDING AFFINITY PREDICTED BY RF-SCORE:    0.00 PKD
ROOT
HETATM    1  C   UNL     1      -8.299   8.809  62.708  1.00  0.00    -0.192 C  
HETATM    2  C   UNL     1      -7.592   9.930  63.481  1.00  0.00    -0.143 C  
ENDROOT
BRANCH   2   3
HETATM    3  C   UNL     1      -6.724   9.389  64.639  1.00  0.00    -0.088 C  
BRANCH   3   4
HETATM    4  C   UNL     1      -7.513   9.048  65.871  1.00  0.00    -0.094 A  
HETATM    5  C   UNL     1      -7.375   9.828  67.024  1.00  0.00    -0.091 A  
HETATM    6  C   UNL     1     -10.561   6.817  68.646  1.00  0.00    -0.227 A  
HETATM    7  C   UNL     1      -8.377   7.962  65.896  1.00  0.00    -0.134 A  
HETATM    8  C   UNL     1      -9.092   7.713  67.061  1.00  0.00    -0.157 A  
HETATM    9  C   UNL     1      -8.127   9.586  68.201  1.00  0.00    -0.102 A  
HETATM   10  C   UNL     1      -8.995   8.490  68.238  1.00  0.00    -0.139 A  
HETATM   11  C   UNL     1     -10.053   6.583  67.227  1.00  0.00    -0.212 A  
HETATM   12  N   UNL     1      -9.826   7.958  69.208  1.00  0.00    -0.174 NA 
BRANCH  12  13
HETATM   13  C   UNL     1     -10.163   8.427  70.538  1.00  0.00    -0.196 C  
BRANCH  13  14
HETATM   14  C   UNL     1     -11.504   7.862  71.013  1.00  0.00    -0.298 C  
BRANCH  14  15
HETATM   15  C   UNL     1     -12.278   8.814  71.914  1.00  0.00    -0.361 C  
HETATM   16  O   UNL     1     -11.985  10.160  71.535  1.00  0.00    -0.374 OA 
HETATM   17  H   UNL     1     -12.468  10.754  72.097  1.00  0.00     0.000 HD 
ENDBRANCH  14  15
ENDBRANCH  13  14
ENDBRANCH  12  13
BRANCH   9  18
HETATM   18  C   UNL     1      -7.848  10.552  69.295  1.00  0.00    -0.144 C  
HETATM   19  N   UNL     1      -8.168  11.867  69.040  1.00  0.00    -0.357 N  
HETATM   20  O   UNL     1      -7.312  10.254  70.356  1.00  0.00    -0.258 OA 
HETATM   21  H2  UNL     1      -8.574  12.161  68.152  1.00  0.00     0.000 HD 
HETATM   22  H1  UNL     1      -7.977  12.530  69.792  1.00  0.00     0.000 HD 
ENDBRANCH   9  18
ENDBRANCH   3   4
ENDBRANCH   2   3
BRANCH   2  23
HETATM   23  N   UNL     1      -8.614  10.876  63.965  1.00  0.00    -0.369 NA 
HETATM   24  H   UNL     1      -8.237  11.822  63.998  1.00  0.00     0.000 HD 
BRANCH  23  25
HETATM   25  C   UNL     1      -9.870  10.845  63.199  1.00  0.00    -0.351 C  
BRANCH  25  26
HETATM   26  C   UNL     1     -10.965  11.791  63.738  1.00  0.00    -0.429 C  
BRANCH  26  27
HETATM   27  O   UNL     1     -10.486  12.648  64.783  1.00  0.00    -0.296 OA 
BRANCH  27  28
HETATM   28  C   UNL     1     -11.030  12.474  66.031  1.00  0.00    -0.283 A  
HETATM   29  C   UNL     1     -12.053  13.482  67.981  1.00  0.00    -0.298 A  
HETATM   30  C   UNL     1     -11.012  11.249  66.721  1.00  0.00    -0.339 A  
HETATM   31  C   UNL     1     -11.564  13.598  66.681  1.00  0.00    -0.364 A  
HETATM   32  C   UNL     1     -12.019  12.261  68.658  1.00  0.00    -0.276 A  
HETATM   33  C   UNL     1     -11.492  11.143  68.022  1.00  0.00    -0.366 A  
BRANCH  31  34
HETATM   34  O   UNL     1     -11.555  14.883  66.206  1.00  0.00    -0.328 OA 
BRANCH  34  35
HETATM   35  C   UNL     1     -10.338  15.623  66.367  1.00  0.00    -0.296 C  
HETATM   36  C   UNL     1     -10.463  16.735  67.403  1.00  0.00    -0.310 C  
HETATM   37  F   UNL     1     -11.627  16.704  68.087  1.00  0.00    -0.287 F  
HETATM   38  F   UNL     1      -9.455  16.679  68.305  1.00  0.00    -0.210 F  
HETATM   39  F   UNL     1     -10.385  17.954  66.805  1.00  0.00    -0.317 F  
ENDBRANCH  34  35
ENDBRANCH  31  34
ENDBRANCH  27  28
ENDBRANCH  26  27
ENDBRANCH  25  26
ENDBRANCH  23  25
ENDBRANCH   2  23
TORSDOF 13
ENDMDL
MODEL      197
REMARK 921   NORMALIZED FREE ENERGY PREDICTED BY IDOCK:   -4.67 KCAL/MOL
REMARK 922        TOTAL FREE ENERGY PREDICTED BY IDOCK:  -11.39 KCAL/MOL
REMARK 923 INTER-LIGAND FREE ENERGY PREDICTED BY IDOCK:  -10.32 KCAL/MOL
REMARK 924 INTRA-LIGAND FREE ENERGY PREDICTED BY IDOCK:   -1.07 KCAL/MOL
REMARK 927      BINDING AFFINITY PREDICTED BY RF-SCORE:    0.00 PKD
ROOT
HETATM    1  C   UNL     1     -14.032  14.690  71.729  1.00  0.00    -0.564 C  
HETATM    2  C   UNL     1     -13.158  13.571  71.148  1.00  0.00    -0.212 C  
ENDROOT
BRANCH   2   3
HETATM    3  C   UNL     1     -13.227  12.275  71.987  1.00  0.00    -0.508 C  
BRANCH   3   4
HETATM    4  C   UNL     1     -12.513  11.114  71.355  1.00  0.00    -0.414 A  
HETATM    5  C   UNL     1     -12.470   9.881  72.015  1.00  0.00    -0.353 A  
HETATM    6  C   UNL     1     -10.106   8.654  68.174  1.00  0.00    -0.197 A  
HETATM    7  C   UNL     1     -11.883  11.238  70.125  1.00  0.00    -0.449 A  
HETATM    8  C   UNL     1     -11.258  10.121  69.586  1.00  0.00    -0.310 A  
HETATM    9  C   UNL     1     -11.855   8.737  71.449  1.00  0.00    -0.369 A  
HETATM   10  C   UNL     1     -11.211   8.854  70.212  1.00  0.00    -0.197 A  
HETATM   11  C   UNL     1     -10.544  10.111  68.276  1.00  0.00    -0.262 A  
HETATM   12  N   UNL     1     -10.499   7.974  69.416  1.00  0.00    -0.222 NA 
BRANCH  12  13
HETATM   13  C   UNL     1     -10.247   6.553  69.551  1.00  0.00    -0.186 C  
BRANCH  13  14
HETATM   14  C   UNL     1      -8.804   6.274  69.979  1.00  0.00    -0.142 C  
BRANCH  14  15
HETATM   15  C   UNL     1      -8.693   5.649  71.363  1.00  0.00    -0.132 C  
HETATM   16  O   UNL     1      -9.876   4.895  71.633  1.00  0.00    -0.168 OA 
HETATM   17  H   UNL     1      -9.807   4.505  72.496  1.00  0.00     0.000 HD 
ENDBRANCH  14  15
ENDBRANCH  13  14
ENDBRANCH  12  13
BRANCH   9  18
HETATM   18  C   UNL     1     -11.950   7.525  72.304  1.00  0.00    -0.263 C  
HETATM   19  N   UNL     1     -13.079   6.754  72.140  1.00  0.00    -0.549 N  
HETATM   20  O   UNL     1     -11.126   7.219  73.159  1.00  0.00    -0.331 OA 
HETATM   21  H2  UNL     1     -13.807   7.000  71.470  1.00  0.00     0.000 HD 
HETATM   22  H1  UNL     1     -13.145   5.921  72.727  1.00  0.00     0.000 HD 
ENDBRANCH   9  18
ENDBRANCH   3   4
ENDBRANCH   2   3
BRANCH   2  23
HETATM   23  N   UNL     1     -11.777  14.073  71.037  1.00  0.00    -0.497 NA 
HETATM   24  H   UNL     1     -11.112  13.300  71.074  1.00  0.00     0.000 HD 
BRANCH  23  25
HETATM   25  C   UNL     1     -11.535  14.906  69.847  1.00  0.00    -0.284 C  
BRANCH  25  26
HETATM   26  C   UNL     1     -10.479  16.013  70.052  1.00  0.00    -0.258 C  
BRANCH  26  27
HETATM   27  O   UNL     1      -9.418  15.948  69.090  1.00  0.00    -0.229 OA 
BRANCH  27  28
HETATM   28  C   UNL     1      -9.728  16.288  67.797  1.00  0.00    -0.233 A  
HETATM   29  C   UNL     1     -10.130  18.045  66.179  1.00  0.00    -0.334 A  
HETATM   30  C   UNL     1     -10.105  15.352  66.817  1.00  0.00    -0.266 A  
HETATM   31  C   UNL     1      -9.742  17.650  67.459  1.00  0.00    -0.280 A  
HETATM   32  C   UNL     1     -10.512  17.104  65.219  1.00  0.00    -0.003 A  
HETATM   33  C   UNL     1     -10.500  15.753  65.546  1.00  0.00    -0.425 A  
BRANCH  31  34
HETATM   34  O   UNL     1      -9.521  18.696  68.316  1.00  0.00    -0.309 OA 
BRANCH  34  35
HETATM   35  C   UNL     1      -8.350  19.488  68.080  1.00  0.00    -0.320 C  
HETATM   36  C   UNL     1      -7.150  19.015  68.892  1.00  0.00    -0.328 C  
HETATM   37  F   UNL     1      -7.366  17.851  69.542  1.00  0.00    -0.156 F  
HETATM   38  F   UNL     1      -6.061  18.851  68.106  1.00  0.00    -0.198 F  
HETATM   39  F   UNL     1      -6.817  19.940  69.833  1.00  0.00    -0.375 F  
ENDBRANCH  34  35
ENDBRANCH  31  34
ENDBRANCH  27  28
ENDBRANCH  26  27
ENDBRANCH  25  26
ENDBRANCH  23  25
ENDBRANCH   2  23
TORSDOF 13
ENDMDL
MODEL      198
REMARK 921   NORMALIZED FREE ENERGY PREDICTED BY IDOCK:   -4.62 KCAL/MOL
REMARK 922        TOTAL FREE ENERGY PREDICTED BY IDOCK:  -11.31 KCAL/MOL
REMARK 923 INTER-LIGAND FREE ENERGY PREDICTED BY IDOCK:   -9.76 KCAL/MOL
REMARK 924 INTRA-LIGAND FREE ENERGY PREDICTED BY IDOCK:   -1.54 KCAL/MOL
REMARK 927      BINDING AFFINITY PREDICTED BY RF-SCORE:    0.00 PKD
ROOT
HETATM    1  C   UNL     1      -9.631  13.357  68.564  1.00  0.00    -0.141 C  
HETATM    2  C   UNL     1     -11.127  13.102  68.794  1.00  0.00    -0.269 C  
ENDROOT
BRANCH   2   3
HETATM    3  C   UNL     1     -11.862  12.704  67.494  1.00  0.00    -0.396 C  
BRANCH   3   4
HETATM    4  C   UNL     1     -11.060  11.796  66.605  1.00  0.00    -0.364 A  
HETATM    5  C   UNL     1     -10.643  10.548  67.081  1.00  0.00    -0.319 A  
HETATM    6  C   UNL     1      -8.847  10.246  62.777  1.00  0.00    -0.236 A  
HETATM    7  C   UNL     1     -10.712  12.172  65.316  1.00  0.00    -0.328 A  
HETATM    8  C   UNL     1      -9.986  11.279  64.540  1.00  0.00    -0.334 A  
HETATM    9  C   UNL     1      -9.926   9.629  66.276  1.00  0.00    -0.335 A  
HETATM   10  C   UNL     1      -9.565  10.002  64.977  1.00  0.00    -0.297 A  
HETATM   11  C   UNL     1      -9.545  11.552  63.140  1.00  0.00    -0.381 A  
HETATM   12  N   UNL     1      -8.852   9.382  63.965  1.00  0.00    -0.206 NA 
BRANCH  12  13
HETATM   13  C   UNL     1      -8.295   8.048  63.868  1.00  0.00     0.043 C  
BRANCH  13  14
HETATM   14  C   UNL     1      -7.197   7.969  62.804  1.00  0.00    -0.094 C  
BRANCH  14  15
HETATM   15  C   UNL     1      -5.793   8.130  63.369  1.00  0.00    -0.071 C  
HETATM   16  O   UNL     1      -5.872   8.769  64.645  1.00  0.00    -0.062 OA 
HETATM   17  H   UNL     1      -4.995   8.870  64.997  1.00  0.00     0.000 HD 
ENDBRANCH  14  15
ENDBRANCH  13  14
ENDBRANCH  12  13
BRANCH   9  18
HETATM   18  C   UNL     1      -9.609   8.352  66.967  1.00  0.00    -0.190 C  
HETATM   19  N   UNL     1      -8.399   8.300  67.622  1.00  0.00    -0.126 N  
HETATM   20  O   UNL     1     -10.324   7.356  66.936  1.00  0.00    -0.273 OA 
HETATM   21  H2  UNL     1      -7.758   9.093  67.633  1.00  0.00     0.000 HD 
HETATM   22  H1  UNL     1      -8.182   7.424  68.097  1.00  0.00     0.000 HD 
ENDBRANCH   9  18
ENDBRANCH   3   4
ENDBRANCH   2   3
BRANCH   2  23
HETATM   23  N   UNL     1     -11.715  14.308  69.402  1.00  0.00    -0.295 NA 
HETATM   24  H   UNL     1     -11.258  14.520  70.289  1.00  0.00     0.000 HD 
BRANCH  23  25
HETATM   25  C   UNL     1     -11.708  15.488  68.522  1.00  0.00    -0.337 C  
BRANCH  25  26
HETATM   26  C   UNL     1     -10.818  16.647  69.021  1.00  0.00    -0.314 C  
BRANCH  26  27
HETATM   27  O   UNL     1      -9.818  17.024  68.065  1.00  0.00    -0.259 OA 
BRANCH  27  28
HETATM   28  C   UNL     1      -8.582  17.362  68.557  1.00  0.00    -0.270 A  
HETATM   29  C   UNL     1      -6.913  19.083  68.904  1.00  0.00    -0.357 A  
HETATM   30  C   UNL     1      -7.660  16.422  69.051  1.00  0.00    -0.232 A  
HETATM   31  C   UNL     1      -8.191  18.709  68.491  1.00  0.00    -0.341 A  
HETATM   32  C   UNL     1      -6.004  18.136  69.383  1.00  0.00    -0.242 A  
HETATM   33  C   UNL     1      -6.383  16.801  69.452  1.00  0.00    -0.222 A  
BRANCH  31  34
HETATM   34  O   UNL     1      -8.913  19.731  67.932  1.00  0.00    -0.316 OA 
BRANCH  34  35
HETATM   35  C   UNL     1      -9.051  19.720  66.506  1.00  0.00    -0.376 C  
HETATM   36  C   UNL     1     -10.487  19.468  66.060  1.00  0.00    -0.516 C  
HETATM   37  F   UNL     1     -11.375  19.473  67.077  1.00  0.00    -0.515 F  
HETATM   38  F   UNL     1     -10.890  20.394  65.158  1.00  0.00    -0.425 F  
HETATM   39  F   UNL     1     -10.590  18.257  65.448  1.00  0.00    -0.366 F  
ENDBRANCH  34  35
ENDBRANCH  31  34
ENDBRANCH  27  28
ENDBRANCH  26  27
ENDBRANCH  25  26
ENDBRANCH  23  25
ENDBRANCH   2  23
TORSDOF 13
ENDMDL
MODEL      199
REMARK 921   NORMALIZED FREE ENERGY PREDICTED BY IDOCK:   -4.62 KCAL/MOL
REMARK 922        TOTAL FREE ENERGY PREDICTED BY IDOCK:  -11.30 KCAL/MOL
REMARK 923 INTER-LIGAND FREE ENERGY PREDICTED BY IDOCK:   -9.38 KCAL/MOL
REMARK 924 INTRA-LIGAND FREE ENERGY PREDICTED BY IDOCK:   -1.92 KCAL/MOL
REMARK 927      BINDING AFFINITY PREDICTED BY RF-SCORE:    0.00 PKD
ROOT
HETATM    1  C   UNL     1     -10.606   9.051  66.989  1.00  0.00    -0.270 C  
HETATM    2  C   UNL     1      -9.567  10.177  67.068  1.00  0.00    -0.171 C  
ENDROOT
BRANCH   2   3
HETATM    3  C   UNL     1      -8.206   9.685  67.608  1.00  0.00    -0.114 C  
BRANCH   3   4
HETATM    4  C   UNL     1      -8.324   8.560  68.596  1.00  0.00    -0.123 A  
HETATM    5  C   UNL     1      -8.577   8.840  69.943  1.00  0.00    -0.133 A  
HETATM    6  C   UNL     1      -8.475   4.178  70.251  1.00  0.00    -0.068 A  
HETATM    7  C   UNL     1      -8.179   7.237  68.203  1.00  0.00    -0.124 A  
HETATM    8  C   UNL     1      -8.319   6.243  69.162  1.00  0.00    -0.120 A  
HETATM    9  C   UNL     1      -8.747   7.822  70.913  1.00  0.00    -0.137 A  
HETATM   10  C   UNL     1      -8.595   6.485  70.527  1.00  0.00    -0.143 A  
HETATM   11  C   UNL     1      -8.188   4.783  68.881  1.00  0.00    -0.082 A  
HETATM   12  N   UNL     1      -8.654   5.280  71.205  1.00  0.00    -0.127 NA 
BRANCH  12  13
HETATM   13  C   UNL     1      -8.997   4.973  72.580  1.00  0.00    -0.129 C  
BRANCH  13  14
HETATM   14  C   UNL     1     -10.296   4.169  72.672  1.00  0.00    -0.233 C  
BRANCH  14  15
HETATM   15  C   UNL     1     -11.510   5.018  73.025  1.00  0.00    -0.265 C  
HETATM   16  O   UNL     1     -11.687   6.021  72.024  1.00  0.00    -0.307 OA 
HETATM   17  H   UNL     1     -12.445   6.551  72.244  1.00  0.00     0.000 HD 
ENDBRANCH  14  15
ENDBRANCH  13  14
ENDBRANCH  12  13
BRANCH   9  18
HETATM   18  C   UNL     1      -9.038   8.339  72.276  1.00  0.00    -0.221 C  
HETATM   19  N   UNL     1     -10.366   8.555  72.571  1.00  0.00    -0.298 N  
HETATM   20  O   UNL     1      -8.179   8.626  73.101  1.00  0.00    -0.409 OA 
HETATM   21  H2  UNL     1     -11.106   8.370  71.895  1.00  0.00     0.000 HD 
HETATM   22  H1  UNL     1     -10.566   8.910  73.507  1.00  0.00     0.000 HD 
ENDBRANCH   9  18
ENDBRANCH   3   4
ENDBRANCH   2   3
BRANCH   2  23
HETATM   23  N   UNL     1     -10.120  11.262  67.899  1.00  0.00    -0.174 NA 
HETATM   24  H   UNL     1     -10.187  12.125  67.361  1.00  0.00     0.000 HD 
BRANCH  23  25
HETATM   25  C   UNL     1     -11.415  10.940  68.522  1.00  0.00    -0.310 C  
BRANCH  25  26
HETATM   26  C   UNL     1     -11.717  11.741  69.806  1.00  0.00    -0.335 C  
BRANCH  26  27
HETATM   27  O   UNL     1     -11.846  13.148  69.560  1.00  0.00    -0.299 OA 
BRANCH  27  28
HETATM   28  C   UNL     1     -12.236  13.932  70.616  1.00  0.00    -0.373 A  
HETATM   29  C   UNL     1     -11.935  15.983  71.870  1.00  0.00    -0.606 A  
HETATM   30  C   UNL     1     -13.155  13.515  71.596  1.00  0.00    -0.459 A  
HETATM   31  C   UNL     1     -11.627  15.188  70.766  1.00  0.00    -0.317 A  
HETATM   32  C   UNL     1     -12.841  15.550  72.840  1.00  0.00    -0.564 A  
HETATM   33  C   UNL     1     -13.449  14.308  72.699  1.00  0.00    -0.623 A  
BRANCH  31  34
HETATM   34  O   UNL     1     -10.630  15.699  69.977  1.00  0.00    -0.294 OA 
BRANCH  34  35
HETATM   35  C   UNL     1     -11.032  16.559  68.903  1.00  0.00    -0.325 C  
HETATM   36  C   UNL     1      -9.912  17.487  68.446  1.00  0.00    -0.335 C  
HETATM   37  F   UNL     1      -8.720  17.210  69.015  1.00  0.00    -0.263 F  
HETATM   38  F   UNL     1      -9.750  17.434  67.104  1.00  0.00    -0.246 F  
HETATM   39  F   UNL     1     -10.209  18.778  68.753  1.00  0.00    -0.385 F  
ENDBRANCH  34  35
ENDBRANCH  31  34
ENDBRANCH  27  28
ENDBRANCH  26  27
ENDBRANCH  25  26
ENDBRANCH  23  25
ENDBRANCH   2  23
TORSDOF 13
ENDMDL
MODEL      200
REMARK 921   NORMALIZED FREE ENERGY PREDICTED BY IDOCK:   -4.62 KCAL/MOL
REMARK 922        TOTAL FREE ENERGY PREDICTED BY IDOCK:  -11.30 KCAL/MOL
REMARK 923 INTER-LIGAND FREE ENERGY PREDICTED BY IDOCK:   -8.00 KCAL/MOL
REMARK 924 INTRA-LIGAND FREE ENERGY PREDICTED BY IDOCK:   -3.30 KCAL/MOL
REMARK 927      BINDING AFFINITY PREDICTED BY RF-SCORE:    0.00 PKD
ROOT
HETATM    1  C   UNL     1      -6.796  14.908  68.544  1.00  0.00    -0.106 C  
HETATM    2  C   UNL     1      -8.217  14.363  68.353  1.00  0.00    -0.145 C  
ENDROOT
BRANCH   2   3
HETATM    3  C   UNL     1      -8.339  13.457  67.107  1.00  0.00    -0.149 C  
BRANCH   3   4
HETATM    4  C   UNL     1      -8.323  11.990  67.429  1.00  0.00    -0.171 A  
HETATM    5  C   UNL     1      -8.119  11.055  66.408  1.00  0.00    -0.166 A  
HETATM    6  C   UNL     1      -8.473   8.060  69.978  1.00  0.00    -0.129 A  
HETATM    7  C   UNL     1      -8.518  11.534  68.725  1.00  0.00    -0.057 A  
HETATM    8  C   UNL     1      -8.473  10.166  68.959  1.00  0.00    -0.151 A  
HETATM    9  C   UNL     1      -8.046   9.662  66.655  1.00  0.00    -0.119 A  
HETATM   10  C   UNL     1      -8.248   9.193  67.958  1.00  0.00    -0.112 A  
HETATM   11  C   UNL     1      -8.665   9.538  70.299  1.00  0.00    -0.270 A  
HETATM   12  N   UNL     1      -8.282   7.932  68.527  1.00  0.00    -0.126 NA 
BRANCH  12  13
HETATM   13  C   UNL     1      -8.019   6.622  67.964  1.00  0.00    -0.110 C  
BRANCH  13  14
HETATM   14  C   UNL     1      -6.718   6.025  68.507  1.00  0.00    -0.061 C  
BRANCH  14  15
HETATM   15  C   UNL     1      -6.889   4.629  69.090  1.00  0.00    -0.050 C  
HETATM   16  O   UNL     1      -6.212   4.560  70.346  1.00  0.00    -0.020 OA 
HETATM   17  H   UNL     1      -6.319   3.689  70.710  1.00  0.00     0.000 HD 
ENDBRANCH  14  15
ENDBRANCH  13  14
ENDBRANCH  12  13
BRANCH   9  18
HETATM   18  C   UNL     1      -7.792   8.853  65.435  1.00  0.00    -0.102 C  
HETATM   19  N   UNL     1      -8.901   8.503  64.697  1.00  0.00    -0.414 N  
HETATM   20  O   UNL     1      -6.686   8.447  65.096  1.00  0.00    -0.062 OA 
HETATM   21  H2  UNL     1      -9.842   8.784  64.972  1.00  0.00     0.000 HD 
HETATM   22  H1  UNL     1      -8.726   7.947  63.859  1.00  0.00     0.000 HD 
ENDBRANCH   9  18
ENDBRANCH   3   4
ENDBRANCH   2   3
BRANCH   2  23
HETATM   23  N   UNL     1      -9.147  15.505  68.287  1.00  0.00    -0.184 NA 
HETATM   24  H   UNL     1      -9.859  15.344  67.576  1.00  0.00     0.000 HD 
BRANCH  23  25
HETATM   25  C   UNL     1      -9.770  15.848  69.576  1.00  0.00    -0.255 C  
BRANCH  25  26
HETATM   26  C   UNL     1     -11.298  16.057  69.505  1.00  0.00    -0.344 C  
BRANCH  26  27
HETATM   27  O   UNL     1     -11.929  15.194  68.551  1.00  0.00    -0.304 OA 
BRANCH  27  28
HETATM   28  C   UNL     1     -11.935  13.851  68.833  1.00  0.00    -0.358 A  
HETATM   29  C   UNL     1     -11.976  11.579  67.994  1.00  0.00    -0.174 A  
HETATM   30  C   UNL     1     -12.061  13.332  70.134  1.00  0.00    -0.403 A  
HETATM   31  C   UNL     1     -11.890  12.950  67.757  1.00  0.00    -0.339 A  
HETATM   32  C   UNL     1     -12.111  11.079  69.291  1.00  0.00    -0.363 A  
HETATM   33  C   UNL     1     -12.157  11.964  70.362  1.00  0.00    -0.421 A  
BRANCH  31  34
HETATM   34  O   UNL     1     -11.888  13.283  66.427  1.00  0.00    -0.358 OA 
BRANCH  34  35
HETATM   35  C   UNL     1     -11.601  12.230  65.499  1.00  0.00    -0.371 C  
HETATM   36  C   UNL     1     -10.843  12.724  64.271  1.00  0.00    -0.390 C  
HETATM   37  F   UNL     1     -10.442  14.009  64.369  1.00  0.00    -0.431 F  
HETATM   38  F   UNL     1      -9.747  11.967  64.035  1.00  0.00    -0.262 F  
HETATM   39  F   UNL     1     -11.626  12.635  63.161  1.00  0.00    -0.524 F  
ENDBRANCH  34  35
ENDBRANCH  31  34
ENDBRANCH  27  28
ENDBRANCH  26  27
ENDBRANCH  25  26
ENDBRANCH  23  25
ENDBRANCH   2  23
TORSDOF 13
ENDMDL
MODEL      201
REMARK 921   NORMALIZED FREE ENERGY PREDICTED BY IDOCK:   -4.62 KCAL/MOL
REMARK 922        TOTAL FREE ENERGY PREDICTED BY IDOCK:  -11.30 KCAL/MOL
REMARK 923 INTER-LIGAND FREE ENERGY PREDICTED BY IDOCK:   -7.97 KCAL/MOL
REMARK 924 INTRA-LIGAND FREE ENERGY PREDICTED BY IDOCK:   -3.33 KCAL/MOL
REMARK 927      BINDING AFFINITY PREDICTED BY RF-SCORE:    0.00 PKD
ROOT
HETATM    1  C   UNL     1      -7.395   6.586  74.514  1.00  0.00    -0.099 C  
HETATM    2  C   UNL     1      -8.460   6.226  73.471  1.00  0.00    -0.121 C  
ENDROOT
BRANCH   2   3
HETATM    3  C   UNL     1      -9.785   6.989  73.694  1.00  0.00    -0.283 C  
BRANCH   3   4
HETATM    4  C   UNL     1     -10.084   7.998  72.622  1.00  0.00    -0.370 A  
HETATM    5  C   UNL     1      -9.075   8.391  71.736  1.00  0.00    -0.283 A  
HETATM    6  C   UNL     1     -12.540  10.988  69.978  1.00  0.00    -0.175 A  
HETATM    7  C   UNL     1     -11.345   8.562  72.493  1.00  0.00    -0.357 A  
HETATM    8  C   UNL     1     -11.560   9.475  71.469  1.00  0.00    -0.465 A  
HETATM    9  C   UNL     1      -9.306   9.301  70.675  1.00  0.00    -0.329 A  
HETATM   10  C   UNL     1     -10.573   9.880  70.542  1.00  0.00    -0.293 A  
HETATM   11  C   UNL     1     -12.863  10.157  71.215  1.00  0.00    -0.508 A  
HETATM   12  N   UNL     1     -11.115  10.808  69.670  1.00  0.00    -0.262 NA 
BRANCH  12  13
HETATM   13  C   UNL     1     -10.562  11.451  68.494  1.00  0.00    -0.198 C  
BRANCH  13  14
HETATM   14  C   UNL     1     -11.655  12.080  67.627  1.00  0.00    -0.392 C  
BRANCH  14  15
HETATM   15  C   UNL     1     -11.562  13.597  67.538  1.00  0.00    -0.350 C  
HETATM   16  O   UNL     1     -12.372  14.176  68.562  1.00  0.00    -0.556 OA 
HETATM   17  H   UNL     1     -12.313  15.123  68.507  1.00  0.00     0.000 HD 
ENDBRANCH  14  15
ENDBRANCH  13  14
ENDBRANCH  12  13
BRANCH   9  18
HETATM   18  C   UNL     1      -8.106   9.555  69.835  1.00  0.00    -0.157 C  
HETATM   19  N   UNL     1      -7.449  10.744  70.061  1.00  0.00    -0.323 N  
HETATM   20  O   UNL     1      -7.720   8.809  68.943  1.00  0.00    -0.092 OA 
HETATM   21  H2  UNL     1      -7.766  11.411  70.764  1.00  0.00     0.000 HD 
HETATM   22  H1  UNL     1      -6.625  10.919  69.485  1.00  0.00     0.000 HD 
ENDBRANCH   9  18
ENDBRANCH   3   4
ENDBRANCH   2   3
BRANCH   2  23
HETATM   23  N   UNL     1      -8.663   4.766  73.500  1.00  0.00    -0.104 NA 
HETATM   24  H   UNL     1      -9.653   4.541  73.399  1.00  0.00     0.000 HD 
BRANCH  23  25
HETATM   25  C   UNL     1      -7.861   4.028  72.511  1.00  0.00    -0.082 C  
BRANCH  25  26
HETATM   26  C   UNL     1      -7.501   4.844  71.251  1.00  0.00    -0.077 C  
BRANCH  26  27
HETATM   27  O   UNL     1      -8.128   4.334  70.067  1.00  0.00    -0.058 OA 
BRANCH  27  28
HETATM   28  C   UNL     1      -9.167   5.064  69.548  1.00  0.00    -0.119 A  
HETATM   29  C   UNL     1     -10.006   6.438  67.738  1.00  0.00    -0.147 A  
HETATM   30  C   UNL     1     -10.349   5.344  70.256  1.00  0.00    -0.357 A  
HETATM   31  C   UNL     1      -9.008   5.623  68.270  1.00  0.00    -0.114 A  
HETATM   32  C   UNL     1     -11.170   6.716  68.458  1.00  0.00    -0.227 A  
HETATM   33  C   UNL     1     -11.336   6.167  69.724  1.00  0.00    -0.452 A  
BRANCH  31  34
HETATM   34  O   UNL     1      -7.880   5.551  67.494  1.00  0.00    -0.099 OA 
BRANCH  34  35
HETATM   35  C   UNL     1      -7.882   4.580  66.440  1.00  0.00    -0.099 C  
HETATM   36  C   UNL     1      -8.086   5.210  65.066  1.00  0.00    -0.117 C  
HETATM   37  F   UNL     1      -8.056   6.560  65.084  1.00  0.00    -0.109 F  
HETATM   38  F   UNL     1      -7.145   4.789  64.190  1.00  0.00    -0.046 F  
HETATM   39  F   UNL     1      -9.291   4.846  64.550  1.00  0.00    -0.150 F  
ENDBRANCH  34  35
ENDBRANCH  31  34
ENDBRANCH  27  28
ENDBRANCH  26  27
ENDBRANCH  25  26
ENDBRANCH  23  25
ENDBRANCH   2  23
TORSDOF 13
ENDMDL
MODEL      202
REMARK 921   NORMALIZED FREE ENERGY PREDICTED BY IDOCK:   -4.60 KCAL/MOL
REMARK 922        TOTAL FREE ENERGY PREDICTED BY IDOCK:  -11.27 KCAL/MOL
REMARK 923 INTER-LIGAND FREE ENERGY PREDICTED BY IDOCK:   -9.87 KCAL/MOL
REMARK 924 INTRA-LIGAND FREE ENERGY PREDICTED BY IDOCK:   -1.40 KCAL/MOL
REMARK 927      BINDING AFFINITY PREDICTED BY RF-SCORE:    0.00 PKD
ROOT
HETATM    1  C   UNL     1     -12.753  11.749  63.828  1.00  0.00    -0.369 C  
HETATM    2  C   UNL     1     -11.700  12.753  63.341  1.00  0.00    -0.488 C  
ENDROOT
BRANCH   2   3
HETATM    3  C   UNL     1     -10.429  12.746  64.221  1.00  0.00    -0.423 C  
BRANCH   3   4
HETATM    4  C   UNL     1     -10.511  11.798  65.383  1.00  0.00    -0.317 A  
HETATM    5  C   UNL     1     -10.033  10.490  65.249  1.00  0.00    -0.364 A  
HETATM    6  C   UNL     1     -11.384  10.239  69.716  1.00  0.00    -0.273 A  
HETATM    7  C   UNL     1     -11.062  12.188  66.596  1.00  0.00    -0.353 A  
HETATM    8  C   UNL     1     -11.090  11.269  67.636  1.00  0.00    -0.336 A  
HETATM    9  C   UNL     1     -10.038   9.564  66.322  1.00  0.00    -0.327 A  
HETATM   10  C   UNL     1     -10.598   9.947  67.545  1.00  0.00    -0.275 A  
HETATM   11  C   UNL     1     -11.652  11.553  68.989  1.00  0.00    -0.383 A  
HETATM   12  N   UNL     1     -10.795   9.300  68.753  1.00  0.00    -0.145 NA 
BRANCH  12  13
HETATM   13  C   UNL     1     -10.391   7.985  69.209  1.00  0.00    -0.220 C  
BRANCH  13  14
HETATM   14  C   UNL     1      -8.967   7.995  69.771  1.00  0.00    -0.145 C  
BRANCH  14  15
HETATM   15  C   UNL     1      -8.172   9.235  69.387  1.00  0.00    -0.114 C  
HETATM   16  O   UNL     1      -8.007  10.061  70.542  1.00  0.00    -0.399 OA 
HETATM   17  H   UNL     1      -7.511  10.835  70.302  1.00  0.00     0.000 HD 
ENDBRANCH  14  15
ENDBRANCH  13  14
ENDBRANCH  12  13
BRANCH   9  18
HETATM   18  C   UNL     1      -9.456   8.242  65.971  1.00  0.00    -0.119 C  
HETATM   19  N   UNL     1     -10.160   7.138  66.396  1.00  0.00    -0.459 N  
HETATM   20  O   UNL     1      -8.386   8.093  65.391  1.00  0.00    -0.142 OA 
HETATM   21  H2  UNL     1     -11.030   7.222  66.920  1.00  0.00     0.000 HD 
HETATM   22  H1  UNL     1      -9.760   6.230  66.155  1.00  0.00     0.000 HD 
ENDBRANCH   9  18
ENDBRANCH   3   4
ENDBRANCH   2   3
BRANCH   2  23
HETATM   23  N   UNL     1     -12.319  14.089  63.293  1.00  0.00    -1.145 NA 
HETATM   24  H   UNL     1     -13.264  14.031  62.915  1.00  0.00     0.000 HD 
BRANCH  23  25
HETATM   25  C   UNL     1     -12.320  14.797  64.583  1.00  0.00    -0.333 C  
BRANCH  25  26
HETATM   26  C   UNL     1     -11.326  15.976  64.661  1.00  0.00    -0.306 C  
BRANCH  26  27
HETATM   27  O   UNL     1     -10.149  15.655  65.415  1.00  0.00    -0.355 OA 
BRANCH  27  28
HETATM   28  C   UNL     1     -10.304  15.477  66.766  1.00  0.00    -0.288 A  
HETATM   29  C   UNL     1      -9.418  14.569  68.830  1.00  0.00    -0.183 A  
HETATM   30  C   UNL     1     -11.472  15.827  67.467  1.00  0.00    -0.063 A  
HETATM   31  C   UNL     1      -9.269  14.843  67.471  1.00  0.00    -0.193 A  
HETATM   32  C   UNL     1     -10.589  14.912  69.510  1.00  0.00    -0.242 A  
HETATM   33  C   UNL     1     -11.619  15.541  68.820  1.00  0.00    -0.390 A  
BRANCH  31  34
HETATM   34  O   UNL     1      -8.119  14.332  66.927  1.00  0.00    -0.112 OA 
BRANCH  34  35
HETATM   35  C   UNL     1      -7.730  13.021  67.354  1.00  0.00    -0.155 C  
HETATM   36  C   UNL     1      -6.260  12.949  67.755  1.00  0.00    -0.144 C  
HETATM   37  F   UNL     1      -5.654  14.155  67.794  1.00  0.00    -0.120 F  
HETATM   38  F   UNL     1      -6.111  12.375  68.971  1.00  0.00    -0.060 F  
HETATM   39  F   UNL     1      -5.563  12.182  66.873  1.00  0.00    -0.130 F  
ENDBRANCH  34  35
ENDBRANCH  31  34
ENDBRANCH  27  28
ENDBRANCH  26  27
ENDBRANCH  25  26
ENDBRANCH  23  25
ENDBRANCH   2  23
TORSDOF 13
ENDMDL
MODEL      203
REMARK 921   NORMALIZED FREE ENERGY PREDICTED BY IDOCK:   -4.60 KCAL/MOL
REMARK 922        TOTAL FREE ENERGY PREDICTED BY IDOCK:  -11.26 KCAL/MOL
REMARK 923 INTER-LIGAND FREE ENERGY PREDICTED BY IDOCK:   -9.69 KCAL/MOL
REMARK 924 INTRA-LIGAND FREE ENERGY PREDICTED BY IDOCK:   -1.57 KCAL/MOL
REMARK 927      BINDING AFFINITY PREDICTED BY RF-SCORE:    0.00 PKD
ROOT
HETATM    1  C   UNL     1     -11.356  14.757  65.197  1.00  0.00    -0.379 C  
HETATM    2  C   UNL     1     -11.369  13.996  66.529  1.00  0.00    -0.336 C  
ENDROOT
BRANCH   2   3
HETATM    3  C   UNL     1     -12.118  12.648  66.431  1.00  0.00    -0.330 C  
BRANCH   3   4
HETATM    4  C   UNL     1     -11.476  11.546  67.224  1.00  0.00    -0.338 A  
HETATM    5  C   UNL     1     -10.526  10.716  66.620  1.00  0.00    -0.296 A  
HETATM    6  C   UNL     1     -10.439   8.814  70.888  1.00  0.00    -0.221 A  
HETATM    7  C   UNL     1     -11.813  11.323  68.552  1.00  0.00    -0.355 A  
HETATM    8  C   UNL     1     -11.169  10.300  69.235  1.00  0.00    -0.281 A  
HETATM    9  C   UNL     1      -9.851   9.691  67.328  1.00  0.00    -0.225 A  
HETATM   10  C   UNL     1     -10.188   9.455  68.665  1.00  0.00    -0.201 A  
HETATM   11  C   UNL     1     -11.431   9.950  70.662  1.00  0.00    -0.411 A  
HETATM   12  N   UNL     1      -9.767   8.538  69.612  1.00  0.00    -0.177 NA 
BRANCH  12  13
HETATM   13  C   UNL     1      -8.725   7.530  69.568  1.00  0.00    -0.137 C  
BRANCH  13  14
HETATM   14  C   UNL     1      -7.497   7.952  70.379  1.00  0.00    -0.077 C  
BRANCH  14  15
HETATM   15  C   UNL     1      -6.905   9.282  69.935  1.00  0.00    -0.055 C  
HETATM   16  O   UNL     1      -7.171  10.269  70.933  1.00  0.00    -0.386 OA 
HETATM   17  H   UNL     1      -6.801  11.099  70.656  1.00  0.00     0.000 HD 
ENDBRANCH  14  15
ENDBRANCH  13  14
ENDBRANCH  12  13
BRANCH   9  18
HETATM   18  C   UNL     1      -8.860   8.951  66.505  1.00  0.00    -0.136 C  
HETATM   19  N   UNL     1      -9.373   8.014  65.636  1.00  0.00    -0.413 N  
HETATM   20  O   UNL     1      -7.645   9.090  66.599  1.00  0.00    -0.088 OA 
HETATM   21  H2  UNL     1     -10.374   7.838  65.562  1.00  0.00     0.000 HD 
HETATM   22  H1  UNL     1      -8.692   7.505  65.070  1.00  0.00     0.000 HD 
ENDBRANCH   9  18
ENDBRANCH   3   4
ENDBRANCH   2   3
BRANCH   2  23
HETATM   23  N   UNL     1     -11.960  14.872  67.557  1.00  0.00    -0.465 NA 
HETATM   24  H   UNL     1     -12.926  14.604  67.742  1.00  0.00     0.000 HD 
BRANCH  23  25
HETATM   25  C   UNL     1     -11.191  14.928  68.811  1.00  0.00    -0.275 C  
BRANCH  25  26
HETATM   26  C   UNL     1     -10.996  16.354  69.372  1.00  0.00    -0.325 C  
BRANCH  26  27
HETATM   27  O   UNL     1      -9.689  16.878  69.104  1.00  0.00    -0.245 OA 
BRANCH  27  28
HETATM   28  C   UNL     1      -9.604  17.917  68.213  1.00  0.00    -0.312 A  
HETATM   29  C   UNL     1      -8.222  19.597  67.147  1.00  0.00    -0.323 A  
HETATM   30  C   UNL     1     -10.721  18.490  67.579  1.00  0.00    -0.419 A  
HETATM   31  C   UNL     1      -8.342  18.487  67.982  1.00  0.00    -0.276 A  
HETATM   32  C   UNL     1      -9.342  20.161  66.533  1.00  0.00    -0.473 A  
HETATM   33  C   UNL     1     -10.596  19.603  66.755  1.00  0.00    -0.602 A  
BRANCH  31  34
HETATM   34  O   UNL     1      -7.172  18.134  68.604  1.00  0.00    -0.264 OA 
BRANCH  34  35
HETATM   35  C   UNL     1      -6.871  16.735  68.668  1.00  0.00    -0.175 C  
HETATM   36  C   UNL     1      -6.343  16.190  67.345  1.00  0.00    -0.176 C  
HETATM   37  F   UNL     1      -6.101  17.150  66.427  1.00  0.00    -0.210 F  
HETATM   38  F   UNL     1      -5.197  15.494  67.525  1.00  0.00    -0.132 F  
HETATM   39  F   UNL     1      -7.240  15.329  66.793  1.00  0.00    -0.177 F  
ENDBRANCH  34  35
ENDBRANCH  31  34
ENDBRANCH  27  28
ENDBRANCH  26  27
ENDBRANCH  25  26
ENDBRANCH  23  25
ENDBRANCH   2  23
TORSDOF 13
ENDMDL
MODEL      204
REMARK 921   NORMALIZED FREE ENERGY PREDICTED BY IDOCK:   -4.59 KCAL/MOL
REMARK 922        TOTAL FREE ENERGY PREDICTED BY IDOCK:  -11.24 KCAL/MOL
REMARK 923 INTER-LIGAND FREE ENERGY PREDICTED BY IDOCK:   -8.96 KCAL/MOL
REMARK 924 INTRA-LIGAND FREE ENERGY PREDICTED BY IDOCK:   -2.28 KCAL/MOL
REMARK 927      BINDING AFFINITY PREDICTED BY RF-SCORE:    0.00 PKD
ROOT
HETATM    1  C   UNL     1     -11.015   7.795  73.081  1.00  0.00    -0.372 C  
HETATM    2  C   UNL     1     -10.584   8.827  72.031  1.00  0.00    -0.344 C  
ENDROOT
BRANCH   2   3
HETATM    3  C   UNL     1     -11.312   8.632  70.681  1.00  0.00    -0.277 C  
BRANCH   3   4
HETATM    4  C   UNL     1     -11.175   9.804  69.752  1.00  0.00    -0.242 A  
HETATM    5  C   UNL     1     -10.453   9.668  68.562  1.00  0.00    -0.241 A  
HETATM    6  C   UNL     1     -11.739  14.131  68.042  1.00  0.00    -0.359 A  
HETATM    7  C   UNL     1     -11.746  11.033  70.053  1.00  0.00    -0.437 A  
HETATM    8  C   UNL     1     -11.598  12.071  69.142  1.00  0.00    -0.370 A  
HETATM    9  C   UNL     1     -10.329  10.722  67.623  1.00  0.00    -0.236 A  
HETATM   10  C   UNL     1     -10.894  11.966  67.920  1.00  0.00    -0.213 A  
HETATM   11  C   UNL     1     -12.157  13.441  69.336  1.00  0.00    -0.321 A  
HETATM   12  N   UNL     1     -10.927  13.185  67.265  1.00  0.00    -0.263 NA 
BRANCH  12  13
HETATM   13  C   UNL     1     -10.449  13.578  65.955  1.00  0.00    -0.292 C  
BRANCH  13  14
HETATM   14  C   UNL     1     -11.416  13.151  64.848  1.00  0.00    -0.337 C  
BRANCH  14  15
HETATM   15  C   UNL     1     -12.455  14.210  64.508  1.00  0.00    -0.322 C  
HETATM   16  O   UNL     1     -12.591  14.295  63.089  1.00  0.00    -1.028 OA 
HETATM   17  H   UNL     1     -13.240  14.956  62.877  1.00  0.00     0.000 HD 
ENDBRANCH  14  15
ENDBRANCH  13  14
ENDBRANCH  12  13
BRANCH   9  18
HETATM   18  C   UNL     1      -9.546  10.353  66.414  1.00  0.00    -0.179 C  
HETATM   19  N   UNL     1     -10.264   9.822  65.365  1.00  0.00    -0.265 N  
HETATM   20  O   UNL     1      -8.327  10.445  66.329  1.00  0.00    -0.136 OA 
HETATM   21  H2  UNL     1     -11.273   9.690  65.416  1.00  0.00     0.000 HD 
HETATM   22  H1  UNL     1      -9.727   9.569  64.535  1.00  0.00     0.000 HD 
ENDBRANCH   9  18
ENDBRANCH   3   4
ENDBRANCH   2   3
BRANCH   2  23
HETATM   23  N   UNL     1      -9.121   8.746  71.874  1.00  0.00    -0.331 NA 
HETATM   24  H   UNL     1      -8.731   9.667  71.677  1.00  0.00     0.000 HD 
BRANCH  23  25
HETATM   25  C   UNL     1      -8.429   8.124  73.015  1.00  0.00    -0.209 C  
BRANCH  25  26
HETATM   26  C   UNL     1      -7.481   6.969  72.628  1.00  0.00    -0.084 C  
BRANCH  26  27
HETATM   27  O   UNL     1      -7.831   6.365  71.376  1.00  0.00    -0.101 OA 
BRANCH  27  28
HETATM   28  C   UNL     1      -8.484   5.160  71.426  1.00  0.00    -0.124 A  
HETATM   29  C   UNL     1      -9.580   3.370  70.216  1.00  0.00    -0.215 A  
HETATM   30  C   UNL     1      -8.880   4.540  72.624  1.00  0.00    -0.120 A  
HETATM   31  C   UNL     1      -8.844   4.553  70.211  1.00  0.00    -0.083 A  
HETATM   32  C   UNL     1      -9.975   2.771  71.415  1.00  0.00    -0.066 A  
HETATM   33  C   UNL     1      -9.623   3.364  72.622  1.00  0.00    -0.184 A  
BRANCH  31  34
HETATM   34  O   UNL     1      -8.646   5.076  68.960  1.00  0.00    -0.086 OA 
BRANCH  34  35
HETATM   35  C   UNL     1      -9.400   6.246  68.621  1.00  0.00    -0.122 C  
HETATM   36  C   UNL     1     -10.219   6.065  67.348  1.00  0.00    -0.189 C  
HETATM   37  F   UNL     1     -10.212   4.799  66.880  1.00  0.00    -0.201 F  
HETATM   38  F   UNL     1     -11.509   6.426  67.540  1.00  0.00    -0.399 F  
HETATM   39  F   UNL     1      -9.735   6.859  66.354  1.00  0.00    -0.213 F  
ENDBRANCH  34  35
ENDBRANCH  31  34
ENDBRANCH  27  28
ENDBRANCH  26  27
ENDBRANCH  25  26
ENDBRANCH  23  25
ENDBRANCH   2  23
TORSDOF 13
ENDMDL
MODEL      205
REMARK 921   NORMALIZED FREE ENERGY PREDICTED BY IDOCK:   -4.57 KCAL/MOL
REMARK 922        TOTAL FREE ENERGY PREDICTED BY IDOCK:  -11.21 KCAL/MOL
REMARK 923 INTER-LIGAND FREE ENERGY PREDICTED BY IDOCK:   -8.96 KCAL/MOL
REMARK 924 INTRA-LIGAND FREE ENERGY PREDICTED BY IDOCK:   -2.25 KCAL/MOL
REMARK 927      BINDING AFFINITY PREDICTED BY RF-SCORE:    0.00 PKD
ROOT
HETATM    1  C   UNL     1     -13.968   8.963  71.930  1.00  0.00    -0.476 C  
HETATM    2  C   UNL     1     -12.726   9.626  71.321  1.00  0.00    -0.352 C  
ENDROOT
BRANCH   2   3
HETATM    3  C   UNL     1     -11.422   9.203  72.035  1.00  0.00    -0.351 C  
BRANCH   3   4
HETATM    4  C   UNL     1     -10.383   8.646  71.104  1.00  0.00    -0.294 A  
HETATM    5  C   UNL     1     -10.759   8.183  69.838  1.00  0.00    -0.241 A  
HETATM    6  C   UNL     1      -6.169   7.372  69.498  1.00  0.00    -0.031 A  
HETATM    7  C   UNL     1      -9.048   8.571  71.475  1.00  0.00    -0.281 A  
HETATM    8  C   UNL     1      -8.135   8.063  70.561  1.00  0.00    -0.105 A  
HETATM    9  C   UNL     1      -9.819   7.692  68.898  1.00  0.00    -0.164 A  
HETATM   10  C   UNL     1      -8.473   7.606  69.267  1.00  0.00    -0.138 A  
HETATM   11  C   UNL     1      -6.672   7.926  70.826  1.00  0.00    -0.037 A  
HETATM   12  N   UNL     1      -7.332   7.153  68.628  1.00  0.00    -0.094 NA 
BRANCH  12  13
HETATM   13  C   UNL     1      -7.119   6.680  67.274  1.00  0.00    -0.080 C  
BRANCH  13  14
HETATM   14  C   UNL     1      -6.271   5.406  67.247  1.00  0.00    -0.031 C  
BRANCH  14  15
HETATM   15  C   UNL     1      -7.083   4.132  67.435  1.00  0.00    -0.067 C  
HETATM   16  O   UNL     1      -8.380   4.472  67.927  1.00  0.00    -0.098 OA 
HETATM   17  H   UNL     1      -8.887   3.677  68.044  1.00  0.00     0.000 HD 
ENDBRANCH  14  15
ENDBRANCH  13  14
ENDBRANCH  12  13
BRANCH   9  18
HETATM   18  C   UNL     1     -10.428   7.281  67.606  1.00  0.00    -0.242 C  
HETATM   19  N   UNL     1     -10.476   8.246  66.624  1.00  0.00    -0.392 N  
HETATM   20  O   UNL     1     -10.924   6.180  67.398  1.00  0.00    -0.321 OA 
HETATM   21  H2  UNL     1     -10.114   9.187  66.775  1.00  0.00     0.000 HD 
HETATM   22  H1  UNL     1     -10.894   7.964  65.737  1.00  0.00     0.000 HD 
ENDBRANCH   9  18
ENDBRANCH   3   4
ENDBRANCH   2   3
BRANCH   2  23
HETATM   23  N   UNL     1     -12.915  11.088  71.358  1.00  0.00    -0.422 NA 
HETATM   24  H   UNL     1     -12.773  11.442  72.304  1.00  0.00     0.000 HD 
BRANCH  23  25
HETATM   25  C   UNL     1     -12.080  11.826  70.397  1.00  0.00    -0.352 C  
BRANCH  25  26
HETATM   26  C   UNL     1     -12.146  11.284  68.953  1.00  0.00    -0.224 C  
BRANCH  26  27
HETATM   27  O   UNL     1     -11.030  11.702  68.156  1.00  0.00    -0.200 OA 
BRANCH  27  28
HETATM   28  C   UNL     1     -11.311  12.294  66.951  1.00  0.00    -0.333 A  
HETATM   29  C   UNL     1     -12.203  14.210  65.767  1.00  0.00    -0.458 A  
HETATM   30  C   UNL     1     -11.183  11.639  65.714  1.00  0.00    -0.290 A  
HETATM   31  C   UNL     1     -11.827  13.601  66.963  1.00  0.00    -0.408 A  
HETATM   32  C   UNL     1     -12.080  13.542  64.547  1.00  0.00    -0.460 A  
HETATM   33  C   UNL     1     -11.570  12.249  64.526  1.00  0.00    -0.418 A  
BRANCH  31  34
HETATM   34  O   UNL     1     -12.127  14.338  68.078  1.00  0.00    -0.338 OA 
BRANCH  34  35
HETATM   35  C   UNL     1     -11.556  15.650  68.158  1.00  0.00    -0.283 C  
HETATM   36  C   UNL     1     -10.812  15.885  69.468  1.00  0.00    -0.305 C  
HETATM   37  F   UNL     1     -10.687  14.772  70.222  1.00  0.00    -0.226 F  
HETATM   38  F   UNL     1      -9.569  16.372  69.244  1.00  0.00    -0.235 F  
HETATM   39  F   UNL     1     -11.463  16.809  70.226  1.00  0.00    -0.213 F  
ENDBRANCH  34  35
ENDBRANCH  31  34
ENDBRANCH  27  28
ENDBRANCH  26  27
ENDBRANCH  25  26
ENDBRANCH  23  25
ENDBRANCH   2  23
TORSDOF 13
ENDMDL
MODEL      206
REMARK 921   NORMALIZED FREE ENERGY PREDICTED BY IDOCK:   -4.55 KCAL/MOL
REMARK 922        TOTAL FREE ENERGY PREDICTED BY IDOCK:  -11.17 KCAL/MOL
REMARK 923 INTER-LIGAND FREE ENERGY PREDICTED BY IDOCK:   -8.73 KCAL/MOL
REMARK 924 INTRA-LIGAND FREE ENERGY PREDICTED BY IDOCK:   -2.44 KCAL/MOL
REMARK 927      BINDING AFFINITY PREDICTED BY RF-SCORE:    0.00 PKD
ROOT
HETATM    1  C   UNL     1     -12.877  11.785  63.583  1.00  0.00    -0.339 C  
HETATM    2  C   UNL     1     -11.717  12.405  64.371  1.00  0.00    -0.366 C  
ENDROOT
BRANCH   2   3
HETATM    3  C   UNL     1     -11.946  12.349  65.898  1.00  0.00    -0.434 C  
BRANCH   3   4
HETATM    4  C   UNL     1     -10.855  11.632  66.641  1.00  0.00    -0.327 A  
HETATM    5  C   UNL     1     -10.911  10.241  66.788  1.00  0.00    -0.157 A  
HETATM    6  C   UNL     1      -6.868  10.974  69.015  1.00  0.00    -0.084 A  
HETATM    7  C   UNL     1      -9.788  12.322  67.199  1.00  0.00    -0.207 A  
HETATM    8  C   UNL     1      -8.803  11.597  67.858  1.00  0.00    -0.155 A  
HETATM    9  C   UNL     1      -9.890   9.503  67.435  1.00  0.00    -0.218 A  
HETATM   10  C   UNL     1      -8.814  10.191  68.007  1.00  0.00    -0.125 A  
HETATM   11  C   UNL     1      -7.604  12.207  68.502  1.00  0.00    -0.124 A  
HETATM   12  N   UNL     1      -7.698   9.797  68.725  1.00  0.00    -0.079 NA 
BRANCH  12  13
HETATM   13  C   UNL     1      -7.195   8.480  69.062  1.00  0.00    -0.073 C  
BRANCH  13  14
HETATM   14  C   UNL     1      -6.423   7.854  67.898  1.00  0.00    -0.052 C  
BRANCH  14  15
HETATM   15  C   UNL     1      -6.282   6.342  68.007  1.00  0.00    -0.032 C  
HETATM   16  O   UNL     1      -7.567   5.739  67.846  1.00  0.00    -0.083 OA 
HETATM   17  H   UNL     1      -7.479   4.796  67.914  1.00  0.00     0.000 HD 
ENDBRANCH  14  15
ENDBRANCH  13  14
ENDBRANCH  12  13
BRANCH   9  18
HETATM   18  C   UNL     1     -10.133   8.037  67.452  1.00  0.00    -0.228 C  
HETATM   19  N   UNL     1      -9.741   7.344  66.328  1.00  0.00    -0.420 N  
HETATM   20  O   UNL     1     -10.698   7.443  68.364  1.00  0.00    -0.180 OA 
HETATM   21  H2  UNL     1      -9.309   7.810  65.531  1.00  0.00     0.000 HD 
HETATM   22  H1  UNL     1      -9.909   6.337  66.339  1.00  0.00     0.000 HD 
ENDBRANCH   9  18
ENDBRANCH   3   4
ENDBRANCH   2   3
BRANCH   2  23
HETATM   23  N   UNL     1     -11.525  13.790  63.901  1.00  0.00    -0.613 NA 
HETATM   24  H   UNL     1     -12.104  13.973  63.082  1.00  0.00     0.000 HD 
BRANCH  23  25
HETATM   25  C   UNL     1     -11.755  14.811  64.936  1.00  0.00    -0.390 C  
BRANCH  25  26
HETATM   26  C   UNL     1     -10.662  15.899  65.007  1.00  0.00    -0.404 C  
BRANCH  26  27
HETATM   27  O   UNL     1     -10.791  16.735  66.165  1.00  0.00    -0.167 OA 
BRANCH  27  28
HETATM   28  C   UNL     1      -9.865  16.564  67.163  1.00  0.00    -0.255 A  
HETATM   29  C   UNL     1      -7.568  16.806  67.893  1.00  0.00    -0.177 A  
HETATM   30  C   UNL     1     -10.134  15.883  68.363  1.00  0.00    -0.223 A  
HETATM   31  C   UNL     1      -8.560  17.030  66.939  1.00  0.00    -0.225 A  
HETATM   32  C   UNL     1      -7.848  16.118  69.076  1.00  0.00    -0.227 A  
HETATM   33  C   UNL     1      -9.138  15.653  69.306  1.00  0.00    -0.270 A  
BRANCH  31  34
HETATM   34  O   UNL     1      -8.097  17.606  65.785  1.00  0.00    -0.550 OA 
BRANCH  34  35
HETATM   35  C   UNL     1      -7.008  18.528  65.914  1.00  0.00    -0.273 C  
HETATM   36  C   UNL     1      -7.468  19.982  65.888  1.00  0.00    -0.304 C  
HETATM   37  F   UNL     1      -8.810  20.122  65.919  1.00  0.00    -0.372 F  
HETATM   38  F   UNL     1      -6.958  20.676  66.933  1.00  0.00    -0.272 F  
HETATM   39  F   UNL     1      -7.030  20.600  64.758  1.00  0.00    -0.323 F  
ENDBRANCH  34  35
ENDBRANCH  31  34
ENDBRANCH  27  28
ENDBRANCH  26  27
ENDBRANCH  25  26
ENDBRANCH  23  25
ENDBRANCH   2  23
TORSDOF 13
ENDMDL
MODEL      207
REMARK 921   NORMALIZED FREE ENERGY PREDICTED BY IDOCK:   -4.54 KCAL/MOL
REMARK 922        TOTAL FREE ENERGY PREDICTED BY IDOCK:  -11.16 KCAL/MOL
REMARK 923 INTER-LIGAND FREE ENERGY PREDICTED BY IDOCK:   -9.50 KCAL/MOL
REMARK 924 INTRA-LIGAND FREE ENERGY PREDICTED BY IDOCK:   -1.66 KCAL/MOL
REMARK 927      BINDING AFFINITY PREDICTED BY RF-SCORE:    0.00 PKD
ROOT
HETATM    1  C   UNL     1     -12.350  15.642  69.490  1.00  0.00    -0.141 C  
HETATM    2  C   UNL     1     -11.843  14.194  69.530  1.00  0.00    -0.322 C  
ENDROOT
BRANCH   2   3
HETATM    3  C   UNL     1     -12.564  13.348  70.603  1.00  0.00    -0.325 C  
BRANCH   3   4
HETATM    4  C   UNL     1     -12.163  11.900  70.593  1.00  0.00    -0.424 A  
HETATM    5  C   UNL     1     -11.416  11.392  69.525  1.00  0.00    -0.381 A  
HETATM    6  C   UNL     1     -11.695   7.471  72.053  1.00  0.00    -0.294 A  
HETATM    7  C   UNL     1     -12.527  11.044  71.623  1.00  0.00    -0.310 A  
HETATM    8  C   UNL     1     -12.108   9.721  71.563  1.00  0.00    -0.493 A  
HETATM    9  C   UNL     1     -10.967  10.049  69.482  1.00  0.00    -0.289 A  
HETATM   10  C   UNL     1     -11.335   9.177  70.512  1.00  0.00    -0.257 A  
HETATM   11  C   UNL     1     -12.426   8.694  72.598  1.00  0.00    -0.283 A  
HETATM   12  N   UNL     1     -11.108   7.834  70.757  1.00  0.00    -0.254 NA 
BRANCH  12  13
HETATM   13  C   UNL     1     -10.305   6.856  70.050  1.00  0.00    -0.200 C  
BRANCH  13  14
HETATM   14  C   UNL     1     -11.083   6.209  68.901  1.00  0.00    -0.417 C  
BRANCH  14  15
HETATM   15  C   UNL     1     -10.189   5.557  67.855  1.00  0.00    -0.181 C  
HETATM   16  O   UNL     1      -9.563   6.575  67.073  1.00  0.00    -0.134 OA 
HETATM   17  H   UNL     1      -9.006   6.168  66.421  1.00  0.00     0.000 HD 
ENDBRANCH  14  15
ENDBRANCH  13  14
ENDBRANCH  12  13
BRANCH   9  18
HETATM   18  C   UNL     1     -10.163   9.728  68.273  1.00  0.00    -0.183 C  
HETATM   19  N   UNL     1     -10.872   9.336  67.160  1.00  0.00    -0.308 N  
HETATM   20  O   UNL     1      -8.938   9.742  68.238  1.00  0.00    -0.119 OA 
HETATM   21  H2  UNL     1     -11.889   9.269  67.164  1.00  0.00     0.000 HD 
HETATM   22  H1  UNL     1     -10.320   9.115  66.330  1.00  0.00     0.000 HD 
ENDBRANCH   9  18
ENDBRANCH   3   4
ENDBRANCH   2   3
BRANCH   2  23
HETATM   23  N   UNL     1     -10.386  14.219  69.747  1.00  0.00    -0.392 NA 
HETATM   24  H   UNL     1     -10.034  13.277  69.918  1.00  0.00     0.000 HD 
BRANCH  23  25
HETATM   25  C   UNL     1      -9.628  14.865  68.663  1.00  0.00    -0.222 C  
BRANCH  25  26
HETATM   26  C   UNL     1      -8.763  13.895  67.829  1.00  0.00    -0.187 C  
BRANCH  26  27
HETATM   27  O   UNL     1      -8.756  14.225  66.434  1.00  0.00    -0.075 OA 
BRANCH  27  28
HETATM   28  C   UNL     1      -9.956  14.160  65.772  1.00  0.00    -0.309 A  
HETATM   29  C   UNL     1     -11.663  12.778  64.750  1.00  0.00    -0.398 A  
HETATM   30  C   UNL     1     -10.641  15.291  65.294  1.00  0.00    -0.438 A  
HETATM   31  C   UNL     1     -10.487  12.891  65.491  1.00  0.00    -0.289 A  
HETATM   32  C   UNL     1     -12.327  13.911  64.274  1.00  0.00    -0.390 A  
HETATM   33  C   UNL     1     -11.808  15.171  64.547  1.00  0.00    -0.335 A  
BRANCH  31  34
HETATM   34  O   UNL     1      -9.895  11.689  65.775  1.00  0.00    -0.224 OA 
BRANCH  34  35
HETATM   35  C   UNL     1      -9.801  10.745  64.701  1.00  0.00    -0.307 C  
HETATM   36  C   UNL     1      -8.487   9.971  64.716  1.00  0.00    -0.173 C  
HETATM   37  F   UNL     1      -7.744  10.196  65.820  1.00  0.00    -0.112 F  
HETATM   38  F   UNL     1      -8.704   8.638  64.630  1.00  0.00    -0.187 F  
HETATM   39  F   UNL     1      -7.722  10.313  63.644  1.00  0.00    -0.146 F  
ENDBRANCH  34  35
ENDBRANCH  31  34
ENDBRANCH  27  28
ENDBRANCH  26  27
ENDBRANCH  25  26
ENDBRANCH  23  25
ENDBRANCH   2  23
TORSDOF 13
ENDMDL
MODEL      208
REMARK 921   NORMALIZED FREE ENERGY PREDICTED BY IDOCK:   -4.54 KCAL/MOL
REMARK 922        TOTAL FREE ENERGY PREDICTED BY IDOCK:  -11.15 KCAL/MOL
REMARK 923 INTER-LIGAND FREE ENERGY PREDICTED BY IDOCK:   -9.68 KCAL/MOL
REMARK 924 INTRA-LIGAND FREE ENERGY PREDICTED BY IDOCK:   -1.47 KCAL/MOL
REMARK 927      BINDING AFFINITY PREDICTED BY RF-SCORE:    0.00 PKD
ROOT
HETATM    1  C   UNL     1     -10.432   8.790  72.136  1.00  0.00    -0.384 C  
HETATM    2  C   UNL     1     -11.661   8.578  71.242  1.00  0.00    -0.283 C  
ENDROOT
BRANCH   2   3
HETATM    3  C   UNL     1     -12.846   9.484  71.647  1.00  0.00    -0.483 C  
BRANCH   3   4
HETATM    4  C   UNL     1     -12.664  10.921  71.250  1.00  0.00    -0.542 A  
HETATM    5  C   UNL     1     -11.934  11.238  70.099  1.00  0.00    -0.452 A  
HETATM    6  C   UNL     1     -13.080  15.588  71.368  1.00  0.00    -0.507 A  
HETATM    7  C   UNL     1     -13.200  11.953  72.008  1.00  0.00    -0.461 A  
HETATM    8  C   UNL     1     -13.012  13.259  71.575  1.00  0.00    -0.426 A  
HETATM    9  C   UNL     1     -11.769  12.571  69.646  1.00  0.00    -0.372 A  
HETATM   10  C   UNL     1     -12.300  13.617  70.408  1.00  0.00    -0.345 A  
HETATM   11  C   UNL     1     -13.532  14.461  72.291  1.00  0.00    -0.527 A  
HETATM   12  N   UNL     1     -12.290  14.995  70.281  1.00  0.00    -0.331 NA 
BRANCH  12  13
HETATM   13  C   UNL     1     -11.787  15.854  69.227  1.00  0.00    -0.318 C  
BRANCH  13  14
HETATM   14  C   UNL     1     -10.379  16.368  69.540  1.00  0.00    -0.278 C  
BRANCH  14  15
HETATM   15  C   UNL     1      -9.822  17.297  68.472  1.00  0.00    -0.307 C  
HETATM   16  O   UNL     1     -10.034  18.652  68.872  1.00  0.00    -0.389 OA 
HETATM   17  H   UNL     1      -9.686  19.232  68.204  1.00  0.00     0.000 HD 
ENDBRANCH  14  15
ENDBRANCH  13  14
ENDBRANCH  12  13
BRANCH   9  18
HETATM   18  C   UNL     1     -10.986  12.679  68.387  1.00  0.00    -0.257 C  
HETATM   19  N   UNL     1     -11.700  13.001  67.254  1.00  0.00    -0.361 N  
HETATM   20  O   UNL     1      -9.785  12.449  68.302  1.00  0.00    -0.215 OA 
HETATM   21  H2  UNL     1     -12.708  13.156  67.278  1.00  0.00     0.000 HD 
HETATM   22  H1  UNL     1     -11.163  13.075  66.390  1.00  0.00     0.000 HD 
ENDBRANCH   9  18
ENDBRANCH   3   4
ENDBRANCH   2   3
BRANCH   2  23
HETATM   23  N   UNL     1     -12.028   7.152  71.289  1.00  0.00    -0.318 NA 
HETATM   24  H   UNL     1     -13.041   7.044  71.323  1.00  0.00     0.000 HD 
BRANCH  23  25
HETATM   25  C   UNL     1     -11.459   6.349  70.194  1.00  0.00    -0.417 C  
BRANCH  25  26
HETATM   26  C   UNL     1     -10.203   5.542  70.587  1.00  0.00    -0.240 C  
BRANCH  26  27
HETATM   27  O   UNL     1      -8.985   6.195  70.204  1.00  0.00    -0.145 OA 
BRANCH  27  28
HETATM   28  C   UNL     1      -7.884   5.399  70.013  1.00  0.00    -0.081 A  
HETATM   29  C   UNL     1      -6.327   4.393  68.454  1.00  0.00    -0.037 A  
HETATM   30  C   UNL     1      -7.270   4.663  71.041  1.00  0.00    -0.048 A  
HETATM   31  C   UNL     1      -7.393   5.255  68.705  1.00  0.00    -0.070 A  
HETATM   32  C   UNL     1      -5.734   3.660  69.485  1.00  0.00    -0.018 A  
HETATM   33  C   UNL     1      -6.213   3.797  70.782  1.00  0.00    -0.019 A  
BRANCH  31  34
HETATM   34  O   UNL     1      -7.942   5.801  67.574  1.00  0.00    -0.101 OA 
BRANCH  34  35
HETATM   35  C   UNL     1      -8.262   4.896  66.510  1.00  0.00    -0.107 C  
HETATM   36  C   UNL     1      -9.715   4.435  66.553  1.00  0.00    -0.215 C  
HETATM   37  F   UNL     1     -10.459   5.089  67.470  1.00  0.00    -0.214 F  
HETATM   38  F   UNL     1     -10.314   4.592  65.349  1.00  0.00    -0.221 F  
HETATM   39  F   UNL     1      -9.785   3.110  66.854  1.00  0.00    -0.192 F  
ENDBRANCH  34  35
ENDBRANCH  31  34
ENDBRANCH  27  28
ENDBRANCH  26  27
ENDBRANCH  25  26
ENDBRANCH  23  25
ENDBRANCH   2  23
TORSDOF 13
ENDMDL
MODEL      209
REMARK 921   NORMALIZED FREE ENERGY PREDICTED BY IDOCK:   -4.54 KCAL/MOL
REMARK 922        TOTAL FREE ENERGY PREDICTED BY IDOCK:  -11.15 KCAL/MOL
REMARK 923 INTER-LIGAND FREE ENERGY PREDICTED BY IDOCK:   -8.47 KCAL/MOL
REMARK 924 INTRA-LIGAND FREE ENERGY PREDICTED BY IDOCK:   -2.68 KCAL/MOL
REMARK 927      BINDING AFFINITY PREDICTED BY RF-SCORE:    0.00 PKD
ROOT
HETATM    1  C   UNL     1      -6.698  16.593  66.994  1.00  0.00    -0.242 C  
HETATM    2  C   UNL     1      -7.576  17.400  67.960  1.00  0.00    -0.206 C  
ENDROOT
BRANCH   2   3
HETATM    3  C   UNL     1      -8.331  16.498  68.962  1.00  0.00    -0.202 C  
BRANCH   3   4
HETATM    4  C   UNL     1      -7.855  15.073  68.963  1.00  0.00    -0.170 A  
HETATM    5  C   UNL     1      -8.510  14.121  68.174  1.00  0.00    -0.173 A  
HETATM    6  C   UNL     1      -5.225  11.331  69.983  1.00  0.00    -0.063 A  
HETATM    7  C   UNL     1      -6.778  14.673  69.740  1.00  0.00    -0.165 A  
HETATM    8  C   UNL     1      -6.376  13.345  69.681  1.00  0.00    -0.093 A  
HETATM    9  C   UNL     1      -8.079  12.773  68.095  1.00  0.00    -0.158 A  
HETATM   10  C   UNL     1      -6.998  12.359  68.881  1.00  0.00    -0.091 A  
HETATM   11  C   UNL     1      -5.237  12.779  70.461  1.00  0.00    -0.125 A  
HETATM   12  N   UNL     1      -6.361  11.145  69.070  1.00  0.00    -0.049 NA 
BRANCH  12  13
HETATM   13  C   UNL     1      -6.544   9.860  68.426  1.00  0.00    -0.055 C  
BRANCH  13  14
HETATM   14  C   UNL     1      -7.488   8.957  69.223  1.00  0.00    -0.075 C  
BRANCH  14  15
HETATM   15  C   UNL     1      -8.126   9.651  70.418  1.00  0.00    -0.168 C  
HETATM   16  O   UNL     1      -9.400  10.170  70.033  1.00  0.00    -0.376 OA 
HETATM   17  H   UNL     1      -9.798  10.603  70.780  1.00  0.00     0.000 HD 
ENDBRANCH  14  15
ENDBRANCH  13  14
ENDBRANCH  12  13
BRANCH   9  18
HETATM   18  C   UNL     1      -8.896  11.939  67.176  1.00  0.00    -0.180 C  
HETATM   19  N   UNL     1      -8.432  11.827  65.884  1.00  0.00    -0.385 N  
HETATM   20  O   UNL     1      -9.958  11.410  67.486  1.00  0.00    -0.180 OA 
HETATM   21  H2  UNL     1      -7.577  12.289  65.577  1.00  0.00     0.000 HD 
HETATM   22  H1  UNL     1      -8.993  11.254  65.253  1.00  0.00     0.000 HD 
ENDBRANCH   9  18
ENDBRANCH   3   4
ENDBRANCH   2   3
BRANCH   2  23
HETATM   23  N   UNL     1      -8.504  18.224  67.166  1.00  0.00    -0.246 NA 
HETATM   24  H   UNL     1      -8.152  18.345  66.217  1.00  0.00     0.000 HD 
BRANCH  23  25
HETATM   25  C   UNL     1      -9.886  17.719  67.144  1.00  0.00    -0.311 C  
BRANCH  25  26
HETATM   26  C   UNL     1     -10.279  17.002  65.834  1.00  0.00    -0.296 C  
BRANCH  26  27
HETATM   27  O   UNL     1      -9.815  15.646  65.787  1.00  0.00    -0.315 OA 
BRANCH  27  28
HETATM   28  C   UNL     1     -10.735  14.683  65.459  1.00  0.00    -0.349 A  
HETATM   29  C   UNL     1     -12.637  13.347  66.142  1.00  0.00    -0.294 A  
HETATM   30  C   UNL     1     -10.690  13.939  64.267  1.00  0.00    -0.146 A  
HETATM   31  C   UNL     1     -11.731  14.374  66.400  1.00  0.00    -0.386 A  
HETATM   32  C   UNL     1     -12.572  12.609  64.957  1.00  0.00    -0.504 A  
HETATM   33  C   UNL     1     -11.590  12.909  64.020  1.00  0.00    -0.486 A  
BRANCH  31  34
HETATM   34  O   UNL     1     -11.850  14.914  67.654  1.00  0.00    -0.352 OA 
BRANCH  34  35
HETATM   35  C   UNL     1     -11.925  13.993  68.749  1.00  0.00    -0.347 C  
HETATM   36  C   UNL     1     -12.226  14.685  70.075  1.00  0.00    -0.333 C  
HETATM   37  F   UNL     1     -12.530  15.993  69.941  1.00  0.00    -0.325 F  
HETATM   38  F   UNL     1     -13.258  14.086  70.716  1.00  0.00    -0.370 F  
HETATM   39  F   UNL     1     -11.152  14.608  70.906  1.00  0.00    -0.249 F  
ENDBRANCH  34  35
ENDBRANCH  31  34
ENDBRANCH  27  28
ENDBRANCH  26  27
ENDBRANCH  25  26
ENDBRANCH  23  25
ENDBRANCH   2  23
TORSDOF 13
ENDMDL
MODEL      210
REMARK 921   NORMALIZED FREE ENERGY PREDICTED BY IDOCK:   -4.53 KCAL/MOL
REMARK 922        TOTAL FREE ENERGY PREDICTED BY IDOCK:  -11.14 KCAL/MOL
REMARK 923 INTER-LIGAND FREE ENERGY PREDICTED BY IDOCK:   -8.73 KCAL/MOL
REMARK 924 INTRA-LIGAND FREE ENERGY PREDICTED BY IDOCK:   -2.41 KCAL/MOL
REMARK 927      BINDING AFFINITY PREDICTED BY RF-SCORE:    0.00 PKD
ROOT
HETATM    1  C   UNL     1     -13.154  10.075  71.726  1.00  0.00    -0.562 C  
HETATM    2  C   UNL     1     -11.870  10.133  70.887  1.00  0.00    -0.374 C  
ENDROOT
BRANCH   2   3
HETATM    3  C   UNL     1     -12.137  10.587  69.434  1.00  0.00    -0.175 C  
BRANCH   3   4
HETATM    4  C   UNL     1     -11.694  11.995  69.156  1.00  0.00    -0.389 A  
HETATM    5  C   UNL     1     -12.055  13.024  70.032  1.00  0.00    -0.367 A  
HETATM    6  C   UNL     1      -9.564  15.577  67.012  1.00  0.00    -0.224 A  
HETATM    7  C   UNL     1     -10.935  12.304  68.036  1.00  0.00    -0.265 A  
HETATM    8  C   UNL     1     -10.542  13.623  67.846  1.00  0.00    -0.255 A  
HETATM    9  C   UNL     1     -11.628  14.363  69.850  1.00  0.00    -0.341 A  
HETATM   10  C   UNL     1     -10.869  14.685  68.720  1.00  0.00    -0.255 A  
HETATM   11  C   UNL     1      -9.727  14.096  66.689  1.00  0.00    -0.297 A  
HETATM   12  N   UNL     1     -10.336  15.864  68.228  1.00  0.00    -0.237 NA 
BRANCH  12  13
HETATM   13  C   UNL     1     -10.301  17.202  68.785  1.00  0.00    -0.353 C  
BRANCH  13  14
HETATM   14  C   UNL     1      -9.652  18.199  67.822  1.00  0.00    -0.286 C  
BRANCH  14  15
HETATM   15  C   UNL     1     -10.506  19.430  67.557  1.00  0.00    -0.462 C  
HETATM   16  O   UNL     1      -9.879  20.570  68.147  1.00  0.00    -0.260 OA 
HETATM   17  H   UNL     1     -10.413  21.339  67.982  1.00  0.00     0.000 HD 
ENDBRANCH  14  15
ENDBRANCH  13  14
ENDBRANCH  12  13
BRANCH   9  18
HETATM   18  C   UNL     1     -12.100  15.289  70.913  1.00  0.00    -0.344 C  
HETATM   19  N   UNL     1     -11.256  15.458  71.988  1.00  0.00    -0.433 N  
HETATM   20  O   UNL     1     -13.192  15.846  70.905  1.00  0.00    -0.516 OA 
HETATM   21  H2  UNL     1     -10.360  14.976  72.051  1.00  0.00     0.000 HD 
HETATM   22  H1  UNL     1     -11.580  16.093  72.718  1.00  0.00     0.000 HD 
ENDBRANCH   9  18
ENDBRANCH   3   4
ENDBRANCH   2   3
BRANCH   2  23
HETATM   23  N   UNL     1     -11.227   8.807  70.932  1.00  0.00    -0.261 NA 
HETATM   24  H   UNL     1     -11.930   8.068  70.920  1.00  0.00     0.000 HD 
BRANCH  23  25
HETATM   25  C   UNL     1     -10.229   8.589  69.873  1.00  0.00    -0.204 C  
BRANCH  25  26
HETATM   26  C   UNL     1      -8.791   8.996  70.263  1.00  0.00    -0.189 C  
BRANCH  26  27
HETATM   27  O   UNL     1      -8.189   9.876  69.304  1.00  0.00    -0.114 OA 
BRANCH  27  28
HETATM   28  C   UNL     1      -7.242   9.336  68.472  1.00  0.00    -0.072 A  
HETATM   29  C   UNL     1      -6.199   9.327  66.285  1.00  0.00    -0.064 A  
HETATM   30  C   UNL     1      -6.468   8.210  68.802  1.00  0.00    -0.053 A  
HETATM   31  C   UNL     1      -7.093   9.895  67.192  1.00  0.00    -0.085 A  
HETATM   32  C   UNL     1      -5.445   8.201  66.625  1.00  0.00    -0.032 A  
HETATM   33  C   UNL     1      -5.586   7.642  67.889  1.00  0.00    -0.032 A  
BRANCH  31  34
HETATM   34  O   UNL     1      -7.844  10.912  66.665  1.00  0.00    -0.133 OA 
BRANCH  34  35
HETATM   35  C   UNL     1      -8.462  10.668  65.395  1.00  0.00    -0.160 C  
HETATM   36  C   UNL     1      -9.757   9.873  65.519  1.00  0.00    -0.302 C  
HETATM   37  F   UNL     1     -10.160   9.699  66.795  1.00  0.00    -0.236 F  
HETATM   38  F   UNL     1     -10.766  10.473  64.846  1.00  0.00    -0.355 F  
HETATM   39  F   UNL     1      -9.608   8.634  64.976  1.00  0.00    -0.043 F  
ENDBRANCH  34  35
ENDBRANCH  31  34
ENDBRANCH  27  28
ENDBRANCH  26  27
ENDBRANCH  25  26
ENDBRANCH  23  25
ENDBRANCH   2  23
TORSDOF 13
ENDMDL
MODEL      211
REMARK 921   NORMALIZED FREE ENERGY PREDICTED BY IDOCK:   -4.53 KCAL/MOL
REMARK 922        TOTAL FREE ENERGY PREDICTED BY IDOCK:  -11.13 KCAL/MOL
REMARK 923 INTER-LIGAND FREE ENERGY PREDICTED BY IDOCK:   -8.81 KCAL/MOL
REMARK 924 INTRA-LIGAND FREE ENERGY PREDICTED BY IDOCK:   -2.32 KCAL/MOL
REMARK 927      BINDING AFFINITY PREDICTED BY RF-SCORE:    0.00 PKD
ROOT
HETATM    1  C   UNL     1     -12.900  13.905  65.634  1.00  0.00    -0.467 C  
HETATM    2  C   UNL     1     -11.587  14.344  66.295  1.00  0.00    -0.372 C  
ENDROOT
BRANCH   2   3
HETATM    3  C   UNL     1     -10.675  15.133  65.327  1.00  0.00    -0.422 C  
BRANCH   3   4
HETATM    4  C   UNL     1      -9.722  16.061  66.025  1.00  0.00    -0.376 A  
HETATM    5  C   UNL     1     -10.139  17.348  66.381  1.00  0.00    -0.330 A  
HETATM    6  C   UNL     1      -5.792  17.573  68.081  1.00  0.00    -0.153 A  
HETATM    7  C   UNL     1      -8.422  15.672  66.319  1.00  0.00    -0.187 A  
HETATM    8  C   UNL     1      -7.598  16.571  66.982  1.00  0.00    -0.240 A  
HETATM    9  C   UNL     1      -9.303  18.251  67.083  1.00  0.00    -0.264 A  
HETATM   10  C   UNL     1      -7.989  17.871  67.377  1.00  0.00    -0.213 A  
HETATM   11  C   UNL     1      -6.182  16.287  67.360  1.00  0.00    -0.205 A  
HETATM   12  N   UNL     1      -6.925  18.503  67.996  1.00  0.00    -0.223 NA 
BRANCH  12  13
HETATM   13  C   UNL     1      -6.832  19.789  68.659  1.00  0.00    -0.322 C  
BRANCH  13  14
HETATM   14  C   UNL     1      -6.816  19.640  70.183  1.00  0.00    -0.045 C  
BRANCH  14  15
HETATM   15  C   UNL     1      -5.521  20.117  70.825  1.00  0.00    -0.283 C  
HETATM   16  O   UNL     1      -5.256  19.330  71.987  1.00  0.00    -0.614 OA 
HETATM   17  H   UNL     1      -4.448  19.628  72.387  1.00  0.00     0.000 HD 
ENDBRANCH  14  15
ENDBRANCH  13  14
ENDBRANCH  12  13
BRANCH   9  18
HETATM   18  C   UNL     1      -9.955  19.552  67.388  1.00  0.00    -0.383 C  
HETATM   19  N   UNL     1     -10.491  19.680  68.650  1.00  0.00    -0.524 N  
HETATM   20  O   UNL     1     -10.083  20.464  66.580  1.00  0.00    -0.423 OA 
HETATM   21  H2  UNL     1     -10.443  18.926  69.335  1.00  0.00     0.000 HD 
HETATM   22  H1  UNL     1     -10.939  20.572  68.860  1.00  0.00     0.000 HD 
ENDBRANCH   9  18
ENDBRANCH   3   4
ENDBRANCH   2   3
BRANCH   2  23
HETATM   23  N   UNL     1     -10.910  13.146  66.822  1.00  0.00    -0.274 NA 
HETATM   24  H   UNL     1     -10.393  13.372  67.671  1.00  0.00     0.000 HD 
BRANCH  23  25
HETATM   25  C   UNL     1     -11.808  12.002  67.053  1.00  0.00    -0.176 C  
BRANCH  25  26
HETATM   26  C   UNL     1     -11.767  11.444  68.492  1.00  0.00    -0.318 C  
BRANCH  26  27
HETATM   27  O   UNL     1     -10.461  11.530  69.079  1.00  0.00    -0.203 OA 
BRANCH  27  28
HETATM   28  C   UNL     1      -9.918  10.367  69.563  1.00  0.00    -0.202 A  
HETATM   29  C   UNL     1      -8.150   8.716  69.425  1.00  0.00    -0.111 A  
HETATM   30  C   UNL     1     -10.553   9.550  70.515  1.00  0.00    -0.358 A  
HETATM   31  C   UNL     1      -8.698   9.933  69.021  1.00  0.00    -0.151 A  
HETATM   32  C   UNL     1      -8.799   7.911  70.364  1.00  0.00    -0.142 A  
HETATM   33  C   UNL     1     -10.007   8.333  70.906  1.00  0.00    -0.223 A  
BRANCH  31  34
HETATM   34  O   UNL     1      -8.006  10.540  68.005  1.00  0.00    -0.103 OA 
BRANCH  34  35
HETATM   35  C   UNL     1      -6.726  11.094  68.336  1.00  0.00    -0.060 C  
HETATM   36  C   UNL     1      -6.727  12.619  68.319  1.00  0.00    -0.081 C  
HETATM   37  F   UNL     1      -7.957  13.154  68.164  1.00  0.00    -0.117 F  
HETATM   38  F   UNL     1      -6.200  13.122  69.459  1.00  0.00    -0.092 F  
HETATM   39  F   UNL     1      -5.960  13.083  67.295  1.00  0.00    -0.151 F  
ENDBRANCH  34  35
ENDBRANCH  31  34
ENDBRANCH  27  28
ENDBRANCH  26  27
ENDBRANCH  25  26
ENDBRANCH  23  25
ENDBRANCH   2  23
TORSDOF 13
ENDMDL
MODEL      212
REMARK 921   NORMALIZED FREE ENERGY PREDICTED BY IDOCK:   -4.52 KCAL/MOL
REMARK 922        TOTAL FREE ENERGY PREDICTED BY IDOCK:  -11.12 KCAL/MOL
REMARK 923 INTER-LIGAND FREE ENERGY PREDICTED BY IDOCK:   -9.51 KCAL/MOL
REMARK 924 INTRA-LIGAND FREE ENERGY PREDICTED BY IDOCK:   -1.61 KCAL/MOL
REMARK 927      BINDING AFFINITY PREDICTED BY RF-SCORE:    0.00 PKD
ROOT
HETATM    1  C   UNL     1      -8.481   9.910  63.865  1.00  0.00    -0.183 C  
HETATM    2  C   UNL     1      -8.852   8.958  65.009  1.00  0.00    -0.140 C  
ENDROOT
BRANCH   2   3
HETATM    3  C   UNL     1      -9.975   9.525  65.906  1.00  0.00    -0.342 C  
BRANCH   3   4
HETATM    4  C   UNL     1      -9.999  11.026  65.961  1.00  0.00    -0.285 A  
HETATM    5  C   UNL     1     -11.033  11.729  65.334  1.00  0.00    -0.352 A  
HETATM    6  C   UNL     1      -8.710  15.392  67.074  1.00  0.00    -0.229 A  
HETATM    7  C   UNL     1      -9.005  11.739  66.616  1.00  0.00    -0.195 A  
HETATM    8  C   UNL     1      -9.095  13.125  66.645  1.00  0.00    -0.180 A  
HETATM    9  C   UNL     1     -11.137  13.141  65.391  1.00  0.00    -0.299 A  
HETATM   10  C   UNL     1     -10.136  13.869  66.043  1.00  0.00    -0.313 A  
HETATM   11  C   UNL     1      -8.100  14.015  67.312  1.00  0.00    -0.174 A  
HETATM   12  N   UNL     1      -9.912  15.219  66.247  1.00  0.00    -0.266 NA 
BRANCH  12  13
HETATM   13  C   UNL     1     -10.716  16.381  65.923  1.00  0.00    -0.214 C  
BRANCH  13  14
HETATM   14  C   UNL     1     -10.036  17.680  66.361  1.00  0.00    -0.337 C  
BRANCH  14  15
HETATM   15  C   UNL     1     -10.656  18.299  67.605  1.00  0.00    -0.405 C  
HETATM   16  O   UNL     1      -9.645  18.463  68.601  1.00  0.00    -0.323 OA 
HETATM   17  H   UNL     1     -10.032  18.850  69.377  1.00  0.00     0.000 HD 
ENDBRANCH  14  15
ENDBRANCH  13  14
ENDBRANCH  12  13
BRANCH   9  18
HETATM   18  C   UNL     1     -12.328  13.680  64.685  1.00  0.00    -0.371 C  
HETATM   19  N   UNL     1     -12.249  13.729  63.311  1.00  0.00    -1.096 N  
HETATM   20  O   UNL     1     -13.323  14.120  65.251  1.00  0.00    -0.715 OA 
HETATM   21  H2  UNL     1     -11.420  13.414  62.808  1.00  0.00     0.000 HD 
HETATM   22  H1  UNL     1     -13.067  14.100  62.826  1.00  0.00     0.000 HD 
ENDBRANCH   9  18
ENDBRANCH   3   4
ENDBRANCH   2   3
BRANCH   2  23
HETATM   23  N   UNL     1      -7.632   8.669  65.785  1.00  0.00    -0.088 NA 
HETATM   24  H   UNL     1      -7.709   9.050  66.727  1.00  0.00     0.000 HD 
BRANCH  23  25
HETATM   25  C   UNL     1      -7.275   7.241  65.833  1.00  0.00    -0.074 C  
BRANCH  25  26
HETATM   26  C   UNL     1      -8.133   6.406  66.807  1.00  0.00    -0.109 C  
BRANCH  26  27
HETATM   27  O   UNL     1      -8.169   6.965  68.127  1.00  0.00    -0.117 OA 
BRANCH  27  28
HETATM   28  C   UNL     1      -8.846   6.255  69.086  1.00  0.00    -0.128 A  
HETATM   29  C   UNL     1     -10.827   6.044  70.465  1.00  0.00    -0.382 A  
HETATM   30  C   UNL     1      -8.291   5.169  69.786  1.00  0.00    -0.093 A  
HETATM   31  C   UNL     1     -10.135   6.686  69.439  1.00  0.00    -0.173 A  
HETATM   32  C   UNL     1     -10.258   4.973  71.158  1.00  0.00    -0.281 A  
HETATM   33  C   UNL     1      -8.982   4.540  70.816  1.00  0.00    -0.161 A  
BRANCH  31  34
HETATM   34  O   UNL     1     -10.778   7.792  68.946  1.00  0.00    -0.185 OA 
BRANCH  34  35
HETATM   35  C   UNL     1     -10.377   9.061  69.476  1.00  0.00    -0.209 C  
HETATM   36  C   UNL     1     -11.436   9.676  70.386  1.00  0.00    -0.263 C  
HETATM   37  F   UNL     1     -12.464   8.843  70.652  1.00  0.00    -0.188 F  
HETATM   38  F   UNL     1     -10.902  10.062  71.568  1.00  0.00    -0.337 F  
HETATM   39  F   UNL     1     -11.966  10.791  69.813  1.00  0.00    -0.303 F  
ENDBRANCH  34  35
ENDBRANCH  31  34
ENDBRANCH  27  28
ENDBRANCH  26  27
ENDBRANCH  25  26
ENDBRANCH  23  25
ENDBRANCH   2  23
TORSDOF 13
ENDMDL
MODEL      213
REMARK 921   NORMALIZED FREE ENERGY PREDICTED BY IDOCK:   -4.51 KCAL/MOL
REMARK 922        TOTAL FREE ENERGY PREDICTED BY IDOCK:  -11.11 KCAL/MOL
REMARK 923 INTER-LIGAND FREE ENERGY PREDICTED BY IDOCK:   -9.32 KCAL/MOL
REMARK 924 INTRA-LIGAND FREE ENERGY PREDICTED BY IDOCK:   -1.79 KCAL/MOL
REMARK 927      BINDING AFFINITY PREDICTED BY RF-SCORE:    0.00 PKD
ROOT
HETATM    1  C   UNL     1      -9.754  11.017  64.043  1.00  0.00    -0.333 C  
HETATM    2  C   UNL     1     -10.127  10.306  65.350  1.00  0.00    -0.284 C  
ENDROOT
BRANCH   2   3
HETATM    3  C   UNL     1     -10.905  11.225  66.319  1.00  0.00    -0.296 C  
BRANCH   3   4
HETATM    4  C   UNL     1     -10.292  12.587  66.475  1.00  0.00    -0.254 A  
HETATM    5  C   UNL     1      -9.150  12.749  67.268  1.00  0.00    -0.200 A  
HETATM    6  C   UNL     1      -9.629  17.189  65.889  1.00  0.00    -0.080 A  
HETATM    7  C   UNL     1     -10.841  13.700  65.855  1.00  0.00    -0.276 A  
HETATM    8  C   UNL     1     -10.214  14.928  66.025  1.00  0.00    -0.317 A  
HETATM    9  C   UNL     1      -8.498  13.999  67.415  1.00  0.00    -0.209 A  
HETATM   10  C   UNL     1      -9.048  15.128  66.799  1.00  0.00    -0.256 A  
HETATM   11  C   UNL     1     -10.694  16.204  65.418  1.00  0.00    -0.374 A  
HETATM   12  N   UNL     1      -8.701  16.467  66.769  1.00  0.00    -0.205 NA 
BRANCH  12  13
HETATM   13  C   UNL     1      -7.553  17.169  67.309  1.00  0.00    -0.167 C  
BRANCH  13  14
HETATM   14  C   UNL     1      -7.469  18.604  66.783  1.00  0.00    -0.240 C  
BRANCH  14  15
HETATM   15  C   UNL     1      -7.359  19.648  67.885  1.00  0.00    -0.280 C  
HETATM   16  O   UNL     1      -8.538  19.605  68.691  1.00  0.00    -0.335 OA 
HETATM   17  H   UNL     1      -8.469  20.257  69.379  1.00  0.00     0.000 HD 
ENDBRANCH  14  15
ENDBRANCH  13  14
ENDBRANCH  12  13
BRANCH   9  18
HETATM   18  C   UNL     1      -7.286  13.941  68.274  1.00  0.00    -0.117 C  
HETATM   19  N   UNL     1      -7.488  14.143  69.621  1.00  0.00    -0.348 N  
HETATM   20  O   UNL     1      -6.148  13.783  67.848  1.00  0.00    -0.129 OA 
HETATM   21  H2  UNL     1      -8.415  14.322  70.007  1.00  0.00     0.000 HD 
HETATM   22  H1  UNL     1      -6.656  14.104  70.211  1.00  0.00     0.000 HD 
ENDBRANCH   9  18
ENDBRANCH   3   4
ENDBRANCH   2   3
BRANCH   2  23
HETATM   23  N   UNL     1      -8.892   9.790  65.967  1.00  0.00    -0.143 NA 
HETATM   24  H   UNL     1      -8.446  10.512  66.532  1.00  0.00     0.000 HD 
BRANCH  23  25
HETATM   25  C   UNL     1      -9.082   8.560  66.754  1.00  0.00    -0.151 C  
BRANCH  25  26
HETATM   26  C   UNL     1     -10.311   8.590  67.688  1.00  0.00    -0.253 C  
BRANCH  26  27
HETATM   27  O   UNL     1     -10.068   9.323  68.896  1.00  0.00    -0.183 OA 
BRANCH  27  28
HETATM   28  C   UNL     1     -10.899   9.068  69.958  1.00  0.00    -0.231 A  
HETATM   29  C   UNL     1     -12.607   9.888  71.467  1.00  0.00    -0.513 A  
HETATM   30  C   UNL     1     -10.843   7.890  70.723  1.00  0.00    -0.238 A  
HETATM   31  C   UNL     1     -11.801  10.072  70.345  1.00  0.00    -0.262 A  
HETATM   32  C   UNL     1     -12.532   8.716  72.224  1.00  0.00    -0.460 A  
HETATM   33  C   UNL     1     -11.642   7.717  71.848  1.00  0.00    -0.321 A  
BRANCH  31  34
HETATM   34  O   UNL     1     -11.904  11.321  69.789  1.00  0.00    -0.301 OA 
BRANCH  34  35
HETATM   35  C   UNL     1     -12.098  12.416  70.692  1.00  0.00    -0.225 C  
HETATM   36  C   UNL     1     -12.265  13.747  69.968  1.00  0.00    -0.342 C  
HETATM   37  F   UNL     1     -12.369  13.621  68.628  1.00  0.00    -0.389 F  
HETATM   38  F   UNL     1     -13.363  14.408  70.406  1.00  0.00    -0.340 F  
HETATM   39  F   UNL     1     -11.200  14.558  70.210  1.00  0.00    -0.273 F  
ENDBRANCH  34  35
ENDBRANCH  31  34
ENDBRANCH  27  28
ENDBRANCH  26  27
ENDBRANCH  25  26
ENDBRANCH  23  25
ENDBRANCH   2  23
TORSDOF 13
ENDMDL
MODEL      214
REMARK 921   NORMALIZED FREE ENERGY PREDICTED BY IDOCK:   -4.50 KCAL/MOL
REMARK 922        TOTAL FREE ENERGY PREDICTED BY IDOCK:  -11.08 KCAL/MOL
REMARK 923 INTER-LIGAND FREE ENERGY PREDICTED BY IDOCK:   -9.20 KCAL/MOL
REMARK 924 INTRA-LIGAND FREE ENERGY PREDICTED BY IDOCK:   -1.88 KCAL/MOL
REMARK 927      BINDING AFFINITY PREDICTED BY RF-SCORE:    0.00 PKD
ROOT
HETATM    1  C   UNL     1      -5.126  11.085  66.958  1.00  0.00    -0.052 C  
HETATM    2  C   UNL     1      -6.484  11.797  66.936  1.00  0.00    -0.121 C  
ENDROOT
BRANCH   2   3
HETATM    3  C   UNL     1      -6.638  12.808  68.094  1.00  0.00    -0.088 C  
BRANCH   3   4
HETATM    4  C   UNL     1      -7.180  14.140  67.659  1.00  0.00    -0.195 A  
HETATM    5  C   UNL     1      -8.487  14.232  67.167  1.00  0.00    -0.220 A  
HETATM    6  C   UNL     1      -7.347  18.754  66.856  1.00  0.00    -0.211 A  
HETATM    7  C   UNL     1      -6.406  15.290  67.725  1.00  0.00    -0.181 A  
HETATM    8  C   UNL     1      -6.974  16.493  67.325  1.00  0.00    -0.208 A  
HETATM    9  C   UNL     1      -9.071  15.466  66.787  1.00  0.00    -0.286 A  
HETATM   10  C   UNL     1      -8.296  16.629  66.844  1.00  0.00    -0.210 A  
HETATM   11  C   UNL     1      -6.259  17.803  67.344  1.00  0.00    -0.164 A  
HETATM   12  N   UNL     1      -8.532  17.954  66.520  1.00  0.00    -0.266 NA 
BRANCH  12  13
HETATM   13  C   UNL     1      -9.737  18.630  66.083  1.00  0.00    -0.239 C  
BRANCH  13  14
HETATM   14  C   UNL     1     -10.683  18.913  67.253  1.00  0.00    -0.523 C  
BRANCH  14  15
HETATM   15  C   UNL     1     -10.477  20.285  67.880  1.00  0.00    -0.181 C  
HETATM   16  O   UNL     1      -9.704  21.095  66.993  1.00  0.00    -0.632 OA 
HETATM   17  H   UNL     1      -9.575  21.951  67.385  1.00  0.00     0.000 HD 
ENDBRANCH  14  15
ENDBRANCH  13  14
ENDBRANCH  12  13
BRANCH   9  18
HETATM   18  C   UNL     1     -10.477  15.341  66.323  1.00  0.00    -0.307 C  
HETATM   19  N   UNL     1     -10.707  15.637  64.998  1.00  0.00    -0.441 N  
HETATM   20  O   UNL     1     -11.419  15.052  67.052  1.00  0.00    -0.344 OA 
HETATM   21  H2  UNL     1      -9.956  15.925  64.372  1.00  0.00     0.000 HD 
HETATM   22  H1  UNL     1     -11.673  15.552  64.679  1.00  0.00     0.000 HD 
ENDBRANCH   9  18
ENDBRANCH   3   4
ENDBRANCH   2   3
BRANCH   2  23
HETATM   23  N   UNL     1      -7.545  10.774  66.965  1.00  0.00    -0.109 NA 
HETATM   24  H   UNL     1      -8.366  11.096  66.454  1.00  0.00     0.000 HD 
BRANCH  23  25
HETATM   25  C   UNL     1      -7.117   9.452  66.477  1.00  0.00    -0.085 C  
BRANCH  25  26
HETATM   26  C   UNL     1      -8.244   8.622  65.825  1.00  0.00    -0.126 C  
BRANCH  26  27
HETATM   27  O   UNL     1      -9.548   9.151  66.100  1.00  0.00    -0.224 OA 
BRANCH  27  28
HETATM   28  C   UNL     1      -9.970  10.202  65.326  1.00  0.00    -0.311 A  
HETATM   29  C   UNL     1     -11.442  12.111  65.087  1.00  0.00    -0.376 A  
HETATM   30  C   UNL     1      -9.557  10.404  63.998  1.00  0.00    -0.376 A  
HETATM   31  C   UNL     1     -10.925  11.078  65.867  1.00  0.00    -0.045 A  
HETATM   32  C   UNL     1     -11.029  12.292  63.765  1.00  0.00    -0.495 A  
HETATM   33  C   UNL     1     -10.084  11.430  63.222  1.00  0.00    -0.424 A  
BRANCH  31  34
HETATM   34  O   UNL     1     -11.524  10.959  67.095  1.00  0.00    -0.428 OA 
BRANCH  34  35
HETATM   35  C   UNL     1     -10.947  11.711  68.169  1.00  0.00    -0.226 C  
HETATM   36  C   UNL     1     -11.769  11.623  69.451  1.00  0.00    -0.340 C  
HETATM   37  F   UNL     1     -12.779  10.730  69.381  1.00  0.00    -0.327 F  
HETATM   38  F   UNL     1     -10.994  11.287  70.508  1.00  0.00    -0.135 F  
HETATM   39  F   UNL     1     -12.326  12.830  69.742  1.00  0.00    -0.303 F  
ENDBRANCH  34  35
ENDBRANCH  31  34
ENDBRANCH  27  28
ENDBRANCH  26  27
ENDBRANCH  25  26
ENDBRANCH  23  25
ENDBRANCH   2  23
TORSDOF 13
ENDMDL
MODEL      215
REMARK 921   NORMALIZED FREE ENERGY PREDICTED BY IDOCK:   -4.49 KCAL/MOL
REMARK 922        TOTAL FREE ENERGY PREDICTED BY IDOCK:  -11.08 KCAL/MOL
REMARK 923 INTER-LIGAND FREE ENERGY PREDICTED BY IDOCK:   -9.36 KCAL/MOL
REMARK 924 INTRA-LIGAND FREE ENERGY PREDICTED BY IDOCK:   -1.72 KCAL/MOL
REMARK 927      BINDING AFFINITY PREDICTED BY RF-SCORE:    0.00 PKD
ROOT
HETATM    1  C   UNL     1     -11.299  14.718  70.910  1.00  0.00    -0.206 C  
HETATM    2  C   UNL     1     -12.296  14.547  69.757  1.00  0.00    -0.272 C  
ENDROOT
BRANCH   2   3
HETATM    3  C   UNL     1     -11.911  13.386  68.812  1.00  0.00    -0.386 C  
BRANCH   3   4
HETATM    4  C   UNL     1     -11.788  12.061  69.511  1.00  0.00    -0.390 A  
HETATM    5  C   UNL     1     -10.755  11.184  69.163  1.00  0.00    -0.262 A  
HETATM    6  C   UNL     1     -12.720   8.589  72.517  1.00  0.00    -0.270 A  
HETATM    7  C   UNL     1     -12.689  11.679  70.495  1.00  0.00    -0.157 A  
HETATM    8  C   UNL     1     -12.509  10.450  71.115  1.00  0.00    -0.509 A  
HETATM    9  C   UNL     1     -10.559   9.943  69.818  1.00  0.00    -0.296 A  
HETATM   10  C   UNL     1     -11.466   9.546  70.806  1.00  0.00    -0.310 A  
HETATM   11  C   UNL     1     -13.399   9.914  72.186  1.00  0.00    -0.498 A  
HETATM   12  N   UNL     1     -11.590   8.416  71.595  1.00  0.00    -0.272 NA 
BRANCH  12  13
HETATM   13  C   UNL     1     -10.737   7.253  71.738  1.00  0.00    -0.218 C  
BRANCH  13  14
HETATM   14  C   UNL     1     -11.206   6.095  70.853  1.00  0.00    -0.365 C  
BRANCH  14  15
HETATM   15  C   UNL     1     -10.097   5.493  70.002  1.00  0.00    -0.241 C  
HETATM   16  O   UNL     1     -10.000   4.095  70.279  1.00  0.00    -0.201 OA 
HETATM   17  H   UNL     1      -9.307   3.720  69.748  1.00  0.00     0.000 HD 
ENDBRANCH  14  15
ENDBRANCH  13  14
ENDBRANCH  12  13
BRANCH   9  18
HETATM   18  C   UNL     1      -9.385   9.183  69.314  1.00  0.00    -0.157 C  
HETATM   19  N   UNL     1      -9.504   8.652  68.049  1.00  0.00    -0.139 N  
HETATM   20  O   UNL     1      -8.373   8.965  69.971  1.00  0.00    -0.115 OA 
HETATM   21  H2  UNL     1     -10.348   8.774  67.491  1.00  0.00     0.000 HD 
HETATM   22  H1  UNL     1      -8.698   8.130  67.703  1.00  0.00     0.000 HD 
ENDBRANCH   9  18
ENDBRANCH   3   4
ENDBRANCH   2   3
BRANCH   2  23
HETATM   23  N   UNL     1     -12.391  15.827  69.032  1.00  0.00    -0.521 NA 
HETATM   24  H   UNL     1     -13.023  16.465  69.514  1.00  0.00     0.000 HD 
BRANCH  23  25
HETATM   25  C   UNL     1     -11.092  16.474  68.783  1.00  0.00    -0.309 C  
BRANCH  25  26
HETATM   26  C   UNL     1     -10.774  16.704  67.290  1.00  0.00    -0.227 C  
BRANCH  26  27
HETATM   27  O   UNL     1      -9.770  15.808  66.796  1.00  0.00    -0.225 OA 
BRANCH  27  28
HETATM   28  C   UNL     1     -10.206  14.692  66.128  1.00  0.00    -0.301 A  
HETATM   29  C   UNL     1      -9.889  12.341  65.638  1.00  0.00    -0.247 A  
HETATM   30  C   UNL     1     -11.239  14.711  65.174  1.00  0.00    -0.374 A  
HETATM   31  C   UNL     1      -9.532  13.481  66.356  1.00  0.00    -0.224 A  
HETATM   32  C   UNL     1     -10.910  12.378  64.686  1.00  0.00    -0.346 A  
HETATM   33  C   UNL     1     -11.583  13.572  64.454  1.00  0.00    -0.429 A  
BRANCH  31  34
HETATM   34  O   UNL     1      -8.433  13.310  67.156  1.00  0.00    -0.201 OA 
BRANCH  34  35
HETATM   35  C   UNL     1      -8.392  14.071  68.369  1.00  0.00    -0.162 C  
HETATM   36  C   UNL     1      -7.105  14.878  68.510  1.00  0.00    -0.108 C  
HETATM   37  F   UNL     1      -6.334  14.856  67.402  1.00  0.00    -0.177 F  
HETATM   38  F   UNL     1      -7.368  16.172  68.803  1.00  0.00    -0.144 F  
HETATM   39  F   UNL     1      -6.348  14.392  69.531  1.00  0.00    -0.097 F  
ENDBRANCH  34  35
ENDBRANCH  31  34
ENDBRANCH  27  28
ENDBRANCH  26  27
ENDBRANCH  25  26
ENDBRANCH  23  25
ENDBRANCH   2  23
TORSDOF 13
ENDMDL
MODEL      216
REMARK 921   NORMALIZED FREE ENERGY PREDICTED BY IDOCK:   -4.48 KCAL/MOL
REMARK 922        TOTAL FREE ENERGY PREDICTED BY IDOCK:  -11.05 KCAL/MOL
REMARK 923 INTER-LIGAND FREE ENERGY PREDICTED BY IDOCK:   -8.62 KCAL/MOL
REMARK 924 INTRA-LIGAND FREE ENERGY PREDICTED BY IDOCK:   -2.43 KCAL/MOL
REMARK 927      BINDING AFFINITY PREDICTED BY RF-SCORE:    0.00 PKD
ROOT
HETATM    1  C   UNL     1      -5.395  12.069  70.643  1.00  0.00    -0.150 C  
HETATM    2  C   UNL     1      -5.808  12.928  69.441  1.00  0.00    -0.097 C  
ENDROOT
BRANCH   2   3
HETATM    3  C   UNL     1      -5.433  12.272  68.093  1.00  0.00    -0.060 C  
BRANCH   3   4
HETATM    4  C   UNL     1      -6.624  11.916  67.248  1.00  0.00    -0.141 A  
HETATM    5  C   UNL     1      -7.820  12.627  67.397  1.00  0.00    -0.175 A  
HETATM    6  C   UNL     1      -9.195   9.733  63.995  1.00  0.00    -0.215 A  
HETATM    7  C   UNL     1      -6.569  10.884  66.322  1.00  0.00    -0.126 A  
HETATM    8  C   UNL     1      -7.699  10.619  65.560  1.00  0.00    -0.083 A  
HETATM    9  C   UNL     1      -8.961  12.371  66.597  1.00  0.00    -0.184 A  
HETATM   10  C   UNL     1      -8.917  11.328  65.666  1.00  0.00    -0.163 A  
HETATM   11  C   UNL     1      -7.780   9.542  64.530  1.00  0.00    -0.118 A  
HETATM   12  N   UNL     1      -9.836  10.798  64.777  1.00  0.00    -0.273 NA 
BRANCH  12  13
HETATM   13  C   UNL     1     -11.179  11.217  64.428  1.00  0.00    -0.126 C  
BRANCH  13  14
HETATM   14  C   UNL     1     -11.171  12.495  63.585  1.00  0.00    -0.545 C  
BRANCH  14  15
HETATM   15  C   UNL     1     -12.358  13.408  63.857  1.00  0.00    -0.343 C  
HETATM   16  O   UNL     1     -11.914  14.766  63.862  1.00  0.00    -0.819 OA 
HETATM   17  H   UNL     1     -12.655  15.335  64.032  1.00  0.00     0.000 HD 
ENDBRANCH  14  15
ENDBRANCH  13  14
ENDBRANCH  12  13
BRANCH   9  18
HETATM   18  C   UNL     1     -10.112  13.262  66.899  1.00  0.00    -0.250 C  
HETATM   19  N   UNL     1     -10.053  14.531  66.368  1.00  0.00    -0.274 N  
HETATM   20  O   UNL     1     -11.053  12.950  67.621  1.00  0.00    -0.246 OA 
HETATM   21  H2  UNL     1      -9.265  14.841  65.800  1.00  0.00     0.000 HD 
HETATM   22  H1  UNL     1     -10.843  15.142  66.575  1.00  0.00     0.000 HD 
ENDBRANCH   9  18
ENDBRANCH   3   4
ENDBRANCH   2   3
BRANCH   2  23
HETATM   23  N   UNL     1      -5.190  14.258  69.587  1.00  0.00    -0.091 NA 
HETATM   24  H   UNL     1      -4.628  14.483  68.767  1.00  0.00     0.000 HD 
BRANCH  23  25
HETATM   25  C   UNL     1      -6.151  15.338  69.868  1.00  0.00    -0.151 C  
BRANCH  25  26
HETATM   26  C   UNL     1      -6.997  15.766  68.650  1.00  0.00    -0.124 C  
BRANCH  26  27
HETATM   27  O   UNL     1      -8.385  15.924  68.972  1.00  0.00    -0.209 OA 
BRANCH  27  28
HETATM   28  C   UNL     1      -9.007  17.056  68.509  1.00  0.00    -0.263 A  
HETATM   29  C   UNL     1     -11.084  18.178  67.964  1.00  0.00     0.169 A  
HETATM   30  C   UNL     1      -8.317  18.158  67.974  1.00  0.00    -0.268 A  
HETATM   31  C   UNL     1     -10.411  17.081  68.501  1.00  0.00    -0.373 A  
HETATM   32  C   UNL     1     -10.384  19.261  67.426  1.00  0.00    -0.540 A  
HETATM   33  C   UNL     1      -8.994  19.244  67.431  1.00  0.00    -0.340 A  
BRANCH  31  34
HETATM   34  O   UNL     1     -11.238  16.052  68.871  1.00  0.00    -0.308 OA 
BRANCH  34  35
HETATM   35  C   UNL     1     -11.072  15.536  70.197  1.00  0.00    -0.323 C  
HETATM   36  C   UNL     1     -12.403  15.320  70.910  1.00  0.00    -0.377 C  
HETATM   37  F   UNL     1     -13.476  15.491  70.109  1.00  0.00    -0.183 F  
HETATM   38  F   UNL     1     -12.478  14.076  71.439  1.00  0.00    -0.376 F  
HETATM   39  F   UNL     1     -12.536  16.193  71.945  1.00  0.00    -0.478 F  
ENDBRANCH  34  35
ENDBRANCH  31  34
ENDBRANCH  27  28
ENDBRANCH  26  27
ENDBRANCH  25  26
ENDBRANCH  23  25
ENDBRANCH   2  23
TORSDOF 13
ENDMDL
MODEL      217
REMARK 921   NORMALIZED FREE ENERGY PREDICTED BY IDOCK:   -4.47 KCAL/MOL
REMARK 922        TOTAL FREE ENERGY PREDICTED BY IDOCK:  -11.03 KCAL/MOL
REMARK 923 INTER-LIGAND FREE ENERGY PREDICTED BY IDOCK:   -8.74 KCAL/MOL
REMARK 924 INTRA-LIGAND FREE ENERGY PREDICTED BY IDOCK:   -2.29 KCAL/MOL
REMARK 927      BINDING AFFINITY PREDICTED BY RF-SCORE:    0.00 PKD
ROOT
HETATM    1  C   UNL     1     -13.605   9.237  71.788  1.00  0.00    -0.465 C  
HETATM    2  C   UNL     1     -12.736  10.211  70.983  1.00  0.00    -0.386 C  
ENDROOT
BRANCH   2   3
HETATM    3  C   UNL     1     -11.225   9.958  71.185  1.00  0.00    -0.404 C  
BRANCH   3   4
HETATM    4  C   UNL     1     -10.529   9.468  69.948  1.00  0.00    -0.269 A  
HETATM    5  C   UNL     1      -9.690  10.331  69.234  1.00  0.00    -0.240 A  
HETATM    6  C   UNL     1      -9.143   6.530  66.571  1.00  0.00    -0.152 A  
HETATM    7  C   UNL     1     -10.706   8.172  69.486  1.00  0.00    -0.180 A  
HETATM    8  C   UNL     1     -10.019   7.776  68.346  1.00  0.00    -0.195 A  
HETATM    9  C   UNL     1      -8.968   9.914  68.088  1.00  0.00    -0.118 A  
HETATM   10  C   UNL     1      -9.146   8.611  67.611  1.00  0.00    -0.134 A  
HETATM   11  C   UNL     1     -10.115   6.415  67.740  1.00  0.00    -0.171 A  
HETATM   12  N   UNL     1      -8.643   7.910  66.529  1.00  0.00    -0.135 NA 
BRANCH  12  13
HETATM   13  C   UNL     1      -7.651   8.270  65.535  1.00  0.00    -0.087 C  
BRANCH  13  14
HETATM   14  C   UNL     1      -8.270   8.410  64.142  1.00  0.00    -0.122 C  
BRANCH  14  15
HETATM   15  C   UNL     1      -8.838   9.796  63.868  1.00  0.00    -0.233 C  
HETATM   16  O   UNL     1      -7.801  10.766  64.024  1.00  0.00    -0.353 OA 
HETATM   17  H   UNL     1      -8.156  11.631  63.852  1.00  0.00     0.000 HD 
ENDBRANCH  14  15
ENDBRANCH  13  14
ENDBRANCH  12  13
BRANCH   9  18
HETATM   18  C   UNL     1      -8.113  10.979  67.502  1.00  0.00    -0.117 C  
HETATM   19  N   UNL     1      -6.797  10.993  67.909  1.00  0.00    -0.067 N  
HETATM   20  O   UNL     1      -8.522  11.851  66.744  1.00  0.00    -0.179 OA 
HETATM   21  H2  UNL     1      -6.431  10.311  68.573  1.00  0.00     0.000 HD 
HETATM   22  H1  UNL     1      -6.210  11.724  67.507  1.00  0.00     0.000 HD 
ENDBRANCH   9  18
ENDBRANCH   3   4
ENDBRANCH   2   3
BRANCH   2  23
HETATM   23  N   UNL     1     -13.111  11.587  71.359  1.00  0.00    -0.337 NA 
HETATM   24  H   UNL     1     -13.213  11.665  72.370  1.00  0.00     0.000 HD 
BRANCH  23  25
HETATM   25  C   UNL     1     -12.192  12.619  70.850  1.00  0.00    -0.185 C  
BRANCH  25  26
HETATM   26  C   UNL     1     -12.222  12.793  69.316  1.00  0.00    -0.054 C  
BRANCH  26  27
HETATM   27  O   UNL     1     -11.284  13.775  68.855  1.00  0.00    -0.248 OA 
BRANCH  27  28
HETATM   28  C   UNL     1     -11.320  14.093  67.522  1.00  0.00    -0.322 A  
HETATM   29  C   UNL     1     -10.979  15.765  65.802  1.00  0.00    -0.216 A  
HETATM   30  C   UNL     1     -11.840  13.239  66.533  1.00  0.00    -0.450 A  
HETATM   31  C   UNL     1     -10.884  15.371  67.136  1.00  0.00    -0.321 A  
HETATM   32  C   UNL     1     -11.508  14.910  64.833  1.00  0.00    -0.407 A  
HETATM   33  C   UNL     1     -11.942  13.643  65.206  1.00  0.00    -0.395 A  
BRANCH  31  34
HETATM   34  O   UNL     1     -10.462  16.367  67.978  1.00  0.00    -0.280 OA 
BRANCH  34  35
HETATM   35  C   UNL     1      -9.140  16.877  67.765  1.00  0.00    -0.229 C  
HETATM   36  C   UNL     1      -9.025  18.360  68.101  1.00  0.00    -0.309 C  
HETATM   37  F   UNL     1     -10.130  18.865  68.690  1.00  0.00    -0.381 F  
HETATM   38  F   UNL     1      -7.976  18.596  68.923  1.00  0.00    -0.328 F  
HETATM   39  F   UNL     1      -8.808  19.088  66.972  1.00  0.00    -0.274 F  
ENDBRANCH  34  35
ENDBRANCH  31  34
ENDBRANCH  27  28
ENDBRANCH  26  27
ENDBRANCH  25  26
ENDBRANCH  23  25
ENDBRANCH   2  23
TORSDOF 13
ENDMDL
MODEL      218
REMARK 921   NORMALIZED FREE ENERGY PREDICTED BY IDOCK:   -4.47 KCAL/MOL
REMARK 922        TOTAL FREE ENERGY PREDICTED BY IDOCK:  -11.03 KCAL/MOL
REMARK 923 INTER-LIGAND FREE ENERGY PREDICTED BY IDOCK:   -8.43 KCAL/MOL
REMARK 924 INTRA-LIGAND FREE ENERGY PREDICTED BY IDOCK:   -2.60 KCAL/MOL
REMARK 927      BINDING AFFINITY PREDICTED BY RF-SCORE:    0.00 PKD
ROOT
HETATM    1  C   UNL     1      -8.769  10.529  69.168  1.00  0.00    -0.155 C  
HETATM    2  C   UNL     1     -10.242  10.124  69.311  1.00  0.00    -0.223 C  
ENDROOT
BRANCH   2   3
HETATM    3  C   UNL     1     -10.917   9.865  67.945  1.00  0.00    -0.281 C  
BRANCH   3   4
HETATM    4  C   UNL     1     -10.086   9.029  67.014  1.00  0.00    -0.318 A  
HETATM    5  C   UNL     1      -9.981   7.649  67.224  1.00  0.00    -0.273 A  
HETATM    6  C   UNL     1      -7.337   7.930  63.381  1.00  0.00    -0.108 A  
HETATM    7  C   UNL     1      -9.405   9.597  65.947  1.00  0.00    -0.275 A  
HETATM    8  C   UNL     1      -8.669   8.765  65.114  1.00  0.00    -0.202 A  
HETATM    9  C   UNL     1      -9.253   6.800  66.355  1.00  0.00    -0.185 A  
HETATM   10  C   UNL     1      -8.557   7.365  65.280  1.00  0.00     0.004 A  
HETATM   11  C   UNL     1      -7.890   9.240  63.932  1.00  0.00    -0.130 A  
HETATM   12  N   UNL     1      -7.740   6.849  64.290  1.00  0.00    -0.109 NA 
BRANCH  12  13
HETATM   13  C   UNL     1      -7.387   5.482  63.959  1.00  0.00    -0.058 C  
BRANCH  13  14
HETATM   14  C   UNL     1      -5.878   5.247  64.065  1.00  0.00    -0.021 C  
BRANCH  14  15
HETATM   15  C   UNL     1      -5.453   4.624  65.387  1.00  0.00    -0.013 C  
HETATM   16  O   UNL     1      -6.331   3.541  65.699  1.00  0.00    -0.030 OA 
HETATM   17  H   UNL     1      -6.065   3.153  66.524  1.00  0.00     0.000 HD 
ENDBRANCH  14  15
ENDBRANCH  13  14
ENDBRANCH  12  13
BRANCH   9  18
HETATM   18  C   UNL     1      -9.298   5.367  66.745  1.00  0.00    -0.134 C  
HETATM   19  N   UNL     1      -8.349   4.955  67.653  1.00  0.00    -0.105 N  
HETATM   20  O   UNL     1     -10.078   4.549  66.270  1.00  0.00    -0.225 OA 
HETATM   21  H2  UNL     1      -7.655   5.596  68.036  1.00  0.00     0.000 HD 
HETATM   22  H1  UNL     1      -8.380   3.971  67.921  1.00  0.00     0.000 HD 
ENDBRANCH   9  18
ENDBRANCH   3   4
ENDBRANCH   2   3
BRANCH   2  23
HETATM   23  N   UNL     1     -10.941  11.175  70.071  1.00  0.00    -0.471 NA 
HETATM   24  H   UNL     1     -10.276  11.865  70.420  1.00  0.00     0.000 HD 
BRANCH  23  25
HETATM   25  C   UNL     1     -12.026  11.834  69.325  1.00  0.00    -0.291 C  
BRANCH  25  26
HETATM   26  C   UNL     1     -11.837  13.355  69.142  1.00  0.00    -0.336 C  
BRANCH  26  27
HETATM   27  O   UNL     1     -10.593  13.683  68.508  1.00  0.00    -0.240 OA 
BRANCH  27  28
HETATM   28  C   UNL     1     -10.546  14.855  67.796  1.00  0.00    -0.262 A  
HETATM   29  C   UNL     1     -10.096  15.955  65.685  1.00  0.00    -0.388 A  
HETATM   30  C   UNL     1     -10.719  16.124  68.376  1.00  0.00    -0.298 A  
HETATM   31  C   UNL     1     -10.234  14.784  66.429  1.00  0.00    -0.291 A  
HETATM   32  C   UNL     1     -10.260  17.209  66.278  1.00  0.00    -0.340 A  
HETATM   33  C   UNL     1     -10.571  17.288  67.631  1.00  0.00    -0.350 A  
BRANCH  31  34
HETATM   34  O   UNL     1      -9.918  13.646  65.732  1.00  0.00    -0.289 OA 
BRANCH  34  35
HETATM   35  C   UNL     1     -10.606  13.436  64.493  1.00  0.00    -0.425 C  
HETATM   36  C   UNL     1     -11.755  12.442  64.625  1.00  0.00    -0.365 C  
HETATM   37  F   UNL     1     -12.012  12.083  65.900  1.00  0.00    -0.439 F  
HETATM   38  F   UNL     1     -12.898  12.943  64.100  1.00  0.00    -0.359 F  
HETATM   39  F   UNL     1     -11.478  11.300  63.938  1.00  0.00    -0.444 F  
ENDBRANCH  34  35
ENDBRANCH  31  34
ENDBRANCH  27  28
ENDBRANCH  26  27
ENDBRANCH  25  26
ENDBRANCH  23  25
ENDBRANCH   2  23
TORSDOF 13
ENDMDL
MODEL      219
REMARK 921   NORMALIZED FREE ENERGY PREDICTED BY IDOCK:   -4.46 KCAL/MOL
REMARK 922        TOTAL FREE ENERGY PREDICTED BY IDOCK:  -11.02 KCAL/MOL
REMARK 923 INTER-LIGAND FREE ENERGY PREDICTED BY IDOCK:   -9.65 KCAL/MOL
REMARK 924 INTRA-LIGAND FREE ENERGY PREDICTED BY IDOCK:   -1.37 KCAL/MOL
REMARK 927      BINDING AFFINITY PREDICTED BY RF-SCORE:    0.00 PKD
ROOT
HETATM    1  C   UNL     1     -13.025  11.523  71.764  1.00  0.00    -0.500 C  
HETATM    2  C   UNL     1     -12.599  10.421  70.786  1.00  0.00    -0.371 C  
ENDROOT
BRANCH   2   3
HETATM    3  C   UNL     1     -12.956   9.008  71.299  1.00  0.00    -0.280 C  
BRANCH   3   4
HETATM    4  C   UNL     1     -11.761   8.119  71.490  1.00  0.00    -0.325 A  
HETATM    5  C   UNL     1     -11.439   7.167  70.516  1.00  0.00    -0.334 A  
HETATM    6  C   UNL     1      -7.910   6.313  73.458  1.00  0.00    -0.097 A  
HETATM    7  C   UNL     1     -10.965   8.213  72.623  1.00  0.00    -0.440 A  
HETATM    8  C   UNL     1      -9.863   7.375  72.728  1.00  0.00    -0.237 A  
HETATM    9  C   UNL     1     -10.298   6.333  70.615  1.00  0.00    -0.254 A  
HETATM   10  C   UNL     1      -9.494   6.416  71.756  1.00  0.00    -0.153 A  
HETATM   11  C   UNL     1      -8.923   7.369  73.888  1.00  0.00    -0.281 A  
HETATM   12  N   UNL     1      -8.361   5.744  72.182  1.00  0.00    -0.115 NA 
BRANCH  12  13
HETATM   13  C   UNL     1      -7.537   4.750  71.523  1.00  0.00    -0.079 C  
BRANCH  13  14
HETATM   14  C   UNL     1      -6.581   5.388  70.512  1.00  0.00    -0.042 C  
BRANCH  14  15
HETATM   15  C   UNL     1      -6.538   4.660  69.176  1.00  0.00    -0.044 C  
HETATM   16  O   UNL     1      -7.328   5.377  68.226  1.00  0.00    -0.070 OA 
HETATM   17  H   UNL     1      -7.301   4.923  67.392  1.00  0.00     0.000 HD 
ENDBRANCH  14  15
ENDBRANCH  13  14
ENDBRANCH  12  13
BRANCH   9  18
HETATM   18  C   UNL     1     -10.127   5.417  69.457  1.00  0.00    -0.240 C  
HETATM   19  N   UNL     1     -10.114   6.007  68.213  1.00  0.00    -0.151 N  
HETATM   20  O   UNL     1     -10.055   4.197  69.550  1.00  0.00    -0.102 OA 
HETATM   21  H2  UNL     1     -10.216   7.015  68.093  1.00  0.00     0.000 HD 
HETATM   22  H1  UNL     1      -9.997   5.378  67.418  1.00  0.00     0.000 HD 
ENDBRANCH   9  18
ENDBRANCH   3   4
ENDBRANCH   2   3
BRANCH   2  23
HETATM   23  N   UNL     1     -11.153  10.557  70.535  1.00  0.00    -0.427 NA 
HETATM   24  H   UNL     1     -10.649   9.751  70.904  1.00  0.00     0.000 HD 
BRANCH  23  25
HETATM   25  C   UNL     1     -10.807  10.780  69.121  1.00  0.00    -0.237 C  
BRANCH  25  26
HETATM   26  C   UNL     1     -11.879  11.552  68.321  1.00  0.00    -0.256 C  
BRANCH  26  27
HETATM   27  O   UNL     1     -11.569  12.945  68.187  1.00  0.00    -0.293 OA 
BRANCH  27  28
HETATM   28  C   UNL     1     -11.563  13.462  66.916  1.00  0.00    -0.365 A  
HETATM   29  C   UNL     1     -10.963  15.296  65.451  1.00  0.00    -0.380 A  
HETATM   30  C   UNL     1     -12.228  12.865  65.831  1.00  0.00    -0.469 A  
HETATM   31  C   UNL     1     -10.923  14.695  66.708  1.00  0.00    -0.323 A  
HETATM   32  C   UNL     1     -11.636  14.694  64.385  1.00  0.00    -0.315 A  
HETATM   33  C   UNL     1     -12.273  13.475  64.582  1.00  0.00    -0.450 A  
BRANCH  31  34
HETATM   34  O   UNL     1     -10.332  15.469  67.673  1.00  0.00    -0.258 OA 
BRANCH  34  35
HETATM   35  C   UNL     1     -11.073  16.607  68.130  1.00  0.00    -0.285 C  
HETATM   36  C   UNL     1     -10.338  17.920  67.881  1.00  0.00    -0.389 C  
HETATM   37  F   UNL     1      -9.223  17.779  67.133  1.00  0.00    -0.239 F  
HETATM   38  F   UNL     1     -11.139  18.818  67.260  1.00  0.00    -0.473 F  
HETATM   39  F   UNL     1      -9.959  18.485  69.059  1.00  0.00    -0.375 F  
ENDBRANCH  34  35
ENDBRANCH  31  34
ENDBRANCH  27  28
ENDBRANCH  26  27
ENDBRANCH  25  26
ENDBRANCH  23  25
ENDBRANCH   2  23
TORSDOF 13
ENDMDL
MODEL      220
REMARK 921   NORMALIZED FREE ENERGY PREDICTED BY IDOCK:   -4.46 KCAL/MOL
REMARK 922        TOTAL FREE ENERGY PREDICTED BY IDOCK:  -11.02 KCAL/MOL
REMARK 923 INTER-LIGAND FREE ENERGY PREDICTED BY IDOCK:   -9.35 KCAL/MOL
REMARK 924 INTRA-LIGAND FREE ENERGY PREDICTED BY IDOCK:   -1.66 KCAL/MOL
REMARK 927      BINDING AFFINITY PREDICTED BY RF-SCORE:    0.00 PKD
ROOT
HETATM    1  C   UNL     1     -12.844   6.873  71.777  1.00  0.00    -0.349 C  
HETATM    2  C   UNL     1     -11.882   7.211  70.631  1.00  0.00    -0.291 C  
ENDROOT
BRANCH   2   3
HETATM    3  C   UNL     1     -10.427   6.796  70.942  1.00  0.00    -0.239 C  
BRANCH   3   4
HETATM    4  C   UNL     1      -9.587   6.587  69.714  1.00  0.00    -0.161 A  
HETATM    5  C   UNL     1      -9.961   5.622  68.772  1.00  0.00    -0.221 A  
HETATM    6  C   UNL     1      -6.139   7.213  66.603  1.00  0.00    -0.038 A  
HETATM    7  C   UNL     1      -8.435   7.328  69.493  1.00  0.00    -0.133 A  
HETATM    8  C   UNL     1      -7.714   7.098  68.329  1.00  0.00    -0.120 A  
HETATM    9  C   UNL     1      -9.238   5.411  67.572  1.00  0.00    -0.114 A  
HETATM   10  C   UNL     1      -8.071   6.149  67.344  1.00  0.00    -0.109 A  
HETATM   11  C   UNL     1      -6.460   7.821  67.964  1.00  0.00    -0.055 A  
HETATM   12  N   UNL     1      -7.132   6.167  66.327  1.00  0.00    -0.066 NA 
BRANCH  12  13
HETATM   13  C   UNL     1      -7.085   5.467  65.058  1.00  0.00    -0.061 C  
BRANCH  13  14
HETATM   14  C   UNL     1      -7.022   6.440  63.878  1.00  0.00    -0.043 C  
BRANCH  14  15
HETATM   15  C   UNL     1      -8.142   6.241  62.867  1.00  0.00    -0.068 C  
HETATM   16  O   UNL     1      -8.980   5.168  63.302  1.00  0.00    -0.320 OA 
HETATM   17  H   UNL     1      -9.679   5.044  62.671  1.00  0.00     0.000 HD 
ENDBRANCH  14  15
ENDBRANCH  13  14
ENDBRANCH  12  13
BRANCH   9  18
HETATM   18  C   UNL     1      -9.825   4.361  66.699  1.00  0.00    -0.226 C  
HETATM   19  N   UNL     1      -9.548   3.058  67.048  1.00  0.00    -0.403 N  
HETATM   20  O   UNL     1     -10.475   4.592  65.686  1.00  0.00    -0.272 OA 
HETATM   21  H2  UNL     1      -8.974   2.827  67.858  1.00  0.00     0.000 HD 
HETATM   22  H1  UNL     1      -9.951   2.337  66.449  1.00  0.00     0.000 HD 
ENDBRANCH   9  18
ENDBRANCH   3   4
ENDBRANCH   2   3
BRANCH   2  23
HETATM   23  N   UNL     1     -11.986   8.654  70.348  1.00  0.00    -0.472 NA 
HETATM   24  H   UNL     1     -12.860   8.861  69.865  1.00  0.00     0.000 HD 
BRANCH  23  25
HETATM   25  C   UNL     1     -11.836   9.510  71.536  1.00  0.00    -0.405 C  
BRANCH  25  26
HETATM   26  C   UNL     1     -12.803  10.714  71.576  1.00  0.00    -0.462 C  
BRANCH  26  27
HETATM   27  O   UNL     1     -12.393  11.779  70.708  1.00  0.00    -0.374 OA 
BRANCH  27  28
HETATM   28  C   UNL     1     -12.695  13.057  71.105  1.00  0.00    -0.283 A  
HETATM   29  C   UNL     1     -12.521  15.434  70.672  1.00  0.00    -0.478 A  
HETATM   30  C   UNL     1     -13.300  13.366  72.336  1.00  0.00    -0.629 A  
HETATM   31  C   UNL     1     -12.307  14.116  70.269  1.00  0.00    -0.356 A  
HETATM   32  C   UNL     1     -13.115  15.725  71.902  1.00  0.00    -0.492 A  
HETATM   33  C   UNL     1     -13.501  14.682  72.736  1.00  0.00    -0.570 A  
BRANCH  31  34
HETATM   34  O   UNL     1     -11.604  14.003  69.098  1.00  0.00    -0.269 OA 
BRANCH  34  35
HETATM   35  C   UNL     1     -10.387  14.752  69.001  1.00  0.00    -0.243 C  
HETATM   36  C   UNL     1     -10.226  15.432  67.645  1.00  0.00    -0.246 C  
HETATM   37  F   UNL     1     -11.325  15.342  66.865  1.00  0.00    -0.333 F  
HETATM   38  F   UNL     1      -9.930  16.745  67.788  1.00  0.00    -0.246 F  
HETATM   39  F   UNL     1      -9.198  14.873  66.951  1.00  0.00    -0.204 F  
ENDBRANCH  34  35
ENDBRANCH  31  34
ENDBRANCH  27  28
ENDBRANCH  26  27
ENDBRANCH  25  26
ENDBRANCH  23  25
ENDBRANCH   2  23
TORSDOF 13
ENDMDL
MODEL      221
REMARK 921   NORMALIZED FREE ENERGY PREDICTED BY IDOCK:   -4.46 KCAL/MOL
REMARK 922        TOTAL FREE ENERGY PREDICTED BY IDOCK:  -11.01 KCAL/MOL
REMARK 923 INTER-LIGAND FREE ENERGY PREDICTED BY IDOCK:   -8.68 KCAL/MOL
REMARK 924 INTRA-LIGAND FREE ENERGY PREDICTED BY IDOCK:   -2.33 KCAL/MOL
REMARK 927      BINDING AFFINITY PREDICTED BY RF-SCORE:    0.00 PKD
ROOT
HETATM    1  C   UNL     1     -10.295   6.276  67.386  1.00  0.00    -0.262 C  
HETATM    2  C   UNL     1     -10.965   7.246  68.367  1.00  0.00     0.029 C  
ENDROOT
BRANCH   2   3
HETATM    3  C   UNL     1      -9.959   8.239  68.993  1.00  0.00    -0.193 C  
BRANCH   3   4
HETATM    4  C   UNL     1     -10.397   9.673  68.901  1.00  0.00    -0.220 A  
HETATM    5  C   UNL     1     -10.027  10.444  67.793  1.00  0.00    -0.203 A  
HETATM    6  C   UNL     1     -12.520  13.690  70.050  1.00  0.00    -0.204 A  
HETATM    7  C   UNL     1     -11.159  10.260  69.901  1.00  0.00    -0.362 A  
HETATM    8  C   UNL     1     -11.547  11.584  69.746  1.00  0.00    -0.401 A  
HETATM    9  C   UNL     1     -10.449  11.786  67.626  1.00  0.00    -0.223 A  
HETATM   10  C   UNL     1     -11.211  12.388  68.633  1.00  0.00    -0.271 A  
HETATM   11  C   UNL     1     -12.365  12.339  70.740  1.00  0.00    -0.383 A  
HETATM   12  N   UNL     1     -11.742  13.655  68.805  1.00  0.00    -0.325 NA 
BRANCH  12  13
HETATM   13  C   UNL     1     -11.768  14.807  67.925  1.00  0.00    -0.341 C  
BRANCH  13  14
HETATM   14  C   UNL     1     -11.311  16.078  68.645  1.00  0.00    -0.383 C  
BRANCH  14  15
HETATM   15  C   UNL     1      -9.798  16.213  68.736  1.00  0.00    -0.230 C  
HETATM   16  O   UNL     1      -9.220  14.914  68.878  1.00  0.00    -0.191 OA 
HETATM   17  H   UNL     1      -8.275  14.998  68.935  1.00  0.00     0.000 HD 
ENDBRANCH  14  15
ENDBRANCH  13  14
ENDBRANCH  12  13
BRANCH   9  18
HETATM   18  C   UNL     1      -9.968  12.409  66.365  1.00  0.00    -0.242 C  
HETATM   19  N   UNL     1      -8.751  13.049  66.430  1.00  0.00    -0.422 N  
HETATM   20  O   UNL     1     -10.608  12.429  65.320  1.00  0.00    -0.274 OA 
HETATM   21  H2  UNL     1      -8.210  13.092  67.293  1.00  0.00     0.000 HD 
HETATM   22  H1  UNL     1      -8.421  13.477  65.564  1.00  0.00     0.000 HD 
ENDBRANCH   9  18
ENDBRANCH   3   4
ENDBRANCH   2   3
BRANCH   2  23
HETATM   23  N   UNL     1     -11.660   6.456  69.400  1.00  0.00    -0.618 NA 
HETATM   24  H   UNL     1     -11.855   5.515  69.058  1.00  0.00     0.000 HD 
BRANCH  23  25
HETATM   25  C   UNL     1     -10.953   6.402  70.690  1.00  0.00    -0.298 C  
BRANCH  25  26
HETATM   26  C   UNL     1     -11.853   6.669  71.916  1.00  0.00    -0.332 C  
BRANCH  26  27
HETATM   27  O   UNL     1     -11.154   6.509  73.158  1.00  0.00    -0.243 OA 
BRANCH  27  28
HETATM   28  C   UNL     1     -10.767   5.237  73.496  1.00  0.00    -0.289 A  
HETATM   29  C   UNL     1      -9.000   3.764  74.255  1.00  0.00    -0.092 A  
HETATM   30  C   UNL     1     -11.580   4.104  73.316  1.00  0.00    -0.137 A  
HETATM   31  C   UNL     1      -9.461   5.050  73.976  1.00  0.00    -0.126 A  
HETATM   32  C   UNL     1      -9.816   2.647  74.060  1.00  0.00    -0.141 A  
HETATM   33  C   UNL     1     -11.111   2.823  73.586  1.00  0.00    -0.320 A  
BRANCH  31  34
HETATM   34  O   UNL     1      -8.501   6.020  74.099  1.00  0.00    -0.115 OA 
BRANCH  34  35
HETATM   35  C   UNL     1      -7.997   6.589  72.884  1.00  0.00    -0.105 C  
HETATM   36  C   UNL     1      -7.921   8.111  72.939  1.00  0.00    -0.156 C  
HETATM   37  F   UNL     1      -8.176   8.618  74.163  1.00  0.00    -0.280 F  
HETATM   38  F   UNL     1      -6.700   8.553  72.556  1.00  0.00    -0.085 F  
HETATM   39  F   UNL     1      -8.823   8.663  72.083  1.00  0.00    -0.243 F  
ENDBRANCH  34  35
ENDBRANCH  31  34
ENDBRANCH  27  28
ENDBRANCH  26  27
ENDBRANCH  25  26
ENDBRANCH  23  25
ENDBRANCH   2  23
TORSDOF 13
ENDMDL
MODEL      222
REMARK 921   NORMALIZED FREE ENERGY PREDICTED BY IDOCK:   -4.45 KCAL/MOL
REMARK 922        TOTAL FREE ENERGY PREDICTED BY IDOCK:  -11.01 KCAL/MOL
REMARK 923 INTER-LIGAND FREE ENERGY PREDICTED BY IDOCK:   -8.84 KCAL/MOL
REMARK 924 INTRA-LIGAND FREE ENERGY PREDICTED BY IDOCK:   -2.17 KCAL/MOL
REMARK 927      BINDING AFFINITY PREDICTED BY RF-SCORE:    0.00 PKD
ROOT
HETATM    1  C   UNL     1      -9.334   7.191  66.409  1.00  0.00    -0.190 C  
HETATM    2  C   UNL     1     -10.486   7.855  67.174  1.00  0.00    -0.344 C  
ENDROOT
BRANCH   2   3
HETATM    3  C   UNL     1      -9.991   8.934  68.163  1.00  0.00    -0.208 C  
BRANCH   3   4
HETATM    4  C   UNL     1     -10.042  10.327  67.604  1.00  0.00    -0.229 A  
HETATM    5  C   UNL     1      -9.087  11.271  67.998  1.00  0.00    -0.156 A  
HETATM    6  C   UNL     1     -11.482  13.965  65.023  1.00  0.00    -0.339 A  
HETATM    7  C   UNL     1     -11.028  10.708  66.704  1.00  0.00    -0.144 A  
HETATM    8  C   UNL     1     -11.008  12.006  66.211  1.00  0.00    -0.340 A  
HETATM    9  C   UNL     1      -9.054  12.586  67.471  1.00  0.00    -0.187 A  
HETATM   10  C   UNL     1     -10.047  12.980  66.569  1.00  0.00    -0.270 A  
HETATM   11  C   UNL     1     -12.003  12.548  65.240  1.00  0.00    -0.490 A  
HETATM   12  N   UNL     1     -10.328  14.165  65.910  1.00  0.00    -0.304 NA 
BRANCH  12  13
HETATM   13  C   UNL     1      -9.607  15.421  65.855  1.00  0.00    -0.351 C  
BRANCH  13  14
HETATM   14  C   UNL     1     -10.555  16.620  65.937  1.00  0.00    -0.257 C  
BRANCH  14  15
HETATM   15  C   UNL     1     -10.146  17.646  66.985  1.00  0.00    -0.330 C  
HETATM   16  O   UNL     1      -9.711  16.964  68.162  1.00  0.00    -0.241 OA 
HETATM   17  H   UNL     1      -9.455  17.604  68.816  1.00  0.00     0.000 HD 
ENDBRANCH  14  15
ENDBRANCH  13  14
ENDBRANCH  12  13
BRANCH   9  18
HETATM   18  C   UNL     1      -7.939  13.413  68.002  1.00  0.00    -0.148 C  
HETATM   19  N   UNL     1      -8.258  14.273  69.029  1.00  0.00    -0.325 N  
HETATM   20  O   UNL     1      -6.801  13.407  67.548  1.00  0.00    -0.160 OA 
HETATM   21  H2  UNL     1      -9.204  14.338  69.403  1.00  0.00     0.000 HD 
HETATM   22  H1  UNL     1      -7.493  14.841  69.394  1.00  0.00     0.000 HD 
ENDBRANCH   9  18
ENDBRANCH   3   4
ENDBRANCH   2   3
BRANCH   2  23
HETATM   23  N   UNL     1     -11.255   6.801  67.861  1.00  0.00    -0.562 NA 
HETATM   24  H   UNL     1     -11.219   5.930  67.332  1.00  0.00     0.000 HD 
BRANCH  23  25
HETATM   25  C   UNL     1     -10.847   6.575  69.257  1.00  0.00    -0.307 C  
BRANCH  25  26
HETATM   26  C   UNL     1     -12.013   6.598  70.269  1.00  0.00    -0.240 C  
BRANCH  26  27
HETATM   27  O   UNL     1     -11.670   7.269  71.489  1.00  0.00    -0.266 OA 
BRANCH  27  28
HETATM   28  C   UNL     1     -11.155   6.498  72.500  1.00  0.00    -0.260 A  
HETATM   29  C   UNL     1      -9.432   6.199  74.177  1.00  0.00    -0.173 A  
HETATM   30  C   UNL     1     -11.638   5.218  72.825  1.00  0.00    -0.270 A  
HETATM   31  C   UNL     1     -10.037   6.985  73.197  1.00  0.00    -0.227 A  
HETATM   32  C   UNL     1      -9.917   4.925  74.480  1.00  0.00    -0.244 A  
HETATM   33  C   UNL     1     -11.023   4.436  73.796  1.00  0.00    -0.357 A  
BRANCH  31  34
HETATM   34  O   UNL     1      -9.368   8.152  72.932  1.00  0.00    -0.238 OA 
BRANCH  34  35
HETATM   35  C   UNL     1      -8.032   8.030  72.430  1.00  0.00    -0.128 C  
HETATM   36  C   UNL     1      -7.820   8.811  71.137  1.00  0.00    -0.134 C  
HETATM   37  F   UNL     1      -8.868   9.596  70.806  1.00  0.00    -0.258 F  
HETATM   38  F   UNL     1      -6.723   9.600  71.216  1.00  0.00    -0.084 F  
HETATM   39  F   UNL     1      -7.616   7.960  70.095  1.00  0.00    -0.076 F  
ENDBRANCH  34  35
ENDBRANCH  31  34
ENDBRANCH  27  28
ENDBRANCH  26  27
ENDBRANCH  25  26
ENDBRANCH  23  25
ENDBRANCH   2  23
TORSDOF 13
ENDMDL
MODEL      223
REMARK 921   NORMALIZED FREE ENERGY PREDICTED BY IDOCK:   -4.45 KCAL/MOL
REMARK 922        TOTAL FREE ENERGY PREDICTED BY IDOCK:  -10.99 KCAL/MOL
REMARK 923 INTER-LIGAND FREE ENERGY PREDICTED BY IDOCK:   -8.77 KCAL/MOL
REMARK 924 INTRA-LIGAND FREE ENERGY PREDICTED BY IDOCK:   -2.22 KCAL/MOL
REMARK 927      BINDING AFFINITY PREDICTED BY RF-SCORE:    0.00 PKD
ROOT
HETATM    1  C   UNL     1      -5.494  13.222  70.736  1.00  0.00    -0.174 C  
HETATM    2  C   UNL     1      -5.564  11.827  70.103  1.00  0.00    -0.131 C  
ENDROOT
BRANCH   2   3
HETATM    3  C   UNL     1      -5.826  11.884  68.581  1.00  0.00    -0.049 C  
BRANCH   3   4
HETATM    4  C   UNL     1      -7.230  12.289  68.230  1.00  0.00    -0.101 A  
HETATM    5  C   UNL     1      -7.512  13.625  67.924  1.00  0.00    -0.158 A  
HETATM    6  C   UNL     1     -11.812  11.891  67.330  1.00  0.00    -0.168 A  
HETATM    7  C   UNL     1      -8.264  11.364  68.212  1.00  0.00    -0.150 A  
HETATM    8  C   UNL     1      -9.535  11.801  67.861  1.00  0.00    -0.191 A  
HETATM    9  C   UNL     1      -8.805  14.060  67.539  1.00  0.00    -0.199 A  
HETATM   10  C   UNL     1      -9.855  13.136  67.524  1.00  0.00    -0.216 A  
HETATM   11  C   UNL     1     -10.736  10.917  67.799  1.00  0.00    -0.279 A  
HETATM   12  N   UNL     1     -11.207  13.227  67.243  1.00  0.00    -0.282 NA 
BRANCH  12  13
HETATM   13  C   UNL     1     -12.010  14.333  66.761  1.00  0.00    -0.436 C  
BRANCH  13  14
HETATM   14  C   UNL     1     -12.833  13.941  65.531  1.00  0.00    -0.471 C  
BRANCH  14  15
HETATM   15  C   UNL     1     -12.145  14.264  64.213  1.00  0.00    -0.441 C  
HETATM   16  O   UNL     1     -10.730  14.248  64.406  1.00  0.00    -0.605 OA 
HETATM   17  H   UNL     1     -10.300  14.450  63.583  1.00  0.00     0.000 HD 
ENDBRANCH  14  15
ENDBRANCH  13  14
ENDBRANCH  12  13
BRANCH   9  18
HETATM   18  C   UNL     1      -8.877  15.511  67.227  1.00  0.00    -0.201 C  
HETATM   19  N   UNL     1      -8.902  16.363  68.308  1.00  0.00    -0.196 N  
HETATM   20  O   UNL     1      -8.968  15.968  66.093  1.00  0.00    -0.317 OA 
HETATM   21  H2  UNL     1      -8.872  16.018  69.267  1.00  0.00     0.000 HD 
HETATM   22  H1  UNL     1      -8.951  17.360  68.094  1.00  0.00     0.000 HD 
ENDBRANCH   9  18
ENDBRANCH   3   4
ENDBRANCH   2   3
BRANCH   2  23
HETATM   23  N   UNL     1      -6.602  11.051  70.804  1.00  0.00    -0.429 NA 
HETATM   24  H   UNL     1      -7.469  11.048  70.268  1.00  0.00     0.000 HD 
BRANCH  23  25
HETATM   25  C   UNL     1      -6.198   9.676  71.141  1.00  0.00    -0.046 C  
BRANCH  25  26
HETATM   26  C   UNL     1      -7.331   8.634  71.020  1.00  0.00    -0.083 C  
BRANCH  26  27
HETATM   27  O   UNL     1      -8.606   9.235  70.758  1.00  0.00    -0.204 OA 
BRANCH  27  28
HETATM   28  C   UNL     1      -9.719   8.525  71.131  1.00  0.00    -0.201 A  
HETATM   29  C   UNL     1     -11.636   7.210  70.450  1.00  0.00    -0.300 A  
HETATM   30  C   UNL     1     -10.202   8.475  72.451  1.00  0.00    -0.369 A  
HETATM   31  C   UNL     1     -10.455   7.876  70.127  1.00  0.00    -0.231 A  
HETATM   32  C   UNL     1     -12.109   7.178  71.764  1.00  0.00    -0.363 A  
HETATM   33  C   UNL     1     -11.387   7.817  72.765  1.00  0.00    -0.446 A  
BRANCH  31  34
HETATM   34  O   UNL     1     -10.196   7.920  68.782  1.00  0.00    -0.197 OA 
BRANCH  34  35
HETATM   35  C   UNL     1      -9.430   6.840  68.235  1.00  0.00    -0.125 C  
HETATM   36  C   UNL     1     -10.154   6.127  67.098  1.00  0.00    -0.170 C  
HETATM   37  F   UNL     1     -11.290   6.747  66.713  1.00  0.00    -0.475 F  
HETATM   38  F   UNL     1      -9.360   6.010  66.008  1.00  0.00    -0.167 F  
HETATM   39  F   UNL     1     -10.496   4.864  67.469  1.00  0.00    -0.205 F  
ENDBRANCH  34  35
ENDBRANCH  31  34
ENDBRANCH  27  28
ENDBRANCH  26  27
ENDBRANCH  25  26
ENDBRANCH  23  25
ENDBRANCH   2  23
TORSDOF 13
ENDMDL
MODEL      224
REMARK 921   NORMALIZED FREE ENERGY PREDICTED BY IDOCK:   -4.44 KCAL/MOL
REMARK 922        TOTAL FREE ENERGY PREDICTED BY IDOCK:  -10.98 KCAL/MOL
REMARK 923 INTER-LIGAND FREE ENERGY PREDICTED BY IDOCK:   -9.38 KCAL/MOL
REMARK 924 INTRA-LIGAND FREE ENERGY PREDICTED BY IDOCK:   -1.61 KCAL/MOL
REMARK 927      BINDING AFFINITY PREDICTED BY RF-SCORE:    0.00 PKD
ROOT
HETATM    1  C   UNL     1     -10.085  10.982  63.706  1.00  0.00    -0.420 C  
HETATM    2  C   UNL     1     -10.295  10.732  65.205  1.00  0.00    -0.271 C  
ENDROOT
BRANCH   2   3
HETATM    3  C   UNL     1      -9.325  11.556  66.081  1.00  0.00    -0.230 C  
BRANCH   3   4
HETATM    4  C   UNL     1     -10.013  12.345  67.158  1.00  0.00    -0.211 A  
HETATM    5  C   UNL     1     -10.609  11.680  68.235  1.00  0.00    -0.232 A  
HETATM    6  C   UNL     1     -11.581  16.059  69.548  1.00  0.00    -0.304 A  
HETATM    7  C   UNL     1     -10.082  13.730  67.105  1.00  0.00    -0.241 A  
HETATM    8  C   UNL     1     -10.717  14.401  68.142  1.00  0.00    -0.239 A  
HETATM    9  C   UNL     1     -11.231  12.370  69.305  1.00  0.00    -0.264 A  
HETATM   10  C   UNL     1     -11.311  13.766  69.257  1.00  0.00    -0.273 A  
HETATM   11  C   UNL     1     -10.864  15.884  68.214  1.00  0.00    -0.315 A  
HETATM   12  N   UNL     1     -11.866  14.723  70.088  1.00  0.00    -0.288 NA 
BRANCH  12  13
HETATM   13  C   UNL     1     -12.497  14.609  71.388  1.00  0.00    -0.344 C  
BRANCH  13  14
HETATM   14  C   UNL     1     -11.730  15.389  72.459  1.00  0.00    -0.564 C  
BRANCH  14  15
HETATM   15  C   UNL     1     -12.329  15.256  73.852  1.00  0.00    -0.626 C  
HETATM   16  O   UNL     1     -13.498  16.072  73.939  1.00  0.00    -0.861 OA 
HETATM   17  H   UNL     1     -13.872  15.989  74.808  1.00  0.00     0.000 HD 
ENDBRANCH  14  15
ENDBRANCH  13  14
ENDBRANCH  12  13
BRANCH   9  18
HETATM   18  C   UNL     1     -11.770  11.473  70.360  1.00  0.00    -0.234 C  
HETATM   19  N   UNL     1     -12.987  11.829  70.896  1.00  0.00    -0.121 N  
HETATM   20  O   UNL     1     -11.177  10.495  70.801  1.00  0.00    -0.300 OA 
HETATM   21  H2  UNL     1     -13.490  12.660  70.586  1.00  0.00     0.000 HD 
HETATM   22  H1  UNL     1     -13.358  11.213  71.620  1.00  0.00     0.000 HD 
ENDBRANCH   9  18
ENDBRANCH   3   4
ENDBRANCH   2   3
BRANCH   2  23
HETATM   23  N   UNL     1     -10.160   9.286  65.457  1.00  0.00    -0.329 NA 
HETATM   24  H   UNL     1     -10.512   8.750  64.665  1.00  0.00     0.000 HD 
BRANCH  23  25
HETATM   25  C   UNL     1      -8.792   8.863  65.801  1.00  0.00    -0.186 C  
BRANCH  25  26
HETATM   26  C   UNL     1      -8.689   8.056  67.113  1.00  0.00    -0.131 C  
BRANCH  26  27
HETATM   27  O   UNL     1      -9.929   7.437  67.478  1.00  0.00    -0.150 OA 
BRANCH  27  28
HETATM   28  C   UNL     1      -9.858   6.208  68.083  1.00  0.00    -0.131 A  
HETATM   29  C   UNL     1     -10.044   4.910  70.120  1.00  0.00    -0.332 A  
HETATM   30  C   UNL     1      -9.407   5.046  67.431  1.00  0.00    -0.138 A  
HETATM   31  C   UNL     1     -10.181   6.123  69.447  1.00  0.00    -0.197 A  
HETATM   32  C   UNL     1      -9.585   3.767  69.461  1.00  0.00    -0.230 A  
HETATM   33  C   UNL     1      -9.263   3.842  68.111  1.00  0.00    -0.214 A  
BRANCH  31  34
HETATM   34  O   UNL     1     -10.521   7.172  70.261  1.00  0.00    -0.209 OA 
BRANCH  34  35
HETATM   35  C   UNL     1     -10.073   7.107  71.620  1.00  0.00    -0.185 C  
HETATM   36  C   UNL     1      -8.741   7.819  71.832  1.00  0.00    -0.118 C  
HETATM   37  F   UNL     1      -8.326   8.514  70.751  1.00  0.00    -0.103 F  
HETATM   38  F   UNL     1      -8.807   8.680  72.874  1.00  0.00    -0.295 F  
HETATM   39  F   UNL     1      -7.763   6.922  72.128  1.00  0.00    -0.090 F  
ENDBRANCH  34  35
ENDBRANCH  31  34
ENDBRANCH  27  28
ENDBRANCH  26  27
ENDBRANCH  25  26
ENDBRANCH  23  25
ENDBRANCH   2  23
TORSDOF 13
ENDMDL
MODEL      225
REMARK 921   NORMALIZED FREE ENERGY PREDICTED BY IDOCK:   -4.44 KCAL/MOL
REMARK 922        TOTAL FREE ENERGY PREDICTED BY IDOCK:  -10.97 KCAL/MOL
REMARK 923 INTER-LIGAND FREE ENERGY PREDICTED BY IDOCK:   -9.31 KCAL/MOL
REMARK 924 INTRA-LIGAND FREE ENERGY PREDICTED BY IDOCK:   -1.66 KCAL/MOL
REMARK 927      BINDING AFFINITY PREDICTED BY RF-SCORE:    0.00 PKD
ROOT
HETATM    1  C   UNL     1     -11.747  11.425  68.516  1.00  0.00    -0.386 C  
HETATM    2  C   UNL     1     -10.384  10.909  68.036  1.00  0.00    -0.185 C  
ENDROOT
BRANCH   2   3
HETATM    3  C   UNL     1     -10.368   9.374  67.851  1.00  0.00    -0.276 C  
BRANCH   3   4
HETATM    4  C   UNL     1     -10.053   8.622  69.113  1.00  0.00    -0.203 A  
HETATM    5  C   UNL     1     -11.040   8.459  70.091  1.00  0.00    -0.183 A  
HETATM    6  C   UNL     1      -7.608   6.110  72.223  1.00  0.00    -0.096 A  
HETATM    7  C   UNL     1      -8.792   8.088  69.338  1.00  0.00    -0.144 A  
HETATM    8  C   UNL     1      -8.571   7.388  70.517  1.00  0.00    -0.139 A  
HETATM    9  C   UNL     1     -10.818   7.720  71.279  1.00  0.00    -0.255 A  
HETATM   10  C   UNL     1      -9.548   7.184  71.518  1.00  0.00    -0.157 A  
HETATM   11  C   UNL     1      -7.268   6.762  70.887  1.00  0.00    -0.073 A  
HETATM   12  N   UNL     1      -8.993   6.463  72.561  1.00  0.00    -0.137 NA 
BRANCH  12  13
HETATM   13  C   UNL     1      -9.585   5.916  73.766  1.00  0.00    -0.147 C  
BRANCH  13  14
HETATM   14  C   UNL     1      -9.397   4.399  73.850  1.00  0.00    -0.118 C  
BRANCH  14  15
HETATM   15  C   UNL     1     -10.408   3.616  73.025  1.00  0.00    -0.164 C  
HETATM   16  O   UNL     1     -10.160   3.849  71.637  1.00  0.00    -0.173 OA 
HETATM   17  H   UNL     1     -10.791   3.359  71.122  1.00  0.00     0.000 HD 
ENDBRANCH  14  15
ENDBRANCH  13  14
ENDBRANCH  12  13
BRANCH   9  18
HETATM   18  C   UNL     1     -12.009   7.645  72.166  1.00  0.00    -0.302 C  
HETATM   19  N   UNL     1     -12.505   6.384  72.410  1.00  0.00    -0.547 N  
HETATM   20  O   UNL     1     -12.584   8.624  72.628  1.00  0.00    -0.371 OA 
HETATM   21  H2  UNL     1     -12.080   5.550  72.007  1.00  0.00     0.000 HD 
HETATM   22  H1  UNL     1     -13.323   6.333  73.019  1.00  0.00     0.000 HD 
ENDBRANCH   9  18
ENDBRANCH   3   4
ENDBRANCH   2   3
BRANCH   2  23
HETATM   23  N   UNL     1      -9.357  11.350  68.996  1.00  0.00    -0.407 NA 
HETATM   24  H   UNL     1      -8.947  10.549  69.475  1.00  0.00     0.000 HD 
BRANCH  23  25
HETATM   25  C   UNL     1      -8.304  12.192  68.403  1.00  0.00    -0.143 C  
BRANCH  25  26
HETATM   26  C   UNL     1      -8.594  12.644  66.956  1.00  0.00    -0.181 C  
BRANCH  26  27
HETATM   27  O   UNL     1      -9.062  13.997  66.884  1.00  0.00    -0.238 OA 
BRANCH  27  28
HETATM   28  C   UNL     1     -10.057  14.266  65.979  1.00  0.00    -0.318 A  
HETATM   29  C   UNL     1     -11.395  15.930  64.836  1.00  0.00    -0.259 A  
HETATM   30  C   UNL     1     -10.857  13.273  65.387  1.00  0.00    -0.304 A  
HETATM   31  C   UNL     1     -10.339  15.610  65.687  1.00  0.00    -0.385 A  
HETATM   32  C   UNL     1     -12.188  14.933  64.264  1.00  0.00    -0.365 A  
HETATM   33  C   UNL     1     -11.916  13.599  64.546  1.00  0.00    -0.454 A  
BRANCH  31  34
HETATM   34  O   UNL     1      -9.742  16.701  66.262  1.00  0.00    -0.272 OA 
BRANCH  34  35
HETATM   35  C   UNL     1     -10.454  17.341  67.329  1.00  0.00    -0.319 C  
HETATM   36  C   UNL     1     -10.223  18.847  67.365  1.00  0.00    -0.392 C  
HETATM   37  F   UNL     1      -9.538  19.312  66.299  1.00  0.00    -0.338 F  
HETATM   38  F   UNL     1     -11.395  19.521  67.427  1.00  0.00    -0.534 F  
HETATM   39  F   UNL     1      -9.514  19.194  68.474  1.00  0.00    -0.348 F  
ENDBRANCH  34  35
ENDBRANCH  31  34
ENDBRANCH  27  28
ENDBRANCH  26  27
ENDBRANCH  25  26
ENDBRANCH  23  25
ENDBRANCH   2  23
TORSDOF 13
ENDMDL
MODEL      226
REMARK 921   NORMALIZED FREE ENERGY PREDICTED BY IDOCK:   -4.44 KCAL/MOL
REMARK 922        TOTAL FREE ENERGY PREDICTED BY IDOCK:  -10.97 KCAL/MOL
REMARK 923 INTER-LIGAND FREE ENERGY PREDICTED BY IDOCK:   -8.26 KCAL/MOL
REMARK 924 INTRA-LIGAND FREE ENERGY PREDICTED BY IDOCK:   -2.71 KCAL/MOL
REMARK 927      BINDING AFFINITY PREDICTED BY RF-SCORE:    0.00 PKD
ROOT
HETATM    1  C   UNL     1     -12.708   7.509  71.126  1.00  0.00    -0.279 C  
HETATM    2  C   UNL     1     -11.575   8.346  71.733  1.00  0.00    -0.308 C  
ENDROOT
BRANCH   2   3
HETATM    3  C   UNL     1     -10.372   8.492  70.775  1.00  0.00    -0.238 C  
BRANCH   3   4
HETATM    4  C   UNL     1     -10.480   9.674  69.853  1.00  0.00    -0.285 A  
HETATM    5  C   UNL     1      -9.874   9.632  68.593  1.00  0.00    -0.171 A  
HETATM    6  C   UNL     1     -11.756  13.898  68.274  1.00  0.00    -0.361 A  
HETATM    7  C   UNL     1     -11.165  10.821  70.229  1.00  0.00    -0.326 A  
HETATM    8  C   UNL     1     -11.244  11.871  69.324  1.00  0.00    -0.304 A  
HETATM    9  C   UNL     1      -9.982  10.694  67.662  1.00  0.00    -0.197 A  
HETATM   10  C   UNL     1     -10.664  11.857  68.034  1.00  0.00    -0.209 A  
HETATM   11  C   UNL     1     -11.948  13.159  69.594  1.00  0.00    -0.370 A  
HETATM   12  N   UNL     1     -10.918  13.063  67.404  1.00  0.00    -0.254 NA 
BRANCH  12  13
HETATM   13  C   UNL     1     -10.631  13.515  66.057  1.00  0.00    -0.285 C  
BRANCH  13  14
HETATM   14  C   UNL     1     -11.800  13.239  65.107  1.00  0.00    -0.377 C  
BRANCH  14  15
HETATM   15  C   UNL     1     -12.526  14.499  64.657  1.00  0.00    -0.321 C  
HETATM   16  O   UNL     1     -11.575  15.423  64.127  1.00  0.00    -0.706 OA 
HETATM   17  H   UNL     1     -12.028  16.210  63.846  1.00  0.00     0.000 HD 
ENDBRANCH  14  15
ENDBRANCH  13  14
ENDBRANCH  12  13
BRANCH   9  18
HETATM   18  C   UNL     1      -9.290  10.429  66.373  1.00  0.00    -0.164 C  
HETATM   19  N   UNL     1      -9.888   9.509  65.541  1.00  0.00    -0.402 N  
HETATM   20  O   UNL     1      -8.219  10.931  66.051  1.00  0.00    -0.162 OA 
HETATM   21  H2  UNL     1     -10.756   9.038  65.795  1.00  0.00     0.000 HD 
HETATM   22  H1  UNL     1      -9.413   9.327  64.657  1.00  0.00     0.000 HD 
ENDBRANCH   9  18
ENDBRANCH   3   4
ENDBRANCH   2   3
BRANCH   2  23
HETATM   23  N   UNL     1     -11.178   7.730  73.012  1.00  0.00    -0.517 NA 
HETATM   24  H   UNL     1     -11.829   7.991  73.752  1.00  0.00     0.000 HD 
BRANCH  23  25
HETATM   25  C   UNL     1     -11.024   6.267  72.951  1.00  0.00    -0.254 C  
BRANCH  25  26
HETATM   26  C   UNL     1      -9.595   5.767  73.253  1.00  0.00    -0.143 C  
BRANCH  26  27
HETATM   27  O   UNL     1      -9.162   4.751  72.338  1.00  0.00    -0.128 OA 
BRANCH  27  28
HETATM   28  C   UNL     1      -9.128   5.085  71.008  1.00  0.00    -0.141 A  
HETATM   29  C   UNL     1      -7.980   6.233  69.210  1.00  0.00    -0.109 A  
HETATM   30  C   UNL     1     -10.177   4.812  70.111  1.00  0.00    -0.259 A  
HETATM   31  C   UNL     1      -8.018   5.804  70.536  1.00  0.00    -0.105 A  
HETATM   32  C   UNL     1      -9.034   5.964  68.334  1.00  0.00    -0.112 A  
HETATM   33  C   UNL     1     -10.137   5.252  68.793  1.00  0.00    -0.248 A  
BRANCH  31  34
HETATM   34  O   UNL     1      -6.969   6.255  71.294  1.00  0.00    -0.068 OA 
BRANCH  34  35
HETATM   35  C   UNL     1      -6.323   7.455  70.853  1.00  0.00    -0.039 C  
HETATM   36  C   UNL     1      -6.868   8.700  71.546  1.00  0.00    -0.084 C  
HETATM   37  F   UNL     1      -7.724   8.424  72.552  1.00  0.00    -0.144 F  
HETATM   38  F   UNL     1      -5.866   9.456  72.053  1.00  0.00    -0.076 F  
HETATM   39  F   UNL     1      -7.537   9.484  70.658  1.00  0.00    -0.116 F  
ENDBRANCH  34  35
ENDBRANCH  31  34
ENDBRANCH  27  28
ENDBRANCH  26  27
ENDBRANCH  25  26
ENDBRANCH  23  25
ENDBRANCH   2  23
TORSDOF 13
ENDMDL
MODEL      227
REMARK 921   NORMALIZED FREE ENERGY PREDICTED BY IDOCK:   -4.43 KCAL/MOL
REMARK 922        TOTAL FREE ENERGY PREDICTED BY IDOCK:  -10.96 KCAL/MOL
REMARK 923 INTER-LIGAND FREE ENERGY PREDICTED BY IDOCK:   -9.59 KCAL/MOL
REMARK 924 INTRA-LIGAND FREE ENERGY PREDICTED BY IDOCK:   -1.37 KCAL/MOL
REMARK 927      BINDING AFFINITY PREDICTED BY RF-SCORE:    0.00 PKD
ROOT
HETATM    1  C   UNL     1     -11.694  12.530  67.200  1.00  0.00    -0.425 C  
HETATM    2  C   UNL     1     -10.852  12.150  65.975  1.00  0.00    -0.282 C  
ENDROOT
BRANCH   2   3
HETATM    3  C   UNL     1     -10.339  10.694  66.042  1.00  0.00    -0.290 C  
BRANCH   3   4
HETATM    4  C   UNL     1      -9.908  10.273  67.418  1.00  0.00    -0.214 A  
HETATM    5  C   UNL     1     -10.853   9.776  68.322  1.00  0.00    -0.256 A  
HETATM    6  C   UNL     1      -7.073   9.388  71.044  1.00  0.00    -0.044 A  
HETATM    7  C   UNL     1      -8.584  10.375  67.822  1.00  0.00    -0.122 A  
HETATM    8  C   UNL     1      -8.247   9.952  69.101  1.00  0.00    -0.128 A  
HETATM    9  C   UNL     1     -10.500   9.319  69.616  1.00  0.00    -0.234 A  
HETATM   10  C   UNL     1      -9.169   9.424  70.034  1.00  0.00    -0.220 A  
HETATM   11  C   UNL     1      -6.866  10.003  69.664  1.00  0.00    -0.078 A  
HETATM   12  N   UNL     1      -8.507   9.118  71.210  1.00  0.00    -0.325 NA 
BRANCH  12  13
HETATM   13  C   UNL     1      -8.966   8.474  72.425  1.00  0.00    -0.214 C  
BRANCH  13  14
HETATM   14  C   UNL     1      -7.994   7.387  72.890  1.00  0.00    -0.120 C  
BRANCH  14  15
HETATM   15  C   UNL     1      -7.298   7.718  74.203  1.00  0.00    -0.141 C  
HETATM   16  O   UNL     1      -7.497   9.100  74.503  1.00  0.00    -0.386 OA 
HETATM   17  H   UNL     1      -7.063   9.307  75.323  1.00  0.00     0.000 HD 
ENDBRANCH  14  15
ENDBRANCH  13  14
ENDBRANCH  12  13
BRANCH   9  18
HETATM   18  C   UNL     1     -11.652   8.802  70.400  1.00  0.00    -0.088 C  
HETATM   19  N   UNL     1     -12.592   9.734  70.783  1.00  0.00    -0.489 N  
HETATM   20  O   UNL     1     -11.774   7.636  70.758  1.00  0.00    -0.287 OA 
HETATM   21  H2  UNL     1     -12.502  10.720  70.542  1.00  0.00     0.000 HD 
HETATM   22  H1  UNL     1     -13.383   9.379  71.322  1.00  0.00     0.000 HD 
ENDBRANCH   9  18
ENDBRANCH   3   4
ENDBRANCH   2   3
BRANCH   2  23
HETATM   23  N   UNL     1      -9.740  13.112  65.861  1.00  0.00    -0.428 NA 
HETATM   24  H   UNL     1      -9.099  12.830  65.120  1.00  0.00     0.000 HD 
BRANCH  23  25
HETATM   25  C   UNL     1     -10.171  14.506  65.669  1.00  0.00    -0.357 C  
BRANCH  25  26
HETATM   26  C   UNL     1      -9.139  15.558  66.131  1.00  0.00    -0.324 C  
BRANCH  26  27
HETATM   27  O   UNL     1      -9.529  16.896  65.798  1.00  0.00    -0.514 OA 
BRANCH  27  28
HETATM   28  C   UNL     1      -9.021  17.905  66.577  1.00  0.00    -0.261 A  
HETATM   29  C   UNL     1      -9.273  19.311  68.534  1.00  0.00    -0.434 A  
HETATM   30  C   UNL     1      -7.896  18.670  66.221  1.00  0.00    -0.288 A  
HETATM   31  C   UNL     1      -9.708  18.239  67.755  1.00  0.00    -0.297 A  
HETATM   32  C   UNL     1      -8.160  20.068  68.161  1.00  0.00    -0.232 A  
HETATM   33  C   UNL     1      -7.474  19.744  66.997  1.00  0.00    -0.267 A  
BRANCH  31  34
HETATM   34  O   UNL     1     -10.882  17.681  68.189  1.00  0.00    -0.349 OA 
BRANCH  34  35
HETATM   35  C   UNL     1     -10.832  16.943  69.416  1.00  0.00    -0.186 C  
HETATM   36  C   UNL     1     -11.728  15.710  69.393  1.00  0.00    -0.383 C  
HETATM   37  F   UNL     1     -12.261  15.455  68.179  1.00  0.00    -0.263 F  
HETATM   38  F   UNL     1     -11.051  14.605  69.786  1.00  0.00    -0.255 F  
HETATM   39  F   UNL     1     -12.767  15.860  70.260  1.00  0.00    -0.412 F  
ENDBRANCH  34  35
ENDBRANCH  31  34
ENDBRANCH  27  28
ENDBRANCH  26  27
ENDBRANCH  25  26
ENDBRANCH  23  25
ENDBRANCH   2  23
TORSDOF 13
ENDMDL
MODEL      228
REMARK 921   NORMALIZED FREE ENERGY PREDICTED BY IDOCK:   -4.41 KCAL/MOL
REMARK 922        TOTAL FREE ENERGY PREDICTED BY IDOCK:  -10.93 KCAL/MOL
REMARK 923 INTER-LIGAND FREE ENERGY PREDICTED BY IDOCK:  -10.12 KCAL/MOL
REMARK 924 INTRA-LIGAND FREE ENERGY PREDICTED BY IDOCK:   -0.81 KCAL/MOL
REMARK 927      BINDING AFFINITY PREDICTED BY RF-SCORE:    0.00 PKD
ROOT
HETATM    1  C   UNL     1     -12.510  12.989  65.096  1.00  0.00    -0.552 C  
HETATM    2  C   UNL     1     -11.609  13.860  65.982  1.00  0.00    -0.349 C  
ENDROOT
BRANCH   2   3
HETATM    3  C   UNL     1     -10.786  14.879  65.162  1.00  0.00    -0.428 C  
BRANCH   3   4
HETATM    4  C   UNL     1      -9.858  15.713  65.999  1.00  0.00    -0.362 A  
HETATM    5  C   UNL     1     -10.311  16.916  66.551  1.00  0.00    -0.299 A  
HETATM    6  C   UNL     1      -5.970  16.991  68.282  1.00  0.00    -0.134 A  
HETATM    7  C   UNL     1      -8.548  15.319  66.234  1.00  0.00    -0.087 A  
HETATM    8  C   UNL     1      -7.748  16.125  67.032  1.00  0.00    -0.256 A  
HETATM    9  C   UNL     1      -9.500  17.721  67.389  1.00  0.00    -0.254 A  
HETATM   10  C   UNL     1      -8.176  17.336  67.625  1.00  0.00    -0.193 A  
HETATM   11  C   UNL     1      -6.325  15.824  67.366  1.00  0.00    -0.173 A  
HETATM   12  N   UNL     1      -7.129  17.892  68.339  1.00  0.00    -0.236 NA 
BRANCH  12  13
HETATM   13  C   UNL     1      -7.071  19.060  69.196  1.00  0.00    -0.294 C  
BRANCH  13  14
HETATM   14  C   UNL     1      -5.665  19.279  69.759  1.00  0.00    -0.265 C  
BRANCH  14  15
HETATM   15  C   UNL     1      -5.658  19.882  71.156  1.00  0.00    -0.307 C  
HETATM   16  O   UNL     1      -5.379  18.855  72.108  1.00  0.00    -0.695 OA 
HETATM   17  H   UNL     1      -5.375  19.232  72.981  1.00  0.00     0.000 HD 
ENDBRANCH  14  15
ENDBRANCH  13  14
ENDBRANCH  12  13
BRANCH   9  18
HETATM   18  C   UNL     1     -10.187  18.939  67.892  1.00  0.00    -0.394 C  
HETATM   19  N   UNL     1     -10.864  19.685  66.953  1.00  0.00    -0.457 N  
HETATM   20  O   UNL     1     -10.135  19.328  69.053  1.00  0.00    -0.415 OA 
HETATM   21  H2  UNL     1     -10.892  19.417  65.970  1.00  0.00     0.000 HD 
HETATM   22  H1  UNL     1     -11.336  20.522  67.299  1.00  0.00     0.000 HD 
ENDBRANCH   9  18
ENDBRANCH   3   4
ENDBRANCH   2   3
BRANCH   2  23
HETATM   23  N   UNL     1     -10.740  12.973  66.774  1.00  0.00    -0.261 NA 
HETATM   24  H   UNL     1     -10.378  13.464  67.592  1.00  0.00     0.000 HD 
BRANCH  23  25
HETATM   25  C   UNL     1     -11.377  11.706  67.171  1.00  0.00    -0.306 C  
BRANCH  25  26
HETATM   26  C   UNL     1     -10.459  10.471  67.054  1.00  0.00    -0.249 C  
BRANCH  26  27
HETATM   27  O   UNL     1     -10.434   9.686  68.253  1.00  0.00    -0.199 OA 
BRANCH  27  28
HETATM   28  C   UNL     1     -10.400   8.323  68.106  1.00  0.00    -0.202 A  
HETATM   29  C   UNL     1      -9.797   6.173  69.046  1.00  0.00    -0.170 A  
HETATM   30  C   UNL     1     -10.741   7.662  66.913  1.00  0.00    -0.271 A  
HETATM   31  C   UNL     1      -9.926   7.554  69.181  1.00  0.00    -0.179 A  
HETATM   32  C   UNL     1     -10.130   5.532  67.850  1.00  0.00    -0.218 A  
HETATM   33  C   UNL     1     -10.601   6.284  66.781  1.00  0.00    -0.335 A  
BRANCH  31  34
HETATM   34  O   UNL     1      -9.441   8.041  70.367  1.00  0.00    -0.165 OA 
BRANCH  34  35
HETATM   35  C   UNL     1      -9.498   7.162  71.498  1.00  0.00    -0.157 C  
HETATM   36  C   UNL     1     -10.483   7.639  72.559  1.00  0.00    -0.268 C  
HETATM   37  F   UNL     1     -11.231   8.691  72.165  1.00  0.00    -0.362 F  
HETATM   38  F   UNL     1     -11.329   6.646  72.923  1.00  0.00    -0.270 F  
HETATM   39  F   UNL     1      -9.822   8.021  73.685  1.00  0.00    -0.358 F  
ENDBRANCH  34  35
ENDBRANCH  31  34
ENDBRANCH  27  28
ENDBRANCH  26  27
ENDBRANCH  25  26
ENDBRANCH  23  25
ENDBRANCH   2  23
TORSDOF 13
ENDMDL
MODEL      229
REMARK 921   NORMALIZED FREE ENERGY PREDICTED BY IDOCK:   -4.39 KCAL/MOL
REMARK 922        TOTAL FREE ENERGY PREDICTED BY IDOCK:  -10.90 KCAL/MOL
REMARK 923 INTER-LIGAND FREE ENERGY PREDICTED BY IDOCK:   -9.14 KCAL/MOL
REMARK 924 INTRA-LIGAND FREE ENERGY PREDICTED BY IDOCK:   -1.76 KCAL/MOL
REMARK 927      BINDING AFFINITY PREDICTED BY RF-SCORE:    0.00 PKD
ROOT
HETATM    1  C   UNL     1      -6.161  14.146  71.147  1.00  0.00    -0.094 C  
HETATM    2  C   UNL     1      -5.764  13.140  70.059  1.00  0.00    -0.131 C  
ENDROOT
BRANCH   2   3
HETATM    3  C   UNL     1      -6.369  13.494  68.681  1.00  0.00    -0.091 C  
BRANCH   3   4
HETATM    4  C   UNL     1      -6.951  14.877  68.620  1.00  0.00    -0.108 A  
HETATM    5  C   UNL     1      -8.340  15.048  68.615  1.00  0.00    -0.166 A  
HETATM    6  C   UNL     1      -7.124  19.559  68.486  1.00  0.00    -0.317 A  
HETATM    7  C   UNL     1      -6.138  16.000  68.559  1.00  0.00    -0.111 A  
HETATM    8  C   UNL     1      -6.740  17.251  68.523  1.00  0.00    -0.185 A  
HETATM    9  C   UNL     1      -8.949  16.327  68.607  1.00  0.00    -0.232 A  
HETATM   10  C   UNL     1      -8.138  17.465  68.538  1.00  0.00    -0.270 A  
HETATM   11  C   UNL     1      -5.990  18.540  68.457  1.00  0.00    -0.198 A  
HETATM   12  N   UNL     1      -8.395  18.823  68.477  1.00  0.00    -0.339 NA 
BRANCH  12  13
HETATM   13  C   UNL     1      -9.638  19.564  68.559  1.00  0.00    -0.399 C  
BRANCH  13  14
HETATM   14  C   UNL     1      -9.905  20.364  67.281  1.00  0.00    -0.597 C  
BRANCH  14  15
HETATM   15  C   UNL     1     -10.718  19.600  66.246  1.00  0.00    -0.419 C  
HETATM   16  O   UNL     1     -10.015  18.411  65.883  1.00  0.00    -0.526 OA 
HETATM   17  H   UNL     1     -10.522  17.934  65.237  1.00  0.00     0.000 HD 
ENDBRANCH  14  15
ENDBRANCH  13  14
ENDBRANCH  12  13
BRANCH   9  18
HETATM   18  C   UNL     1     -10.434  16.281  68.635  1.00  0.00    -0.282 C  
HETATM   19  N   UNL     1     -11.016  16.233  69.883  1.00  0.00    -0.358 N  
HETATM   20  O   UNL     1     -11.141  16.227  67.635  1.00  0.00    -0.287 OA 
HETATM   21  H2  UNL     1     -10.460  16.231  70.737  1.00  0.00     0.000 HD 
HETATM   22  H1  UNL     1     -12.036  16.201  69.902  1.00  0.00     0.000 HD 
ENDBRANCH   9  18
ENDBRANCH   3   4
ENDBRANCH   2   3
BRANCH   2  23
HETATM   23  N   UNL     1      -6.171  11.795  70.501  1.00  0.00    -0.505 NA 
HETATM   24  H   UNL     1      -6.655  11.844  71.396  1.00  0.00     0.000 HD 
BRANCH  23  25
HETATM   25  C   UNL     1      -6.980  11.059  69.515  1.00  0.00    -0.126 C  
BRANCH  25  26
HETATM   26  C   UNL     1      -7.813   9.905  70.113  1.00  0.00    -0.171 C  
BRANCH  26  27
HETATM   27  O   UNL     1      -9.212  10.028  69.825  1.00  0.00    -0.219 OA 
BRANCH  27  28
HETATM   28  C   UNL     1      -9.573  10.079  68.502  1.00  0.00    -0.151 A  
HETATM   29  C   UNL     1     -10.078   8.868  66.466  1.00  0.00    -0.356 A  
HETATM   30  C   UNL     1      -9.665  11.275  67.768  1.00  0.00    -0.184 A  
HETATM   31  C   UNL     1      -9.788   8.865  67.830  1.00  0.00    -0.166 A  
HETATM   32  C   UNL     1     -10.155  10.063  65.747  1.00  0.00    -0.320 A  
HETATM   33  C   UNL     1      -9.944  11.269  66.406  1.00  0.00    -0.252 A  
BRANCH  31  34
HETATM   34  O   UNL     1      -9.624   7.611  68.358  1.00  0.00    -0.149 OA 
BRANCH  34  35
HETATM   35  C   UNL     1     -10.787   6.775  68.410  1.00  0.00    -0.223 C  
HETATM   36  C   UNL     1     -11.179   6.408  69.837  1.00  0.00    -0.420 C  
HETATM   37  F   UNL     1     -10.469   7.068  70.776  1.00  0.00    -0.212 F  
HETATM   38  F   UNL     1     -12.490   6.653  70.063  1.00  0.00    -0.321 F  
HETATM   39  F   UNL     1     -10.987   5.078  70.055  1.00  0.00    -0.256 F  
ENDBRANCH  34  35
ENDBRANCH  31  34
ENDBRANCH  27  28
ENDBRANCH  26  27
ENDBRANCH  25  26
ENDBRANCH  23  25
ENDBRANCH   2  23
TORSDOF 13
ENDMDL
MODEL      230
REMARK 921   NORMALIZED FREE ENERGY PREDICTED BY IDOCK:   -4.39 KCAL/MOL
REMARK 922        TOTAL FREE ENERGY PREDICTED BY IDOCK:  -10.90 KCAL/MOL
REMARK 923 INTER-LIGAND FREE ENERGY PREDICTED BY IDOCK:   -9.91 KCAL/MOL
REMARK 924 INTRA-LIGAND FREE ENERGY PREDICTED BY IDOCK:   -0.98 KCAL/MOL
REMARK 927      BINDING AFFINITY PREDICTED BY RF-SCORE:    0.00 PKD
ROOT
HETATM    1  C   UNL     1     -11.620  15.563  64.360  1.00  0.00    -0.258 C  
HETATM    2  C   UNL     1     -11.676  14.249  65.151  1.00  0.00    -0.368 C  
ENDROOT
BRANCH   2   3
HETATM    3  C   UNL     1     -12.012  13.036  64.254  1.00  0.00    -0.466 C  
BRANCH   3   4
HETATM    4  C   UNL     1     -11.051  11.892  64.408  1.00  0.00    -0.395 A  
HETATM    5  C   UNL     1     -10.728  11.422  65.686  1.00  0.00    -0.301 A  
HETATM    6  C   UNL     1      -8.135   8.425  63.209  1.00  0.00    -0.151 A  
HETATM    7  C   UNL     1     -10.462  11.291  63.305  1.00  0.00    -0.370 A  
HETATM    8  C   UNL     1      -9.596  10.226  63.515  1.00  0.00    -0.321 A  
HETATM    9  C   UNL     1      -9.866  10.317  65.894  1.00  0.00    -0.298 A  
HETATM   10  C   UNL     1      -9.263   9.709  64.788  1.00  0.00    -0.238 A  
HETATM   11  C   UNL     1      -8.895   9.488  62.424  1.00  0.00    -0.256 A  
HETATM   12  N   UNL     1      -8.366   8.665  64.639  1.00  0.00    -0.165 NA 
BRANCH  12  13
HETATM   13  C   UNL     1      -7.796   7.750  65.608  1.00  0.00    -0.107 C  
BRANCH  13  14
HETATM   14  C   UNL     1      -8.743   6.585  65.911  1.00  0.00    -0.149 C  
BRANCH  14  15
HETATM   15  C   UNL     1      -8.509   5.369  65.026  1.00  0.00    -0.150 C  
HETATM   16  O   UNL     1      -9.766   4.761  64.723  1.00  0.00    -0.345 OA 
HETATM   17  H   UNL     1      -9.620   4.002  64.171  1.00  0.00     0.000 HD 
ENDBRANCH  14  15
ENDBRANCH  13  14
ENDBRANCH  12  13
BRANCH   9  18
HETATM   18  C   UNL     1      -9.684   9.965  67.327  1.00  0.00    -0.171 C  
HETATM   19  N   UNL     1      -8.588  10.514  67.952  1.00  0.00    -0.122 N  
HETATM   20  O   UNL     1     -10.408   9.190  67.942  1.00  0.00    -0.207 OA 
HETATM   21  H2  UNL     1      -7.938  11.128  67.461  1.00  0.00     0.000 HD 
HETATM   22  H1  UNL     1      -8.463  10.273  68.936  1.00  0.00     0.000 HD 
ENDBRANCH   9  18
ENDBRANCH   3   4
ENDBRANCH   2   3
BRANCH   2  23
HETATM   23  N   UNL     1     -12.655  14.405  66.241  1.00  0.00    -0.433 NA 
HETATM   24  H   UNL     1     -13.522  13.919  66.015  1.00  0.00     0.000 HD 
BRANCH  23  25
HETATM   25  C   UNL     1     -12.156  13.986  67.561  1.00  0.00    -0.326 C  
BRANCH  25  26
HETATM   26  C   UNL     1     -11.731  15.154  68.478  1.00  0.00    -0.325 C  
BRANCH  26  27
HETATM   27  O   UNL     1     -10.782  16.029  67.852  1.00  0.00    -0.297 OA 
BRANCH  27  28
HETATM   28  C   UNL     1      -9.467  15.641  67.877  1.00  0.00    -0.204 A  
HETATM   29  C   UNL     1      -7.230  15.920  66.989  1.00  0.00    -0.232 A  
HETATM   30  C   UNL     1      -8.993  14.545  68.619  1.00  0.00    -0.181 A  
HETATM   31  C   UNL     1      -8.560  16.332  67.056  1.00  0.00    -0.200 A  
HETATM   32  C   UNL     1      -6.777  14.822  67.724  1.00  0.00    -0.193 A  
HETATM   33  C   UNL     1      -7.667  14.133  68.540  1.00  0.00    -0.138 A  
BRANCH  31  34
HETATM   34  O   UNL     1      -8.872  17.340  66.182  1.00  0.00    -0.427 OA 
BRANCH  34  35
HETATM   35  C   UNL     1     -10.051  18.102  66.468  1.00  0.00    -0.386 C  
HETATM   36  C   UNL     1      -9.873  19.588  66.174  1.00  0.00    -0.412 C  
HETATM   37  F   UNL     1      -8.712  19.876  65.549  1.00  0.00    -0.258 F  
HETATM   38  F   UNL     1     -10.883  20.059  65.407  1.00  0.00    -0.583 F  
HETATM   39  F   UNL     1      -9.891  20.306  67.329  1.00  0.00    -0.480 F  
ENDBRANCH  34  35
ENDBRANCH  31  34
ENDBRANCH  27  28
ENDBRANCH  26  27
ENDBRANCH  25  26
ENDBRANCH  23  25
ENDBRANCH   2  23
TORSDOF 13
ENDMDL
MODEL      231
REMARK 921   NORMALIZED FREE ENERGY PREDICTED BY IDOCK:   -4.39 KCAL/MOL
REMARK 922        TOTAL FREE ENERGY PREDICTED BY IDOCK:  -10.89 KCAL/MOL
REMARK 923 INTER-LIGAND FREE ENERGY PREDICTED BY IDOCK:   -7.82 KCAL/MOL
REMARK 924 INTRA-LIGAND FREE ENERGY PREDICTED BY IDOCK:   -3.07 KCAL/MOL
REMARK 927      BINDING AFFINITY PREDICTED BY RF-SCORE:    0.00 PKD
ROOT
HETATM    1  C   UNL     1     -11.350   7.234  72.856  1.00  0.00    -0.290 C  
HETATM    2  C   UNL     1     -10.990   8.512  72.087  1.00  0.00    -0.357 C  
ENDROOT
BRANCH   2   3
HETATM    3  C   UNL     1     -11.228   8.370  70.566  1.00  0.00    -0.252 C  
BRANCH   3   4
HETATM    4  C   UNL     1     -11.137   9.672  69.822  1.00  0.00    -0.247 A  
HETATM    5  C   UNL     1     -10.490   9.722  68.583  1.00  0.00    -0.233 A  
HETATM    6  C   UNL     1     -11.764  14.211  68.838  1.00  0.00    -0.334 A  
HETATM    7  C   UNL     1     -11.677  10.840  70.343  1.00  0.00    -0.445 A  
HETATM    8  C   UNL     1     -11.575  12.006  69.596  1.00  0.00    -0.371 A  
HETATM    9  C   UNL     1     -10.414  10.908  67.811  1.00  0.00    -0.238 A  
HETATM   10  C   UNL     1     -10.948  12.091  68.332  1.00  0.00    -0.237 A  
HETATM   11  C   UNL     1     -12.109  13.330  70.033  1.00  0.00    -0.385 A  
HETATM   12  N   UNL     1     -11.010  13.397  67.876  1.00  0.00    -0.249 NA 
BRANCH  12  13
HETATM   13  C   UNL     1     -10.609  13.988  66.614  1.00  0.00    -0.274 C  
BRANCH  13  14
HETATM   14  C   UNL     1     -11.777  14.701  65.927  1.00  0.00    -0.301 C  
BRANCH  14  15
HETATM   15  C   UNL     1     -12.933  13.774  65.579  1.00  0.00    -0.315 C  
HETATM   16  O   UNL     1     -12.413  12.496  65.208  1.00  0.00    -0.608 OA 
HETATM   17  H   UNL     1     -13.135  11.917  64.991  1.00  0.00     0.000 HD 
ENDBRANCH  14  15
ENDBRANCH  13  14
ENDBRANCH  12  13
BRANCH   9  18
HETATM   18  C   UNL     1      -9.710  10.731  66.514  1.00  0.00    -0.196 C  
HETATM   19  N   UNL     1     -10.388  10.022  65.548  1.00  0.00    -0.177 N  
HETATM   20  O   UNL     1      -8.571  11.125  66.290  1.00  0.00    -0.173 OA 
HETATM   21  H2  UNL     1     -11.319   9.641  65.713  1.00  0.00     0.000 HD 
HETATM   22  H1  UNL     1      -9.905   9.901  64.657  1.00  0.00     0.000 HD 
ENDBRANCH   9  18
ENDBRANCH   3   4
ENDBRANCH   2   3
BRANCH   2  23
HETATM   23  N   UNL     1      -9.588   8.854  72.387  1.00  0.00    -0.251 NA 
HETATM   24  H   UNL     1      -9.528   9.781  72.805  1.00  0.00     0.000 HD 
BRANCH  23  25
HETATM   25  C   UNL     1      -8.894   7.862  73.225  1.00  0.00    -0.250 C  
BRANCH  25  26
HETATM   26  C   UNL     1      -7.781   7.081  72.493  1.00  0.00    -0.093 C  
BRANCH  26  27
HETATM   27  O   UNL     1      -7.921   7.129  71.067  1.00  0.00    -0.100 OA 
BRANCH  27  28
HETATM   28  C   UNL     1      -8.438   6.017  70.453  1.00  0.00    -0.132 A  
HETATM   29  C   UNL     1      -9.185   4.967  68.402  1.00  0.00    -0.150 A  
HETATM   30  C   UNL     1      -8.896   4.886  71.152  1.00  0.00    -0.151 A  
HETATM   31  C   UNL     1      -8.589   6.043  69.057  1.00  0.00    -0.120 A  
HETATM   32  C   UNL     1      -9.644   3.855  69.111  1.00  0.00    -0.218 A  
HETATM   33  C   UNL     1      -9.499   3.820  70.493  1.00  0.00    -0.254 A  
BRANCH  31  34
HETATM   34  O   UNL     1      -8.309   7.105  68.237  1.00  0.00    -0.123 OA 
BRANCH  34  35
HETATM   35  C   UNL     1      -6.967   7.205  67.744  1.00  0.00    -0.076 C  
HETATM   36  C   UNL     1      -6.390   8.607  67.902  1.00  0.00    -0.057 C  
HETATM   37  F   UNL     1      -7.178   9.435  68.621  1.00  0.00    -0.070 F  
HETATM   38  F   UNL     1      -5.176   8.572  68.500  1.00  0.00    -0.030 F  
HETATM   39  F   UNL     1      -6.209   9.188  66.685  1.00  0.00    -0.059 F  
ENDBRANCH  34  35
ENDBRANCH  31  34
ENDBRANCH  27  28
ENDBRANCH  26  27
ENDBRANCH  25  26
ENDBRANCH  23  25
ENDBRANCH   2  23
TORSDOF 13
ENDMDL
MODEL      232
REMARK 921   NORMALIZED FREE ENERGY PREDICTED BY IDOCK:   -4.39 KCAL/MOL
REMARK 922        TOTAL FREE ENERGY PREDICTED BY IDOCK:  -10.89 KCAL/MOL
REMARK 923 INTER-LIGAND FREE ENERGY PREDICTED BY IDOCK:   -9.02 KCAL/MOL
REMARK 924 INTRA-LIGAND FREE ENERGY PREDICTED BY IDOCK:   -1.87 KCAL/MOL
REMARK 927      BINDING AFFINITY PREDICTED BY RF-SCORE:    0.00 PKD
ROOT
HETATM    1  C   UNL     1      -8.675  10.897  65.698  1.00  0.00    -0.190 C  
HETATM    2  C   UNL     1      -8.532  11.368  67.151  1.00  0.00    -0.153 C  
ENDROOT
BRANCH   2   3
HETATM    3  C   UNL     1      -9.894  11.462  67.876  1.00  0.00    -0.188 C  
BRANCH   3   4
HETATM    4  C   UNL     1      -9.996  10.564  69.076  1.00  0.00    -0.223 A  
HETATM    5  C   UNL     1     -11.201  10.482  69.783  1.00  0.00    -0.361 A  
HETATM    6  C   UNL     1      -8.738   7.432  72.328  1.00  0.00    -0.116 A  
HETATM    7  C   UNL     1      -8.912   9.814  69.511  1.00  0.00    -0.215 A  
HETATM    8  C   UNL     1      -9.079   8.990  70.616  1.00  0.00    -0.280 A  
HETATM    9  C   UNL     1     -11.374   9.619  70.893  1.00  0.00    -0.431 A  
HETATM   10  C   UNL     1     -10.285   8.864  71.342  1.00  0.00    -0.305 A  
HETATM   11  C   UNL     1      -8.002   8.131  71.189  1.00  0.00    -0.103 A  
HETATM   12  N   UNL     1     -10.101   7.977  72.388  1.00  0.00    -0.240 NA 
BRANCH  12  13
HETATM   13  C   UNL     1     -11.033   7.434  73.356  1.00  0.00    -0.243 C  
BRANCH  13  14
HETATM   14  C   UNL     1     -10.615   6.037  73.823  1.00  0.00    -0.265 C  
BRANCH  14  15
HETATM   15  C   UNL     1     -11.222   4.915  72.993  1.00  0.00    -0.289 C  
HETATM   16  O   UNL     1     -10.247   4.440  72.063  1.00  0.00    -0.186 OA 
HETATM   17  H   UNL     1     -10.625   3.739  71.545  1.00  0.00     0.000 HD 
ENDBRANCH  14  15
ENDBRANCH  13  14
ENDBRANCH  12  13
BRANCH   9  18
HETATM   18  C   UNL     1     -12.740   9.665  71.477  1.00  0.00    -0.387 C  
HETATM   19  N   UNL     1     -13.102  10.849  72.080  1.00  0.00    -0.536 N  
HETATM   20  O   UNL     1     -13.513   8.714  71.496  1.00  0.00    -0.343 OA 
HETATM   21  H2  UNL     1     -12.470  11.647  72.124  1.00  0.00     0.000 HD 
HETATM   22  H1  UNL     1     -14.040  10.881  72.481  1.00  0.00     0.000 HD 
ENDBRANCH   9  18
ENDBRANCH   3   4
ENDBRANCH   2   3
BRANCH   2  23
HETATM   23  N   UNL     1      -7.827  12.662  67.152  1.00  0.00    -0.322 NA 
HETATM   24  H   UNL     1      -8.467  13.418  67.395  1.00  0.00     0.000 HD 
BRANCH  23  25
HETATM   25  C   UNL     1      -6.635  12.696  68.016  1.00  0.00    -0.095 C  
BRANCH  25  26
HETATM   26  C   UNL     1      -6.102  14.115  68.305  1.00  0.00    -0.118 C  
BRANCH  26  27
HETATM   27  O   UNL     1      -6.846  14.786  69.331  1.00  0.00    -0.138 OA 
BRANCH  27  28
HETATM   28  C   UNL     1      -7.107  16.119  69.141  1.00  0.00    -0.209 A  
HETATM   29  C   UNL     1      -8.621  17.813  68.301  1.00  0.00    -0.277 A  
HETATM   30  C   UNL     1      -6.173  17.138  69.400  1.00  0.00    -0.234 A  
HETATM   31  C   UNL     1      -8.346  16.476  68.586  1.00  0.00    -0.235 A  
HETATM   32  C   UNL     1      -7.679  18.813  68.555  1.00  0.00    -0.357 A  
HETATM   33  C   UNL     1      -6.450  18.468  69.104  1.00  0.00    -0.277 A  
BRANCH  31  34
HETATM   34  O   UNL     1      -9.320  15.610  68.164  1.00  0.00    -0.191 OA 
BRANCH  34  35
HETATM   35  C   UNL     1     -10.031  14.892  69.180  1.00  0.00    -0.211 C  
HETATM   36  C   UNL     1     -11.529  14.822  68.906  1.00  0.00    -0.297 C  
HETATM   37  F   UNL     1     -11.876  15.294  67.690  1.00  0.00    -0.347 F  
HETATM   38  F   UNL     1     -11.985  13.551  69.000  1.00  0.00    -0.322 F  
HETATM   39  F   UNL     1     -12.216  15.552  69.827  1.00  0.00    -0.336 F  
ENDBRANCH  34  35
ENDBRANCH  31  34
ENDBRANCH  27  28
ENDBRANCH  26  27
ENDBRANCH  25  26
ENDBRANCH  23  25
ENDBRANCH   2  23
TORSDOF 13
ENDMDL
MODEL      233
REMARK 921   NORMALIZED FREE ENERGY PREDICTED BY IDOCK:   -4.38 KCAL/MOL
REMARK 922        TOTAL FREE ENERGY PREDICTED BY IDOCK:  -10.88 KCAL/MOL
REMARK 923 INTER-LIGAND FREE ENERGY PREDICTED BY IDOCK:  -10.26 KCAL/MOL
REMARK 924 INTRA-LIGAND FREE ENERGY PREDICTED BY IDOCK:   -0.62 KCAL/MOL
REMARK 927      BINDING AFFINITY PREDICTED BY RF-SCORE:    0.00 PKD
ROOT
HETATM    1  C   UNL     1      -8.514   9.345  68.758  1.00  0.00    -0.122 C  
HETATM    2  C   UNL     1      -9.938   9.834  68.464  1.00  0.00    -0.160 C  
ENDROOT
BRANCH   2   3
HETATM    3  C   UNL     1     -10.135  10.211  66.978  1.00  0.00    -0.277 C  
BRANCH   3   4
HETATM    4  C   UNL     1     -10.052  11.689  66.719  1.00  0.00    -0.242 A  
HETATM    5  C   UNL     1     -11.070  12.328  66.002  1.00  0.00    -0.347 A  
HETATM    6  C   UNL     1      -8.403  16.074  66.840  1.00  0.00    -0.243 A  
HETATM    7  C   UNL     1      -8.975  12.440  67.168  1.00  0.00    -0.195 A  
HETATM    8  C   UNL     1      -8.968  13.805  66.911  1.00  0.00    -0.234 A  
HETATM    9  C   UNL     1     -11.072  13.725  65.767  1.00  0.00    -0.290 A  
HETATM   10  C   UNL     1      -9.987  14.490  66.211  1.00  0.00    -0.305 A  
HETATM   11  C   UNL     1      -7.877  14.731  67.335  1.00  0.00    -0.224 A  
HETATM   12  N   UNL     1      -9.659  15.831  66.118  1.00  0.00    -0.304 NA 
BRANCH  12  13
HETATM   13  C   UNL     1     -10.399  16.961  65.592  1.00  0.00    -0.237 C  
BRANCH  13  14
HETATM   14  C   UNL     1      -9.968  18.275  66.250  1.00  0.00    -0.361 C  
BRANCH  14  15
HETATM   15  C   UNL     1     -10.864  18.695  67.407  1.00  0.00    -0.324 C  
HETATM   16  O   UNL     1     -10.080  19.389  68.379  1.00  0.00    -0.399 OA 
HETATM   17  H   UNL     1     -10.639  19.651  69.100  1.00  0.00     0.000 HD 
ENDBRANCH  14  15
ENDBRANCH  13  14
ENDBRANCH  12  13
BRANCH   9  18
HETATM   18  C   UNL     1     -12.262  14.201  65.014  1.00  0.00    -0.441 C  
HETATM   19  N   UNL     1     -12.026  15.150  64.044  1.00  0.00    -0.913 N  
HETATM   20  O   UNL     1     -13.411  13.843  65.245  1.00  0.00    -0.732 OA 
HETATM   21  H2  UNL     1     -11.090  15.506  63.854  1.00  0.00     0.000 HD 
HETATM   22  H1  UNL     1     -12.843  15.477  63.527  1.00  0.00     0.000 HD 
ENDBRANCH   9  18
ENDBRANCH   3   4
ENDBRANCH   2   3
BRANCH   2  23
HETATM   23  N   UNL     1     -10.232  10.971  69.355  1.00  0.00    -0.418 NA 
HETATM   24  H   UNL     1      -9.930  11.847  68.929  1.00  0.00     0.000 HD 
BRANCH  23  25
HETATM   25  C   UNL     1     -11.641  11.057  69.773  1.00  0.00    -0.325 C  
BRANCH  25  26
HETATM   26  C   UNL     1     -12.059   9.998  70.816  1.00  0.00    -0.327 C  
BRANCH  26  27
HETATM   27  O   UNL     1     -10.973   9.600  71.663  1.00  0.00    -0.322 OA 
BRANCH  27  28
HETATM   28  C   UNL     1     -10.973   8.302  72.107  1.00  0.00    -0.326 A  
HETATM   29  C   UNL     1      -9.869   6.578  73.402  1.00  0.00    -0.200 A  
HETATM   30  C   UNL     1     -11.889   7.331  71.668  1.00  0.00    -0.330 A  
HETATM   31  C   UNL     1      -9.954   7.907  72.990  1.00  0.00    -0.296 A  
HETATM   32  C   UNL     1     -10.780   5.622  72.949  1.00  0.00    -0.286 A  
HETATM   33  C   UNL     1     -11.792   6.005  72.075  1.00  0.00    -0.284 A  
BRANCH  31  34
HETATM   34  O   UNL     1      -8.915   8.689  73.423  1.00  0.00    -0.252 OA 
BRANCH  34  35
HETATM   35  C   UNL     1      -7.868   8.029  74.145  1.00  0.00    -0.220 C  
HETATM   36  C   UNL     1      -6.528   8.095  73.420  1.00  0.00    -0.100 C  
HETATM   37  F   UNL     1      -6.543   8.896  72.334  1.00  0.00    -0.092 F  
HETATM   38  F   UNL     1      -5.547   8.535  74.242  1.00  0.00    -0.084 F  
HETATM   39  F   UNL     1      -6.156   6.857  72.995  1.00  0.00    -0.054 F  
ENDBRANCH  34  35
ENDBRANCH  31  34
ENDBRANCH  27  28
ENDBRANCH  26  27
ENDBRANCH  25  26
ENDBRANCH  23  25
ENDBRANCH   2  23
TORSDOF 13
ENDMDL
MODEL      234
REMARK 921   NORMALIZED FREE ENERGY PREDICTED BY IDOCK:   -4.38 KCAL/MOL
REMARK 922        TOTAL FREE ENERGY PREDICTED BY IDOCK:  -10.88 KCAL/MOL
REMARK 923 INTER-LIGAND FREE ENERGY PREDICTED BY IDOCK:   -7.13 KCAL/MOL
REMARK 924 INTRA-LIGAND FREE ENERGY PREDICTED BY IDOCK:   -3.75 KCAL/MOL
REMARK 927      BINDING AFFINITY PREDICTED BY RF-SCORE:    0.00 PKD
ROOT
HETATM    1  C   UNL     1      -6.257   2.235  69.146  1.00  0.00    -0.025 C  
HETATM    2  C   UNL     1      -7.435   3.006  68.537  1.00  0.00    -0.049 C  
ENDROOT
BRANCH   2   3
HETATM    3  C   UNL     1      -8.596   3.196  69.540  1.00  0.00    -0.113 C  
BRANCH   3   4
HETATM    4  C   UNL     1      -8.909   4.636  69.827  1.00  0.00    -0.128 A  
HETATM    5  C   UNL     1     -10.145   4.981  70.386  1.00  0.00    -0.330 A  
HETATM    6  C   UNL     1      -8.308   9.272  70.152  1.00  0.00    -0.178 A  
HETATM    7  C   UNL     1      -7.999   5.644  69.540  1.00  0.00    -0.092 A  
HETATM    8  C   UNL     1      -8.344   6.953  69.847  1.00  0.00    -0.139 A  
HETATM    9  C   UNL     1     -10.480   6.316  70.724  1.00  0.00    -0.273 A  
HETATM   10  C   UNL     1      -9.572   7.339  70.432  1.00  0.00    -0.165 A  
HETATM   11  C   UNL     1      -7.464   8.132  69.593  1.00  0.00    -0.086 A  
HETATM   12  N   UNL     1      -9.595   8.714  70.588  1.00  0.00    -0.176 NA 
BRANCH  12  13
HETATM   13  C   UNL     1     -10.566   9.588  71.215  1.00  0.00    -0.288 C  
BRANCH  13  14
HETATM   14  C   UNL     1     -11.324  10.425  70.182  1.00  0.00    -0.397 C  
BRANCH  14  15
HETATM   15  C   UNL     1     -12.424  11.285  70.788  1.00  0.00    -0.376 C  
HETATM   16  O   UNL     1     -12.008  12.652  70.781  1.00  0.00    -0.494 OA 
HETATM   17  H   UNL     1     -12.695  13.188  71.159  1.00  0.00     0.000 HD 
ENDBRANCH  14  15
ENDBRANCH  13  14
ENDBRANCH  12  13
BRANCH   9  18
HETATM   18  C   UNL     1     -11.828   6.455  71.335  1.00  0.00    -0.281 C  
HETATM   19  N   UNL     1     -12.748   7.183  70.614  1.00  0.00    -0.597 N  
HETATM   20  O   UNL     1     -12.133   6.015  72.438  1.00  0.00    -0.280 OA 
HETATM   21  H2  UNL     1     -12.518   7.602  69.714  1.00  0.00     0.000 HD 
HETATM   22  H1  UNL     1     -13.674   7.279  71.034  1.00  0.00     0.000 HD 
ENDBRANCH   9  18
ENDBRANCH   3   4
ENDBRANCH   2   3
BRANCH   2  23
HETATM   23  N   UNL     1      -7.877   2.294  67.324  1.00  0.00    -0.065 NA 
HETATM   24  H   UNL     1      -8.892   2.197  67.317  1.00  0.00     0.000 HD 
BRANCH  23  25
HETATM   25  C   UNL     1      -7.406   2.900  66.068  1.00  0.00    -0.071 C  
BRANCH  25  26
HETATM   26  C   UNL     1      -7.121   4.415  66.162  1.00  0.00    -0.071 C  
BRANCH  26  27
HETATM   27  O   UNL     1      -7.935   5.185  65.268  1.00  0.00    -0.100 OA 
BRANCH  27  28
HETATM   28  C   UNL     1      -8.888   5.994  65.833  1.00  0.00    -0.149 A  
HETATM   29  C   UNL     1      -9.499   8.203  66.618  1.00  0.00    -0.274 A  
HETATM   30  C   UNL     1     -10.108   5.518  66.343  1.00  0.00    -0.220 A  
HETATM   31  C   UNL     1      -8.593   7.360  65.976  1.00  0.00    -0.151 A  
HETATM   32  C   UNL     1     -10.703   7.713  67.129  1.00  0.00    -0.361 A  
HETATM   33  C   UNL     1     -11.003   6.363  66.991  1.00  0.00    -0.463 A  
BRANCH  31  34
HETATM   34  O   UNL     1      -7.410   7.968  65.646  1.00  0.00    -0.075 OA 
BRANCH  34  35
HETATM   35  C   UNL     1      -7.282   8.447  64.302  1.00  0.00    -0.092 C  
HETATM   36  C   UNL     1      -7.408   9.964  64.209  1.00  0.00    -0.133 C  
HETATM   37  F   UNL     1      -7.443  10.576  65.411  1.00  0.00    -0.141 F  
HETATM   38  F   UNL     1      -6.381  10.497  63.506  1.00  0.00    -0.142 F  
HETATM   39  F   UNL     1      -8.550  10.308  63.553  1.00  0.00    -0.154 F  
ENDBRANCH  34  35
ENDBRANCH  31  34
ENDBRANCH  27  28
ENDBRANCH  26  27
ENDBRANCH  25  26
ENDBRANCH  23  25
ENDBRANCH   2  23
TORSDOF 13
ENDMDL
MODEL      235
REMARK 921   NORMALIZED FREE ENERGY PREDICTED BY IDOCK:   -4.37 KCAL/MOL
REMARK 922        TOTAL FREE ENERGY PREDICTED BY IDOCK:  -10.87 KCAL/MOL
REMARK 923 INTER-LIGAND FREE ENERGY PREDICTED BY IDOCK:   -9.93 KCAL/MOL
REMARK 924 INTRA-LIGAND FREE ENERGY PREDICTED BY IDOCK:   -0.93 KCAL/MOL
REMARK 927      BINDING AFFINITY PREDICTED BY RF-SCORE:    0.00 PKD
ROOT
HETATM    1  C   UNL     1      -8.548   9.689  69.553  1.00  0.00    -0.177 C  
HETATM    2  C   UNL     1      -9.924   9.875  68.900  1.00  0.00    -0.181 C  
ENDROOT
BRANCH   2   3
HETATM    3  C   UNL     1      -9.823  10.143  67.381  1.00  0.00    -0.225 C  
BRANCH   3   4
HETATM    4  C   UNL     1      -9.771  11.603  67.033  1.00  0.00    -0.201 A  
HETATM    5  C   UNL     1     -10.839  12.194  66.348  1.00  0.00    -0.306 A  
HETATM    6  C   UNL     1      -8.160  15.998  66.796  1.00  0.00    -0.267 A  
HETATM    7  C   UNL     1      -8.675  12.386  67.368  1.00  0.00    -0.183 A  
HETATM    8  C   UNL     1      -8.697  13.734  67.033  1.00  0.00    -0.212 A  
HETATM    9  C   UNL     1     -10.869  13.576  66.034  1.00  0.00    -0.282 A  
HETATM   10  C   UNL     1      -9.766  14.371  66.362  1.00  0.00    -0.302 A  
HETATM   11  C   UNL     1      -7.591  14.689  67.332  1.00  0.00    -0.218 A  
HETATM   12  N   UNL     1      -9.458  15.707  66.172  1.00  0.00    -0.313 NA 
BRANCH  12  13
HETATM   13  C   UNL     1     -10.240  16.800  65.630  1.00  0.00    -0.236 C  
BRANCH  13  14
HETATM   14  C   UNL     1      -9.814  18.147  66.220  1.00  0.00    -0.311 C  
BRANCH  14  15
HETATM   15  C   UNL     1     -10.834  19.255  66.000  1.00  0.00    -0.272 C  
HETATM   16  O   UNL     1     -10.162  20.423  65.527  1.00  0.00    -0.485 OA 
HETATM   17  H   UNL     1     -10.798  21.115  65.389  1.00  0.00     0.000 HD 
ENDBRANCH  14  15
ENDBRANCH  13  14
ENDBRANCH  12  13
BRANCH   9  18
HETATM   18  C   UNL     1     -12.110  14.000  65.333  1.00  0.00    -0.401 C  
HETATM   19  N   UNL     1     -11.966  14.368  64.014  1.00  0.00    -0.715 N  
HETATM   20  O   UNL     1     -13.208  14.088  65.871  1.00  0.00    -0.422 OA 
HETATM   21  H2  UNL     1     -11.060  14.350  63.545  1.00  0.00     0.000 HD 
HETATM   22  H1  UNL     1     -12.817  14.659  63.533  1.00  0.00     0.000 HD 
ENDBRANCH   9  18
ENDBRANCH   3   4
ENDBRANCH   2   3
BRANCH   2  23
HETATM   23  N   UNL     1     -10.625  10.968  69.598  1.00  0.00    -0.439 NA 
HETATM   24  H   UNL     1     -10.775  11.755  68.969  1.00  0.00     0.000 HD 
BRANCH  23  25
HETATM   25  C   UNL     1     -11.890  10.561  70.230  1.00  0.00    -0.331 C  
BRANCH  25  26
HETATM   26  C   UNL     1     -12.619  11.698  70.980  1.00  0.00    -0.331 C  
BRANCH  26  27
HETATM   27  O   UNL     1     -12.001  12.976  70.777  1.00  0.00    -0.267 OA 
BRANCH  27  28
HETATM   28  C   UNL     1     -12.481  14.025  71.519  1.00  0.00    -0.322 A  
HETATM   29  C   UNL     1     -12.032  16.143  72.605  1.00  0.00    -0.653 A  
HETATM   30  C   UNL     1     -13.766  14.050  72.089  1.00  0.00    -0.603 A  
HETATM   31  C   UNL     1     -11.612  15.095  71.787  1.00  0.00    -0.408 A  
HETATM   32  C   UNL     1     -13.308  16.149  73.172  1.00  0.00    -0.502 A  
HETATM   33  C   UNL     1     -14.174  15.093  72.912  1.00  0.00     0.182 A  
BRANCH  31  34
HETATM   34  O   UNL     1     -10.296  15.177  71.414  1.00  0.00     0.344 OA 
BRANCH  34  35
HETATM   35  C   UNL     1     -10.030  15.348  70.017  1.00  0.00    -0.150 C  
HETATM   36  C   UNL     1     -10.646  16.626  69.457  1.00  0.00    -0.308 C  
HETATM   37  F   UNL     1     -11.173  17.429  70.405  1.00  0.00     0.178 F  
HETATM   38  F   UNL     1      -9.733  17.348  68.766  1.00  0.00    -0.255 F  
HETATM   39  F   UNL     1     -11.648  16.329  68.585  1.00  0.00    -0.356 F  
ENDBRANCH  34  35
ENDBRANCH  31  34
ENDBRANCH  27  28
ENDBRANCH  26  27
ENDBRANCH  25  26
ENDBRANCH  23  25
ENDBRANCH   2  23
TORSDOF 13
ENDMDL
MODEL      236
REMARK 921   NORMALIZED FREE ENERGY PREDICTED BY IDOCK:   -4.37 KCAL/MOL
REMARK 922        TOTAL FREE ENERGY PREDICTED BY IDOCK:  -10.85 KCAL/MOL
REMARK 923 INTER-LIGAND FREE ENERGY PREDICTED BY IDOCK:   -8.84 KCAL/MOL
REMARK 924 INTRA-LIGAND FREE ENERGY PREDICTED BY IDOCK:   -2.02 KCAL/MOL
REMARK 927      BINDING AFFINITY PREDICTED BY RF-SCORE:    0.00 PKD
ROOT
HETATM    1  C   UNL     1     -13.605   8.973  72.349  1.00  0.00    -0.533 C  
HETATM    2  C   UNL     1     -12.725   9.670  71.303  1.00  0.00    -0.352 C  
ENDROOT
BRANCH   2   3
HETATM    3  C   UNL     1     -11.219   9.419  71.540  1.00  0.00    -0.457 C  
BRANCH   3   4
HETATM    4  C   UNL     1     -10.669   8.274  70.739  1.00  0.00    -0.244 A  
HETATM    5  C   UNL     1      -9.763   7.384  71.328  1.00  0.00    -0.171 A  
HETATM    6  C   UNL     1     -10.011   5.376  67.116  1.00  0.00    -0.174 A  
HETATM    7  C   UNL     1     -11.034   8.079  69.415  1.00  0.00    -0.021 A  
HETATM    8  C   UNL     1     -10.504   6.989  68.736  1.00  0.00    -0.222 A  
HETATM    9  C   UNL     1      -9.247   6.258  70.641  1.00  0.00    -0.164 A  
HETATM   10  C   UNL     1      -9.604   6.058  69.303  1.00  0.00    -0.136 A  
HETATM   11  C   UNL     1     -10.809   6.660  67.313  1.00  0.00    -0.456 A  
HETATM   12  N   UNL     1      -9.263   5.112  68.352  1.00  0.00    -0.112 NA 
BRANCH  12  13
HETATM   13  C   UNL     1      -8.462   3.907  68.447  1.00  0.00    -0.092 C  
BRANCH  13  14
HETATM   14  C   UNL     1      -9.288   2.717  68.943  1.00  0.00    -0.220 C  
BRANCH  14  15
HETATM   15  C   UNL     1      -9.173   1.487  68.054  1.00  0.00    -0.168 C  
HETATM   16  O   UNL     1      -9.511   1.844  66.713  1.00  0.00    -0.362 OA 
HETATM   17  H   UNL     1      -9.439   1.076  66.159  1.00  0.00     0.000 HD 
ENDBRANCH  14  15
ENDBRANCH  13  14
ENDBRANCH  12  13
BRANCH   9  18
HETATM   18  C   UNL     1      -8.326   5.429  71.461  1.00  0.00    -0.122 C  
HETATM   19  N   UNL     1      -8.920   4.573  72.362  1.00  0.00    -0.123 N  
HETATM   20  O   UNL     1      -7.103   5.509  71.416  1.00  0.00    -0.067 OA 
HETATM   21  H2  UNL     1      -9.933   4.512  72.460  1.00  0.00     0.000 HD 
HETATM   22  H1  UNL     1      -8.287   4.004  72.926  1.00  0.00     0.000 HD 
ENDBRANCH   9  18
ENDBRANCH   3   4
ENDBRANCH   2   3
BRANCH   2  23
HETATM   23  N   UNL     1     -13.044  11.109  71.314  1.00  0.00    -0.327 NA 
HETATM   24  H   UNL     1     -13.188  11.436  72.269  1.00  0.00     0.000 HD 
BRANCH  23  25
HETATM   25  C   UNL     1     -12.051  11.949  70.625  1.00  0.00    -0.294 C  
BRANCH  25  26
HETATM   26  C   UNL     1     -11.973  11.715  69.100  1.00  0.00    -0.313 C  
BRANCH  26  27
HETATM   27  O   UNL     1     -10.651  11.909  68.580  1.00  0.00    -0.223 OA 
BRANCH  27  28
HETATM   28  C   UNL     1     -10.483  11.746  67.229  1.00  0.00    -0.214 A  
HETATM   29  C   UNL     1     -10.378  12.771  65.036  1.00  0.00    -0.323 A  
HETATM   30  C   UNL     1     -10.404  10.489  66.602  1.00  0.00    -0.295 A  
HETATM   31  C   UNL     1     -10.465  12.895  66.422  1.00  0.00    -0.267 A  
HETATM   32  C   UNL     1     -10.311  11.515  64.428  1.00  0.00    -0.364 A  
HETATM   33  C   UNL     1     -10.327  10.372  65.218  1.00  0.00    -0.267 A  
BRANCH  31  34
HETATM   34  O   UNL     1     -10.649  14.183  66.851  1.00  0.00    -0.277 OA 
BRANCH  34  35
HETATM   35  C   UNL     1      -9.879  15.199  66.197  1.00  0.00    -0.300 C  
HETATM   36  C   UNL     1     -10.277  16.605  66.632  1.00  0.00    -0.303 C  
HETATM   37  F   UNL     1     -11.150  16.623  67.661  1.00  0.00    -0.316 F  
HETATM   38  F   UNL     1      -9.194  17.330  66.998  1.00  0.00    -0.224 F  
HETATM   39  F   UNL     1     -10.863  17.273  65.601  1.00  0.00    -0.331 F  
ENDBRANCH  34  35
ENDBRANCH  31  34
ENDBRANCH  27  28
ENDBRANCH  26  27
ENDBRANCH  25  26
ENDBRANCH  23  25
ENDBRANCH   2  23
TORSDOF 13
ENDMDL
MODEL      237
REMARK 921   NORMALIZED FREE ENERGY PREDICTED BY IDOCK:   -4.37 KCAL/MOL
REMARK 922        TOTAL FREE ENERGY PREDICTED BY IDOCK:  -10.85 KCAL/MOL
REMARK 923 INTER-LIGAND FREE ENERGY PREDICTED BY IDOCK:   -9.30 KCAL/MOL
REMARK 924 INTRA-LIGAND FREE ENERGY PREDICTED BY IDOCK:   -1.56 KCAL/MOL
REMARK 927      BINDING AFFINITY PREDICTED BY RF-SCORE:    0.00 PKD
ROOT
HETATM    1  C   UNL     1     -11.524  14.505  64.920  1.00  0.00    -0.396 C  
HETATM    2  C   UNL     1     -11.501  13.682  66.214  1.00  0.00    -0.333 C  
ENDROOT
BRANCH   2   3
HETATM    3  C   UNL     1     -11.868  12.200  65.976  1.00  0.00    -0.328 C  
BRANCH   3   4
HETATM    4  C   UNL     1     -10.979  11.237  66.711  1.00  0.00    -0.339 A  
HETATM    5  C   UNL     1      -9.769  10.831  66.139  1.00  0.00    -0.253 A  
HETATM    6  C   UNL     1      -9.443   8.430  70.135  1.00  0.00    -0.164 A  
HETATM    7  C   UNL     1     -11.338  10.728  67.951  1.00  0.00    -0.372 A  
HETATM    8  C   UNL     1     -10.463   9.856  68.586  1.00  0.00    -0.231 A  
HETATM    9  C   UNL     1      -8.867   9.963  66.803  1.00  0.00    -0.147 A  
HETATM   10  C   UNL     1      -9.223   9.440  68.050  1.00  0.00    -0.130 A  
HETATM   11  C   UNL     1     -10.720   9.235  69.919  1.00  0.00    -0.253 A  
HETATM   12  N   UNL     1      -8.614   8.562  68.930  1.00  0.00    -0.127 NA 
BRANCH  12  13
HETATM   13  C   UNL     1      -7.308   7.933  68.901  1.00  0.00    -0.085 C  
BRANCH  13  14
HETATM   14  C   UNL     1      -6.215   8.876  69.409  1.00  0.00    -0.041 C  
BRANCH  14  15
HETATM   15  C   UNL     1      -6.085   8.894  70.925  1.00  0.00    -0.044 C  
HETATM   16  O   UNL     1      -6.009  10.248  71.373  1.00  0.00    -0.298 OA 
HETATM   17  H   UNL     1      -5.928  10.259  72.320  1.00  0.00     0.000 HD 
ENDBRANCH  14  15
ENDBRANCH  13  14
ENDBRANCH  12  13
BRANCH   9  18
HETATM   18  C   UNL     1      -7.628   9.687  66.030  1.00  0.00    -0.102 C  
HETATM   19  N   UNL     1      -7.673   8.606  65.178  1.00  0.00    -0.096 N  
HETATM   20  O   UNL     1      -6.585  10.319  66.152  1.00  0.00    -0.090 OA 
HETATM   21  H2  UNL     1      -8.508   8.029  65.083  1.00  0.00     0.000 HD 
HETATM   22  H1  UNL     1      -6.822   8.415  64.647  1.00  0.00     0.000 HD 
ENDBRANCH   9  18
ENDBRANCH   3   4
ENDBRANCH   2   3
BRANCH   2  23
HETATM   23  N   UNL     1     -12.410  14.316  67.185  1.00  0.00    -0.586 NA 
HETATM   24  H   UNL     1     -13.323  13.862  67.169  1.00  0.00     0.000 HD 
BRANCH  23  25
HETATM   25  C   UNL     1     -11.882  14.368  68.558  1.00  0.00    -0.334 C  
BRANCH  25  26
HETATM   26  C   UNL     1     -11.541  15.790  69.054  1.00  0.00    -0.400 C  
BRANCH  26  27
HETATM   27  O   UNL     1     -10.888  16.580  68.052  1.00  0.00    -0.334 OA 
BRANCH  27  28
HETATM   28  C   UNL     1      -9.517  16.624  68.089  1.00  0.00    -0.228 A  
HETATM   29  C   UNL     1      -7.445  17.021  66.898  1.00  0.00    -0.248 A  
HETATM   30  C   UNL     1      -8.756  16.205  69.194  1.00  0.00    -0.235 A  
HETATM   31  C   UNL     1      -8.839  17.039  66.931  1.00  0.00    -0.230 A  
HETATM   32  C   UNL     1      -6.703  16.591  68.001  1.00  0.00    -0.147 A  
HETATM   33  C   UNL     1      -7.366  16.180  69.151  1.00  0.00    -0.215 A  
BRANCH  31  34
HETATM   34  O   UNL     1      -9.417  17.364  65.732  1.00  0.00    -0.523 OA 
BRANCH  34  35
HETATM   35  C   UNL     1     -10.567  18.217  65.780  1.00  0.00    -0.175 C  
HETATM   36  C   UNL     1     -10.199  19.685  65.962  1.00  0.00    -0.493 C  
HETATM   37  F   UNL     1      -8.874  19.922  65.874  1.00  0.00    -0.383 F  
HETATM   38  F   UNL     1     -10.818  20.463  65.043  1.00  0.00    -0.409 F  
HETATM   39  F   UNL     1     -10.603  20.129  67.184  1.00  0.00    -0.529 F  
ENDBRANCH  34  35
ENDBRANCH  31  34
ENDBRANCH  27  28
ENDBRANCH  26  27
ENDBRANCH  25  26
ENDBRANCH  23  25
ENDBRANCH   2  23
TORSDOF 13
ENDMDL
MODEL      238
REMARK 921   NORMALIZED FREE ENERGY PREDICTED BY IDOCK:   -4.37 KCAL/MOL
REMARK 922        TOTAL FREE ENERGY PREDICTED BY IDOCK:  -10.85 KCAL/MOL
REMARK 923 INTER-LIGAND FREE ENERGY PREDICTED BY IDOCK:   -9.26 KCAL/MOL
REMARK 924 INTRA-LIGAND FREE ENERGY PREDICTED BY IDOCK:   -1.60 KCAL/MOL
REMARK 927      BINDING AFFINITY PREDICTED BY RF-SCORE:    0.00 PKD
ROOT
HETATM    1  C   UNL     1     -12.456  12.056  63.562  1.00  0.00    -0.654 C  
HETATM    2  C   UNL     1     -12.064  13.087  64.629  1.00  0.00    -0.409 C  
ENDROOT
BRANCH   2   3
HETATM    3  C   UNL     1     -10.531  13.225  64.777  1.00  0.00    -0.402 C  
BRANCH   3   4
HETATM    4  C   UNL     1     -10.100  14.560  65.314  1.00  0.00    -0.389 A  
HETATM    5  C   UNL     1      -8.990  14.645  66.161  1.00  0.00    -0.010 A  
HETATM    6  C   UNL     1     -10.039  19.196  66.001  1.00  0.00    -0.373 A  
HETATM    7  C   UNL     1     -10.788  15.723  64.994  1.00  0.00    -0.461 A  
HETATM    8  C   UNL     1     -10.326  16.927  65.508  1.00  0.00    -0.196 A  
HETATM    9  C   UNL     1      -8.506  15.879  66.660  1.00  0.00    -0.322 A  
HETATM   10  C   UNL     1      -9.197  17.055  66.348  1.00  0.00    -0.271 A  
HETATM   11  C   UNL     1     -10.967  18.250  65.246  1.00  0.00     0.630 A  
HETATM   12  N   UNL     1      -9.026  18.385  66.689  1.00  0.00    -0.283 NA 
BRANCH  12  13
HETATM   13  C   UNL     1      -7.980  19.053  67.439  1.00  0.00    -0.250 C  
BRANCH  13  14
HETATM   14  C   UNL     1      -8.299  19.100  68.935  1.00  0.00    -0.325 C  
BRANCH  14  15
HETATM   15  C   UNL     1      -9.741  18.737  69.260  1.00  0.00    -0.081 C  
HETATM   16  O   UNL     1     -10.518  19.933  69.339  1.00  0.00    -0.610 OA 
HETATM   17  H   UNL     1     -11.418  19.707  69.541  1.00  0.00     0.000 HD 
ENDBRANCH  14  15
ENDBRANCH  13  14
ENDBRANCH  12  13
BRANCH   9  18
HETATM   18  C   UNL     1      -7.298  15.744  67.516  1.00  0.00    -0.178 C  
HETATM   19  N   UNL     1      -7.525  15.568  68.862  1.00  0.00    -0.145 N  
HETATM   20  O   UNL     1      -6.148  15.834  67.102  1.00  0.00    -0.322 OA 
HETATM   21  H2  UNL     1      -8.468  15.532  69.250  1.00  0.00     0.000 HD 
HETATM   22  H1  UNL     1      -6.696  15.475  69.450  1.00  0.00     0.000 HD 
ENDBRANCH   9  18
ENDBRANCH   3   4
ENDBRANCH   2   3
BRANCH   2  23
HETATM   23  N   UNL     1     -12.699  12.702  65.901  1.00  0.00    -0.267 NA 
HETATM   24  H   UNL     1     -13.507  12.104  65.731  1.00  0.00     0.000 HD 
BRANCH  23  25
HETATM   25  C   UNL     1     -11.782  12.071  66.864  1.00  0.00    -0.266 C  
BRANCH  25  26
HETATM   26  C   UNL     1     -11.777  12.729  68.260  1.00  0.00    -0.344 C  
BRANCH  26  27
HETATM   27  O   UNL     1     -10.961  12.019  69.201  1.00  0.00    -0.226 OA 
BRANCH  27  28
HETATM   28  C   UNL     1     -11.610  11.253  70.136  1.00  0.00    -0.305 A  
HETATM   29  C   UNL     1     -12.111   9.039  70.983  1.00  0.00    -0.304 A  
HETATM   30  C   UNL     1     -12.522  11.774  71.071  1.00  0.00    -0.411 A  
HETATM   31  C   UNL     1     -11.409   9.863  70.105  1.00  0.00    -0.275 A  
HETATM   32  C   UNL     1     -13.021   9.571  71.899  1.00  0.00    -0.514 A  
HETATM   33  C   UNL     1     -13.226  10.945  71.937  1.00  0.00    -0.508 A  
BRANCH  31  34
HETATM   34  O   UNL     1     -10.653   9.179  69.189  1.00  0.00    -0.223 OA 
BRANCH  34  35
HETATM   35  C   UNL     1      -9.778   8.166  69.701  1.00  0.00    -0.170 C  
HETATM   36  C   UNL     1      -8.337   8.349  69.236  1.00  0.00    -0.121 C  
HETATM   37  F   UNL     1      -8.128   9.509  68.579  1.00  0.00    -0.096 F  
HETATM   38  F   UNL     1      -7.477   8.305  70.280  1.00  0.00    -0.060 F  
HETATM   39  F   UNL     1      -7.979   7.343  68.392  1.00  0.00    -0.114 F  
ENDBRANCH  34  35
ENDBRANCH  31  34
ENDBRANCH  27  28
ENDBRANCH  26  27
ENDBRANCH  25  26
ENDBRANCH  23  25
ENDBRANCH   2  23
TORSDOF 13
ENDMDL
MODEL      239
REMARK 921   NORMALIZED FREE ENERGY PREDICTED BY IDOCK:   -4.35 KCAL/MOL
REMARK 922        TOTAL FREE ENERGY PREDICTED BY IDOCK:  -10.82 KCAL/MOL
REMARK 923 INTER-LIGAND FREE ENERGY PREDICTED BY IDOCK:   -8.08 KCAL/MOL
REMARK 924 INTRA-LIGAND FREE ENERGY PREDICTED BY IDOCK:   -2.74 KCAL/MOL
REMARK 927      BINDING AFFINITY PREDICTED BY RF-SCORE:    0.00 PKD
ROOT
HETATM    1  C   UNL     1     -13.252  10.083  72.057  1.00  0.00    -0.545 C  
HETATM    2  C   UNL     1     -12.003  10.079  71.167  1.00  0.00    -0.392 C  
ENDROOT
BRANCH   2   3
HETATM    3  C   UNL     1     -12.305  10.557  69.728  1.00  0.00    -0.200 C  
BRANCH   3   4
HETATM    4  C   UNL     1     -11.770  11.927  69.427  1.00  0.00    -0.401 A  
HETATM    5  C   UNL     1     -10.739  12.082  68.493  1.00  0.00    -0.261 A  
HETATM    6  C   UNL     1     -11.327  16.590  69.576  1.00  0.00    -0.087 A  
HETATM    7  C   UNL     1     -12.270  13.053  70.065  1.00  0.00    -0.306 A  
HETATM    8  C   UNL     1     -11.745  14.294  69.727  1.00  0.00    -0.367 A  
HETATM    9  C   UNL     1     -10.225  13.352  68.131  1.00  0.00    -0.246 A  
HETATM   10  C   UNL     1     -10.719  14.492  68.774  1.00  0.00    -0.253 A  
HETATM   11  C   UNL     1     -12.188  15.584  70.332  1.00  0.00    -0.443 A  
HETATM   12  N   UNL     1     -10.423  15.842  68.693  1.00  0.00    -0.224 NA 
BRANCH  12  13
HETATM   13  C   UNL     1      -9.532  16.573  67.815  1.00  0.00    -0.222 C  
BRANCH  13  14
HETATM   14  C   UNL     1     -10.266  17.114  66.586  1.00  0.00    -0.319 C  
BRANCH  14  15
HETATM   15  C   UNL     1     -10.083  16.255  65.343  1.00  0.00    -0.145 C  
HETATM   16  O   UNL     1     -11.296  15.548  65.078  1.00  0.00    -0.354 OA 
HETATM   17  H   UNL     1     -11.181  15.012  64.302  1.00  0.00     0.000 HD 
ENDBRANCH  14  15
ENDBRANCH  13  14
ENDBRANCH  12  13
BRANCH   9  18
HETATM   18  C   UNL     1      -9.157  13.291  67.099  1.00  0.00    -0.231 C  
HETATM   19  N   UNL     1      -9.572  13.037  65.811  1.00  0.00    -0.461 N  
HETATM   20  O   UNL     1      -7.960  13.397  67.341  1.00  0.00    -0.167 OA 
HETATM   21  H2  UNL     1     -10.555  12.899  65.578  1.00  0.00     0.000 HD 
HETATM   22  H1  UNL     1      -8.839  12.995  65.102  1.00  0.00     0.000 HD 
ENDBRANCH   9  18
ENDBRANCH   3   4
ENDBRANCH   2   3
BRANCH   2  23
HETATM   23  N   UNL     1     -11.428   8.722  71.178  1.00  0.00    -0.273 NA 
HETATM   24  H   UNL     1     -12.157   8.027  71.340  1.00  0.00     0.000 HD 
BRANCH  23  25
HETATM   25  C   UNL     1     -10.653   8.388  69.972  1.00  0.00    -0.235 C  
BRANCH  25  26
HETATM   26  C   UNL     1      -9.146   8.707  70.079  1.00  0.00    -0.156 C  
BRANCH  26  27
HETATM   27  O   UNL     1      -8.649   9.409  68.933  1.00  0.00    -0.125 OA 
BRANCH  27  28
HETATM   28  C   UNL     1      -7.755   8.743  68.133  1.00  0.00    -0.101 A  
HETATM   29  C   UNL     1      -6.893   8.354  65.903  1.00  0.00    -0.064 A  
HETATM   30  C   UNL     1      -6.922   7.708  68.593  1.00  0.00    -0.075 A  
HETATM   31  C   UNL     1      -7.728   9.063  66.766  1.00  0.00    -0.093 A  
HETATM   32  C   UNL     1      -6.079   7.321  66.373  1.00  0.00    -0.040 A  
HETATM   33  C   UNL     1      -6.100   6.999  67.725  1.00  0.00    -0.033 A  
BRANCH  31  34
HETATM   34  O   UNL     1      -8.551   9.955  66.130  1.00  0.00    -0.126 OA 
BRANCH  34  35
HETATM   35  C   UNL     1      -9.492   9.414  65.195  1.00  0.00    -0.185 C  
HETATM   36  C   UNL     1      -9.405  10.081  63.826  1.00  0.00    -0.257 C  
HETATM   37  F   UNL     1      -8.359  10.926  63.706  1.00  0.00    -0.126 F  
HETATM   38  F   UNL     1      -9.308   9.161  62.838  1.00  0.00    -0.173 F  
HETATM   39  F   UNL     1     -10.531  10.804  63.578  1.00  0.00    -0.390 F  
ENDBRANCH  34  35
ENDBRANCH  31  34
ENDBRANCH  27  28
ENDBRANCH  26  27
ENDBRANCH  25  26
ENDBRANCH  23  25
ENDBRANCH   2  23
TORSDOF 13
ENDMDL
MODEL      240
REMARK 921   NORMALIZED FREE ENERGY PREDICTED BY IDOCK:   -4.35 KCAL/MOL
REMARK 922        TOTAL FREE ENERGY PREDICTED BY IDOCK:  -10.82 KCAL/MOL
REMARK 923 INTER-LIGAND FREE ENERGY PREDICTED BY IDOCK:   -7.77 KCAL/MOL
REMARK 924 INTRA-LIGAND FREE ENERGY PREDICTED BY IDOCK:   -3.05 KCAL/MOL
REMARK 927      BINDING AFFINITY PREDICTED BY RF-SCORE:    0.00 PKD
ROOT
HETATM    1  C   UNL     1     -12.210  12.338  70.325  1.00  0.00    -0.342 C  
HETATM    2  C   UNL     1     -11.620  12.786  68.981  1.00  0.00    -0.316 C  
ENDROOT
BRANCH   2   3
HETATM    3  C   UNL     1     -12.033  14.228  68.608  1.00  0.00    -0.348 C  
BRANCH   3   4
HETATM    4  C   UNL     1     -10.884  15.195  68.594  1.00  0.00    -0.245 A  
HETATM    5  C   UNL     1      -9.584  14.734  68.823  1.00  0.00    -0.215 A  
HETATM    6  C   UNL     1      -8.572  19.248  68.154  1.00  0.00    -0.327 A  
HETATM    7  C   UNL     1     -11.085  16.549  68.365  1.00  0.00    -0.333 A  
HETATM    8  C   UNL     1      -9.978  17.388  68.346  1.00  0.00    -0.329 A  
HETATM    9  C   UNL     1      -8.454  15.589  68.775  1.00  0.00    -0.190 A  
HETATM   10  C   UNL     1      -8.647  16.956  68.552  1.00  0.00    -0.251 A  
HETATM   11  C   UNL     1     -10.046  18.860  68.112  1.00  0.00    -0.447 A  
HETATM   12  N   UNL     1      -7.796  18.045  68.483  1.00  0.00    -0.297 NA 
BRANCH  12  13
HETATM   13  C   UNL     1      -6.350  18.131  68.529  1.00  0.00    -0.206 C  
BRANCH  13  14
HETATM   14  C   UNL     1      -5.801  19.021  67.411  1.00  0.00    -0.174 C  
BRANCH  14  15
HETATM   15  C   UNL     1      -5.462  18.256  66.139  1.00  0.00    -0.166 C  
HETATM   16  O   UNL     1      -5.962  16.922  66.247  1.00  0.00    -0.290 OA 
HETATM   17  H   UNL     1      -5.751  16.445  65.453  1.00  0.00     0.000 HD 
ENDBRANCH  14  15
ENDBRANCH  13  14
ENDBRANCH  12  13
BRANCH   9  18
HETATM   18  C   UNL     1      -7.166  14.888  69.017  1.00  0.00    -0.138 C  
HETATM   19  N   UNL     1      -6.918  14.508  70.317  1.00  0.00    -0.380 N  
HETATM   20  O   UNL     1      -6.318  14.690  68.155  1.00  0.00    -0.113 OA 
HETATM   21  H2  UNL     1      -7.579  14.695  71.070  1.00  0.00     0.000 HD 
HETATM   22  H1  UNL     1      -6.033  14.027  70.484  1.00  0.00     0.000 HD 
ENDBRANCH   9  18
ENDBRANCH   3   4
ENDBRANCH   2   3
BRANCH   2  23
HETATM   23  N   UNL     1     -12.033  11.819  67.948  1.00  0.00    -0.597 NA 
HETATM   24  H   UNL     1     -13.046  11.702  67.952  1.00  0.00     0.000 HD 
BRANCH  23  25
HETATM   25  C   UNL     1     -11.555  12.146  66.595  1.00  0.00    -0.350 C  
BRANCH  25  26
HETATM   26  C   UNL     1     -10.065  11.821  66.353  1.00  0.00    -0.210 C  
BRANCH  26  27
HETATM   27  O   UNL     1      -9.681  10.554  66.904  1.00  0.00    -0.171 OA 
BRANCH  27  28
HETATM   28  C   UNL     1      -8.477  10.498  67.558  1.00  0.00    -0.118 A  
HETATM   29  C   UNL     1      -6.203   9.665  67.601  1.00  0.00    -0.053 A  
HETATM   30  C   UNL     1      -8.269  11.020  68.847  1.00  0.00    -0.127 A  
HETATM   31  C   UNL     1      -7.419   9.816  66.937  1.00  0.00    -0.091 A  
HETATM   32  C   UNL     1      -6.014  10.180  68.886  1.00  0.00    -0.037 A  
HETATM   33  C   UNL     1      -7.056  10.857  69.509  1.00  0.00    -0.123 A  
BRANCH  31  34
HETATM   34  O   UNL     1      -7.483   9.148  65.742  1.00  0.00    -0.089 OA 
BRANCH  34  35
HETATM   35  C   UNL     1      -7.035   9.857  64.580  1.00  0.00    -0.133 C  
HETATM   36  C   UNL     1      -8.118   9.974  63.514  1.00  0.00    -0.159 C  
HETATM   37  F   UNL     1      -9.329   9.544  63.928  1.00  0.00    -0.285 F  
HETATM   38  F   UNL     1      -8.257  11.254  63.096  1.00  0.00    -0.006 F  
HETATM   39  F   UNL     1      -7.788   9.239  62.417  1.00  0.00    -0.114 F  
ENDBRANCH  34  35
ENDBRANCH  31  34
ENDBRANCH  27  28
ENDBRANCH  26  27
ENDBRANCH  25  26
ENDBRANCH  23  25
ENDBRANCH   2  23
TORSDOF 13
ENDMDL
MODEL      241
REMARK 921   NORMALIZED FREE ENERGY PREDICTED BY IDOCK:   -4.34 KCAL/MOL
REMARK 922        TOTAL FREE ENERGY PREDICTED BY IDOCK:  -10.81 KCAL/MOL
REMARK 923 INTER-LIGAND FREE ENERGY PREDICTED BY IDOCK:   -8.94 KCAL/MOL
REMARK 924 INTRA-LIGAND FREE ENERGY PREDICTED BY IDOCK:   -1.88 KCAL/MOL
REMARK 927      BINDING AFFINITY PREDICTED BY RF-SCORE:    0.00 PKD
ROOT
HETATM    1  C   UNL     1     -12.860  11.895  71.270  1.00  0.00    -0.391 C  
HETATM    2  C   UNL     1     -12.100  10.959  70.322  1.00  0.00    -0.355 C  
ENDROOT
BRANCH   2   3
HETATM    3  C   UNL     1     -12.020  11.518  68.883  1.00  0.00    -0.364 C  
BRANCH   3   4
HETATM    4  C   UNL     1     -11.209  12.778  68.774  1.00  0.00    -0.327 A  
HETATM    5  C   UNL     1      -9.835  12.701  68.521  1.00  0.00    -0.152 A  
HETATM    6  C   UNL     1     -10.219  17.357  68.661  1.00  0.00    -0.361 A  
HETATM    7  C   UNL     1     -11.793  14.027  68.930  1.00  0.00    -0.390 A  
HETATM    8  C   UNL     1     -10.991  15.153  68.799  1.00  0.00    -0.257 A  
HETATM    9  C   UNL     1      -9.026  13.854  68.360  1.00  0.00    -0.178 A  
HETATM   10  C   UNL     1      -9.605  15.117  68.522  1.00  0.00    -0.214 A  
HETATM   11  C   UNL     1     -11.485  16.554  68.941  1.00  0.00    -0.131 A  
HETATM   12  N   UNL     1      -9.112  16.409  68.474  1.00  0.00    -0.214 NA 
BRANCH  12  13
HETATM   13  C   UNL     1      -7.799  16.919  68.135  1.00  0.00    -0.189 C  
BRANCH  13  14
HETATM   14  C   UNL     1      -7.548  16.876  66.625  1.00  0.00    -0.301 C  
BRANCH  14  15
HETATM   15  C   UNL     1      -7.364  18.253  66.002  1.00  0.00    -0.246 C  
HETATM   16  O   UNL     1      -7.311  19.233  67.039  1.00  0.00    -0.206 OA 
HETATM   17  H   UNL     1      -7.196  20.092  66.650  1.00  0.00     0.000 HD 
ENDBRANCH  14  15
ENDBRANCH  13  14
ENDBRANCH  12  13
BRANCH   9  18
HETATM   18  C   UNL     1      -7.602  13.546  68.066  1.00  0.00    -0.143 C  
HETATM   19  N   UNL     1      -7.363  12.810  66.926  1.00  0.00    -0.363 N  
HETATM   20  O   UNL     1      -6.666  13.856  68.794  1.00  0.00    -0.089 OA 
HETATM   21  H2  UNL     1      -8.120  12.495  66.320  1.00  0.00     0.000 HD 
HETATM   22  H1  UNL     1      -6.385  12.598  66.724  1.00  0.00     0.000 HD 
ENDBRANCH   9  18
ENDBRANCH   3   4
ENDBRANCH   2   3
BRANCH   2  23
HETATM   23  N   UNL     1     -12.751   9.637  70.354  1.00  0.00    -0.492 NA 
HETATM   24  H   UNL     1     -12.146   8.930  69.937  1.00  0.00     0.000 HD 
BRANCH  23  25
HETATM   25  C   UNL     1     -13.189   9.216  71.696  1.00  0.00    -0.377 C  
BRANCH  25  26
HETATM   26  C   UNL     1     -13.604   7.732  71.791  1.00  0.00    -0.329 C  
BRANCH  26  27
HETATM   27  O   UNL     1     -12.819   6.885  70.941  1.00  0.00    -0.294 OA 
BRANCH  27  28
HETATM   28  C   UNL     1     -11.609   6.462  71.429  1.00  0.00    -0.311 A  
HETATM   29  C   UNL     1      -9.194   6.526  71.259  1.00  0.00    -0.155 A  
HETATM   30  C   UNL     1     -11.474   5.476  72.422  1.00  0.00    -0.266 A  
HETATM   31  C   UNL     1     -10.443   6.988  70.849  1.00  0.00    -0.214 A  
HETATM   32  C   UNL     1      -9.076   5.538  72.239  1.00  0.00    -0.149 A  
HETATM   33  C   UNL     1     -10.224   5.012  72.818  1.00  0.00    -0.226 A  
BRANCH  31  34
HETATM   34  O   UNL     1     -10.392   7.863  69.795  1.00  0.00    -0.208 OA 
BRANCH  34  35
HETATM   35  C   UNL     1      -9.563   7.490  68.687  1.00  0.00    -0.151 C  
HETATM   36  C   UNL     1     -10.251   6.503  67.750  1.00  0.00    -0.167 C  
HETATM   37  F   UNL     1     -11.552   6.300  68.044  1.00  0.00    -0.344 F  
HETATM   38  F   UNL     1     -10.179   6.917  66.464  1.00  0.00    -0.264 F  
HETATM   39  F   UNL     1      -9.637   5.289  67.804  1.00  0.00    -0.120 F  
ENDBRANCH  34  35
ENDBRANCH  31  34
ENDBRANCH  27  28
ENDBRANCH  26  27
ENDBRANCH  25  26
ENDBRANCH  23  25
ENDBRANCH   2  23
TORSDOF 13
ENDMDL
MODEL      242
REMARK 921   NORMALIZED FREE ENERGY PREDICTED BY IDOCK:   -4.34 KCAL/MOL
REMARK 922        TOTAL FREE ENERGY PREDICTED BY IDOCK:  -10.80 KCAL/MOL
REMARK 923 INTER-LIGAND FREE ENERGY PREDICTED BY IDOCK:   -9.16 KCAL/MOL
REMARK 924 INTRA-LIGAND FREE ENERGY PREDICTED BY IDOCK:   -1.63 KCAL/MOL
REMARK 927      BINDING AFFINITY PREDICTED BY RF-SCORE:    0.00 PKD
ROOT
HETATM    1  C   UNL     1     -13.018  14.493  65.408  1.00  0.00    -0.030 C  
HETATM    2  C   UNL     1     -12.130  13.612  66.296  1.00  0.00    -0.434 C  
ENDROOT
BRANCH   2   3
HETATM    3  C   UNL     1     -12.033  14.145  67.743  1.00  0.00    -0.389 C  
BRANCH   3   4
HETATM    4  C   UNL     1     -10.920  15.134  67.944  1.00  0.00    -0.302 A  
HETATM    5  C   UNL     1     -11.095  16.466  67.554  1.00  0.00    -0.109 A  
HETATM    6  C   UNL     1      -6.759  16.843  69.258  1.00  0.00    -0.238 A  
HETATM    7  C   UNL     1      -9.709  14.753  68.504  1.00  0.00    -0.218 A  
HETATM    8  C   UNL     1      -8.728  15.720  68.679  1.00  0.00    -0.195 A  
HETATM    9  C   UNL     1     -10.102  17.455  67.761  1.00  0.00    -0.323 A  
HETATM   10  C   UNL     1      -8.875  17.079  68.318  1.00  0.00    -0.242 A  
HETATM   11  C   UNL     1      -7.383  15.452  69.268  1.00  0.00    -0.197 A  
HETATM   12  N   UNL     1      -7.707  17.761  68.614  1.00  0.00    -0.284 NA 
BRANCH  12  13
HETATM   13  C   UNL     1      -7.377  19.170  68.529  1.00  0.00    -0.313 C  
BRANCH  13  14
HETATM   14  C   UNL     1      -6.112  19.405  67.700  1.00  0.00    -0.216 C  
BRANCH  14  15
HETATM   15  C   UNL     1      -6.333  19.258  66.201  1.00  0.00    -0.184 C  
HETATM   16  O   UNL     1      -7.544  19.924  65.839  1.00  0.00    -0.320 OA 
HETATM   17  H   UNL     1      -7.682  19.832  64.904  1.00  0.00     0.000 HD 
ENDBRANCH  14  15
ENDBRANCH  13  14
ENDBRANCH  12  13
BRANCH   9  18
HETATM   18  C   UNL     1     -10.505  18.810  67.301  1.00  0.00    -0.431 C  
HETATM   19  N   UNL     1     -10.568  18.994  65.938  1.00  0.00    -0.464 N  
HETATM   20  O   UNL     1     -10.723  19.755  68.051  1.00  0.00    -0.368 OA 
HETATM   21  H2  UNL     1     -10.350  18.244  65.282  1.00  0.00     0.000 HD 
HETATM   22  H1  UNL     1     -10.844  19.924  65.622  1.00  0.00     0.000 HD 
ENDBRANCH   9  18
ENDBRANCH   3   4
ENDBRANCH   2   3
BRANCH   2  23
HETATM   23  N   UNL     1     -10.802  13.507  65.666  1.00  0.00    -0.284 NA 
HETATM   24  H   UNL     1     -10.117  14.059  66.182  1.00  0.00     0.000 HD 
BRANCH  23  25
HETATM   25  C   UNL     1     -10.327  12.124  65.493  1.00  0.00    -0.263 C  
BRANCH  25  26
HETATM   26  C   UNL     1      -9.907  11.430  66.806  1.00  0.00    -0.206 C  
BRANCH  26  27
HETATM   27  O   UNL     1     -10.229  10.032  66.818  1.00  0.00    -0.217 OA 
BRANCH  27  28
HETATM   28  C   UNL     1     -10.272   9.413  68.041  1.00  0.00    -0.204 A  
HETATM   29  C   UNL     1     -10.348   7.336  69.286  1.00  0.00    -0.208 A  
HETATM   30  C   UNL     1     -10.435  10.102  69.255  1.00  0.00    -0.246 A  
HETATM   31  C   UNL     1     -10.226   8.010  68.072  1.00  0.00    -0.210 A  
HETATM   32  C   UNL     1     -10.521   8.035  70.484  1.00  0.00    -0.217 A  
HETATM   33  C   UNL     1     -10.567   9.424  70.462  1.00  0.00    -0.331 A  
BRANCH  31  34
HETATM   34  O   UNL     1     -10.190   7.180  66.981  1.00  0.00    -0.217 OA 
BRANCH  34  35
HETATM   35  C   UNL     1     -10.864   5.922  67.103  1.00  0.00    -0.285 C  
HETATM   36  C   UNL     1     -10.346   4.883  66.115  1.00  0.00    -0.292 C  
HETATM   37  F   UNL     1      -9.250   5.286  65.437  1.00  0.00    -0.158 F  
HETATM   38  F   UNL     1     -10.040   3.722  66.740  1.00  0.00    -0.207 F  
HETATM   39  F   UNL     1     -11.299   4.589  65.190  1.00  0.00    -0.362 F  
ENDBRANCH  34  35
ENDBRANCH  31  34
ENDBRANCH  27  28
ENDBRANCH  26  27
ENDBRANCH  25  26
ENDBRANCH  23  25
ENDBRANCH   2  23
TORSDOF 13
ENDMDL
MODEL      243
REMARK 921   NORMALIZED FREE ENERGY PREDICTED BY IDOCK:   -4.33 KCAL/MOL
REMARK 922        TOTAL FREE ENERGY PREDICTED BY IDOCK:  -10.78 KCAL/MOL
REMARK 923 INTER-LIGAND FREE ENERGY PREDICTED BY IDOCK:   -8.83 KCAL/MOL
REMARK 924 INTRA-LIGAND FREE ENERGY PREDICTED BY IDOCK:   -1.95 KCAL/MOL
REMARK 927      BINDING AFFINITY PREDICTED BY RF-SCORE:    0.00 PKD
ROOT
HETATM    1  C   UNL     1     -11.624   7.958  72.580  1.00  0.00    -0.443 C  
HETATM    2  C   UNL     1     -11.311   8.935  71.439  1.00  0.00    -0.309 C  
ENDROOT
BRANCH   2   3
HETATM    3  C   UNL     1     -12.584   9.598  70.867  1.00  0.00    -0.299 C  
BRANCH   3   4
HETATM    4  C   UNL     1     -12.322  10.914  70.190  1.00  0.00    -0.399 A  
HETATM    5  C   UNL     1     -12.395  12.102  70.926  1.00  0.00    -0.370 A  
HETATM    6  C   UNL     1     -11.218  13.955  66.800  1.00  0.00    -0.318 A  
HETATM    7  C   UNL     1     -12.015  10.980  68.838  1.00  0.00    -0.332 A  
HETATM    8  C   UNL     1     -11.765  12.226  68.277  1.00  0.00    -0.392 A  
HETATM    9  C   UNL     1     -12.111  13.368  70.356  1.00  0.00    -0.405 A  
HETATM   10  C   UNL     1     -11.808  13.445  68.992  1.00  0.00    -0.335 A  
HETATM   11  C   UNL     1     -11.425  12.445  66.841  1.00  0.00    -0.423 A  
HETATM   12  N   UNL     1     -11.526  14.492  68.131  1.00  0.00    -0.297 NA 
BRANCH  12  13
HETATM   13  C   UNL     1     -11.351  15.910  68.377  1.00  0.00    -0.361 C  
BRANCH  13  14
HETATM   14  C   UNL     1     -10.003  16.412  67.854  1.00  0.00    -0.243 C  
BRANCH  14  15
HETATM   15  C   UNL     1      -8.941  16.538  68.937  1.00  0.00    -0.245 C  
HETATM   16  O   UNL     1      -8.684  15.247  69.493  1.00  0.00    -0.312 OA 
HETATM   17  H   UNL     1      -8.021  15.326  70.169  1.00  0.00     0.000 HD 
ENDBRANCH  14  15
ENDBRANCH  13  14
ENDBRANCH  12  13
BRANCH   9  18
HETATM   18  C   UNL     1     -12.217  14.493  71.321  1.00  0.00    -0.355 C  
HETATM   19  N   UNL     1     -11.099  15.285  71.455  1.00  0.00    -0.519 N  
HETATM   20  O   UNL     1     -13.200  14.709  72.020  1.00  0.00    -0.312 OA 
HETATM   21  H2  UNL     1     -10.247  15.109  70.923  1.00  0.00     0.000 HD 
HETATM   22  H1  UNL     1     -11.172  16.057  72.118  1.00  0.00     0.000 HD 
ENDBRANCH   9  18
ENDBRANCH   3   4
ENDBRANCH   2   3
BRANCH   2  23
HETATM   23  N   UNL     1     -10.564   8.208  70.397  1.00  0.00    -0.220 NA 
HETATM   24  H   UNL     1     -11.128   8.113  69.553  1.00  0.00     0.000 HD 
BRANCH  23  25
HETATM   25  C   UNL     1      -9.252   8.796  70.080  1.00  0.00    -0.168 C  
BRANCH  25  26
HETATM   26  C   UNL     1      -8.069   8.153  70.837  1.00  0.00    -0.098 C  
BRANCH  26  27
HETATM   27  O   UNL     1      -7.612   6.943  70.219  1.00  0.00    -0.087 OA 
BRANCH  27  28
HETATM   28  C   UNL     1      -8.212   5.775  70.617  1.00  0.00    -0.119 A  
HETATM   29  C   UNL     1      -9.013   3.571  70.008  1.00  0.00    -0.171 A  
HETATM   30  C   UNL     1      -8.774   5.585  71.891  1.00  0.00    -0.135 A  
HETATM   31  C   UNL     1      -8.338   4.744  69.672  1.00  0.00    -0.078 A  
HETATM   32  C   UNL     1      -9.575   3.401  71.276  1.00  0.00    -0.232 A  
HETATM   33  C   UNL     1      -9.455   4.417  72.217  1.00  0.00    -0.183 A  
BRANCH  31  34
HETATM   34  O   UNL     1      -7.957   4.805  68.357  1.00  0.00    -0.084 OA 
BRANCH  34  35
HETATM   35  C   UNL     1      -8.912   5.340  67.432  1.00  0.00    -0.108 C  
HETATM   36  C   UNL     1      -9.512   4.270  66.527  1.00  0.00    -0.185 C  
HETATM   37  F   UNL     1      -9.164   3.014  66.876  1.00  0.00    -0.156 F  
HETATM   38  F   UNL     1     -10.864   4.336  66.521  1.00  0.00    -0.013 F  
HETATM   39  F   UNL     1      -9.107   4.453  65.241  1.00  0.00    -0.124 F  
ENDBRANCH  34  35
ENDBRANCH  31  34
ENDBRANCH  27  28
ENDBRANCH  26  27
ENDBRANCH  25  26
ENDBRANCH  23  25
ENDBRANCH   2  23
TORSDOF 13
ENDMDL
MODEL      244
REMARK 921   NORMALIZED FREE ENERGY PREDICTED BY IDOCK:   -4.32 KCAL/MOL
REMARK 922        TOTAL FREE ENERGY PREDICTED BY IDOCK:  -10.78 KCAL/MOL
REMARK 923 INTER-LIGAND FREE ENERGY PREDICTED BY IDOCK:   -9.23 KCAL/MOL
REMARK 924 INTRA-LIGAND FREE ENERGY PREDICTED BY IDOCK:   -1.55 KCAL/MOL
REMARK 927      BINDING AFFINITY PREDICTED BY RF-SCORE:    0.00 PKD
ROOT
HETATM    1  C   UNL     1     -12.658  14.586  70.670  1.00  0.00    -0.416 C  
HETATM    2  C   UNL     1     -12.112  13.893  69.415  1.00  0.00    -0.337 C  
ENDROOT
BRANCH   2   3
HETATM    3  C   UNL     1     -11.854  12.386  69.640  1.00  0.00    -0.380 C  
BRANCH   3   4
HETATM    4  C   UNL     1     -11.220  11.704  68.461  1.00  0.00    -0.312 A  
HETATM    5  C   UNL     1     -10.385  10.600  68.662  1.00  0.00    -0.202 A  
HETATM    6  C   UNL     1     -10.169  10.746  63.996  1.00  0.00    -0.322 A  
HETATM    7  C   UNL     1     -11.437  12.153  67.166  1.00  0.00    -0.413 A  
HETATM    8  C   UNL     1     -10.836  11.467  66.119  1.00  0.00    -0.330 A  
HETATM    9  C   UNL     1      -9.797   9.886  67.589  1.00  0.00    -0.198 A  
HETATM   10  C   UNL     1     -10.004  10.335  66.281  1.00  0.00    -0.235 A  
HETATM   11  C   UNL     1     -10.983  11.838  64.681  1.00  0.00    -0.368 A  
HETATM   12  N   UNL     1      -9.561   9.910  65.040  1.00  0.00    -0.290 NA 
BRANCH  12  13
HETATM   13  C   UNL     1      -8.777   8.756  64.650  1.00  0.00    -0.068 C  
BRANCH  13  14
HETATM   14  C   UNL     1      -8.267   8.878  63.212  1.00  0.00    -0.182 C  
BRANCH  14  15
HETATM   15  C   UNL     1      -6.808   9.301  63.120  1.00  0.00    -0.090 C  
HETATM   16  O   UNL     1      -6.679  10.644  63.592  1.00  0.00    -0.351 OA 
HETATM   17  H   UNL     1      -5.768  10.908  63.535  1.00  0.00     0.000 HD 
ENDBRANCH  14  15
ENDBRANCH  13  14
ENDBRANCH  12  13
BRANCH   9  18
HETATM   18  C   UNL     1      -8.972   8.729  68.024  1.00  0.00    -0.140 C  
HETATM   19  N   UNL     1      -9.662   7.637  68.501  1.00  0.00    -0.155 N  
HETATM   20  O   UNL     1      -7.746   8.722  68.032  1.00  0.00    -0.099 OA 
HETATM   21  H2  UNL     1     -10.680   7.623  68.551  1.00  0.00     0.000 HD 
HETATM   22  H1  UNL     1      -9.095   6.842  68.800  1.00  0.00     0.000 HD 
ENDBRANCH   9  18
ENDBRANCH   3   4
ENDBRANCH   2   3
BRANCH   2  23
HETATM   23  N   UNL     1     -10.887  14.596  68.993  1.00  0.00    -0.238 NA 
HETATM   24  H   UNL     1     -10.263  13.960  68.497  1.00  0.00     0.000 HD 
BRANCH  23  25
HETATM   25  C   UNL     1     -11.135  15.807  68.193  1.00  0.00    -0.341 C  
BRANCH  25  26
HETATM   26  C   UNL     1     -10.719  15.684  66.712  1.00  0.00    -0.300 C  
BRANCH  26  27
HETATM   27  O   UNL     1     -10.790  16.934  66.014  1.00  0.00    -0.169 OA 
BRANCH  27  28
HETATM   28  C   UNL     1     -10.170  18.010  66.597  1.00  0.00    -0.373 A  
HETATM   29  C   UNL     1      -8.110  19.005  67.393  1.00  0.00    -0.287 A  
HETATM   30  C   UNL     1     -10.862  19.110  67.132  1.00  0.00    -0.507 A  
HETATM   31  C   UNL     1      -8.773  17.971  66.734  1.00  0.00    -0.255 A  
HETATM   32  C   UNL     1      -8.813  20.087  67.928  1.00  0.00    -0.337 A  
HETATM   33  C   UNL     1     -10.196  20.133  67.797  1.00  0.00    -0.514 A  
BRANCH  31  34
HETATM   34  O   UNL     1      -7.957  16.928  66.380  1.00  0.00    -0.263 OA 
BRANCH  34  35
HETATM   35  C   UNL     1      -7.123  16.382  67.409  1.00  0.00    -0.159 C  
HETATM   36  C   UNL     1      -7.288  14.874  67.557  1.00  0.00    -0.204 C  
HETATM   37  F   UNL     1      -8.050  14.320  66.591  1.00  0.00    -0.117 F  
HETATM   38  F   UNL     1      -6.089  14.246  67.545  1.00  0.00    -0.157 F  
HETATM   39  F   UNL     1      -7.874  14.574  68.748  1.00  0.00    -0.123 F  
ENDBRANCH  34  35
ENDBRANCH  31  34
ENDBRANCH  27  28
ENDBRANCH  26  27
ENDBRANCH  25  26
ENDBRANCH  23  25
ENDBRANCH   2  23
TORSDOF 13
ENDMDL
MODEL      245
REMARK 921   NORMALIZED FREE ENERGY PREDICTED BY IDOCK:   -4.30 KCAL/MOL
REMARK 922        TOTAL FREE ENERGY PREDICTED BY IDOCK:  -10.73 KCAL/MOL
REMARK 923 INTER-LIGAND FREE ENERGY PREDICTED BY IDOCK:  -10.29 KCAL/MOL
REMARK 924 INTRA-LIGAND FREE ENERGY PREDICTED BY IDOCK:   -0.43 KCAL/MOL
REMARK 927      BINDING AFFINITY PREDICTED BY RF-SCORE:    0.00 PKD
ROOT
HETATM    1  C   UNL     1     -10.899  15.795  65.202  1.00  0.00    -0.444 C  
HETATM    2  C   UNL     1     -11.057  14.284  65.412  1.00  0.00    -0.327 C  
ENDROOT
BRANCH   2   3
HETATM    3  C   UNL     1     -10.900  13.487  64.097  1.00  0.00    -0.250 C  
BRANCH   3   4
HETATM    4  C   UNL     1     -10.189  12.176  64.272  1.00  0.00    -0.351 A  
HETATM    5  C   UNL     1      -9.883  11.717  65.558  1.00  0.00    -0.264 A  
HETATM    6  C   UNL     1      -8.149   8.111  63.143  1.00  0.00    -0.127 A  
HETATM    7  C   UNL     1      -9.816  11.406  63.180  1.00  0.00    -0.413 A  
HETATM    8  C   UNL     1      -9.178  10.194  63.411  1.00  0.00    -0.324 A  
HETATM    9  C   UNL     1      -9.257  10.467  65.790  1.00  0.00    -0.210 A  
HETATM   10  C   UNL     1      -8.872   9.687  64.695  1.00  0.00    -0.219 A  
HETATM   11  C   UNL     1      -8.724   9.268  62.333  1.00  0.00    -0.241 A  
HETATM   12  N   UNL     1      -8.224   8.470  64.565  1.00  0.00    -0.162 NA 
BRANCH  12  13
HETATM   13  C   UNL     1      -7.791   7.508  65.559  1.00  0.00    -0.114 C  
BRANCH  13  14
HETATM   14  C   UNL     1      -8.848   6.428  65.799  1.00  0.00    -0.111 C  
BRANCH  14  15
HETATM   15  C   UNL     1      -8.576   5.135  65.044  1.00  0.00    -0.151 C  
HETATM   16  O   UNL     1      -9.704   4.825  64.223  1.00  0.00    -0.358 OA 
HETATM   17  H   UNL     1      -9.534   4.018  63.752  1.00  0.00     0.000 HD 
ENDBRANCH  14  15
ENDBRANCH  13  14
ENDBRANCH  12  13
BRANCH   9  18
HETATM   18  C   UNL     1      -9.053  10.161  67.231  1.00  0.00    -0.138 C  
HETATM   19  N   UNL     1     -10.193  10.047  67.994  1.00  0.00    -0.171 N  
HETATM   20  O   UNL     1      -7.954  10.064  67.764  1.00  0.00    -0.104 OA 
HETATM   21  H2  UNL     1     -11.124  10.166  67.594  1.00  0.00     0.000 HD 
HETATM   22  H1  UNL     1     -10.053   9.837  68.983  1.00  0.00     0.000 HD 
ENDBRANCH   9  18
ENDBRANCH   3   4
ENDBRANCH   2   3
BRANCH   2  23
HETATM   23  N   UNL     1     -12.367  14.038  66.042  1.00  0.00    -0.469 NA 
HETATM   24  H   UNL     1     -13.045  13.728  65.347  1.00  0.00     0.000 HD 
BRANCH  23  25
HETATM   25  C   UNL     1     -12.321  13.099  67.174  1.00  0.00    -0.031 C  
BRANCH  25  26
HETATM   26  C   UNL     1     -11.214  13.404  68.207  1.00  0.00    -0.279 C  
BRANCH  26  27
HETATM   27  O   UNL     1     -11.465  12.796  69.481  1.00  0.00    -0.267 OA 
BRANCH  27  28
HETATM   28  C   UNL     1     -12.245  13.499  70.364  1.00  0.00    -0.356 A  
HETATM   29  C   UNL     1     -13.689  13.457  72.308  1.00  0.00    -0.705 A  
HETATM   30  C   UNL     1     -12.554  14.862  70.212  1.00  0.00    -0.361 A  
HETATM   31  C   UNL     1     -12.825  12.799  71.434  1.00  0.00    -0.275 A  
HETATM   32  C   UNL     1     -13.995  14.810  72.138  1.00  0.00    -0.590 A  
HETATM   33  C   UNL     1     -13.425  15.510  71.082  1.00  0.00    -0.513 A  
BRANCH  31  34
HETATM   34  O   UNL     1     -12.728  11.452  71.663  1.00  0.00    -0.375 OA 
BRANCH  34  35
HETATM   35  C   UNL     1     -12.075  10.671  70.654  1.00  0.00    -0.365 C  
HETATM   36  C   UNL     1     -11.566   9.336  71.187  1.00  0.00    -0.327 C  
HETATM   37  F   UNL     1     -11.971   9.071  72.447  1.00  0.00    -0.421 F  
HETATM   38  F   UNL     1     -11.968   8.310  70.402  1.00  0.00    -0.179 F  
HETATM   39  F   UNL     1     -10.206   9.313  71.194  1.00  0.00    -0.299 F  
ENDBRANCH  34  35
ENDBRANCH  31  34
ENDBRANCH  27  28
ENDBRANCH  26  27
ENDBRANCH  25  26
ENDBRANCH  23  25
ENDBRANCH   2  23
TORSDOF 13
ENDMDL
MODEL      246
REMARK 921   NORMALIZED FREE ENERGY PREDICTED BY IDOCK:   -4.28 KCAL/MOL
REMARK 922        TOTAL FREE ENERGY PREDICTED BY IDOCK:  -10.69 KCAL/MOL
REMARK 923 INTER-LIGAND FREE ENERGY PREDICTED BY IDOCK:   -9.05 KCAL/MOL
REMARK 924 INTRA-LIGAND FREE ENERGY PREDICTED BY IDOCK:   -1.64 KCAL/MOL
REMARK 927      BINDING AFFINITY PREDICTED BY RF-SCORE:    0.00 PKD
ROOT
HETATM    1  C   UNL     1      -6.386  14.577  69.289  1.00  0.00    -0.117 C  
HETATM    2  C   UNL     1      -7.063  14.011  68.034  1.00  0.00    -0.145 C  
ENDROOT
BRANCH   2   3
HETATM    3  C   UNL     1      -6.519  12.616  67.650  1.00  0.00    -0.146 C  
BRANCH   3   4
HETATM    4  C   UNL     1      -7.236  11.485  68.332  1.00  0.00    -0.089 A  
HETATM    5  C   UNL     1      -8.499  11.089  67.880  1.00  0.00    -0.128 A  
HETATM    6  C   UNL     1      -8.024   7.962  71.319  1.00  0.00    -0.092 A  
HETATM    7  C   UNL     1      -6.674  10.823  69.414  1.00  0.00    -0.097 A  
HETATM    8  C   UNL     1      -7.381   9.774  69.987  1.00  0.00    -0.145 A  
HETATM    9  C   UNL     1      -9.204  10.000  68.449  1.00  0.00    -0.131 A  
HETATM   10  C   UNL     1      -8.649   9.331  69.545  1.00  0.00    -0.147 A  
HETATM   11  C   UNL     1      -6.898   8.976  71.153  1.00  0.00    -0.092 A  
HETATM   12  N   UNL     1      -9.073   8.283  70.343  1.00  0.00    -0.145 NA 
BRANCH  12  13
HETATM   13  C   UNL     1     -10.239   7.426  70.254  1.00  0.00    -0.200 C  
BRANCH  13  14
HETATM   14  C   UNL     1     -11.442   8.031  70.982  1.00  0.00    -0.300 C  
BRANCH  14  15
HETATM   15  C   UNL     1     -11.437   7.770  72.482  1.00  0.00    -0.373 C  
HETATM   16  O   UNL     1     -12.637   8.294  73.052  1.00  0.00    -0.680 OA 
HETATM   17  H   UNL     1     -12.634   8.131  73.988  1.00  0.00     0.000 HD 
ENDBRANCH  14  15
ENDBRANCH  13  14
ENDBRANCH  12  13
BRANCH   9  18
HETATM   18  C   UNL     1     -10.513   9.731  67.798  1.00  0.00    -0.246 C  
HETATM   19  N   UNL     1     -10.575   8.609  67.001  1.00  0.00    -0.316 N  
HETATM   20  O   UNL     1     -11.490  10.466  67.887  1.00  0.00    -0.392 OA 
HETATM   21  H2  UNL     1      -9.770   7.999  66.867  1.00  0.00     0.000 HD 
HETATM   22  H1  UNL     1     -11.473   8.424  66.554  1.00  0.00     0.000 HD 
ENDBRANCH   9  18
ENDBRANCH   3   4
ENDBRANCH   2   3
BRANCH   2  23
HETATM   23  N   UNL     1      -6.892  14.980  66.937  1.00  0.00    -0.237 NA 
HETATM   24  H   UNL     1      -6.554  14.512  66.096  1.00  0.00     0.000 HD 
BRANCH  23  25
HETATM   25  C   UNL     1      -8.099  15.769  66.640  1.00  0.00    -0.247 C  
BRANCH  25  26
HETATM   26  C   UNL     1      -9.375  14.924  66.438  1.00  0.00    -0.297 C  
BRANCH  26  27
HETATM   27  O   UNL     1     -10.575  15.671  66.684  1.00  0.00    -0.301 OA 
BRANCH  27  28
HETATM   28  C   UNL     1     -11.087  15.625  67.955  1.00  0.00    -0.335 A  
HETATM   29  C   UNL     1     -11.138  16.580  70.181  1.00  0.00    -0.193 A  
HETATM   30  C   UNL     1     -11.911  14.587  68.424  1.00  0.00    -0.351 A  
HETATM   31  C   UNL     1     -10.705  16.632  68.857  1.00  0.00    -0.337 A  
HETATM   32  C   UNL     1     -11.947  15.535  70.635  1.00  0.00    -0.416 A  
HETATM   33  C   UNL     1     -12.330  14.535  69.749  1.00  0.00    -0.317 A  
BRANCH  31  34
HETATM   34  O   UNL     1      -9.820  17.646  68.604  1.00  0.00    -0.314 OA 
BRANCH  34  35
HETATM   35  C   UNL     1     -10.371  18.957  68.429  1.00  0.00    -0.298 C  
HETATM   36  C   UNL     1      -9.674  19.742  67.322  1.00  0.00    -0.370 C  
HETATM   37  F   UNL     1      -8.795  19.003  66.612  1.00  0.00    -0.274 F  
HETATM   38  F   UNL     1     -10.571  20.264  66.453  1.00  0.00    -0.514 F  
HETATM   39  F   UNL     1      -8.982  20.790  67.846  1.00  0.00    -0.265 F  
ENDBRANCH  34  35
ENDBRANCH  31  34
ENDBRANCH  27  28
ENDBRANCH  26  27
ENDBRANCH  25  26
ENDBRANCH  23  25
ENDBRANCH   2  23
TORSDOF 13
ENDMDL
MODEL      247
REMARK 921   NORMALIZED FREE ENERGY PREDICTED BY IDOCK:   -4.26 KCAL/MOL
REMARK 922        TOTAL FREE ENERGY PREDICTED BY IDOCK:  -10.67 KCAL/MOL
REMARK 923 INTER-LIGAND FREE ENERGY PREDICTED BY IDOCK:   -8.92 KCAL/MOL
REMARK 924 INTRA-LIGAND FREE ENERGY PREDICTED BY IDOCK:   -1.75 KCAL/MOL
REMARK 927      BINDING AFFINITY PREDICTED BY RF-SCORE:    0.00 PKD
ROOT
HETATM    1  C   UNL     1      -9.774   9.601  65.418  1.00  0.00    -0.365 C  
HETATM    2  C   UNL     1     -10.442   9.913  66.763  1.00  0.00    -0.191 C  
ENDROOT
BRANCH   2   3
HETATM    3  C   UNL     1      -9.447  10.488  67.796  1.00  0.00    -0.162 C  
BRANCH   3   4
HETATM    4  C   UNL     1      -9.723  11.919  68.161  1.00  0.00    -0.194 A  
HETATM    5  C   UNL     1      -8.807  12.916  67.810  1.00  0.00    -0.188 A  
HETATM    6  C   UNL     1     -11.991  15.646  69.872  1.00  0.00    -0.360 A  
HETATM    7  C   UNL     1     -10.871  12.277  68.853  1.00  0.00    -0.238 A  
HETATM    8  C   UNL     1     -11.076  13.620  69.144  1.00  0.00    -0.275 A  
HETATM    9  C   UNL     1      -9.033  14.288  68.084  1.00  0.00    -0.189 A  
HETATM   10  C   UNL     1     -10.185  14.658  68.787  1.00  0.00    -0.242 A  
HETATM   11  C   UNL     1     -12.264  14.146  69.879  1.00  0.00    -0.416 A  
HETATM   12  N   UNL     1     -10.683  15.867  69.242  1.00  0.00    -0.238 NA 
BRANCH  12  13
HETATM   13  C   UNL     1     -10.210  17.224  69.057  1.00  0.00    -0.318 C  
BRANCH  13  14
HETATM   14  C   UNL     1     -10.648  17.797  67.707  1.00  0.00    -0.392 C  
BRANCH  14  15
HETATM   15  C   UNL     1     -10.526  19.312  67.623  1.00  0.00    -0.453 C  
HETATM   16  O   UNL     1     -10.434  19.849  68.943  1.00  0.00    -0.582 OA 
HETATM   17  H   UNL     1     -10.357  20.795  68.890  1.00  0.00     0.000 HD 
ENDBRANCH  14  15
ENDBRANCH  13  14
ENDBRANCH  12  13
BRANCH   9  18
HETATM   18  C   UNL     1      -7.948  15.180  67.598  1.00  0.00    -0.161 C  
HETATM   19  N   UNL     1      -8.163  15.790  66.383  1.00  0.00    -0.322 N  
HETATM   20  O   UNL     1      -6.883  15.349  68.182  1.00  0.00    -0.110 OA 
HETATM   21  H2  UNL     1      -9.017  15.638  65.847  1.00  0.00     0.000 HD 
HETATM   22  H1  UNL     1      -7.418  16.402  66.049  1.00  0.00     0.000 HD 
ENDBRANCH   9  18
ENDBRANCH   3   4
ENDBRANCH   2   3
BRANCH   2  23
HETATM   23  N   UNL     1     -11.085   8.682  67.257  1.00  0.00    -0.289 NA 
HETATM   24  H   UNL     1     -11.945   8.496  66.741  1.00  0.00     0.000 HD 
BRANCH  23  25
HETATM   25  C   UNL     1     -10.208   7.500  67.244  1.00  0.00    -0.267 C  
BRANCH  25  26
HETATM   26  C   UNL     1     -10.792   6.269  67.971  1.00  0.00    -0.326 C  
BRANCH  26  27
HETATM   27  O   UNL     1     -10.219   6.073  69.271  1.00  0.00    -0.175 OA 
BRANCH  27  28
HETATM   28  C   UNL     1     -10.734   6.822  70.298  1.00  0.00    -0.244 A  
HETATM   29  C   UNL     1     -10.309   8.254  72.206  1.00  0.00    -0.386 A  
HETATM   30  C   UNL     1     -12.099   6.845  70.635  1.00  0.00    -0.363 A  
HETATM   31  C   UNL     1      -9.837   7.545  71.102  1.00  0.00    -0.173 A  
HETATM   32  C   UNL     1     -11.667   8.258  72.534  1.00  0.00    -0.451 A  
HETATM   33  C   UNL     1     -12.561   7.546  71.743  1.00  0.00    -0.363 A  
BRANCH  31  34
HETATM   34  O   UNL     1      -8.471   7.539  70.991  1.00  0.00    -0.115 OA 
BRANCH  34  35
HETATM   35  C   UNL     1      -7.763   6.573  71.776  1.00  0.00    -0.095 C  
HETATM   36  C   UNL     1      -6.764   7.216  72.732  1.00  0.00    -0.067 C  
HETATM   37  F   UNL     1      -6.855   8.561  72.780  1.00  0.00    -0.101 F  
HETATM   38  F   UNL     1      -6.921   6.747  73.992  1.00  0.00    -0.078 F  
HETATM   39  F   UNL     1      -5.489   6.916  72.360  1.00  0.00    -0.035 F  
ENDBRANCH  34  35
ENDBRANCH  31  34
ENDBRANCH  27  28
ENDBRANCH  26  27
ENDBRANCH  25  26
ENDBRANCH  23  25
ENDBRANCH   2  23
TORSDOF 13
ENDMDL
MODEL      248
REMARK 921   NORMALIZED FREE ENERGY PREDICTED BY IDOCK:   -4.25 KCAL/MOL
REMARK 922        TOTAL FREE ENERGY PREDICTED BY IDOCK:  -10.65 KCAL/MOL
REMARK 923 INTER-LIGAND FREE ENERGY PREDICTED BY IDOCK:   -9.27 KCAL/MOL
REMARK 924 INTRA-LIGAND FREE ENERGY PREDICTED BY IDOCK:   -1.38 KCAL/MOL
REMARK 927      BINDING AFFINITY PREDICTED BY RF-SCORE:    0.00 PKD
ROOT
HETATM    1  C   UNL     1     -13.736   7.287  71.606  1.00  0.00    -0.446 C  
HETATM    2  C   UNL     1     -12.769   8.385  72.066  1.00  0.00    -0.360 C  
ENDROOT
BRANCH   2   3
HETATM    3  C   UNL     1     -11.934   8.960  70.899  1.00  0.00    -0.254 C  
BRANCH   3   4
HETATM    4  C   UNL     1     -12.070  10.448  70.742  1.00  0.00    -0.463 A  
HETATM    5  C   UNL     1     -11.415  11.099  69.691  1.00  0.00    -0.383 A  
HETATM    6  C   UNL     1     -13.507  14.830  71.573  1.00  0.00    -0.394 A  
HETATM    7  C   UNL     1     -12.829  11.200  71.627  1.00  0.00    -0.524 A  
HETATM    8  C   UNL     1     -12.929  12.569  71.415  1.00  0.00    -0.347 A  
HETATM    9  C   UNL     1     -11.543  12.491  69.461  1.00  0.00    -0.348 A  
HETATM   10  C   UNL     1     -12.301  13.259  70.352  1.00  0.00    -0.295 A  
HETATM   11  C   UNL     1     -13.709  13.497  72.285  1.00  0.00    -0.700 A  
HETATM   12  N   UNL     1     -12.594  14.609  70.445  1.00  0.00    -0.349 NA 
BRANCH  12  13
HETATM   13  C   UNL     1     -12.281  15.716  69.564  1.00  0.00    -0.207 C  
BRANCH  13  14
HETATM   14  C   UNL     1     -10.869  16.253  69.810  1.00  0.00    -0.356 C  
BRANCH  14  15
HETATM   15  C   UNL     1     -10.299  17.025  68.629  1.00  0.00    -0.351 C  
HETATM   16  O   UNL     1      -9.251  17.880  69.089  1.00  0.00    -0.103 OA 
HETATM   17  H   UNL     1      -8.895  18.361  68.351  1.00  0.00     0.000 HD 
ENDBRANCH  14  15
ENDBRANCH  13  14
ENDBRANCH  12  13
BRANCH   9  18
HETATM   18  C   UNL     1     -10.790  12.971  68.273  1.00  0.00    -0.246 C  
HETATM   19  N   UNL     1      -9.423  13.057  68.416  1.00  0.00    -0.323 N  
HETATM   20  O   UNL     1     -11.315  13.336  67.227  1.00  0.00    -0.288 OA 
HETATM   21  H2  UNL     1      -8.955  12.805  69.286  1.00  0.00     0.000 HD 
HETATM   22  H1  UNL     1      -8.906  13.386  67.600  1.00  0.00     0.000 HD 
ENDBRANCH   9  18
ENDBRANCH   3   4
ENDBRANCH   2   3
BRANCH   2  23
HETATM   23  N   UNL     1     -11.909   7.831  73.127  1.00  0.00    -0.634 NA 
HETATM   24  H   UNL     1     -12.228   6.901  73.396  1.00  0.00     0.000 HD 
BRANCH  23  25
HETATM   25  C   UNL     1     -10.476   7.809  72.787  1.00  0.00    -0.328 C  
BRANCH  25  26
HETATM   26  C   UNL     1      -9.977   6.457  72.234  1.00  0.00    -0.164 C  
BRANCH  26  27
HETATM   27  O   UNL     1      -9.538   5.566  73.268  1.00  0.00    -0.145 OA 
BRANCH  27  28
HETATM   28  C   UNL     1      -9.800   4.230  73.092  1.00  0.00    -0.134 A  
HETATM   29  C   UNL     1      -9.103   2.111  72.149  1.00  0.00    -0.126 A  
HETATM   30  C   UNL     1     -11.004   3.617  73.481  1.00  0.00    -0.333 A  
HETATM   31  C   UNL     1      -8.843   3.453  72.420  1.00  0.00    -0.088 A  
HETATM   32  C   UNL     1     -10.309   1.518  72.532  1.00  0.00    -0.221 A  
HETATM   33  C   UNL     1     -11.261   2.280  73.198  1.00  0.00    -0.182 A  
BRANCH  31  34
HETATM   34  O   UNL     1      -7.674   3.912  71.870  1.00  0.00    -0.063 OA 
BRANCH  34  35
HETATM   35  C   UNL     1      -7.451   3.615  70.486  1.00  0.00    -0.041 C  
HETATM   36  C   UNL     1      -6.168   4.244  69.953  1.00  0.00    -0.027 C  
HETATM   37  F   UNL     1      -5.408   4.810  70.914  1.00  0.00    -0.003 F  
HETATM   38  F   UNL     1      -5.406   3.329  69.310  1.00  0.00    -0.010 F  
HETATM   39  F   UNL     1      -6.456   5.218  69.047  1.00  0.00    -0.035 F  
ENDBRANCH  34  35
ENDBRANCH  31  34
ENDBRANCH  27  28
ENDBRANCH  26  27
ENDBRANCH  25  26
ENDBRANCH  23  25
ENDBRANCH   2  23
TORSDOF 13
ENDMDL
MODEL      249
REMARK 921   NORMALIZED FREE ENERGY PREDICTED BY IDOCK:   -4.24 KCAL/MOL
REMARK 922        TOTAL FREE ENERGY PREDICTED BY IDOCK:  -10.63 KCAL/MOL
REMARK 923 INTER-LIGAND FREE ENERGY PREDICTED BY IDOCK:   -8.01 KCAL/MOL
REMARK 924 INTRA-LIGAND FREE ENERGY PREDICTED BY IDOCK:   -2.62 KCAL/MOL
REMARK 927      BINDING AFFINITY PREDICTED BY RF-SCORE:    0.00 PKD
ROOT
HETATM    1  C   UNL     1     -12.053   6.801  71.321  1.00  0.00    -0.421 C  
HETATM    2  C   UNL     1     -11.226   7.862  72.060  1.00  0.00    -0.287 C  
ENDROOT
BRANCH   2   3
HETATM    3  C   UNL     1      -9.907   8.195  71.327  1.00  0.00    -0.207 C  
BRANCH   3   4
HETATM    4  C   UNL     1     -10.106   8.982  70.063  1.00  0.00    -0.215 A  
HETATM    5  C   UNL     1     -10.557  10.305  70.131  1.00  0.00    -0.303 A  
HETATM    6  C   UNL     1     -10.125   9.996  65.488  1.00  0.00    -0.255 A  
HETATM    7  C   UNL     1      -9.860   8.421  68.818  1.00  0.00    -0.180 A  
HETATM    8  C   UNL     1     -10.046   9.209  67.689  1.00  0.00    -0.273 A  
HETATM    9  C   UNL     1     -10.718  11.114  68.979  1.00  0.00    -0.265 A  
HETATM   10  C   UNL     1     -10.479  10.555  67.719  1.00  0.00    -0.224 A  
HETATM   11  C   UNL     1      -9.819   8.737  66.292  1.00  0.00    -0.342 A  
HETATM   12  N   UNL     1     -10.574  11.035  66.424  1.00  0.00    -0.262 NA 
BRANCH  12  13
HETATM   13  C   UNL     1     -10.875  12.358  65.916  1.00  0.00    -0.270 C  
BRANCH  13  14
HETATM   14  C   UNL     1     -12.085  12.342  64.978  1.00  0.00    -0.468 C  
BRANCH  14  15
HETATM   15  C   UNL     1     -11.761  12.796  63.562  1.00  0.00    -0.530 C  
HETATM   16  O   UNL     1     -10.718  13.771  63.610  1.00  0.00    -0.296 OA 
HETATM   17  H   UNL     1     -10.515  14.055  62.726  1.00  0.00     0.000 HD 
ENDBRANCH  14  15
ENDBRANCH  13  14
ENDBRANCH  12  13
BRANCH   9  18
HETATM   18  C   UNL     1     -11.177  12.495  69.279  1.00  0.00    -0.194 C  
HETATM   19  N   UNL     1     -10.214  13.478  69.227  1.00  0.00    -0.410 N  
HETATM   20  O   UNL     1     -12.320  12.783  69.616  1.00  0.00    -0.154 OA 
HETATM   21  H2  UNL     1      -9.243  13.271  68.995  1.00  0.00     0.000 HD 
HETATM   22  H1  UNL     1     -10.529  14.427  69.434  1.00  0.00     0.000 HD 
ENDBRANCH   9  18
ENDBRANCH   3   4
ENDBRANCH   2   3
BRANCH   2  23
HETATM   23  N   UNL     1     -10.979   7.384  73.432  1.00  0.00    -0.548 NA 
HETATM   24  H   UNL     1     -11.770   7.606  74.036  1.00  0.00     0.000 HD 
BRANCH  23  25
HETATM   25  C   UNL     1     -10.647   5.953  73.519  1.00  0.00    -0.268 C  
BRANCH  25  26
HETATM   26  C   UNL     1      -9.213   5.663  74.011  1.00  0.00    -0.126 C  
BRANCH  26  27
HETATM   27  O   UNL     1      -8.589   4.592  73.290  1.00  0.00    -0.101 OA 
BRANCH  27  28
HETATM   28  C   UNL     1      -8.506   4.723  71.927  1.00  0.00    -0.119 A  
HETATM   29  C   UNL     1      -7.344   5.673  70.025  1.00  0.00    -0.069 A  
HETATM   30  C   UNL     1      -9.483   4.240  71.039  1.00  0.00    -0.236 A  
HETATM   31  C   UNL     1      -7.424   5.446  71.398  1.00  0.00    -0.097 A  
HETATM   32  C   UNL     1      -8.329   5.196  69.157  1.00  0.00    -0.087 A  
HETATM   33  C   UNL     1      -9.403   4.479  69.671  1.00  0.00    -0.221 A  
BRANCH  31  34
HETATM   34  O   UNL     1      -6.451   6.084  72.122  1.00  0.00    -0.054 OA 
BRANCH  34  35
HETATM   35  C   UNL     1      -6.498   7.516  72.145  1.00  0.00    -0.050 C  
HETATM   36  C   UNL     1      -6.528   8.077  73.563  1.00  0.00    -0.095 C  
HETATM   37  F   UNL     1      -6.335   7.141  74.516  1.00  0.00    -0.080 F  
HETATM   38  F   UNL     1      -5.586   9.035  73.730  1.00  0.00    -0.098 F  
HETATM   39  F   UNL     1      -7.729   8.663  73.817  1.00  0.00    -0.207 F  
ENDBRANCH  34  35
ENDBRANCH  31  34
ENDBRANCH  27  28
ENDBRANCH  26  27
ENDBRANCH  25  26
ENDBRANCH  23  25
ENDBRANCH   2  23
TORSDOF 13
ENDMDL
MODEL      250
REMARK 921   NORMALIZED FREE ENERGY PREDICTED BY IDOCK:   -4.23 KCAL/MOL
REMARK 922        TOTAL FREE ENERGY PREDICTED BY IDOCK:  -10.62 KCAL/MOL
REMARK 923 INTER-LIGAND FREE ENERGY PREDICTED BY IDOCK:   -8.89 KCAL/MOL
REMARK 924 INTRA-LIGAND FREE ENERGY PREDICTED BY IDOCK:   -1.73 KCAL/MOL
REMARK 927      BINDING AFFINITY PREDICTED BY RF-SCORE:    0.00 PKD
ROOT
HETATM    1  C   UNL     1     -12.760   7.327  71.786  1.00  0.00    -0.370 C  
HETATM    2  C   UNL     1     -11.862   8.564  71.669  1.00  0.00    -0.311 C  
ENDROOT
BRANCH   2   3
HETATM    3  C   UNL     1     -11.310   8.758  70.238  1.00  0.00    -0.162 C  
BRANCH   3   4
HETATM    4  C   UNL     1     -11.440  10.166  69.731  1.00  0.00    -0.288 A  
HETATM    5  C   UNL     1     -11.193  10.446  68.382  1.00  0.00    -0.318 A  
HETATM    6  C   UNL     1     -12.308  14.771  69.757  1.00  0.00    -0.249 A  
HETATM    7  C   UNL     1     -11.792  11.208  70.578  1.00  0.00    -0.448 A  
HETATM    8  C   UNL     1     -11.913  12.483  70.042  1.00  0.00    -0.372 A  
HETATM    9  C   UNL     1     -11.345  11.744  67.835  1.00  0.00    -0.362 A  
HETATM   10  C   UNL     1     -11.693  12.801  68.682  1.00  0.00    -0.324 A  
HETATM   11  C   UNL     1     -12.284  13.692  70.834  1.00  0.00    -0.408 A  
HETATM   12  N   UNL     1     -11.882  14.159  68.492  1.00  0.00    -0.348 NA 
BRANCH  12  13
HETATM   13  C   UNL     1     -11.874  14.965  67.287  1.00  0.00    -0.219 C  
BRANCH  13  14
HETATM   14  C   UNL     1     -10.693  15.940  67.267  1.00  0.00    -0.306 C  
BRANCH  14  15
HETATM   15  C   UNL     1      -9.345  15.256  67.089  1.00  0.00    -0.216 C  
HETATM   16  O   UNL     1      -9.224  14.803  65.739  1.00  0.00    -0.513 OA 
HETATM   17  H   UNL     1      -8.382  14.377  65.628  1.00  0.00     0.000 HD 
ENDBRANCH  14  15
ENDBRANCH  13  14
ENDBRANCH  12  13
BRANCH   9  18
HETATM   18  C   UNL     1     -11.063  11.812  66.377  1.00  0.00    -0.307 C  
HETATM   19  N   UNL     1      -9.737  11.750  66.012  1.00  0.00    -0.227 N  
HETATM   20  O   UNL     1     -11.922  11.972  65.517  1.00  0.00    -0.443 OA 
HETATM   21  H2  UNL     1      -8.992  11.662  66.702  1.00  0.00     0.000 HD 
HETATM   22  H1  UNL     1      -9.543  11.797  65.011  1.00  0.00     0.000 HD 
ENDBRANCH   9  18
ENDBRANCH   3   4
ENDBRANCH   2   3
BRANCH   2  23
HETATM   23  N   UNL     1     -10.775   8.444  72.657  1.00  0.00    -0.309 NA 
HETATM   24  H   UNL     1     -10.939   7.649  73.274  1.00  0.00     0.000 HD 
BRANCH  23  25
HETATM   25  C   UNL     1      -9.430   8.369  72.063  1.00  0.00    -0.268 C  
BRANCH  25  26
HETATM   26  C   UNL     1      -9.101   7.010  71.409  1.00  0.00    -0.147 C  
BRANCH  26  27
HETATM   27  O   UNL     1      -8.542   6.071  72.338  1.00  0.00    -0.120 OA 
BRANCH  27  28
HETATM   28  C   UNL     1      -9.329   5.007  72.698  1.00  0.00    -0.133 A  
HETATM   29  C   UNL     1     -10.190   2.813  72.139  1.00  0.00    -0.158 A  
HETATM   30  C   UNL     1     -10.175   5.010  73.820  1.00  0.00    -0.245 A  
HETATM   31  C   UNL     1      -9.344   3.884  71.855  1.00  0.00    -0.131 A  
HETATM   32  C   UNL     1     -11.034   2.835  73.252  1.00  0.00    -0.265 A  
HETATM   33  C   UNL     1     -11.024   3.943  74.092  1.00  0.00    -0.165 A  
BRANCH  31  34
HETATM   34  O   UNL     1      -8.677   3.761  70.664  1.00  0.00    -0.069 OA 
BRANCH  34  35
HETATM   35  C   UNL     1      -9.461   3.407  69.518  1.00  0.00    -0.149 C  
HETATM   36  C   UNL     1      -9.371   4.446  68.405  1.00  0.00    -0.147 C  
HETATM   37  F   UNL     1      -8.449   5.404  68.638  1.00  0.00    -0.093 F  
HETATM   38  F   UNL     1      -9.073   3.868  67.218  1.00  0.00    -0.122 F  
HETATM   39  F   UNL     1     -10.567   5.076  68.244  1.00  0.00    -0.181 F  
ENDBRANCH  34  35
ENDBRANCH  31  34
ENDBRANCH  27  28
ENDBRANCH  26  27
ENDBRANCH  25  26
ENDBRANCH  23  25
ENDBRANCH   2  23
TORSDOF 13
ENDMDL
MODEL      251
REMARK 921   NORMALIZED FREE ENERGY PREDICTED BY IDOCK:   -4.23 KCAL/MOL
REMARK 922        TOTAL FREE ENERGY PREDICTED BY IDOCK:  -10.61 KCAL/MOL
REMARK 923 INTER-LIGAND FREE ENERGY PREDICTED BY IDOCK:   -8.20 KCAL/MOL
REMARK 924 INTRA-LIGAND FREE ENERGY PREDICTED BY IDOCK:   -2.41 KCAL/MOL
REMARK 927      BINDING AFFINITY PREDICTED BY RF-SCORE:    0.00 PKD
ROOT
HETATM    1  C   UNL     1      -5.301  13.772  71.650  1.00  0.00    -0.212 C  
HETATM    2  C   UNL     1      -6.156  13.552  70.396  1.00  0.00    -0.092 C  
ENDROOT
BRANCH   2   3
HETATM    3  C   UNL     1      -5.537  12.511  69.436  1.00  0.00    -0.080 C  
BRANCH   3   4
HETATM    4  C   UNL     1      -6.553  11.620  68.781  1.00  0.00    -0.072 A  
HETATM    5  C   UNL     1      -7.448  10.888  69.569  1.00  0.00    -0.081 A  
HETATM    6  C   UNL     1      -8.991   9.516  65.376  1.00  0.00    -0.201 A  
HETATM    7  C   UNL     1      -6.622  11.498  67.400  1.00  0.00    -0.101 A  
HETATM    8  C   UNL     1      -7.597  10.672  66.857  1.00  0.00    -0.115 A  
HETATM    9  C   UNL     1      -8.460  10.069  69.009  1.00  0.00    -0.147 A  
HETATM   10  C   UNL     1      -8.532   9.934  67.619  1.00  0.00    -0.114 A  
HETATM   11  C   UNL     1      -7.785  10.448  65.393  1.00  0.00    -0.136 A  
HETATM   12  N   UNL     1      -9.346   9.207  66.768  1.00  0.00    -0.156 NA 
BRANCH  12  13
HETATM   13  C   UNL     1     -10.505   8.378  67.031  1.00  0.00    -0.305 C  
BRANCH  13  14
HETATM   14  C   UNL     1     -10.106   6.938  67.367  1.00  0.00    -0.237 C  
BRANCH  14  15
HETATM   15  C   UNL     1      -9.806   6.091  66.139  1.00  0.00     0.018 C  
HETATM   16  O   UNL     1     -10.921   5.239  65.873  1.00  0.00    -0.717 OA 
HETATM   17  H   UNL     1     -10.733   4.710  65.106  1.00  0.00     0.000 HD 
ENDBRANCH  14  15
ENDBRANCH  13  14
ENDBRANCH  12  13
BRANCH   9  18
HETATM   18  C   UNL     1      -9.319   9.406  70.025  1.00  0.00    -0.226 C  
HETATM   19  N   UNL     1      -8.824   8.244  70.574  1.00  0.00    -0.141 N  
HETATM   20  O   UNL     1     -10.435   9.800  70.345  1.00  0.00    -0.263 OA 
HETATM   21  H2  UNL     1      -7.919   7.861  70.299  1.00  0.00     0.000 HD 
HETATM   22  H1  UNL     1      -9.414   7.789  71.271  1.00  0.00     0.000 HD 
ENDBRANCH   9  18
ENDBRANCH   3   4
ENDBRANCH   2   3
BRANCH   2  23
HETATM   23  N   UNL     1      -6.350  14.854  69.732  1.00  0.00    -0.140 NA 
HETATM   24  H   UNL     1      -5.852  14.879  68.843  1.00  0.00     0.000 HD 
BRANCH  23  25
HETATM   25  C   UNL     1      -7.762  15.228  69.545  1.00  0.00    -0.212 C  
BRANCH  25  26
HETATM   26  C   UNL     1      -8.444  14.548  68.339  1.00  0.00    -0.163 C  
BRANCH  26  27
HETATM   27  O   UNL     1      -9.817  14.223  68.593  1.00  0.00    -0.232 OA 
BRANCH  27  28
HETATM   28  C   UNL     1     -10.555  13.762  67.532  1.00  0.00    -0.244 A  
HETATM   29  C   UNL     1     -12.005  14.282  65.662  1.00  0.00    -0.390 A  
HETATM   30  C   UNL     1     -10.780  12.398  67.276  1.00  0.00    -0.259 A  
HETATM   31  C   UNL     1     -11.180  14.707  66.703  1.00  0.00    -0.349 A  
HETATM   32  C   UNL     1     -12.227  12.923  65.428  1.00  0.00    -0.528 A  
HETATM   33  C   UNL     1     -11.612  11.981  66.243  1.00  0.00    -0.378 A  
BRANCH  31  34
HETATM   34  O   UNL     1     -11.166  16.067  66.877  1.00  0.00    -0.125 OA 
BRANCH  34  35
HETATM   35  C   UNL     1     -10.297  16.819  66.022  1.00  0.00    -0.335 C  
HETATM   36  C   UNL     1     -10.001  18.211  66.569  1.00  0.00    -0.374 C  
HETATM   37  F   UNL     1     -10.468  18.408  67.820  1.00  0.00    -0.358 F  
HETATM   38  F   UNL     1      -8.670  18.459  66.583  1.00  0.00    -0.252 F  
HETATM   39  F   UNL     1     -10.567  19.163  65.778  1.00  0.00    -0.484 F  
ENDBRANCH  34  35
ENDBRANCH  31  34
ENDBRANCH  27  28
ENDBRANCH  26  27
ENDBRANCH  25  26
ENDBRANCH  23  25
ENDBRANCH   2  23
TORSDOF 13
ENDMDL
MODEL      252
REMARK 921   NORMALIZED FREE ENERGY PREDICTED BY IDOCK:   -4.21 KCAL/MOL
REMARK 922        TOTAL FREE ENERGY PREDICTED BY IDOCK:  -10.58 KCAL/MOL
REMARK 923 INTER-LIGAND FREE ENERGY PREDICTED BY IDOCK:   -8.36 KCAL/MOL
REMARK 924 INTRA-LIGAND FREE ENERGY PREDICTED BY IDOCK:   -2.22 KCAL/MOL
REMARK 927      BINDING AFFINITY PREDICTED BY RF-SCORE:    0.00 PKD
ROOT
HETATM    1  C   UNL     1      -7.901  16.176  69.172  1.00  0.00    -0.232 C  
HETATM    2  C   UNL     1      -7.690  15.134  68.066  1.00  0.00    -0.124 C  
ENDROOT
BRANCH   2   3
HETATM    3  C   UNL     1      -6.895  13.904  68.559  1.00  0.00    -0.098 C  
BRANCH   3   4
HETATM    4  C   UNL     1      -7.576  12.596  68.275  1.00  0.00    -0.133 A  
HETATM    5  C   UNL     1      -7.309  11.483  69.079  1.00  0.00    -0.094 A  
HETATM    6  C   UNL     1     -10.418   9.492  66.213  1.00  0.00    -0.067 A  
HETATM    7  C   UNL     1      -8.466  12.461  67.218  1.00  0.00    -0.183 A  
HETATM    8  C   UNL     1      -9.077  11.230  67.021  1.00  0.00    -0.167 A  
HETATM    9  C   UNL     1      -7.956  10.236  68.891  1.00  0.00    -0.113 A  
HETATM   10  C   UNL     1      -8.849  10.089  67.824  1.00  0.00    -0.125 A  
HETATM   11  C   UNL     1     -10.051  10.944  65.927  1.00  0.00    -0.307 A  
HETATM   12  N   UNL     1      -9.602   9.032  67.344  1.00  0.00    -0.147 NA 
BRANCH  12  13
HETATM   13  C   UNL     1      -9.801   7.690  67.856  1.00  0.00    -0.157 C  
BRANCH  13  14
HETATM   14  C   UNL     1      -9.133   6.640  66.965  1.00  0.00    -0.135 C  
BRANCH  14  15
HETATM   15  C   UNL     1      -8.027   7.206  66.086  1.00  0.00    -0.112 C  
HETATM   16  O   UNL     1      -8.548   7.454  64.779  1.00  0.00    -0.356 OA 
HETATM   17  H   UNL     1      -7.857   7.807  64.230  1.00  0.00     0.000 HD 
ENDBRANCH  14  15
ENDBRANCH  13  14
ENDBRANCH  12  13
BRANCH   9  18
HETATM   18  C   UNL     1      -7.549   9.199  69.875  1.00  0.00    -0.080 C  
HETATM   19  N   UNL     1      -6.347   8.572  69.632  1.00  0.00    -0.039 N  
HETATM   20  O   UNL     1      -8.235   8.848  70.828  1.00  0.00    -0.135 OA 
HETATM   21  H2  UNL     1      -5.771   8.805  68.825  1.00  0.00     0.000 HD 
HETATM   22  H1  UNL     1      -6.068   7.860  70.308  1.00  0.00     0.000 HD 
ENDBRANCH   9  18
ENDBRANCH   3   4
ENDBRANCH   2   3
BRANCH   2  23
HETATM   23  N   UNL     1      -7.021  15.793  66.930  1.00  0.00    -0.238 NA 
HETATM   24  H   UNL     1      -7.682  15.953  66.170  1.00  0.00     0.000 HD 
BRANCH  23  25
HETATM   25  C   UNL     1      -6.328  17.042  67.284  1.00  0.00    -0.165 C  
BRANCH  25  26
HETATM   26  C   UNL     1      -6.068  17.984  66.089  1.00  0.00    -0.215 C  
BRANCH  26  27
HETATM   27  O   UNL     1      -7.276  18.374  65.422  1.00  0.00    -0.534 OA 
BRANCH  27  28
HETATM   28  C   UNL     1      -8.310  18.811  66.210  1.00  0.00    -0.246 A  
HETATM   29  C   UNL     1     -10.561  18.446  67.028  1.00  0.00    -0.400 A  
HETATM   30  C   UNL     1      -8.315  20.054  66.867  1.00  0.00    -0.376 A  
HETATM   31  C   UNL     1      -9.456  18.004  66.304  1.00  0.00    -0.220 A  
HETATM   32  C   UNL     1     -10.555  19.689  67.666  1.00  0.00    -0.556 A  
HETATM   33  C   UNL     1      -9.425  20.494  67.579  1.00  0.00    -0.520 A  
BRANCH  31  34
HETATM   34  O   UNL     1      -9.667  16.825  65.637  1.00  0.00    -0.539 OA 
BRANCH  34  35
HETATM   35  C   UNL     1     -10.942  16.198  65.823  1.00  0.00    -0.102 C  
HETATM   36  C   UNL     1     -10.996  14.796  65.224  1.00  0.00    -0.374 C  
HETATM   37  F   UNL     1      -9.798  14.351  64.789  1.00  0.00    -0.361 F  
HETATM   38  F   UNL     1     -11.468  13.899  66.121  1.00  0.00    -0.317 F  
HETATM   39  F   UNL     1     -11.843  14.766  64.160  1.00  0.00    -0.398 F  
ENDBRANCH  34  35
ENDBRANCH  31  34
ENDBRANCH  27  28
ENDBRANCH  26  27
ENDBRANCH  25  26
ENDBRANCH  23  25
ENDBRANCH   2  23
TORSDOF 13
ENDMDL
MODEL      253
REMARK 921   NORMALIZED FREE ENERGY PREDICTED BY IDOCK:   -4.20 KCAL/MOL
REMARK 922        TOTAL FREE ENERGY PREDICTED BY IDOCK:  -10.56 KCAL/MOL
REMARK 923 INTER-LIGAND FREE ENERGY PREDICTED BY IDOCK:   -8.86 KCAL/MOL
REMARK 924 INTRA-LIGAND FREE ENERGY PREDICTED BY IDOCK:   -1.70 KCAL/MOL
REMARK 927      BINDING AFFINITY PREDICTED BY RF-SCORE:    0.00 PKD
ROOT
HETATM    1  C   UNL     1      -8.158  12.462  66.906  1.00  0.00    -0.064 C  
HETATM    2  C   UNL     1      -8.600  12.507  68.375  1.00  0.00    -0.123 C  
ENDROOT
BRANCH   2   3
HETATM    3  C   UNL     1      -9.881  11.681  68.630  1.00  0.00    -0.173 C  
BRANCH   3   4
HETATM    4  C   UNL     1      -9.626  10.383  69.342  1.00  0.00    -0.213 A  
HETATM    5  C   UNL     1     -10.669   9.745  70.022  1.00  0.00    -0.326 A  
HETATM    6  C   UNL     1      -7.312   6.609  70.880  1.00  0.00    -0.082 A  
HETATM    7  C   UNL     1      -8.366   9.801  69.350  1.00  0.00    -0.153 A  
HETATM    8  C   UNL     1      -8.201   8.591  70.012  1.00  0.00    -0.121 A  
HETATM    9  C   UNL     1     -10.503   8.497  70.671  1.00  0.00    -0.234 A  
HETATM   10  C   UNL     1      -9.235   7.906  70.691  1.00  0.00    -0.157 A  
HETATM   11  C   UNL     1      -6.906   7.855  70.100  1.00  0.00    -0.045 A  
HETATM   12  N   UNL     1      -8.727   6.746  71.250  1.00  0.00    -0.129 NA 
BRANCH  12  13
HETATM   13  C   UNL     1      -9.379   5.660  71.954  1.00  0.00    -0.144 C  
BRANCH  13  14
HETATM   14  C   UNL     1      -9.761   4.520  71.006  1.00  0.00    -0.259 C  
BRANCH  14  15
HETATM   15  C   UNL     1      -9.170   3.176  71.405  1.00  0.00    -0.119 C  
HETATM   16  O   UNL     1      -9.646   2.822  72.705  1.00  0.00    -0.099 OA 
HETATM   17  H   UNL     1      -9.277   1.982  72.953  1.00  0.00     0.000 HD 
ENDBRANCH  14  15
ENDBRANCH  13  14
ENDBRANCH  12  13
BRANCH   9  18
HETATM   18  C   UNL     1     -11.746   7.983  71.303  1.00  0.00    -0.282 C  
HETATM   19  N   UNL     1     -12.555   7.205  70.506  1.00  0.00    -0.602 N  
HETATM   20  O   UNL     1     -12.101   8.257  72.444  1.00  0.00    -0.360 OA 
HETATM   21  H2  UNL     1     -12.315   6.993  69.538  1.00  0.00     0.000 HD 
HETATM   22  H1  UNL     1     -13.409   6.853  70.940  1.00  0.00     0.000 HD 
ENDBRANCH   9  18
ENDBRANCH   3   4
ENDBRANCH   2   3
BRANCH   2  23
HETATM   23  N   UNL     1      -8.778  13.917  68.763  1.00  0.00    -0.356 NA 
HETATM   24  H   UNL     1      -9.401  13.991  69.567  1.00  0.00     0.000 HD 
BRANCH  23  25
HETATM   25  C   UNL     1      -7.517  14.632  69.020  1.00  0.00    -0.136 C  
BRANCH  25  26
HETATM   26  C   UNL     1      -7.566  16.141  68.693  1.00  0.00    -0.183 C  
BRANCH  26  27
HETATM   27  O   UNL     1      -7.906  16.397  67.324  1.00  0.00    -0.144 OA 
BRANCH  27  28
HETATM   28  C   UNL     1      -8.691  17.494  67.072  1.00  0.00    -0.240 A  
HETATM   29  C   UNL     1     -10.618  18.417  65.930  1.00  0.00    -0.313 A  
HETATM   30  C   UNL     1      -8.370  18.794  67.500  1.00  0.00    -0.283 A  
HETATM   31  C   UNL     1      -9.836  17.317  66.279  1.00  0.00    -0.285 A  
HETATM   32  C   UNL     1     -10.280  19.705  66.354  1.00  0.00    -0.592 A  
HETATM   33  C   UNL     1      -9.149  19.889  67.140  1.00  0.00    -0.443 A  
BRANCH  31  34
HETATM   34  O   UNL     1     -10.230  16.147  65.681  1.00  0.00    -0.349 OA 
BRANCH  34  35
HETATM   35  C   UNL     1     -11.026  15.255  66.471  1.00  0.00    -0.295 C  
HETATM   36  C   UNL     1     -11.681  14.161  65.634  1.00  0.00    -0.357 C  
HETATM   37  F   UNL     1     -11.258  14.139  64.353  1.00  0.00    -0.367 F  
HETATM   38  F   UNL     1     -11.454  12.937  66.164  1.00  0.00    -0.314 F  
HETATM   39  F   UNL     1     -13.031  14.330  65.605  1.00  0.00    -0.518 F  
ENDBRANCH  34  35
ENDBRANCH  31  34
ENDBRANCH  27  28
ENDBRANCH  26  27
ENDBRANCH  25  26
ENDBRANCH  23  25
ENDBRANCH   2  23
TORSDOF 13
ENDMDL
MODEL      254
REMARK 921   NORMALIZED FREE ENERGY PREDICTED BY IDOCK:   -4.20 KCAL/MOL
REMARK 922        TOTAL FREE ENERGY PREDICTED BY IDOCK:  -10.56 KCAL/MOL
REMARK 923 INTER-LIGAND FREE ENERGY PREDICTED BY IDOCK:   -8.46 KCAL/MOL
REMARK 924 INTRA-LIGAND FREE ENERGY PREDICTED BY IDOCK:   -2.09 KCAL/MOL
REMARK 927      BINDING AFFINITY PREDICTED BY RF-SCORE:    0.00 PKD
ROOT
HETATM    1  C   UNL     1     -10.373   9.888  67.442  1.00  0.00    -0.301 C  
HETATM    2  C   UNL     1     -10.125  11.063  68.395  1.00  0.00    -0.184 C  
ENDROOT
BRANCH   2   3
HETATM    3  C   UNL     1      -8.772  11.762  68.128  1.00  0.00    -0.168 C  
BRANCH   3   4
HETATM    4  C   UNL     1      -8.875  13.259  68.058  1.00  0.00    -0.190 A  
HETATM    5  C   UNL     1      -9.995  13.906  68.593  1.00  0.00    -0.189 A  
HETATM    6  C   UNL     1      -7.677  17.697  67.146  1.00  0.00    -0.207 A  
HETATM    7  C   UNL     1      -7.882  14.023  67.462  1.00  0.00    -0.197 A  
HETATM    8  C   UNL     1      -8.029  15.404  67.447  1.00  0.00    -0.213 A  
HETATM    9  C   UNL     1     -10.127  15.316  68.601  1.00  0.00    -0.222 A  
HETATM   10  C   UNL     1      -9.134  16.094  67.996  1.00  0.00    -0.190 A  
HETATM   11  C   UNL     1      -7.041  16.345  66.842  1.00  0.00    -0.256 A  
HETATM   12  N   UNL     1      -8.971  17.454  67.796  1.00  0.00    -0.233 NA 
BRANCH  12  13
HETATM   13  C   UNL     1      -9.758  18.586  68.244  1.00  0.00    -0.356 C  
BRANCH  13  14
HETATM   14  C   UNL     1      -9.687  19.752  67.254  1.00  0.00    -0.496 C  
BRANCH  14  15
HETATM   15  C   UNL     1     -10.716  19.661  66.136  1.00  0.00    -0.416 C  
HETATM   16  O   UNL     1     -10.647  18.365  65.540  1.00  0.00    -0.627 OA 
HETATM   17  H   UNL     1     -11.290  18.309  64.842  1.00  0.00     0.000 HD 
ENDBRANCH  14  15
ENDBRANCH  13  14
ENDBRANCH  12  13
BRANCH   9  18
HETATM   18  C   UNL     1     -11.378  15.794  69.245  1.00  0.00    -0.350 C  
HETATM   19  N   UNL     1     -11.234  16.408  70.469  1.00  0.00    -0.462 N  
HETATM   20  O   UNL     1     -12.500  15.623  68.781  1.00  0.00     0.036 OA 
HETATM   21  H2  UNL     1     -10.321  16.529  70.907  1.00  0.00     0.000 HD 
HETATM   22  H1  UNL     1     -12.093  16.736  70.912  1.00  0.00     0.000 HD 
ENDBRANCH   9  18
ENDBRANCH   3   4
ENDBRANCH   2   3
BRANCH   2  23
HETATM   23  N   UNL     1     -10.213  10.565  69.780  1.00  0.00    -0.409 NA 
HETATM   24  H   UNL     1      -9.528  11.032  70.372  1.00  0.00     0.000 HD 
BRANCH  23  25
HETATM   25  C   UNL     1     -11.559  10.664  70.368  1.00  0.00    -0.351 C  
BRANCH  25  26
HETATM   26  C   UNL     1     -11.920   9.507  71.324  1.00  0.00    -0.365 C  
BRANCH  26  27
HETATM   27  O   UNL     1     -11.918   8.231  70.670  1.00  0.00    -0.182 OA 
BRANCH  27  28
HETATM   28  C   UNL     1     -11.311   7.193  71.329  1.00  0.00    -0.268 A  
HETATM   29  C   UNL     1      -9.303   5.887  71.690  1.00  0.00    -0.162 A  
HETATM   30  C   UNL     1     -12.000   6.289  72.157  1.00  0.00    -0.338 A  
HETATM   31  C   UNL     1      -9.941   6.979  71.104  1.00  0.00    -0.184 A  
HETATM   32  C   UNL     1     -10.003   4.992  72.501  1.00  0.00    -0.223 A  
HETATM   33  C   UNL     1     -11.359   5.196  72.730  1.00  0.00    -0.311 A  
BRANCH  31  34
HETATM   34  O   UNL     1      -9.147   7.686  70.239  1.00  0.00    -0.149 OA 
BRANCH  34  35
HETATM   35  C   UNL     1      -7.838   7.161  69.989  1.00  0.00    -0.113 C  
HETATM   36  C   UNL     1      -6.733   8.065  70.527  1.00  0.00    -0.037 C  
HETATM   37  F   UNL     1      -7.194   9.088  71.277  1.00  0.00    -0.086 F  
HETATM   38  F   UNL     1      -5.853   7.365  71.281  1.00  0.00    -0.034 F  
HETATM   39  F   UNL     1      -6.023   8.610  69.503  1.00  0.00    -0.032 F  
ENDBRANCH  34  35
ENDBRANCH  31  34
ENDBRANCH  27  28
ENDBRANCH  26  27
ENDBRANCH  25  26
ENDBRANCH  23  25
ENDBRANCH   2  23
TORSDOF 13
ENDMDL
MODEL      255
REMARK 921   NORMALIZED FREE ENERGY PREDICTED BY IDOCK:   -4.19 KCAL/MOL
REMARK 922        TOTAL FREE ENERGY PREDICTED BY IDOCK:  -10.55 KCAL/MOL
REMARK 923 INTER-LIGAND FREE ENERGY PREDICTED BY IDOCK:   -8.72 KCAL/MOL
REMARK 924 INTRA-LIGAND FREE ENERGY PREDICTED BY IDOCK:   -1.83 KCAL/MOL
REMARK 927      BINDING AFFINITY PREDICTED BY RF-SCORE:    0.00 PKD
ROOT
HETATM    1  C   UNL     1     -12.033   6.798  70.715  1.00  0.00    -0.433 C  
HETATM    2  C   UNL     1     -11.645   8.275  70.567  1.00  0.00    -0.131 C  
ENDROOT
BRANCH   2   3
HETATM    3  C   UNL     1     -10.466   8.478  69.588  1.00  0.00    -0.221 C  
BRANCH   3   4
HETATM    4  C   UNL     1     -10.589   9.720  68.752  1.00  0.00    -0.244 A  
HETATM    5  C   UNL     1      -9.988   9.771  67.489  1.00  0.00    -0.230 A  
HETATM    6  C   UNL     1     -11.907  14.032  67.477  1.00  0.00    -0.407 A  
HETATM    7  C   UNL     1     -11.281  10.832  69.210  1.00  0.00    -0.333 A  
HETATM    8  C   UNL     1     -11.373  11.941  68.380  1.00  0.00    -0.331 A  
HETATM    9  C   UNL     1     -10.109  10.895  66.634  1.00  0.00    -0.264 A  
HETATM   10  C   UNL     1     -10.799  12.023  67.090  1.00  0.00    -0.253 A  
HETATM   11  C   UNL     1     -12.086  13.202  68.743  1.00  0.00    -0.226 A  
HETATM   12  N   UNL     1     -11.066  13.267  66.547  1.00  0.00    -0.290 NA 
BRANCH  12  13
HETATM   13  C   UNL     1     -10.790  13.815  65.234  1.00  0.00    -0.324 C  
BRANCH  13  14
HETATM   14  C   UNL     1     -12.077  14.085  64.452  1.00  0.00    -0.486 C  
BRANCH  14  15
HETATM   15  C   UNL     1     -12.120  13.394  63.096  1.00  0.00    -0.070 C  
HETATM   16  O   UNL     1     -12.148  11.980  63.292  1.00  0.00    -0.694 OA 
HETATM   17  H   UNL     1     -12.174  11.549  62.446  1.00  0.00     0.000 HD 
ENDBRANCH  14  15
ENDBRANCH  13  14
ENDBRANCH  12  13
BRANCH   9  18
HETATM   18  C   UNL     1      -9.421  10.726  65.328  1.00  0.00    -0.218 C  
HETATM   19  N   UNL     1      -8.073  11.008  65.311  1.00  0.00    -0.361 N  
HETATM   20  O   UNL     1      -9.987  10.414  64.287  1.00  0.00    -0.335 OA 
HETATM   21  H2  UNL     1      -7.576  11.314  66.147  1.00  0.00     0.000 HD 
HETATM   22  H1  UNL     1      -7.600  10.893  64.414  1.00  0.00     0.000 HD 
ENDBRANCH   9  18
ENDBRANCH   3   4
ENDBRANCH   2   3
BRANCH   2  23
HETATM   23  N   UNL     1     -11.336   8.810  71.905  1.00  0.00    -0.339 NA 
HETATM   24  H   UNL     1     -12.030   9.504  72.181  1.00  0.00     0.000 HD 
BRANCH  23  25
HETATM   25  C   UNL     1     -11.195   7.778  72.946  1.00  0.00    -0.376 C  
BRANCH  25  26
HETATM   26  C   UNL     1      -9.765   7.640  73.512  1.00  0.00    -0.299 C  
BRANCH  26  27
HETATM   27  O   UNL     1      -9.633   6.532  74.412  1.00  0.00    -0.219 OA 
BRANCH  27  28
HETATM   28  C   UNL     1      -9.715   5.275  73.869  1.00  0.00    -0.154 A  
HETATM   29  C   UNL     1      -8.673   3.551  72.524  1.00  0.00    -0.096 A  
HETATM   30  C   UNL     1     -10.874   4.481  73.919  1.00  0.00    -0.344 A  
HETATM   31  C   UNL     1      -8.604   4.789  73.161  1.00  0.00    -0.106 A  
HETATM   32  C   UNL     1      -9.835   2.778  72.573  1.00  0.00    -0.217 A  
HETATM   33  C   UNL     1     -10.939   3.251  73.273  1.00  0.00    -0.263 A  
BRANCH  31  34
HETATM   34  O   UNL     1      -7.444   5.475  72.913  1.00  0.00    -0.093 OA 
BRANCH  34  35
HETATM   35  C   UNL     1      -6.796   5.217  71.661  1.00  0.00    -0.057 C  
HETATM   36  C   UNL     1      -7.376   6.048  70.521  1.00  0.00    -0.085 C  
HETATM   37  F   UNL     1      -8.261   6.980  70.932  1.00  0.00    -0.113 F  
HETATM   38  F   UNL     1      -6.399   6.683  69.832  1.00  0.00    -0.033 F  
HETATM   39  F   UNL     1      -8.023   5.247  69.631  1.00  0.00    -0.078 F  
ENDBRANCH  34  35
ENDBRANCH  31  34
ENDBRANCH  27  28
ENDBRANCH  26  27
ENDBRANCH  25  26
ENDBRANCH  23  25
ENDBRANCH   2  23
TORSDOF 13
ENDMDL
MODEL      256
REMARK 921   NORMALIZED FREE ENERGY PREDICTED BY IDOCK:   -4.19 KCAL/MOL
REMARK 922        TOTAL FREE ENERGY PREDICTED BY IDOCK:  -10.54 KCAL/MOL
REMARK 923 INTER-LIGAND FREE ENERGY PREDICTED BY IDOCK:   -8.64 KCAL/MOL
REMARK 924 INTRA-LIGAND FREE ENERGY PREDICTED BY IDOCK:   -1.89 KCAL/MOL
REMARK 927      BINDING AFFINITY PREDICTED BY RF-SCORE:    0.00 PKD
ROOT
HETATM    1  C   UNL     1     -11.642   9.190  71.782  1.00  0.00    -0.457 C  
HETATM    2  C   UNL     1     -11.587   9.358  70.258  1.00  0.00    -0.138 C  
ENDROOT
BRANCH   2   3
HETATM    3  C   UNL     1     -10.153   9.629  69.748  1.00  0.00    -0.258 C  
BRANCH   3   4
HETATM    4  C   UNL     1      -9.709   8.677  68.674  1.00  0.00    -0.171 A  
HETATM    5  C   UNL     1      -9.689   7.301  68.929  1.00  0.00    -0.148 A  
HETATM    6  C   UNL     1      -8.231   7.167  64.491  1.00  0.00     0.000 A  
HETATM    7  C   UNL     1      -9.306   9.133  67.427  1.00  0.00    -0.161 A  
HETATM    8  C   UNL     1      -8.924   8.199  66.473  1.00  0.00    -0.191 A  
HETATM    9  C   UNL     1      -9.326   6.350  67.944  1.00  0.00    -0.114 A  
HETATM   10  C   UNL     1      -8.912   6.801  66.686  1.00  0.00    -0.144 A  
HETATM   11  C   UNL     1      -8.470   8.547  65.095  1.00  0.00    -0.193 A  
HETATM   12  N   UNL     1      -8.466   6.166  65.540  1.00  0.00    -0.150 NA 
BRANCH  12  13
HETATM   13  C   UNL     1      -8.361   4.759  65.206  1.00  0.00    -0.127 C  
BRANCH  13  14
HETATM   14  C   UNL     1      -9.165   4.414  63.950  1.00  0.00    -0.128 C  
BRANCH  14  15
HETATM   15  C   UNL     1     -10.453   3.657  64.244  1.00  0.00    -0.218 C  
HETATM   16  O   UNL     1     -11.253   4.426  65.143  1.00  0.00    -0.909 OA 
HETATM   17  H   UNL     1     -12.057   3.953  65.326  1.00  0.00     0.000 HD 
ENDBRANCH  14  15
ENDBRANCH  13  14
ENDBRANCH  12  13
BRANCH   9  18
HETATM   18  C   UNL     1      -9.404   4.943  68.416  1.00  0.00    -0.131 C  
HETATM   19  N   UNL     1      -8.692   4.646  69.557  1.00  0.00    -0.081 N  
HETATM   20  O   UNL     1     -10.004   4.051  67.827  1.00  0.00    -0.084 OA 
HETATM   21  H2  UNL     1      -8.145   5.351  70.049  1.00  0.00     0.000 HD 
HETATM   22  H1  UNL     1      -8.745   3.680  69.882  1.00  0.00     0.000 HD 
ENDBRANCH   9  18
ENDBRANCH   3   4
ENDBRANCH   2   3
BRANCH   2  23
HETATM   23  N   UNL     1     -12.512  10.439  69.876  1.00  0.00    -0.543 NA 
HETATM   24  H   UNL     1     -12.803  10.968  70.698  1.00  0.00     0.000 HD 
BRANCH  23  25
HETATM   25  C   UNL     1     -11.985  11.343  68.840  1.00  0.00    -0.304 C  
BRANCH  25  26
HETATM   26  C   UNL     1     -11.726  12.784  69.329  1.00  0.00    -0.319 C  
BRANCH  26  27
HETATM   27  O   UNL     1     -11.440  13.687  68.252  1.00  0.00    -0.274 OA 
BRANCH  27  28
HETATM   28  C   UNL     1     -10.120  13.980  68.018  1.00  0.00    -0.239 A  
HETATM   29  C   UNL     1      -8.420  15.676  67.702  1.00  0.00    -0.169 A  
HETATM   30  C   UNL     1      -9.153  13.008  67.705  1.00  0.00    -0.200 A  
HETATM   31  C   UNL     1      -9.734  15.330  68.015  1.00  0.00    -0.211 A  
HETATM   32  C   UNL     1      -7.473  14.700  67.383  1.00  0.00    -0.212 A  
HETATM   33  C   UNL     1      -7.847  13.361  67.383  1.00  0.00    -0.154 A  
BRANCH  31  34
HETATM   34  O   UNL     1     -10.565  16.406  68.180  1.00  0.00    -0.290 OA 
BRANCH  34  35
HETATM   35  C   UNL     1     -10.521  17.418  67.166  1.00  0.00    -0.305 C  
HETATM   36  C   UNL     1     -10.299  18.812  67.742  1.00  0.00    -0.411 C  
HETATM   37  F   UNL     1     -10.019  18.810  69.063  1.00  0.00    -0.391 F  
HETATM   38  F   UNL     1      -9.286  19.448  67.108  1.00  0.00    -0.311 F  
HETATM   39  F   UNL     1     -11.409  19.580  67.572  1.00  0.00    -0.507 F  
ENDBRANCH  34  35
ENDBRANCH  31  34
ENDBRANCH  27  28
ENDBRANCH  26  27
ENDBRANCH  25  26
ENDBRANCH  23  25
ENDBRANCH   2  23
TORSDOF 13
ENDMDL
MODEL      257
REMARK 921   NORMALIZED FREE ENERGY PREDICTED BY IDOCK:   -4.15 KCAL/MOL
REMARK 922        TOTAL FREE ENERGY PREDICTED BY IDOCK:  -10.48 KCAL/MOL
REMARK 923 INTER-LIGAND FREE ENERGY PREDICTED BY IDOCK:   -8.10 KCAL/MOL
REMARK 924 INTRA-LIGAND FREE ENERGY PREDICTED BY IDOCK:   -2.37 KCAL/MOL
REMARK 927      BINDING AFFINITY PREDICTED BY RF-SCORE:    0.00 PKD
ROOT
HETATM    1  C   UNL     1     -11.520   8.728  72.040  1.00  0.00    -0.441 C  
HETATM    2  C   UNL     1     -11.468   9.342  70.635  1.00  0.00    -0.284 C  
ENDROOT
BRANCH   2   3
HETATM    3  C   UNL     1     -10.035   9.748  70.223  1.00  0.00    -0.309 C  
BRANCH   3   4
HETATM    4  C   UNL     1      -9.531   9.019  69.010  1.00  0.00    -0.155 A  
HETATM    5  C   UNL     1      -9.102   7.693  69.124  1.00  0.00    -0.141 A  
HETATM    6  C   UNL     1      -8.400   8.218  64.534  1.00  0.00    -0.087 A  
HETATM    7  C   UNL     1      -9.473   9.638  67.770  1.00  0.00    -0.146 A  
HETATM    8  C   UNL     1      -9.014   8.902  66.685  1.00  0.00    -0.165 A  
HETATM    9  C   UNL     1      -8.662   6.937  68.009  1.00  0.00    -0.125 A  
HETATM   10  C   UNL     1      -8.593   7.555  66.756  1.00  0.00    -0.127 A  
HETATM   11  C   UNL     1      -8.899   9.440  65.297  1.00  0.00    -0.227 A  
HETATM   12  N   UNL     1      -8.184   7.135  65.502  1.00  0.00    -0.135 NA 
BRANCH  12  13
HETATM   13  C   UNL     1      -7.761   5.834  65.021  1.00  0.00    -0.096 C  
BRANCH  13  14
HETATM   14  C   UNL     1      -8.911   5.077  64.352  1.00  0.00    -0.084 C  
BRANCH  14  15
HETATM   15  C   UNL     1      -8.446   4.057  63.322  1.00  0.00    -0.096 C  
HETATM   16  O   UNL     1      -8.940   2.767  63.686  1.00  0.00    -0.095 OA 
HETATM   17  H   UNL     1      -8.650   2.130  63.043  1.00  0.00     0.000 HD 
ENDBRANCH  14  15
ENDBRANCH  13  14
ENDBRANCH  12  13
BRANCH   9  18
HETATM   18  C   UNL     1      -8.281   5.541  68.348  1.00  0.00    -0.099 C  
HETATM   19  N   UNL     1      -6.978   5.348  68.748  1.00  0.00    -0.058 N  
HETATM   20  O   UNL     1      -9.031   4.577  68.238  1.00  0.00    -0.107 OA 
HETATM   21  H2  UNL     1      -6.313   6.118  68.809  1.00  0.00     0.000 HD 
HETATM   22  H1  UNL     1      -6.716   4.389  68.981  1.00  0.00     0.000 HD 
ENDBRANCH   9  18
ENDBRANCH   3   4
ENDBRANCH   2   3
BRANCH   2  23
HETATM   23  N   UNL     1     -12.390  10.492  70.598  1.00  0.00    -0.328 NA 
HETATM   24  H   UNL     1     -12.729  10.709  71.534  1.00  0.00     0.000 HD 
BRANCH  23  25
HETATM   25  C   UNL     1     -11.825  11.693  69.961  1.00  0.00    -0.355 C  
BRANCH  25  26
HETATM   26  C   UNL     1     -12.204  13.018  70.657  1.00  0.00    -0.307 C  
BRANCH  26  27
HETATM   27  O   UNL     1     -12.601  14.035  69.729  1.00  0.00    -0.276 OA 
BRANCH  27  28
HETATM   28  C   UNL     1     -11.600  14.746  69.117  1.00  0.00    -0.303 A  
HETATM   29  C   UNL     1     -10.567  15.470  67.049  1.00  0.00    -0.311 A  
HETATM   30  C   UNL     1     -10.528  15.333  69.812  1.00  0.00    -0.287 A  
HETATM   31  C   UNL     1     -11.609  14.826  67.715  1.00  0.00    -0.357 A  
HETATM   32  C   UNL     1      -9.503  16.039  67.753  1.00  0.00    -0.217 A  
HETATM   33  C   UNL     1      -9.487  15.965  69.141  1.00  0.00    -0.260 A  
BRANCH  31  34
HETATM   34  O   UNL     1     -12.506  14.214  66.879  1.00  0.00    -0.359 OA 
BRANCH  34  35
HETATM   35  C   UNL     1     -12.033  13.856  65.575  1.00  0.00    -0.383 C  
HETATM   36  C   UNL     1     -11.509  12.425  65.516  1.00  0.00    -0.361 C  
HETATM   37  F   UNL     1     -11.743  11.720  66.643  1.00  0.00    -0.391 F  
HETATM   38  F   UNL     1     -12.059  11.745  64.483  1.00  0.00    -0.358 F  
HETATM   39  F   UNL     1     -10.163  12.419  65.315  1.00  0.00    -0.273 F  
ENDBRANCH  34  35
ENDBRANCH  31  34
ENDBRANCH  27  28
ENDBRANCH  26  27
ENDBRANCH  25  26
ENDBRANCH  23  25
ENDBRANCH   2  23
TORSDOF 13
ENDMDL
MODEL      258
REMARK 921   NORMALIZED FREE ENERGY PREDICTED BY IDOCK:   -4.15 KCAL/MOL
REMARK 922        TOTAL FREE ENERGY PREDICTED BY IDOCK:  -10.47 KCAL/MOL
REMARK 923 INTER-LIGAND FREE ENERGY PREDICTED BY IDOCK:   -8.54 KCAL/MOL
REMARK 924 INTRA-LIGAND FREE ENERGY PREDICTED BY IDOCK:   -1.93 KCAL/MOL
REMARK 927      BINDING AFFINITY PREDICTED BY RF-SCORE:    0.00 PKD
ROOT
HETATM    1  C   UNL     1     -11.704  11.394  68.930  1.00  0.00    -0.409 C  
HETATM    2  C   UNL     1     -10.465  10.770  68.275  1.00  0.00    -0.181 C  
ENDROOT
BRANCH   2   3
HETATM    3  C   UNL     1     -10.649   9.264  67.981  1.00  0.00    -0.262 C  
BRANCH   3   4
HETATM    4  C   UNL     1     -10.365   8.384  69.164  1.00  0.00    -0.229 A  
HETATM    5  C   UNL     1      -9.384   7.390  69.073  1.00  0.00    -0.145 A  
HETATM    6  C   UNL     1     -10.642   6.665  73.515  1.00  0.00    -0.311 A  
HETATM    7  C   UNL     1     -11.064   8.528  70.355  1.00  0.00    -0.246 A  
HETATM    8  C   UNL     1     -10.740   7.694  71.417  1.00  0.00    -0.247 A  
HETATM    9  C   UNL     1      -9.037   6.561  70.168  1.00  0.00    -0.155 A  
HETATM   10  C   UNL     1      -9.742   6.694  71.370  1.00  0.00    -0.172 A  
HETATM   11  C   UNL     1     -11.408   7.739  72.751  1.00  0.00    -0.446 A  
HETATM   12  N   UNL     1      -9.689   6.040  72.589  1.00  0.00    -0.156 NA 
BRANCH  12  13
HETATM   13  C   UNL     1      -8.790   5.018  73.086  1.00  0.00    -0.111 C  
BRANCH  13  14
HETATM   14  C   UNL     1      -7.814   5.579  74.123  1.00  0.00    -0.099 C  
BRANCH  14  15
HETATM   15  C   UNL     1      -6.775   6.520  73.530  1.00  0.00    -0.073 C  
HETATM   16  O   UNL     1      -6.975   7.832  74.059  1.00  0.00    -0.097 OA 
HETATM   17  H   UNL     1      -6.325   8.419  73.689  1.00  0.00     0.000 HD 
ENDBRANCH  14  15
ENDBRANCH  13  14
ENDBRANCH  12  13
BRANCH   9  18
HETATM   18  C   UNL     1      -7.950   5.594  69.863  1.00  0.00    -0.095 C  
HETATM   19  N   UNL     1      -8.347   4.315  69.546  1.00  0.00    -0.062 N  
HETATM   20  O   UNL     1      -6.755   5.858  69.934  1.00  0.00    -0.048 OA 
HETATM   21  H2  UNL     1      -9.331   4.046  69.521  1.00  0.00     0.000 HD 
HETATM   22  H1  UNL     1      -7.601   3.651  69.336  1.00  0.00     0.000 HD 
ENDBRANCH   9  18
ENDBRANCH   3   4
ENDBRANCH   2   3
BRANCH   2  23
HETATM   23  N   UNL     1      -9.305  11.014  69.151  1.00  0.00    -0.394 NA 
HETATM   24  H   UNL     1      -8.900  10.132  69.461  1.00  0.00     0.000 HD 
BRANCH  23  25
HETATM   25  C   UNL     1      -8.273  11.877  68.553  1.00  0.00    -0.126 C  
BRANCH  25  26
HETATM   26  C   UNL     1      -8.376  12.020  67.019  1.00  0.00    -0.178 C  
BRANCH  26  27
HETATM   27  O   UNL     1      -8.732  13.348  66.612  1.00  0.00    -0.136 OA 
BRANCH  27  28
HETATM   28  C   UNL     1     -10.001  13.531  66.125  1.00  0.00    -0.304 A  
HETATM   29  C   UNL     1     -12.261  14.304  66.530  1.00  0.00    -0.419 A  
HETATM   30  C   UNL     1     -10.432  13.048  64.877  1.00  0.00    -0.358 A  
HETATM   31  C   UNL     1     -10.940  14.169  66.952  1.00  0.00    -0.300 A  
HETATM   32  C   UNL     1     -12.676  13.809  65.291  1.00  0.00    -0.481 A  
HETATM   33  C   UNL     1     -11.754  13.176  64.466  1.00  0.00    -0.417 A  
BRANCH  31  34
HETATM   34  O   UNL     1     -10.724  14.593  68.238  1.00  0.00    -0.232 OA 
BRANCH  34  35
HETATM   35  C   UNL     1     -11.655  15.543  68.769  1.00  0.00    -0.378 C  
HETATM   36  C   UNL     1     -12.074  15.215  70.198  1.00  0.00    -0.343 C  
HETATM   37  F   UNL     1     -11.370  14.202  70.745  1.00  0.00    -0.243 F  
HETATM   38  F   UNL     1     -11.942  16.292  71.007  1.00  0.00    -0.415 F  
HETATM   39  F   UNL     1     -13.386  14.855  70.239  1.00  0.00    -0.278 F  
ENDBRANCH  34  35
ENDBRANCH  31  34
ENDBRANCH  27  28
ENDBRANCH  26  27
ENDBRANCH  25  26
ENDBRANCH  23  25
ENDBRANCH   2  23
TORSDOF 13
ENDMDL
MODEL      259
REMARK 921   NORMALIZED FREE ENERGY PREDICTED BY IDOCK:   -4.13 KCAL/MOL
REMARK 922        TOTAL FREE ENERGY PREDICTED BY IDOCK:  -10.43 KCAL/MOL
REMARK 923 INTER-LIGAND FREE ENERGY PREDICTED BY IDOCK:   -9.29 KCAL/MOL
REMARK 924 INTRA-LIGAND FREE ENERGY PREDICTED BY IDOCK:   -1.14 KCAL/MOL
REMARK 927      BINDING AFFINITY PREDICTED BY RF-SCORE:    0.00 PKD
ROOT
HETATM    1  C   UNL     1     -11.978  12.093  65.121  1.00  0.00    -0.324 C  
HETATM    2  C   UNL     1     -10.945  11.349  65.978  1.00  0.00    -0.226 C  
ENDROOT
BRANCH   2   3
HETATM    3  C   UNL     1     -11.409  11.178  67.442  1.00  0.00    -0.329 C  
BRANCH   3   4
HETATM    4  C   UNL     1     -10.935   9.902  68.076  1.00  0.00    -0.269 A  
HETATM    5  C   UNL     1     -10.785   9.828  69.465  1.00  0.00    -0.255 A  
HETATM    6  C   UNL     1      -9.525   5.447  68.436  1.00  0.00    -0.123 A  
HETATM    7  C   UNL     1     -10.629   8.786  67.309  1.00  0.00    -0.303 A  
HETATM    8  C   UNL     1     -10.213   7.631  67.959  1.00  0.00    -0.248 A  
HETATM    9  C   UNL     1     -10.388   8.639  70.125  1.00  0.00    -0.219 A  
HETATM   10  C   UNL     1     -10.071   7.511  69.360  1.00  0.00    -0.190 A  
HETATM   11  C   UNL     1      -9.854   6.362  67.261  1.00  0.00    -0.169 A  
HETATM   12  N   UNL     1      -9.625   6.238  69.669  1.00  0.00    -0.145 NA 
BRANCH  12  13
HETATM   13  C   UNL     1      -9.415   5.583  70.945  1.00  0.00    -0.166 C  
BRANCH  13  14
HETATM   14  C   UNL     1      -7.986   5.783  71.455  1.00  0.00    -0.113 C  
BRANCH  14  15
HETATM   15  C   UNL     1      -7.435   4.578  72.203  1.00  0.00    -0.080 C  
HETATM   16  O   UNL     1      -6.010   4.573  72.098  1.00  0.00    -0.014 OA 
HETATM   17  H   UNL     1      -5.666   3.820  72.566  1.00  0.00     0.000 HD 
ENDBRANCH  14  15
ENDBRANCH  13  14
ENDBRANCH  12  13
BRANCH   9  18
HETATM   18  C   UNL     1     -10.322   8.772  71.604  1.00  0.00    -0.321 C  
HETATM   19  N   UNL     1     -11.511   8.611  72.281  1.00  0.00    -0.370 N  
HETATM   20  O   UNL     1      -9.306   9.063  72.225  1.00  0.00    -0.333 OA 
HETATM   21  H2  UNL     1     -12.385   8.412  71.795  1.00  0.00     0.000 HD 
HETATM   22  H1  UNL     1     -11.466   8.702  73.296  1.00  0.00     0.000 HD 
ENDBRANCH   9  18
ENDBRANCH   3   4
ENDBRANCH   2   3
BRANCH   2  23
HETATM   23  N   UNL     1      -9.665  12.075  65.896  1.00  0.00    -0.238 NA 
HETATM   24  H   UNL     1      -9.125  11.757  65.092  1.00  0.00     0.000 HD 
BRANCH  23  25
HETATM   25  C   UNL     1      -9.806  13.540  65.877  1.00  0.00    -0.241 C  
BRANCH  25  26
HETATM   26  C   UNL     1      -9.805  14.195  67.275  1.00  0.00    -0.238 C  
BRANCH  26  27
HETATM   27  O   UNL     1     -11.042  14.856  67.575  1.00  0.00    -0.297 OA 
BRANCH  27  28
HETATM   28  C   UNL     1     -11.383  14.968  68.899  1.00  0.00    -0.297 A  
HETATM   29  C   UNL     1     -11.210  16.226  70.962  1.00  0.00    -0.227 A  
HETATM   30  C   UNL     1     -12.071  13.970  69.611  1.00  0.00    -0.408 A  
HETATM   31  C   UNL     1     -10.955  16.109  69.596  1.00  0.00    -0.346 A  
HETATM   32  C   UNL     1     -11.885  15.221  71.658  1.00  0.00    -0.451 A  
HETATM   33  C   UNL     1     -12.312  14.088  70.976  1.00  0.00    -0.443 A  
BRANCH  31  34
HETATM   34  O   UNL     1     -10.177  17.118  69.091  1.00  0.00    -0.308 OA 
BRANCH  34  35
HETATM   35  C   UNL     1     -10.517  17.604  67.787  1.00  0.00    -0.378 C  
HETATM   36  C   UNL     1     -10.605  19.126  67.736  1.00  0.00    -0.403 C  
HETATM   37  F   UNL     1     -10.185  19.727  68.869  1.00  0.00    -0.492 F  
HETATM   38  F   UNL     1      -9.875  19.624  66.711  1.00  0.00    -0.370 F  
HETATM   39  F   UNL     1     -11.890  19.521  67.528  1.00  0.00     0.047 F  
ENDBRANCH  34  35
ENDBRANCH  31  34
ENDBRANCH  27  28
ENDBRANCH  26  27
ENDBRANCH  25  26
ENDBRANCH  23  25
ENDBRANCH   2  23
TORSDOF 13
ENDMDL
MODEL      260
REMARK 921   NORMALIZED FREE ENERGY PREDICTED BY IDOCK:   -4.12 KCAL/MOL
REMARK 922        TOTAL FREE ENERGY PREDICTED BY IDOCK:  -10.42 KCAL/MOL
REMARK 923 INTER-LIGAND FREE ENERGY PREDICTED BY IDOCK:   -8.08 KCAL/MOL
REMARK 924 INTRA-LIGAND FREE ENERGY PREDICTED BY IDOCK:   -2.34 KCAL/MOL
REMARK 927      BINDING AFFINITY PREDICTED BY RF-SCORE:    0.00 PKD
ROOT
HETATM    1  C   UNL     1      -6.223   9.446  64.931  1.00  0.00    -0.072 C  
HETATM    2  C   UNL     1      -7.571   9.391  65.660  1.00  0.00    -0.095 C  
ENDROOT
BRANCH   2   3
HETATM    3  C   UNL     1      -7.481   9.932  67.105  1.00  0.00    -0.091 C  
BRANCH   3   4
HETATM    4  C   UNL     1      -7.853  11.382  67.226  1.00  0.00    -0.149 A  
HETATM    5  C   UNL     1      -8.930  11.888  66.490  1.00  0.00    -0.199 A  
HETATM    6  C   UNL     1      -7.750  15.824  68.716  1.00  0.00    -0.177 A  
HETATM    7  C   UNL     1      -7.142  12.243  68.050  1.00  0.00    -0.099 A  
HETATM    8  C   UNL     1      -7.549  13.568  68.131  1.00  0.00    -0.138 A  
HETATM    9  C   UNL     1      -9.359  13.234  66.597  1.00  0.00    -0.247 A  
HETATM   10  C   UNL     1      -8.644  14.111  67.420  1.00  0.00    -0.210 A  
HETATM   11  C   UNL     1      -6.878  14.600  68.975  1.00  0.00    -0.111 A  
HETATM   12  N   UNL     1      -8.762  15.457  67.717  1.00  0.00    -0.162 NA 
BRANCH  12  13
HETATM   13  C   UNL     1      -9.761  16.436  67.334  1.00  0.00    -0.238 C  
BRANCH  13  14
HETATM   14  C   UNL     1     -11.104  16.170  68.018  1.00  0.00    -0.317 C  
BRANCH  14  15
HETATM   15  C   UNL     1     -11.059  16.339  69.530  1.00  0.00    -0.330 C  
HETATM   16  O   UNL     1     -10.705  15.092  70.131  1.00  0.00    -0.382 OA 
HETATM   17  H   UNL     1     -10.676  15.197  71.074  1.00  0.00     0.000 HD 
ENDBRANCH  14  15
ENDBRANCH  13  14
ENDBRANCH  12  13
BRANCH   9  18
HETATM   18  C   UNL     1     -10.540  13.553  65.752  1.00  0.00    -0.283 C  
HETATM   19  N   UNL     1     -10.274  13.929  64.455  1.00  0.00    -0.644 N  
HETATM   20  O   UNL     1     -11.697  13.550  66.158  1.00  0.00    -0.335 OA 
HETATM   21  H2  UNL     1      -9.321  13.986  64.095  1.00  0.00     0.000 HD 
HETATM   22  H1  UNL     1     -11.084  14.148  63.875  1.00  0.00     0.000 HD 
ENDBRANCH   9  18
ENDBRANCH   3   4
ENDBRANCH   2   3
BRANCH   2  23
HETATM   23  N   UNL     1      -8.057   8.000  65.632  1.00  0.00    -0.114 NA 
HETATM   24  H   UNL     1      -7.364   7.387  65.204  1.00  0.00     0.000 HD 
BRANCH  23  25
HETATM   25  C   UNL     1      -8.466   7.479  66.947  1.00  0.00    -0.122 C  
BRANCH  25  26
HETATM   26  C   UNL     1      -9.994   7.392  67.148  1.00  0.00    -0.215 C  
BRANCH  26  27
HETATM   27  O   UNL     1     -10.365   7.318  68.531  1.00  0.00    -0.180 OA 
BRANCH  27  28
HETATM   28  C   UNL     1     -10.766   8.484  69.132  1.00  0.00    -0.110 A  
HETATM   29  C   UNL     1     -11.713   9.566  71.081  1.00  0.00    -0.438 A  
HETATM   30  C   UNL     1     -10.817   9.723  68.468  1.00  0.00    -0.227 A  
HETATM   31  C   UNL     1     -11.220   8.420  70.459  1.00  0.00    -0.238 A  
HETATM   32  C   UNL     1     -11.768  10.787  70.405  1.00  0.00    -0.445 A  
HETATM   33  C   UNL     1     -11.319  10.860  69.092  1.00  0.00    -0.350 A  
BRANCH  31  34
HETATM   34  O   UNL     1     -11.351   7.282  71.212  1.00  0.00    -0.252 OA 
BRANCH  34  35
HETATM   35  C   UNL     1     -10.155   6.757  71.801  1.00  0.00    -0.182 C  
HETATM   36  C   UNL     1     -10.009   7.143  73.269  1.00  0.00    -0.254 C  
HETATM   37  F   UNL     1     -11.101   7.754  73.775  1.00  0.00    -0.284 F  
HETATM   38  F   UNL     1      -9.751   6.059  74.037  1.00  0.00    -0.146 F  
HETATM   39  F   UNL     1      -8.963   7.998  73.435  1.00  0.00    -0.244 F  
ENDBRANCH  34  35
ENDBRANCH  31  34
ENDBRANCH  27  28
ENDBRANCH  26  27
ENDBRANCH  25  26
ENDBRANCH  23  25
ENDBRANCH   2  23
TORSDOF 13
ENDMDL
MODEL      261
REMARK 921   NORMALIZED FREE ENERGY PREDICTED BY IDOCK:   -4.10 KCAL/MOL
REMARK 922        TOTAL FREE ENERGY PREDICTED BY IDOCK:  -10.39 KCAL/MOL
REMARK 923 INTER-LIGAND FREE ENERGY PREDICTED BY IDOCK:   -8.47 KCAL/MOL
REMARK 924 INTRA-LIGAND FREE ENERGY PREDICTED BY IDOCK:   -1.92 KCAL/MOL
REMARK 927      BINDING AFFINITY PREDICTED BY RF-SCORE:    0.00 PKD
ROOT
HETATM    1  C   UNL     1     -12.692   9.153  71.452  1.00  0.00    -0.383 C  
HETATM    2  C   UNL     1     -11.588   9.706  70.542  1.00  0.00    -0.272 C  
ENDROOT
BRANCH   2   3
HETATM    3  C   UNL     1     -12.155  10.496  69.341  1.00  0.00    -0.175 C  
BRANCH   3   4
HETATM    4  C   UNL     1     -11.422  11.778  69.067  1.00  0.00    -0.358 A  
HETATM    5  C   UNL     1     -11.818  12.957  69.709  1.00  0.00    -0.380 A  
HETATM    6  C   UNL     1      -8.233  14.706  67.274  1.00  0.00    -0.212 A  
HETATM    7  C   UNL     1     -10.359  11.824  68.177  1.00  0.00    -0.213 A  
HETATM    8  C   UNL     1      -9.712  13.038  67.982  1.00  0.00    -0.224 A  
HETATM    9  C   UNL     1     -11.137  14.186  69.529  1.00  0.00    -0.222 A  
HETATM   10  C   UNL     1     -10.068  14.244  68.629  1.00  0.00    -0.238 A  
HETATM   11  C   UNL     1      -8.556  13.232  67.058  1.00  0.00    -0.169 A  
HETATM   12  N   UNL     1      -9.232  15.260  68.197  1.00  0.00    -0.181 NA 
BRANCH  12  13
HETATM   13  C   UNL     1      -9.115  16.642  68.615  1.00  0.00    -0.245 C  
BRANCH  13  14
HETATM   14  C   UNL     1     -10.224  17.511  68.014  1.00  0.00    -0.354 C  
BRANCH  14  15
HETATM   15  C   UNL     1     -10.591  17.124  66.589  1.00  0.00    -0.179 C  
HETATM   16  O   UNL     1      -9.405  17.084  65.794  1.00  0.00    -0.524 OA 
HETATM   17  H   UNL     1      -9.634  16.842  64.904  1.00  0.00     0.000 HD 
ENDBRANCH  14  15
ENDBRANCH  13  14
ENDBRANCH  12  13
BRANCH   9  18
HETATM   18  C   UNL     1     -11.702  15.303  70.329  1.00  0.00    -0.308 C  
HETATM   19  N   UNL     1     -11.062  15.584  71.516  1.00  0.00    -0.369 N  
HETATM   20  O   UNL     1     -12.711  15.929  70.021  1.00  0.00    -0.253 OA 
HETATM   21  H2  UNL     1     -10.248  15.056  71.827  1.00  0.00     0.000 HD 
HETATM   22  H1  UNL     1     -11.451  16.352  72.066  1.00  0.00     0.000 HD 
ENDBRANCH   9  18
ENDBRANCH   3   4
ENDBRANCH   2   3
BRANCH   2  23
HETATM   23  N   UNL     1     -10.744   8.581  70.101  1.00  0.00    -0.234 NA 
HETATM   24  H   UNL     1      -9.779   8.719  70.400  1.00  0.00     0.000 HD 
BRANCH  23  25
HETATM   25  C   UNL     1     -11.233   7.260  70.529  1.00  0.00    -0.279 C  
BRANCH  25  26
HETATM   26  C   UNL     1     -10.970   6.127  69.514  1.00  0.00    -0.393 C  
BRANCH  26  27
HETATM   27  O   UNL     1     -10.965   6.593  68.158  1.00  0.00    -0.260 OA 
BRANCH  27  28
HETATM   28  C   UNL     1     -10.202   5.890  67.260  1.00  0.00    -0.200 A  
HETATM   29  C   UNL     1      -8.509   5.938  65.528  1.00  0.00    -0.154 A  
HETATM   30  C   UNL     1     -10.373   4.519  67.000  1.00  0.00    -0.024 A  
HETATM   31  C   UNL     1      -9.250   6.597  66.508  1.00  0.00    -0.158 A  
HETATM   32  C   UNL     1      -8.699   4.577  65.274  1.00  0.00    -0.132 A  
HETATM   33  C   UNL     1      -9.638   3.870  66.014  1.00  0.00    -0.189 A  
BRANCH  31  34
HETATM   34  O   UNL     1      -9.036   7.950  66.546  1.00  0.00    -0.144 OA 
BRANCH  34  35
HETATM   35  C   UNL     1      -8.289   8.517  65.463  1.00  0.00    -0.156 C  
HETATM   36  C   UNL     1      -9.082   9.568  64.694  1.00  0.00    -0.210 C  
HETATM   37  F   UNL     1     -10.259   9.885  65.274  1.00  0.00    -0.388 F  
HETATM   38  F   UNL     1      -8.372  10.712  64.553  1.00  0.00    -0.171 F  
HETATM   39  F   UNL     1      -9.364   9.127  63.438  1.00  0.00    -0.120 F  
ENDBRANCH  34  35
ENDBRANCH  31  34
ENDBRANCH  27  28
ENDBRANCH  26  27
ENDBRANCH  25  26
ENDBRANCH  23  25
ENDBRANCH   2  23
TORSDOF 13
ENDMDL
MODEL      262
REMARK 921   NORMALIZED FREE ENERGY PREDICTED BY IDOCK:   -4.09 KCAL/MOL
REMARK 922        TOTAL FREE ENERGY PREDICTED BY IDOCK:  -10.37 KCAL/MOL
REMARK 923 INTER-LIGAND FREE ENERGY PREDICTED BY IDOCK:   -8.21 KCAL/MOL
REMARK 924 INTRA-LIGAND FREE ENERGY PREDICTED BY IDOCK:   -2.16 KCAL/MOL
REMARK 927      BINDING AFFINITY PREDICTED BY RF-SCORE:    0.00 PKD
ROOT
HETATM    1  C   UNL     1      -5.824  14.066  69.579  1.00  0.00    -0.097 C  
HETATM    2  C   UNL     1      -6.983  14.658  68.767  1.00  0.00    -0.102 C  
ENDROOT
BRANCH   2   3
HETATM    3  C   UNL     1      -7.334  13.799  67.530  1.00  0.00    -0.176 C  
BRANCH   3   4
HETATM    4  C   UNL     1      -7.807  12.417  67.876  1.00  0.00    -0.145 A  
HETATM    5  C   UNL     1      -9.112  12.224  68.342  1.00  0.00    -0.146 A  
HETATM    6  C   UNL     1      -7.731   7.760  68.396  1.00  0.00    -0.119 A  
HETATM    7  C   UNL     1      -6.971  11.316  67.752  1.00  0.00    -0.075 A  
HETATM    8  C   UNL     1      -7.477  10.062  68.071  1.00  0.00    -0.088 A  
HETATM    9  C   UNL     1      -9.633  10.940  68.639  1.00  0.00    -0.192 A  
HETATM   10  C   UNL     1      -8.795   9.826  68.524  1.00  0.00    -0.121 A  
HETATM   11  C   UNL     1      -6.692   8.796  67.984  1.00  0.00    -0.069 A  
HETATM   12  N   UNL     1      -8.962   8.473  68.763  1.00  0.00    -0.139 NA 
BRANCH  12  13
HETATM   13  C   UNL     1     -10.133   7.707  69.141  1.00  0.00    -0.194 C  
BRANCH  13  14
HETATM   14  C   UNL     1      -9.868   6.839  70.374  1.00  0.00    -0.186 C  
BRANCH  14  15
HETATM   15  C   UNL     1      -9.658   5.368  70.045  1.00  0.00    -0.169 C  
HETATM   16  O   UNL     1     -10.837   4.853  69.424  1.00  0.00     0.213 OA 
HETATM   17  H   UNL     1     -10.706   3.935  69.219  1.00  0.00     0.000 HD 
ENDBRANCH  14  15
ENDBRANCH  13  14
ENDBRANCH  12  13
BRANCH   9  18
HETATM   18  C   UNL     1     -11.049  10.960  69.089  1.00  0.00    -0.245 C  
HETATM   19  N   UNL     1     -11.267  11.358  70.389  1.00  0.00    -0.390 N  
HETATM   20  O   UNL     1     -11.995  10.598  68.399  1.00  0.00    -0.448 OA 
HETATM   21  H2  UNL     1     -10.501  11.624  71.007  1.00  0.00     0.000 HD 
HETATM   22  H1  UNL     1     -12.239  11.372  70.698  1.00  0.00     0.000 HD 
ENDBRANCH   9  18
ENDBRANCH   3   4
ENDBRANCH   2   3
BRANCH   2  23
HETATM   23  N   UNL     1      -6.626  16.036  68.386  1.00  0.00    -0.117 NA 
HETATM   24  H   UNL     1      -6.277  16.064  67.428  1.00  0.00     0.000 HD 
BRANCH  23  25
HETATM   25  C   UNL     1      -7.715  17.010  68.568  1.00  0.00    -0.238 C  
BRANCH  25  26
HETATM   26  C   UNL     1      -8.423  17.422  67.260  1.00  0.00    -0.208 C  
BRANCH  26  27
HETATM   27  O   UNL     1      -9.834  17.603  67.430  1.00  0.00    -0.288 OA 
BRANCH  27  28
HETATM   28  C   UNL     1     -10.523  16.589  68.045  1.00  0.00    -0.313 A  
HETATM   29  C   UNL     1     -11.764  14.521  67.819  1.00  0.00    -0.403 A  
HETATM   30  C   UNL     1     -10.852  16.590  69.413  1.00  0.00    -0.311 A  
HETATM   31  C   UNL     1     -10.990  15.531  67.249  1.00  0.00    -0.303 A  
HETATM   32  C   UNL     1     -12.091  14.541  69.177  1.00  0.00    -0.299 A  
HETATM   33  C   UNL     1     -11.632  15.585  69.972  1.00  0.00    -0.356 A  
BRANCH  31  34
HETATM   34  O   UNL     1     -10.866  15.431  65.888  1.00  0.00    -0.321 OA 
BRANCH  34  35
HETATM   35  C   UNL     1     -10.775  14.109  65.343  1.00  0.00    -0.342 C  
HETATM   36  C   UNL     1     -11.927  13.787  64.398  1.00  0.00    -0.445 C  
HETATM   37  F   UNL     1     -12.711  14.850  64.124  1.00  0.00    -0.463 F  
HETATM   38  F   UNL     1     -11.472  13.296  63.221  1.00  0.00    -0.404 F  
HETATM   39  F   UNL     1     -12.730  12.828  64.936  1.00  0.00    -0.509 F  
ENDBRANCH  34  35
ENDBRANCH  31  34
ENDBRANCH  27  28
ENDBRANCH  26  27
ENDBRANCH  25  26
ENDBRANCH  23  25
ENDBRANCH   2  23
TORSDOF 13
ENDMDL
MODEL      263
REMARK 921   NORMALIZED FREE ENERGY PREDICTED BY IDOCK:   -4.08 KCAL/MOL
REMARK 922        TOTAL FREE ENERGY PREDICTED BY IDOCK:  -10.35 KCAL/MOL
REMARK 923 INTER-LIGAND FREE ENERGY PREDICTED BY IDOCK:   -8.71 KCAL/MOL
REMARK 924 INTRA-LIGAND FREE ENERGY PREDICTED BY IDOCK:   -1.64 KCAL/MOL
REMARK 927      BINDING AFFINITY PREDICTED BY RF-SCORE:    0.00 PKD
ROOT
HETATM    1  C   UNL     1      -7.724  12.794  67.201  1.00  0.00    -0.072 C  
HETATM    2  C   UNL     1      -8.877  11.799  67.387  1.00  0.00    -0.164 C  
ENDROOT
BRANCH   2   3
HETATM    3  C   UNL     1      -9.351  11.189  66.048  1.00  0.00    -0.228 C  
BRANCH   3   4
HETATM    4  C   UNL     1      -9.296   9.689  66.020  1.00  0.00    -0.263 A  
HETATM    5  C   UNL     1      -8.414   9.040  65.149  1.00  0.00    -0.183 A  
HETATM    6  C   UNL     1     -10.255   5.246  67.163  1.00  0.00    -0.220 A  
HETATM    7  C   UNL     1     -10.115   8.922  66.838  1.00  0.00    -0.343 A  
HETATM    8  C   UNL     1     -10.002   7.539  66.777  1.00  0.00    -0.307 A  
HETATM    9  C   UNL     1      -8.282   7.630  65.111  1.00  0.00    -0.130 A  
HETATM   10  C   UNL     1      -9.107   6.849  65.926  1.00  0.00    -0.009 A  
HETATM   11  C   UNL     1     -10.816   6.595  67.597  1.00  0.00    -0.393 A  
HETATM   12  N   UNL     1      -9.264   5.485  66.105  1.00  0.00    -0.156 NA 
BRANCH  12  13
HETATM   13  C   UNL     1      -8.534   4.360  65.555  1.00  0.00    -0.116 C  
BRANCH  13  14
HETATM   14  C   UNL     1      -9.068   3.959  64.178  1.00  0.00    -0.137 C  
BRANCH  14  15
HETATM   15  C   UNL     1      -8.009   3.345  63.273  1.00  0.00    -0.076 C  
HETATM   16  O   UNL     1      -6.765   4.015  63.486  1.00  0.00    -0.040 OA 
HETATM   17  H   UNL     1      -6.104   3.631  62.921  1.00  0.00     0.000 HD 
ENDBRANCH  14  15
ENDBRANCH  13  14
ENDBRANCH  12  13
BRANCH   9  18
HETATM   18  C   UNL     1      -7.266   7.153  64.137  1.00  0.00    -0.069 C  
HETATM   19  N   UNL     1      -6.022   6.862  64.651  1.00  0.00    -0.035 N  
HETATM   20  O   UNL     1      -7.458   7.063  62.929  1.00  0.00    -0.075 OA 
HETATM   21  H2  UNL     1      -5.811   6.967  65.643  1.00  0.00     0.000 HD 
HETATM   22  H1  UNL     1      -5.324   6.534  63.983  1.00  0.00     0.000 HD 
ENDBRANCH   9  18
ENDBRANCH   3   4
ENDBRANCH   2   3
BRANCH   2  23
HETATM   23  N   UNL     1      -9.975  12.487  68.089  1.00  0.00    -0.219 NA 
HETATM   24  H   UNL     1      -9.919  12.318  69.093  1.00  0.00     0.000 HD 
BRANCH  23  25
HETATM   25  C   UNL     1     -10.054  13.930  67.811  1.00  0.00    -0.241 C  
BRANCH  25  26
HETATM   26  C   UNL     1     -11.164  14.667  68.592  1.00  0.00    -0.275 C  
BRANCH  26  27
HETATM   27  O   UNL     1     -11.939  13.783  69.412  1.00  0.00    -0.312 OA 
BRANCH  27  28
HETATM   28  C   UNL     1     -12.267  14.226  70.668  1.00  0.00    -0.357 A  
HETATM   29  C   UNL     1     -13.362  13.775  72.781  1.00  0.00    -0.519 A  
HETATM   30  C   UNL     1     -12.035  15.539  71.114  1.00  0.00    -0.432 A  
HETATM   31  C   UNL     1     -12.939  13.341  71.526  1.00  0.00    -0.337 A  
HETATM   32  C   UNL     1     -13.134  15.086  73.206  1.00  0.00    -0.607 A  
HETATM   33  C   UNL     1     -12.469  15.969  72.363  1.00  0.00    -0.549 A  
BRANCH  31  34
HETATM   34  O   UNL     1     -13.350  12.071  71.213  1.00  0.00    -0.101 OA 
BRANCH  34  35
HETATM   35  C   UNL     1     -12.363  11.191  70.660  1.00  0.00    -0.388 C  
HETATM   36  C   UNL     1     -12.313   9.846  71.377  1.00  0.00    -0.404 C  
HETATM   37  F   UNL     1     -13.308   9.677  72.273  1.00  0.00    -0.438 F  
HETATM   38  F   UNL     1     -12.373   8.820  70.497  1.00  0.00    -0.140 F  
HETATM   39  F   UNL     1     -11.140   9.712  72.054  1.00  0.00    -0.378 F  
ENDBRANCH  34  35
ENDBRANCH  31  34
ENDBRANCH  27  28
ENDBRANCH  26  27
ENDBRANCH  25  26
ENDBRANCH  23  25
ENDBRANCH   2  23
TORSDOF 13
ENDMDL
MODEL      264
REMARK 921   NORMALIZED FREE ENERGY PREDICTED BY IDOCK:   -4.08 KCAL/MOL
REMARK 922        TOTAL FREE ENERGY PREDICTED BY IDOCK:  -10.35 KCAL/MOL
REMARK 923 INTER-LIGAND FREE ENERGY PREDICTED BY IDOCK:   -7.08 KCAL/MOL
REMARK 924 INTRA-LIGAND FREE ENERGY PREDICTED BY IDOCK:   -3.27 KCAL/MOL
REMARK 927      BINDING AFFINITY PREDICTED BY RF-SCORE:    0.00 PKD
ROOT
HETATM    1  C   UNL     1      -8.044  13.571  67.044  1.00  0.00    -0.015 C  
HETATM    2  C   UNL     1      -7.814  13.228  68.521  1.00  0.00    -0.110 C  
ENDROOT
BRANCH   2   3
HETATM    3  C   UNL     1      -6.580  12.320  68.730  1.00  0.00    -0.084 C  
BRANCH   3   4
HETATM    4  C   UNL     1      -6.870  10.860  68.531  1.00  0.00    -0.059 A  
HETATM    5  C   UNL     1      -7.468  10.123  69.559  1.00  0.00    -0.133 A  
HETATM    6  C   UNL     1      -7.153   6.699  66.393  1.00  0.00    -0.067 A  
HETATM    7  C   UNL     1      -6.549  10.216  67.344  1.00  0.00    -0.068 A  
HETATM    8  C   UNL     1      -6.860   8.869  67.217  1.00  0.00    -0.077 A  
HETATM    9  C   UNL     1      -7.810   8.755  69.414  1.00  0.00    -0.095 A  
HETATM   10  C   UNL     1      -7.483   8.096  68.224  1.00  0.00    -0.097 A  
HETATM   11  C   UNL     1      -6.573   8.054  66.000  1.00  0.00    -0.046 A  
HETATM   12  N   UNL     1      -7.633   6.795  67.778  1.00  0.00    -0.104 NA 
BRANCH  12  13
HETATM   13  C   UNL     1      -8.287   5.649  68.377  1.00  0.00    -0.106 C  
BRANCH  13  14
HETATM   14  C   UNL     1      -9.634   5.354  67.711  1.00  0.00    -0.147 C  
BRANCH  14  15
HETATM   15  C   UNL     1     -10.828   5.857  68.509  1.00  0.00    -0.248 C  
HETATM   16  O   UNL     1     -11.072   7.224  68.174  1.00  0.00    -0.464 OA 
HETATM   17  H   UNL     1     -11.818   7.538  68.672  1.00  0.00     0.000 HD 
ENDBRANCH  14  15
ENDBRANCH  13  14
ENDBRANCH  12  13
BRANCH   9  18
HETATM   18  C   UNL     1      -8.463   8.174  70.616  1.00  0.00    -0.128 C  
HETATM   19  N   UNL     1      -9.821   8.373  70.725  1.00  0.00    -0.178 N  
HETATM   20  O   UNL     1      -7.862   7.594  71.513  1.00  0.00    -0.083 OA 
HETATM   21  H2  UNL     1     -10.348   8.890  70.021  1.00  0.00     0.000 HD 
HETATM   22  H1  UNL     1     -10.270   7.975  71.550  1.00  0.00     0.000 HD 
ENDBRANCH   9  18
ENDBRANCH   3   4
ENDBRANCH   2   3
BRANCH   2  23
HETATM   23  N   UNL     1      -9.041  12.605  69.049  1.00  0.00    -0.216 NA 
HETATM   24  H   UNL     1      -9.014  12.571  70.068  1.00  0.00     0.000 HD 
BRANCH  23  25
HETATM   25  C   UNL     1     -10.284  13.241  68.585  1.00  0.00    -0.172 C  
BRANCH  25  26
HETATM   26  C   UNL     1     -11.506  12.298  68.556  1.00  0.00    -0.303 C  
BRANCH  26  27
HETATM   27  O   UNL     1     -12.029  12.114  67.233  1.00  0.00    -0.573 OA 
BRANCH  27  28
HETATM   28  C   UNL     1     -11.228  11.460  66.332  1.00  0.00    -0.183 A  
HETATM   29  C   UNL     1     -10.402  11.300  64.061  1.00  0.00    -0.430 A  
HETATM   30  C   UNL     1     -10.554  10.260  66.620  1.00  0.00    -0.232 A  
HETATM   31  C   UNL     1     -11.139  11.978  65.030  1.00  0.00    -0.316 A  
HETATM   32  C   UNL     1      -9.746  10.104  64.359  1.00  0.00    -0.345 A  
HETATM   33  C   UNL     1      -9.828   9.584  65.646  1.00  0.00    -0.343 A  
BRANCH  31  34
HETATM   34  O   UNL     1     -11.822  13.064  64.547  1.00  0.00    -0.341 OA 
BRANCH  34  35
HETATM   35  C   UNL     1     -11.037  14.188  64.132  1.00  0.00     0.025 C  
HETATM   36  C   UNL     1     -11.058  15.323  65.151  1.00  0.00    -0.404 C  
HETATM   37  F   UNL     1     -11.663  14.992  66.311  1.00  0.00    -0.333 F  
HETATM   38  F   UNL     1      -9.804  15.739  65.445  1.00  0.00    -0.340 F  
HETATM   39  F   UNL     1     -11.719  16.401  64.649  1.00  0.00    -0.261 F  
ENDBRANCH  34  35
ENDBRANCH  31  34
ENDBRANCH  27  28
ENDBRANCH  26  27
ENDBRANCH  25  26
ENDBRANCH  23  25
ENDBRANCH   2  23
TORSDOF 13
ENDMDL
MODEL      265
REMARK 921   NORMALIZED FREE ENERGY PREDICTED BY IDOCK:   -4.08 KCAL/MOL
REMARK 922        TOTAL FREE ENERGY PREDICTED BY IDOCK:  -10.35 KCAL/MOL
REMARK 923 INTER-LIGAND FREE ENERGY PREDICTED BY IDOCK:   -9.24 KCAL/MOL
REMARK 924 INTRA-LIGAND FREE ENERGY PREDICTED BY IDOCK:   -1.11 KCAL/MOL
REMARK 927      BINDING AFFINITY PREDICTED BY RF-SCORE:    0.00 PKD
ROOT
HETATM    1  C   UNL     1     -12.861  12.776  71.184  1.00  0.00    -0.315 C  
HETATM    2  C   UNL     1     -12.354  11.473  70.554  1.00  0.00    -0.342 C  
ENDROOT
BRANCH   2   3
HETATM    3  C   UNL     1     -12.357  10.295  71.554  1.00  0.00    -0.488 C  
BRANCH   3   4
HETATM    4  C   UNL     1     -11.357   9.224  71.222  1.00  0.00    -0.423 A  
HETATM    5  C   UNL     1     -11.282   8.722  69.918  1.00  0.00    -0.059 A  
HETATM    6  C   UNL     1      -7.857   6.162  71.804  1.00  0.00    -0.102 A  
HETATM    7  C   UNL     1     -10.503   8.710  72.188  1.00  0.00    -0.411 A  
HETATM    8  C   UNL     1      -9.589   7.735  71.811  1.00  0.00    -0.204 A  
HETATM    9  C   UNL     1     -10.329   7.748  69.531  1.00  0.00    -0.219 A  
HETATM   10  C   UNL     1      -9.469   7.218  70.500  1.00  0.00    -0.165 A  
HETATM   11  C   UNL     1      -8.614   7.096  72.743  1.00  0.00    -0.134 A  
HETATM   12  N   UNL     1      -8.476   6.255  70.475  1.00  0.00    -0.136 NA 
BRANCH  12  13
HETATM   13  C   UNL     1      -7.902   5.502  69.377  1.00  0.00    -0.087 C  
BRANCH  13  14
HETATM   14  C   UNL     1      -8.609   4.159  69.182  1.00  0.00    -0.112 C  
BRANCH  14  15
HETATM   15  C   UNL     1      -9.791   3.954  70.119  1.00  0.00    -0.092 C  
HETATM   16  O   UNL     1      -9.475   2.920  71.053  1.00  0.00    -0.138 OA 
HETATM   17  H   UNL     1     -10.213   2.792  71.638  1.00  0.00     0.000 HD 
ENDBRANCH  14  15
ENDBRANCH  13  14
ENDBRANCH  12  13
BRANCH   9  18
HETATM   18  C   UNL     1     -10.403   7.378  68.094  1.00  0.00    -0.192 C  
HETATM   19  N   UNL     1     -11.461   6.577  67.727  1.00  0.00    -0.663 N  
HETATM   20  O   UNL     1      -9.565   7.696  67.257  1.00  0.00    -0.143 OA 
HETATM   21  H2  UNL     1     -12.154   6.256  68.403  1.00  0.00     0.000 HD 
HETATM   22  H1  UNL     1     -11.513   6.323  66.740  1.00  0.00     0.000 HD 
ENDBRANCH   9  18
ENDBRANCH   3   4
ENDBRANCH   2   3
BRANCH   2  23
HETATM   23  N   UNL     1     -11.007  11.716  70.006  1.00  0.00    -0.408 NA 
HETATM   24  H   UNL     1     -10.428  10.882  70.098  1.00  0.00     0.000 HD 
BRANCH  23  25
HETATM   25  C   UNL     1     -11.004  12.198  68.615  1.00  0.00    -0.245 C  
BRANCH  25  26
HETATM   26  C   UNL     1     -10.003  11.468  67.694  1.00  0.00    -0.184 C  
BRANCH  26  27
HETATM   27  O   UNL     1      -9.546  12.291  66.613  1.00  0.00    -0.211 OA 
BRANCH  27  28
HETATM   28  C   UNL     1     -10.505  12.840  65.800  1.00  0.00    -0.276 A  
HETATM   29  C   UNL     1     -11.350  14.805  64.663  1.00  0.00    -0.370 A  
HETATM   30  C   UNL     1     -11.662  12.154  65.390  1.00  0.00    -0.379 A  
HETATM   31  C   UNL     1     -10.359  14.185  65.421  1.00  0.00    -0.365 A  
HETATM   32  C   UNL     1     -12.499  14.113  64.272  1.00  0.00    -0.301 A  
HETATM   33  C   UNL     1     -12.652  12.782  64.642  1.00  0.00    -0.491 A  
BRANCH  31  34
HETATM   34  O   UNL     1      -9.361  15.032  65.827  1.00  0.00    -0.293 OA 
BRANCH  34  35
HETATM   35  C   UNL     1      -9.730  16.395  66.071  1.00  0.00    -0.326 C  
HETATM   36  C   UNL     1     -10.000  16.672  67.546  1.00  0.00    -0.264 C  
HETATM   37  F   UNL     1      -9.679  15.639  68.354  1.00  0.00    -0.195 F  
HETATM   38  F   UNL     1      -9.314  17.758  67.973  1.00  0.00    -0.252 F  
HETATM   39  F   UNL     1     -11.319  16.939  67.747  1.00  0.00    -0.257 F  
ENDBRANCH  34  35
ENDBRANCH  31  34
ENDBRANCH  27  28
ENDBRANCH  26  27
ENDBRANCH  25  26
ENDBRANCH  23  25
ENDBRANCH   2  23
TORSDOF 13
ENDMDL
MODEL      266
REMARK 921   NORMALIZED FREE ENERGY PREDICTED BY IDOCK:   -4.07 KCAL/MOL
REMARK 922        TOTAL FREE ENERGY PREDICTED BY IDOCK:  -10.33 KCAL/MOL
REMARK 923 INTER-LIGAND FREE ENERGY PREDICTED BY IDOCK:   -8.37 KCAL/MOL
REMARK 924 INTRA-LIGAND FREE ENERGY PREDICTED BY IDOCK:   -1.96 KCAL/MOL
REMARK 927      BINDING AFFINITY PREDICTED BY RF-SCORE:    0.00 PKD
ROOT
HETATM    1  C   UNL     1      -8.770   8.908  66.068  1.00  0.00    -0.185 C  
HETATM    2  C   UNL     1     -10.176   8.494  66.521  1.00  0.00    -0.216 C  
ENDROOT
BRANCH   2   3
HETATM    3  C   UNL     1     -10.788   9.492  67.529  1.00  0.00    -0.239 C  
BRANCH   3   4
HETATM    4  C   UNL     1     -10.510  10.930  67.193  1.00  0.00    -0.281 A  
HETATM    5  C   UNL     1     -11.372  11.623  66.336  1.00  0.00    -0.312 A  
HETATM    6  C   UNL     1      -8.386  15.107  67.226  1.00  0.00    -0.201 A  
HETATM    7  C   UNL     1      -9.403  11.590  67.708  1.00  0.00    -0.168 A  
HETATM    8  C   UNL     1      -9.213  12.924  67.372  1.00  0.00    -0.197 A  
HETATM    9  C   UNL     1     -11.190  12.992  66.019  1.00  0.00    -0.320 A  
HETATM   10  C   UNL     1     -10.073  13.664  66.529  1.00  0.00    -0.286 A  
HETATM   11  C   UNL     1      -8.070  13.754  67.854  1.00  0.00    -0.166 A  
HETATM   12  N   UNL     1      -9.585  14.952  66.392  1.00  0.00    -0.276 NA 
BRANCH  12  13
HETATM   13  C   UNL     1     -10.134  16.115  65.724  1.00  0.00    -0.363 C  
BRANCH  13  14
HETATM   14  C   UNL     1      -9.496  17.411  66.230  1.00  0.00    -0.247 C  
BRANCH  14  15
HETATM   15  C   UNL     1     -10.472  18.322  66.963  1.00  0.00    -0.385 C  
HETATM   16  O   UNL     1     -10.834  17.717  68.205  1.00  0.00    -0.349 OA 
HETATM   17  H   UNL     1     -11.443  18.285  68.662  1.00  0.00     0.000 HD 
ENDBRANCH  14  15
ENDBRANCH  13  14
ENDBRANCH  12  13
BRANCH   9  18
HETATM   18  C   UNL     1     -12.237  13.540  65.118  1.00  0.00    -0.428 C  
HETATM   19  N   UNL     1     -11.937  13.546  63.774  1.00  0.00    -0.657 N  
HETATM   20  O   UNL     1     -13.295  14.021  65.505  1.00  0.00    -0.673 OA 
HETATM   21  H2  UNL     1     -11.048  13.196  63.418  1.00  0.00     0.000 HD 
HETATM   22  H1  UNL     1     -12.656  13.922  63.154  1.00  0.00     0.000 HD 
ENDBRANCH   9  18
ENDBRANCH   3   4
ENDBRANCH   2   3
BRANCH   2  23
HETATM   23  N   UNL     1     -10.101   7.133  67.083  1.00  0.00    -0.201 NA 
HETATM   24  H   UNL     1      -9.338   7.066  67.755  1.00  0.00     0.000 HD 
BRANCH  23  25
HETATM   25  C   UNL     1     -11.360   6.660  67.681  1.00  0.00     0.015 C  
BRANCH  25  26
HETATM   26  C   UNL     1     -11.221   6.151  69.132  1.00  0.00    -0.339 C  
BRANCH  26  27
HETATM   27  O   UNL     1      -9.853   5.990  69.531  1.00  0.00    -0.151 OA 
BRANCH  27  28
HETATM   28  C   UNL     1      -9.614   5.218  70.638  1.00  0.00    -0.176 A  
HETATM   29  C   UNL     1      -8.901   5.114  72.951  1.00  0.00    -0.117 A  
HETATM   30  C   UNL     1      -9.656   3.812  70.629  1.00  0.00    -0.259 A  
HETATM   31  C   UNL     1      -9.232   5.865  71.825  1.00  0.00    -0.148 A  
HETATM   32  C   UNL     1      -8.937   3.718  72.924  1.00  0.00    -0.109 A  
HETATM   33  C   UNL     1      -9.314   3.069  71.754  1.00  0.00    -0.196 A  
BRANCH  31  34
HETATM   34  O   UNL     1      -9.026   7.212  71.977  1.00  0.00    -0.130 OA 
BRANCH  34  35
HETATM   35  C   UNL     1      -7.837   7.753  71.388  1.00  0.00    -0.090 C  
HETATM   36  C   UNL     1      -8.140   8.794  70.315  1.00  0.00    -0.116 C  
HETATM   37  F   UNL     1      -9.445   9.129  70.244  1.00  0.00    -0.170 F  
HETATM   38  F   UNL     1      -7.434   9.931  70.524  1.00  0.00    -0.140 F  
HETATM   39  F   UNL     1      -7.780   8.331  69.088  1.00  0.00    -0.088 F  
ENDBRANCH  34  35
ENDBRANCH  31  34
ENDBRANCH  27  28
ENDBRANCH  26  27
ENDBRANCH  25  26
ENDBRANCH  23  25
ENDBRANCH   2  23
TORSDOF 13
ENDMDL
MODEL      267
REMARK 921   NORMALIZED FREE ENERGY PREDICTED BY IDOCK:   -4.06 KCAL/MOL
REMARK 922        TOTAL FREE ENERGY PREDICTED BY IDOCK:  -10.32 KCAL/MOL
REMARK 923 INTER-LIGAND FREE ENERGY PREDICTED BY IDOCK:   -8.58 KCAL/MOL
REMARK 924 INTRA-LIGAND FREE ENERGY PREDICTED BY IDOCK:   -1.74 KCAL/MOL
REMARK 927      BINDING AFFINITY PREDICTED BY RF-SCORE:    0.00 PKD
ROOT
HETATM    1  C   UNL     1      -7.348   9.088  65.294  1.00  0.00    -0.092 C  
HETATM    2  C   UNL     1      -8.738   9.489  65.806  1.00  0.00    -0.147 C  
ENDROOT
BRANCH   2   3
HETATM    3  C   UNL     1      -8.668  10.346  67.090  1.00  0.00    -0.130 C  
BRANCH   3   4
HETATM    4  C   UNL     1      -8.914  11.808  66.849  1.00  0.00    -0.195 A  
HETATM    5  C   UNL     1      -8.174  12.764  67.553  1.00  0.00    -0.179 A  
HETATM    6  C   UNL     1     -10.749  15.693  64.976  1.00  0.00    -0.436 A  
HETATM    7  C   UNL     1      -9.874  12.237  65.943  1.00  0.00    -0.266 A  
HETATM    8  C   UNL     1     -10.040  13.603  65.753  1.00  0.00    -0.311 A  
HETATM    9  C   UNL     1      -8.327  14.156  67.334  1.00  0.00    -0.210 A  
HETATM   10  C   UNL     1      -9.297  14.598  66.428  1.00  0.00    -0.284 A  
HETATM   11  C   UNL     1     -11.032  14.203  64.812  1.00  0.00    -0.409 A  
HETATM   12  N   UNL     1      -9.724  15.849  66.017  1.00  0.00    -0.318 NA 
BRANCH  12  13
HETATM   13  C   UNL     1      -9.232  17.176  66.327  1.00  0.00    -0.231 C  
BRANCH  13  14
HETATM   14  C   UNL     1     -10.377  18.155  66.600  1.00  0.00    -0.387 C  
BRANCH  14  15
HETATM   15  C   UNL     1     -10.726  18.282  68.076  1.00  0.00    -0.266 C  
HETATM   16  O   UNL     1     -10.139  17.194  68.792  1.00  0.00    -0.292 OA 
HETATM   17  H   UNL     1     -10.357  17.273  69.713  1.00  0.00     0.000 HD 
ENDBRANCH  14  15
ENDBRANCH  13  14
ENDBRANCH  12  13
BRANCH   9  18
HETATM   18  C   UNL     1      -7.422  14.992  68.164  1.00  0.00    -0.112 C  
HETATM   19  N   UNL     1      -6.075  14.877  67.898  1.00  0.00    -0.151 N  
HETATM   20  O   UNL     1      -7.798  15.713  69.081  1.00  0.00    -0.186 OA 
HETATM   21  H2  UNL     1      -5.721  14.253  67.173  1.00  0.00     0.000 HD 
HETATM   22  H1  UNL     1      -5.453  15.451  68.468  1.00  0.00     0.000 HD 
ENDBRANCH   9  18
ENDBRANCH   3   4
ENDBRANCH   2   3
BRANCH   2  23
HETATM   23  N   UNL     1      -9.527   8.262  66.015  1.00  0.00    -0.399 NA 
HETATM   24  H   UNL     1      -8.920   7.489  66.290  1.00  0.00     0.000 HD 
BRANCH  23  25
HETATM   25  C   UNL     1     -10.633   8.416  66.974  1.00  0.00    -0.246 C  
BRANCH  25  26
HETATM   26  C   UNL     1     -10.450   7.624  68.287  1.00  0.00    -0.174 C  
BRANCH  26  27
HETATM   27  O   UNL     1      -9.300   6.768  68.258  1.00  0.00    -0.126 OA 
BRANCH  27  28
HETATM   28  C   UNL     1      -9.454   5.500  68.759  1.00  0.00    -0.129 A  
HETATM   29  C   UNL     1      -9.739   4.085  70.705  1.00  0.00    -0.266 A  
HETATM   30  C   UNL     1      -9.343   4.337  67.978  1.00  0.00    -0.200 A  
HETATM   31  C   UNL     1      -9.658   5.358  70.141  1.00  0.00    -0.177 A  
HETATM   32  C   UNL     1      -9.616   2.938  69.917  1.00  0.00    -0.107 A  
HETATM   33  C   UNL     1      -9.414   3.070  68.548  1.00  0.00    -0.204 A  
BRANCH  31  34
HETATM   34  O   UNL     1      -9.672   6.372  71.063  1.00  0.00    -0.175 OA 
BRANCH  34  35
HETATM   35  C   UNL     1     -10.805   6.435  71.937  1.00  0.00    -0.240 C  
HETATM   36  C   UNL     1     -10.752   7.635  72.877  1.00  0.00    -0.371 C  
HETATM   37  F   UNL     1      -9.749   8.494  72.596  1.00  0.00    -0.325 F  
HETATM   38  F   UNL     1     -11.911   8.333  72.846  1.00  0.00    -0.460 F  
HETATM   39  F   UNL     1     -10.576   7.226  74.162  1.00  0.00    -0.381 F  
ENDBRANCH  34  35
ENDBRANCH  31  34
ENDBRANCH  27  28
ENDBRANCH  26  27
ENDBRANCH  25  26
ENDBRANCH  23  25
ENDBRANCH   2  23
TORSDOF 13
ENDMDL
MODEL      268
REMARK 921   NORMALIZED FREE ENERGY PREDICTED BY IDOCK:   -4.06 KCAL/MOL
REMARK 922        TOTAL FREE ENERGY PREDICTED BY IDOCK:  -10.32 KCAL/MOL
REMARK 923 INTER-LIGAND FREE ENERGY PREDICTED BY IDOCK:   -8.66 KCAL/MOL
REMARK 924 INTRA-LIGAND FREE ENERGY PREDICTED BY IDOCK:   -1.66 KCAL/MOL
REMARK 927      BINDING AFFINITY PREDICTED BY RF-SCORE:    0.00 PKD
ROOT
HETATM    1  C   UNL     1     -13.356  10.958  72.125  1.00  0.00    -0.294 C  
HETATM    2  C   UNL     1     -12.281  10.386  71.192  1.00  0.00    -0.394 C  
ENDROOT
BRANCH   2   3
HETATM    3  C   UNL     1     -12.516  10.777  69.715  1.00  0.00    -0.231 C  
BRANCH   3   4
HETATM    4  C   UNL     1     -11.970  12.131  69.360  1.00  0.00    -0.329 A  
HETATM    5  C   UNL     1     -11.490  12.370  68.068  1.00  0.00    -0.377 A  
HETATM    6  C   UNL     1     -10.756  16.632  69.841  1.00  0.00    -0.202 A  
HETATM    7  C   UNL     1     -11.921  13.157  70.293  1.00  0.00    -0.366 A  
HETATM    8  C   UNL     1     -11.422  14.390  69.895  1.00  0.00    -0.314 A  
HETATM    9  C   UNL     1     -11.007  13.638  67.658  1.00  0.00    -0.283 A  
HETATM   10  C   UNL     1     -10.948  14.676  68.594  1.00  0.00    -0.256 A  
HETATM   11  C   UNL     1     -11.312  15.578  70.792  1.00  0.00    -0.384 A  
HETATM   12  N   UNL     1     -10.509  15.988  68.544  1.00  0.00    -0.247 NA 
BRANCH  12  13
HETATM   13  C   UNL     1     -10.029  16.793  67.438  1.00  0.00    -0.267 C  
BRANCH  13  14
HETATM   14  C   UNL     1     -10.900  18.033  67.221  1.00  0.00    -0.214 C  
BRANCH  14  15
HETATM   15  C   UNL     1     -10.114  19.336  67.241  1.00  0.00    -0.384 C  
HETATM   16  O   UNL     1      -9.908  19.779  65.898  1.00  0.00    -0.401 OA 
HETATM   17  H   UNL     1      -9.418  20.592  65.910  1.00  0.00     0.000 HD 
ENDBRANCH  14  15
ENDBRANCH  13  14
ENDBRANCH  12  13
BRANCH   9  18
HETATM   18  C   UNL     1     -10.575  13.681  66.237  1.00  0.00    -0.289 C  
HETATM   19  N   UNL     1      -9.217  13.732  66.017  1.00  0.00    -0.497 N  
HETATM   20  O   UNL     1     -11.346  13.728  65.285  1.00  0.00    -0.297 OA 
HETATM   21  H2  UNL     1      -8.547  13.739  66.785  1.00  0.00     0.000 HD 
HETATM   22  H1  UNL     1      -8.920  13.761  65.041  1.00  0.00     0.000 HD 
ENDBRANCH   9  18
ENDBRANCH   3   4
ENDBRANCH   2   3
BRANCH   2  23
HETATM   23  N   UNL     1     -12.245   8.923  71.366  1.00  0.00    -0.308 NA 
HETATM   24  H   UNL     1     -13.002   8.482  70.843  1.00  0.00     0.000 HD 
BRANCH  23  25
HETATM   25  C   UNL     1     -10.952   8.310  71.022  1.00  0.00    -0.245 C  
BRANCH  25  26
HETATM   26  C   UNL     1      -9.778   8.763  71.915  1.00  0.00    -0.316 C  
BRANCH  26  27
HETATM   27  O   UNL     1      -8.607   9.100  71.158  1.00  0.00    -0.232 OA 
BRANCH  27  28
HETATM   28  C   UNL     1      -7.761   8.071  70.830  1.00  0.00    -0.082 A  
HETATM   29  C   UNL     1      -7.068   6.430  69.189  1.00  0.00    -0.084 A  
HETATM   30  C   UNL     1      -6.864   7.483  71.739  1.00  0.00    -0.057 A  
HETATM   31  C   UNL     1      -7.852   7.528  69.538  1.00  0.00    -0.120 A  
HETATM   32  C   UNL     1      -6.189   5.850  70.106  1.00  0.00    -0.027 A  
HETATM   33  C   UNL     1      -6.092   6.381  71.387  1.00  0.00    -0.040 A  
BRANCH  31  34
HETATM   34  O   UNL     1      -8.750   7.897  68.570  1.00  0.00    -0.131 OA 
BRANCH  34  35
HETATM   35  C   UNL     1      -8.252   8.719  67.507  1.00  0.00    -0.110 C  
HETATM   36  C   UNL     1      -9.366   9.435  66.752  1.00  0.00    -0.158 C  
HETATM   37  F   UNL     1     -10.580   9.297  67.326  1.00  0.00    -0.292 F  
HETATM   38  F   UNL     1      -9.111  10.760  66.644  1.00  0.00    -0.152 F  
HETATM   39  F   UNL     1      -9.468   8.952  65.484  1.00  0.00    -0.278 F  
ENDBRANCH  34  35
ENDBRANCH  31  34
ENDBRANCH  27  28
ENDBRANCH  26  27
ENDBRANCH  25  26
ENDBRANCH  23  25
ENDBRANCH   2  23
TORSDOF 13
ENDMDL
MODEL      269
REMARK 921   NORMALIZED FREE ENERGY PREDICTED BY IDOCK:   -4.05 KCAL/MOL
REMARK 922        TOTAL FREE ENERGY PREDICTED BY IDOCK:  -10.30 KCAL/MOL
REMARK 923 INTER-LIGAND FREE ENERGY PREDICTED BY IDOCK:   -8.76 KCAL/MOL
REMARK 924 INTRA-LIGAND FREE ENERGY PREDICTED BY IDOCK:   -1.53 KCAL/MOL
REMARK 927      BINDING AFFINITY PREDICTED BY RF-SCORE:    0.00 PKD
ROOT
HETATM    1  C   UNL     1      -8.316  13.151  68.252  1.00  0.00    -0.152 C  
HETATM    2  C   UNL     1      -9.221  11.934  68.487  1.00  0.00    -0.134 C  
ENDROOT
BRANCH   2   3
HETATM    3  C   UNL     1      -9.612  11.228  67.169  1.00  0.00    -0.194 C  
BRANCH   3   4
HETATM    4  C   UNL     1      -9.487   9.733  67.230  1.00  0.00    -0.183 A  
HETATM    5  C   UNL     1      -8.847   9.045  66.194  1.00  0.00    -0.195 A  
HETATM    6  C   UNL     1      -9.851   5.369  68.900  1.00  0.00    -0.166 A  
HETATM    7  C   UNL     1     -10.004   9.009  68.296  1.00  0.00    -0.198 A  
HETATM    8  C   UNL     1      -9.838   7.630  68.301  1.00  0.00    -0.181 A  
HETATM    9  C   UNL     1      -8.655   7.641  66.217  1.00  0.00    -0.153 A  
HETATM   10  C   UNL     1      -9.179   6.902  67.283  1.00  0.00    -0.127 A  
HETATM   11  C   UNL     1     -10.341   6.730  69.380  1.00  0.00    -0.221 A  
HETATM   12  N   UNL     1      -9.206   5.554  67.593  1.00  0.00    -0.110 NA 
BRANCH  12  13
HETATM   13  C   UNL     1      -8.598   4.411  66.939  1.00  0.00    -0.104 C  
BRANCH  13  14
HETATM   14  C   UNL     1      -9.418   3.948  65.732  1.00  0.00    -0.178 C  
BRANCH  14  15
HETATM   15  C   UNL     1     -10.782   4.616  65.633  1.00  0.00    -0.148 C  
HETATM   16  O   UNL     1     -11.475   4.099  64.496  1.00  0.00    -0.784 OA 
HETATM   17  H   UNL     1     -12.327   4.515  64.435  1.00  0.00     0.000 HD 
ENDBRANCH  14  15
ENDBRANCH  13  14
ENDBRANCH  12  13
BRANCH   9  18
HETATM   18  C   UNL     1      -7.925   7.119  65.032  1.00  0.00    -0.129 C  
HETATM   19  N   UNL     1      -8.619   7.118  63.843  1.00  0.00    -0.217 N  
HETATM   20  O   UNL     1      -6.791   6.654  65.073  1.00  0.00    -0.048 OA 
HETATM   21  H2  UNL     1      -9.579   7.456  63.780  1.00  0.00     0.000 HD 
HETATM   22  H1  UNL     1      -8.118   6.760  63.030  1.00  0.00     0.000 HD 
ENDBRANCH   9  18
ENDBRANCH   3   4
ENDBRANCH   2   3
BRANCH   2  23
HETATM   23  N   UNL     1     -10.409  12.378  69.238  1.00  0.00    -0.399 NA 
HETATM   24  H   UNL     1     -10.408  11.980  70.176  1.00  0.00     0.000 HD 
BRANCH  23  25
HETATM   25  C   UNL     1     -10.570  13.840  69.297  1.00  0.00     0.001 C  
BRANCH  25  26
HETATM   26  C   UNL     1     -12.036  14.320  69.215  1.00  0.00    -0.335 C  
BRANCH  26  27
HETATM   27  O   UNL     1     -12.230  15.329  68.215  1.00  0.00    -0.106 OA 
BRANCH  27  28
HETATM   28  C   UNL     1     -11.132  15.697  67.479  1.00  0.00    -0.289 A  
HETATM   29  C   UNL     1      -9.719  15.282  65.556  1.00  0.00    -0.313 A  
HETATM   30  C   UNL     1     -10.219  16.685  67.888  1.00  0.00    -0.284 A  
HETATM   31  C   UNL     1     -10.867  14.995  66.292  1.00  0.00    -0.333 A  
HETATM   32  C   UNL     1      -8.815  16.259  65.981  1.00  0.00    -0.308 A  
HETATM   33  C   UNL     1      -9.070  16.959  67.155  1.00  0.00    -0.228 A  
BRANCH  31  34
HETATM   34  O   UNL     1     -11.581  13.929  65.810  1.00  0.00    -0.322 OA 
BRANCH  34  35
HETATM   35  C   UNL     1     -11.820  13.897  64.398  1.00  0.00    -0.429 C  
HETATM   36  C   UNL     1     -11.577  12.517  63.795  1.00  0.00    -0.475 C  
HETATM   37  F   UNL     1     -11.352  11.559  64.720  1.00  0.00    -0.357 F  
HETATM   38  F   UNL     1     -12.628  12.121  63.040  1.00  0.00    -0.590 F  
HETATM   39  F   UNL     1     -10.492  12.541  62.974  1.00  0.00    -0.373 F  
ENDBRANCH  34  35
ENDBRANCH  31  34
ENDBRANCH  27  28
ENDBRANCH  26  27
ENDBRANCH  25  26
ENDBRANCH  23  25
ENDBRANCH   2  23
TORSDOF 13
ENDMDL
MODEL      270
REMARK 921   NORMALIZED FREE ENERGY PREDICTED BY IDOCK:   -4.05 KCAL/MOL
REMARK 922        TOTAL FREE ENERGY PREDICTED BY IDOCK:  -10.30 KCAL/MOL
REMARK 923 INTER-LIGAND FREE ENERGY PREDICTED BY IDOCK:   -8.88 KCAL/MOL
REMARK 924 INTRA-LIGAND FREE ENERGY PREDICTED BY IDOCK:   -1.41 KCAL/MOL
REMARK 927      BINDING AFFINITY PREDICTED BY RF-SCORE:    0.00 PKD
ROOT
HETATM    1  C   UNL     1      -8.478  19.430  67.010  1.00  0.00    -0.313 C  
HETATM    2  C   UNL     1      -9.396  18.448  67.750  1.00  0.00    -0.274 C  
ENDROOT
BRANCH   2   3
HETATM    3  C   UNL     1      -8.608  17.311  68.439  1.00  0.00    -0.251 C  
BRANCH   3   4
HETATM    4  C   UNL     1      -9.475  16.171  68.893  1.00  0.00    -0.244 A  
HETATM    5  C   UNL     1      -9.236  14.880  68.410  1.00  0.00    -0.189 A  
HETATM    6  C   UNL     1     -12.832  13.874  71.220  1.00  0.00    -0.360 A  
HETATM    7  C   UNL     1     -10.523  16.371  69.780  1.00  0.00    -0.246 A  
HETATM    8  C   UNL     1     -11.275  15.271  70.174  1.00  0.00    -0.313 A  
HETATM    9  C   UNL     1      -9.987  13.757  68.837  1.00  0.00    -0.043 A  
HETATM   10  C   UNL     1     -11.050  13.949  69.726  1.00  0.00    -0.006 A  
HETATM   11  C   UNL     1     -12.427  15.340  71.121  1.00  0.00    -0.438 A  
HETATM   12  N   UNL     1     -11.985  13.105  70.299  1.00  0.00    -0.325 NA 
BRANCH  12  13
HETATM   13  C   UNL     1     -12.130  11.664  70.245  1.00  0.00    -0.358 C  
BRANCH  13  14
HETATM   14  C   UNL     1     -12.969  11.136  71.411  1.00  0.00    -0.506 C  
BRANCH  14  15
HETATM   15  C   UNL     1     -12.520   9.771  71.912  1.00  0.00    -0.366 C  
HETATM   16  O   UNL     1     -13.550   9.209  72.727  1.00  0.00    -0.739 OA 
HETATM   17  H   UNL     1     -13.270   8.356  73.040  1.00  0.00     0.000 HD 
ENDBRANCH  14  15
ENDBRANCH  13  14
ENDBRANCH  12  13
BRANCH   9  18
HETATM   18  C   UNL     1      -9.547  12.477  68.223  1.00  0.00    -0.209 C  
HETATM   19  N   UNL     1      -8.343  11.974  68.666  1.00  0.00    -0.318 N  
HETATM   20  O   UNL     1     -10.155  11.895  67.332  1.00  0.00    -0.194 OA 
HETATM   21  H2  UNL     1      -7.787  12.453  69.373  1.00  0.00     0.000 HD 
HETATM   22  H1  UNL     1      -8.040  11.096  68.244  1.00  0.00     0.000 HD 
ENDBRANCH   9  18
ENDBRANCH   3   4
ENDBRANCH   2   3
BRANCH   2  23
HETATM   23  N   UNL     1     -10.381  17.919  66.788  1.00  0.00    -0.357 NA 
HETATM   24  H   UNL     1     -10.846  18.683  66.298  1.00  0.00     0.000 HD 
BRANCH  23  25
HETATM   25  C   UNL     1      -9.823  16.952  65.829  1.00  0.00    -0.137 C  
BRANCH  25  26
HETATM   26  C   UNL     1     -10.838  15.904  65.323  1.00  0.00    -0.387 C  
BRANCH  26  27
HETATM   27  O   UNL     1     -10.216  14.663  64.965  1.00  0.00    -0.401 OA 
BRANCH  27  28
HETATM   28  C   UNL     1     -11.047  13.617  64.653  1.00  0.00    -0.381 A  
HETATM   29  C   UNL     1     -11.304  11.438  63.625  1.00  0.00    -0.299 A  
HETATM   30  C   UNL     1     -12.439  13.644  64.851  1.00  0.00    -0.423 A  
HETATM   31  C   UNL     1     -10.485  12.490  64.033  1.00  0.00    -0.422 A  
HETATM   32  C   UNL     1     -12.687  11.485  63.820  1.00  0.00     0.021 A  
HETATM   33  C   UNL     1     -13.252  12.597  64.433  1.00  0.00     0.160 A  
BRANCH  31  34
HETATM   34  O   UNL     1      -9.174  12.346  63.658  1.00  0.00     0.169 OA 
BRANCH  34  35
HETATM   35  C   UNL     1      -8.824  11.131  62.985  1.00  0.00    -0.151 C  
HETATM   36  C   UNL     1      -8.308  10.061  63.941  1.00  0.00    -0.167 C  
HETATM   37  F   UNL     1      -8.437  10.396  65.243  1.00  0.00    -0.146 F  
HETATM   38  F   UNL     1      -8.951   8.885  63.754  1.00  0.00    -0.168 F  
HETATM   39  F   UNL     1      -6.986   9.823  63.721  1.00  0.00    -0.100 F  
ENDBRANCH  34  35
ENDBRANCH  31  34
ENDBRANCH  27  28
ENDBRANCH  26  27
ENDBRANCH  25  26
ENDBRANCH  23  25
ENDBRANCH   2  23
TORSDOF 13
ENDMDL
MODEL      271
REMARK 921   NORMALIZED FREE ENERGY PREDICTED BY IDOCK:   -4.05 KCAL/MOL
REMARK 922        TOTAL FREE ENERGY PREDICTED BY IDOCK:  -10.29 KCAL/MOL
REMARK 923 INTER-LIGAND FREE ENERGY PREDICTED BY IDOCK:   -8.42 KCAL/MOL
REMARK 924 INTRA-LIGAND FREE ENERGY PREDICTED BY IDOCK:   -1.87 KCAL/MOL
REMARK 927      BINDING AFFINITY PREDICTED BY RF-SCORE:    0.00 PKD
ROOT
HETATM    1  C   UNL     1     -10.036   9.688  66.697  1.00  0.00    -0.301 C  
HETATM    2  C   UNL     1      -9.057  10.854  66.893  1.00  0.00    -0.154 C  
ENDROOT
BRANCH   2   3
HETATM    3  C   UNL     1      -8.136  10.650  68.117  1.00  0.00    -0.114 C  
BRANCH   3   4
HETATM    4  C   UNL     1      -8.710   9.722  69.150  1.00  0.00    -0.155 A  
HETATM    5  C   UNL     1      -8.136   8.461  69.348  1.00  0.00    -0.114 A  
HETATM    6  C   UNL     1     -11.482   8.180  72.600  1.00  0.00    -0.387 A  
HETATM    7  C   UNL     1      -9.810  10.085  69.914  1.00  0.00    -0.266 A  
HETATM    8  C   UNL     1     -10.280   9.189  70.865  1.00  0.00    -0.351 A  
HETATM    9  C   UNL     1      -8.601   7.562  70.340  1.00  0.00    -0.143 A  
HETATM   10  C   UNL     1      -9.714   7.916  71.109  1.00  0.00    -0.158 A  
HETATM   11  C   UNL     1     -11.451   9.448  71.753  1.00  0.00    -0.413 A  
HETATM   12  N   UNL     1     -10.432   7.279  72.106  1.00  0.00    -0.200 NA 
BRANCH  12  13
HETATM   13  C   UNL     1     -10.211   6.017  72.784  1.00  0.00    -0.188 C  
BRANCH  13  14
HETATM   14  C   UNL     1     -10.741   4.836  71.966  1.00  0.00    -0.116 C  
BRANCH  14  15
HETATM   15  C   UNL     1     -10.049   3.518  72.286  1.00  0.00    -0.150 C  
HETATM   16  O   UNL     1      -8.668   3.617  71.935  1.00  0.00    -0.091 OA 
HETATM   17  H   UNL     1      -8.236   2.794  72.135  1.00  0.00     0.000 HD 
ENDBRANCH  14  15
ENDBRANCH  13  14
ENDBRANCH  12  13
BRANCH   9  18
HETATM   18  C   UNL     1      -7.830   6.293  70.401  1.00  0.00    -0.107 C  
HETATM   19  N   UNL     1      -8.149   5.343  69.456  1.00  0.00    -0.095 N  
HETATM   20  O   UNL     1      -6.992   6.037  71.258  1.00  0.00    -0.064 OA 
HETATM   21  H2  UNL     1      -8.872   5.502  68.755  1.00  0.00     0.000 HD 
HETATM   22  H1  UNL     1      -7.620   4.471  69.498  1.00  0.00     0.000 HD 
ENDBRANCH   9  18
ENDBRANCH   3   4
ENDBRANCH   2   3
BRANCH   2  23
HETATM   23  N   UNL     1      -9.836  12.100  67.002  1.00  0.00    -0.201 NA 
HETATM   24  H   UNL     1      -9.570  12.753  66.266  1.00  0.00     0.000 HD 
BRANCH  23  25
HETATM   25  C   UNL     1     -11.294  11.898  67.010  1.00  0.00    -0.329 C  
BRANCH  25  26
HETATM   26  C   UNL     1     -12.009  12.488  68.245  1.00  0.00    -0.221 C  
BRANCH  26  27
HETATM   27  O   UNL     1     -12.048  13.921  68.226  1.00  0.00    -0.366 OA 
BRANCH  27  28
HETATM   28  C   UNL     1     -12.147  14.558  69.437  1.00  0.00    -0.290 A  
HETATM   29  C   UNL     1     -11.298  16.263  70.934  1.00  0.00    -0.319 A  
HETATM   30  C   UNL     1     -13.009  14.139  70.466  1.00  0.00    -0.227 A  
HETATM   31  C   UNL     1     -11.287  15.639  69.687  1.00  0.00    -0.329 A  
HETATM   32  C   UNL     1     -12.153  15.828  71.950  1.00  0.00    -0.548 A  
HETATM   33  C   UNL     1     -13.008  14.759  71.711  1.00  0.00    -0.410 A  
BRANCH  31  34
HETATM   34  O   UNL     1     -10.308  16.101  68.847  1.00  0.00    -0.224 OA 
BRANCH  34  35
HETATM   35  C   UNL     1     -10.689  17.112  67.905  1.00  0.00    -0.355 C  
HETATM   36  C   UNL     1     -10.100  16.871  66.520  1.00  0.00    -0.315 C  
HETATM   37  F   UNL     1      -9.480  15.678  66.399  1.00  0.00    -0.232 F  
HETATM   38  F   UNL     1     -11.055  16.937  65.563  1.00  0.00    -0.221 F  
HETATM   39  F   UNL     1      -9.181  17.829  66.220  1.00  0.00    -0.267 F  
ENDBRANCH  34  35
ENDBRANCH  31  34
ENDBRANCH  27  28
ENDBRANCH  26  27
ENDBRANCH  25  26
ENDBRANCH  23  25
ENDBRANCH   2  23
TORSDOF 13
ENDMDL
MODEL      272
REMARK 921   NORMALIZED FREE ENERGY PREDICTED BY IDOCK:   -4.04 KCAL/MOL
REMARK 922        TOTAL FREE ENERGY PREDICTED BY IDOCK:  -10.28 KCAL/MOL
REMARK 923 INTER-LIGAND FREE ENERGY PREDICTED BY IDOCK:   -8.77 KCAL/MOL
REMARK 924 INTRA-LIGAND FREE ENERGY PREDICTED BY IDOCK:   -1.50 KCAL/MOL
REMARK 927      BINDING AFFINITY PREDICTED BY RF-SCORE:    0.00 PKD
ROOT
HETATM    1  C   UNL     1     -11.870  11.802  68.631  1.00  0.00    -0.369 C  
HETATM    2  C   UNL     1     -10.377  12.064  68.399  1.00  0.00    -0.214 C  
ENDROOT
BRANCH   2   3
HETATM    3  C   UNL     1      -9.478  11.067  69.166  1.00  0.00    -0.064 C  
BRANCH   3   4
HETATM    4  C   UNL     1      -9.524   9.672  68.613  1.00  0.00    -0.147 A  
HETATM    5  C   UNL     1     -10.148   8.654  69.343  1.00  0.00    -0.204 A  
HETATM    6  C   UNL     1      -8.899   6.121  65.619  1.00  0.00    -0.092 A  
HETATM    7  C   UNL     1      -8.948   9.362  67.389  1.00  0.00    -0.134 A  
HETATM    8  C   UNL     1      -9.042   8.056  66.925  1.00  0.00    -0.182 A  
HETATM    9  C   UNL     1     -10.266   7.329  68.853  1.00  0.00    -0.196 A  
HETATM   10  C   UNL     1      -9.683   7.006  67.623  1.00  0.00    -0.136 A  
HETATM   11  C   UNL     1      -8.471   7.584  65.630  1.00  0.00    -0.141 A  
HETATM   12  N   UNL     1      -9.579   5.837  66.890  1.00  0.00    -0.134 NA 
BRANCH  12  13
HETATM   13  C   UNL     1     -10.140   4.519  67.110  1.00  0.00    -0.112 C  
BRANCH  13  14
HETATM   14  C   UNL     1      -9.089   3.420  66.931  1.00  0.00    -0.188 C  
BRANCH  14  15
HETATM   15  C   UNL     1      -8.507   2.918  68.245  1.00  0.00    -0.081 C  
HETATM   16  O   UNL     1      -9.464   3.116  69.287  1.00  0.00    -0.160 OA 
HETATM   17  H   UNL     1      -9.101   2.802  70.107  1.00  0.00     0.000 HD 
ENDBRANCH  14  15
ENDBRANCH  13  14
ENDBRANCH  12  13
BRANCH   9  18
HETATM   18  C   UNL     1     -10.992   6.416  69.774  1.00  0.00    -0.356 C  
HETATM   19  N   UNL     1     -12.309   6.729  70.025  1.00  0.00    -0.483 N  
HETATM   20  O   UNL     1     -10.476   5.462  70.345  1.00  0.00    -0.266 OA 
HETATM   21  H2  UNL     1     -12.760   7.541  69.604  1.00  0.00     0.000 HD 
HETATM   22  H1  UNL     1     -12.808   6.103  70.657  1.00  0.00     0.000 HD 
ENDBRANCH   9  18
ENDBRANCH   3   4
ENDBRANCH   2   3
BRANCH   2  23
HETATM   23  N   UNL     1     -10.086  13.459  68.778  1.00  0.00    -0.406 NA 
HETATM   24  H   UNL     1     -10.369  13.633  69.742  1.00  0.00     0.000 HD 
BRANCH  23  25
HETATM   25  C   UNL     1      -8.684  13.857  68.570  1.00  0.00    -0.134 C  
BRANCH  25  26
HETATM   26  C   UNL     1      -8.278  13.992  67.086  1.00  0.00    -0.125 C  
BRANCH  26  27
HETATM   27  O   UNL     1      -7.882  15.326  66.742  1.00  0.00    -0.176 OA 
BRANCH  27  28
HETATM   28  C   UNL     1      -8.791  16.326  66.979  1.00  0.00    -0.205 A  
HETATM   29  C   UNL     1     -10.746  17.541  66.224  1.00  0.00    -0.087 A  
HETATM   30  C   UNL     1      -8.679  17.243  68.039  1.00  0.00    -0.231 A  
HETATM   31  C   UNL     1      -9.846  16.488  66.067  1.00  0.00    -0.322 A  
HETATM   32  C   UNL     1     -10.615  18.450  67.277  1.00  0.00    -0.435 A  
HETATM   33  C   UNL     1      -9.573  18.297  68.184  1.00  0.00    -0.316 A  
BRANCH  31  34
HETATM   34  O   UNL     1     -10.037  15.764  64.919  1.00  0.00    -0.399 OA 
BRANCH  34  35
HETATM   35  C   UNL     1     -10.705  14.504  65.053  1.00  0.00    -0.427 C  
HETATM   36  C   UNL     1     -12.137  14.542  64.531  1.00  0.00    -0.484 C  
HETATM   37  F   UNL     1     -12.446  15.691  63.894  1.00  0.00    -0.398 F  
HETATM   38  F   UNL     1     -12.373  13.521  63.675  1.00  0.00    -0.493 F  
HETATM   39  F   UNL     1     -13.021  14.405  65.556  1.00  0.00    -0.477 F  
ENDBRANCH  34  35
ENDBRANCH  31  34
ENDBRANCH  27  28
ENDBRANCH  26  27
ENDBRANCH  25  26
ENDBRANCH  23  25
ENDBRANCH   2  23
TORSDOF 13
ENDMDL
MODEL      273
REMARK 921   NORMALIZED FREE ENERGY PREDICTED BY IDOCK:   -4.03 KCAL/MOL
REMARK 922        TOTAL FREE ENERGY PREDICTED BY IDOCK:  -10.25 KCAL/MOL
REMARK 923 INTER-LIGAND FREE ENERGY PREDICTED BY IDOCK:   -8.92 KCAL/MOL
REMARK 924 INTRA-LIGAND FREE ENERGY PREDICTED BY IDOCK:   -1.33 KCAL/MOL
REMARK 927      BINDING AFFINITY PREDICTED BY RF-SCORE:    0.00 PKD
ROOT
HETATM    1  C   UNL     1      -9.488   9.370  70.982  1.00  0.00    -0.243 C  
HETATM    2  C   UNL     1      -9.776   8.818  69.580  1.00  0.00    -0.173 C  
ENDROOT
BRANCH   2   3
HETATM    3  C   UNL     1      -8.703   9.236  68.550  1.00  0.00    -0.128 C  
BRANCH   3   4
HETATM    4  C   UNL     1      -8.522   8.245  67.437  1.00  0.00    -0.125 A  
HETATM    5  C   UNL     1      -8.607   6.874  67.705  1.00  0.00    -0.121 A  
HETATM    6  C   UNL     1      -7.838   6.597  63.103  1.00  0.00    -0.103 A  
HETATM    7  C   UNL     1      -8.261   8.658  66.138  1.00  0.00    -0.121 A  
HETATM    8  C   UNL     1      -8.122   7.691  65.151  1.00  0.00    -0.134 A  
HETATM    9  C   UNL     1      -8.493   5.892  66.690  1.00  0.00    -0.111 A  
HETATM   10  C   UNL     1      -8.223   6.299  65.379  1.00  0.00    -0.142 A  
HETATM   11  C   UNL     1      -7.842   7.993  63.717  1.00  0.00    -0.142 A  
HETATM   12  N   UNL     1      -8.018   5.624  64.189  1.00  0.00    -0.116 NA 
BRANCH  12  13
HETATM   13  C   UNL     1      -8.109   4.214  63.863  1.00  0.00    -0.091 C  
BRANCH  13  14
HETATM   14  C   UNL     1      -9.365   3.903  63.045  1.00  0.00    -0.115 C  
BRANCH  14  15
HETATM   15  C   UNL     1     -10.634   3.842  63.882  1.00  0.00    -0.261 C  
HETATM   16  O   UNL     1     -11.248   2.564  63.710  1.00  0.00    -0.598 OA 
HETATM   17  H   UNL     1     -12.041   2.526  64.233  1.00  0.00     0.000 HD 
ENDBRANCH  14  15
ENDBRANCH  13  14
ENDBRANCH  12  13
BRANCH   9  18
HETATM   18  C   UNL     1      -8.645   4.500  67.188  1.00  0.00    -0.104 C  
HETATM   19  N   UNL     1      -7.537   3.947  67.790  1.00  0.00    -0.067 N  
HETATM   20  O   UNL     1      -9.657   3.824  67.042  1.00  0.00    -0.206 OA 
HETATM   21  H2  UNL     1      -6.663   4.463  67.889  1.00  0.00     0.000 HD 
HETATM   22  H1  UNL     1      -7.641   2.991  68.132  1.00  0.00     0.000 HD 
ENDBRANCH   9  18
ENDBRANCH   3   4
ENDBRANCH   2   3
BRANCH   2  23
HETATM   23  N   UNL     1     -11.121   9.262  69.174  1.00  0.00    -0.440 NA 
HETATM   24  H   UNL     1     -11.635   9.627  69.975  1.00  0.00     0.000 HD 
BRANCH  23  25
HETATM   25  C   UNL     1     -11.123  10.238  68.071  1.00  0.00    -0.274 C  
BRANCH  25  26
HETATM   26  C   UNL     1     -11.201  11.711  68.527  1.00  0.00    -0.256 C  
BRANCH  26  27
HETATM   27  O   UNL     1     -12.278  12.424  67.905  1.00  0.00    -0.379 OA 
BRANCH  27  28
HETATM   28  C   UNL     1     -11.950  13.281  66.885  1.00  0.00    -0.375 A  
HETATM   29  C   UNL     1     -10.921  15.368  66.212  1.00  0.00    -0.278 A  
HETATM   30  C   UNL     1     -12.383  13.112  65.558  1.00  0.00    -0.529 A  
HETATM   31  C   UNL     1     -11.207  14.430  67.202  1.00  0.00    -0.328 A  
HETATM   32  C   UNL     1     -11.368  15.191  64.900  1.00  0.00    -0.402 A  
HETATM   33  C   UNL     1     -12.104  14.057  64.578  1.00  0.00    -0.484 A  
BRANCH  31  34
HETATM   34  O   UNL     1     -10.808  14.811  68.457  1.00  0.00    -0.238 OA 
BRANCH  34  35
HETATM   35  C   UNL     1     -11.592  15.820  69.105  1.00  0.00    -0.392 C  
HETATM   36  C   UNL     1     -12.125  15.365  70.459  1.00  0.00    -0.371 C  
HETATM   37  F   UNL     1     -11.624  14.179  70.863  1.00  0.00    -0.329 F  
HETATM   38  F   UNL     1     -11.854  16.276  71.423  1.00  0.00    -0.431 F  
HETATM   39  F   UNL     1     -13.479  15.232  70.417  1.00  0.00    -0.309 F  
ENDBRANCH  34  35
ENDBRANCH  31  34
ENDBRANCH  27  28
ENDBRANCH  26  27
ENDBRANCH  25  26
ENDBRANCH  23  25
ENDBRANCH   2  23
TORSDOF 13
ENDMDL
MODEL      274
REMARK 921   NORMALIZED FREE ENERGY PREDICTED BY IDOCK:   -4.02 KCAL/MOL
REMARK 922        TOTAL FREE ENERGY PREDICTED BY IDOCK:  -10.24 KCAL/MOL
REMARK 923 INTER-LIGAND FREE ENERGY PREDICTED BY IDOCK:   -8.69 KCAL/MOL
REMARK 924 INTRA-LIGAND FREE ENERGY PREDICTED BY IDOCK:   -1.55 KCAL/MOL
REMARK 927      BINDING AFFINITY PREDICTED BY RF-SCORE:    0.00 PKD
ROOT
HETATM    1  C   UNL     1     -12.573  11.660  63.660  1.00  0.00    -0.309 C  
HETATM    2  C   UNL     1     -11.679  12.822  63.206  1.00  0.00    -0.375 C  
ENDROOT
BRANCH   2   3
HETATM    3  C   UNL     1     -10.283  12.783  63.868  1.00  0.00    -0.265 C  
BRANCH   3   4
HETATM    4  C   UNL     1     -10.097  11.627  64.808  1.00  0.00    -0.304 A  
HETATM    5  C   UNL     1      -9.237  10.579  64.461  1.00  0.00    -0.278 A  
HETATM    6  C   UNL     1     -10.554   8.987  68.653  1.00  0.00    -0.160 A  
HETATM    7  C   UNL     1     -10.771  11.567  66.020  1.00  0.00    -0.332 A  
HETATM    8  C   UNL     1     -10.540  10.479  66.852  1.00  0.00    -0.303 A  
HETATM    9  C   UNL     1      -8.983   9.485  65.326  1.00  0.00    -0.244 A  
HETATM   10  C   UNL     1      -9.663   9.413  66.546  1.00  0.00    -0.236 A  
HETATM   11  C   UNL     1     -11.195  10.287  68.179  1.00  0.00    -0.294 A  
HETATM   12  N   UNL     1      -9.682   8.493  67.580  1.00  0.00    -0.154 NA 
BRANCH  12  13
HETATM   13  C   UNL     1      -8.904   7.290  67.802  1.00  0.00    -0.124 C  
BRANCH  13  14
HETATM   14  C   UNL     1      -9.785   6.038  67.801  1.00  0.00    -0.119 C  
BRANCH  14  15
HETATM   15  C   UNL     1     -10.333   5.684  66.426  1.00  0.00    -0.187 C  
HETATM   16  O   UNL     1     -10.888   4.368  66.468  1.00  0.00    -0.241 OA 
HETATM   17  H   UNL     1     -11.231   4.147  65.610  1.00  0.00     0.000 HD 
ENDBRANCH  14  15
ENDBRANCH  13  14
ENDBRANCH  12  13
BRANCH   9  18
HETATM   18  C   UNL     1      -8.014   8.502  64.775  1.00  0.00    -0.143 C  
HETATM   19  N   UNL     1      -6.701   8.911  64.717  1.00  0.00    -0.069 N  
HETATM   20  O   UNL     1      -8.327   7.402  64.332  1.00  0.00    -0.048 OA 
HETATM   21  H2  UNL     1      -6.410   9.836  65.034  1.00  0.00     0.000 HD 
HETATM   22  H1  UNL     1      -6.036   8.237  64.338  1.00  0.00     0.000 HD 
ENDBRANCH   9  18
ENDBRANCH   3   4
ENDBRANCH   2   3
BRANCH   2  23
HETATM   23  N   UNL     1     -12.380  14.086  63.493  1.00  0.00    -1.118 NA 
HETATM   24  H   UNL     1     -13.386  13.971  63.374  1.00  0.00     0.000 HD 
BRANCH  23  25
HETATM   25  C   UNL     1     -12.078  14.653  64.818  1.00  0.00    -0.421 C  
BRANCH  25  26
HETATM   26  C   UNL     1     -11.154  15.889  64.782  1.00  0.00    -0.384 C  
BRANCH  26  27
HETATM   27  O   UNL     1      -9.968  15.714  65.569  1.00  0.00    -0.337 OA 
BRANCH  27  28
HETATM   28  C   UNL     1     -10.126  15.670  66.931  1.00  0.00    -0.263 A  
HETATM   29  C   UNL     1      -9.286  14.899  69.069  1.00  0.00    -0.176 A  
HETATM   30  C   UNL     1     -11.266  16.153  67.598  1.00  0.00    -0.147 A  
HETATM   31  C   UNL     1      -9.127  15.038  67.691  1.00  0.00    -0.182 A  
HETATM   32  C   UNL     1     -10.429  15.374  69.715  1.00  0.00    -0.303 A  
HETATM   33  C   UNL     1     -11.422  16.001  68.971  1.00  0.00    -0.360 A  
BRANCH  31  34
HETATM   34  O   UNL     1      -8.015  14.410  67.195  1.00  0.00    -0.192 OA 
BRANCH  34  35
HETATM   35  C   UNL     1      -7.880  13.012  67.483  1.00  0.00    -0.178 C  
HETATM   36  C   UNL     1      -6.428  12.548  67.458  1.00  0.00    -0.153 C  
HETATM   37  F   UNL     1      -5.542  13.560  67.340  1.00  0.00    -0.102 F  
HETATM   38  F   UNL     1      -6.116  11.856  68.579  1.00  0.00    -0.050 F  
HETATM   39  F   UNL     1      -6.215  11.708  66.408  1.00  0.00    -0.140 F  
ENDBRANCH  34  35
ENDBRANCH  31  34
ENDBRANCH  27  28
ENDBRANCH  26  27
ENDBRANCH  25  26
ENDBRANCH  23  25
ENDBRANCH   2  23
TORSDOF 13
ENDMDL
MODEL      275
REMARK 921   NORMALIZED FREE ENERGY PREDICTED BY IDOCK:   -4.01 KCAL/MOL
REMARK 922        TOTAL FREE ENERGY PREDICTED BY IDOCK:  -10.23 KCAL/MOL
REMARK 923 INTER-LIGAND FREE ENERGY PREDICTED BY IDOCK:   -8.68 KCAL/MOL
REMARK 924 INTRA-LIGAND FREE ENERGY PREDICTED BY IDOCK:   -1.55 KCAL/MOL
REMARK 927      BINDING AFFINITY PREDICTED BY RF-SCORE:    0.00 PKD
ROOT
HETATM    1  C   UNL     1      -9.790   9.666  65.392  1.00  0.00    -0.322 C  
HETATM    2  C   UNL     1     -10.311  10.124  66.761  1.00  0.00    -0.222 C  
ENDROOT
BRANCH   2   3
HETATM    3  C   UNL     1      -9.216  10.811  67.608  1.00  0.00    -0.152 C  
BRANCH   3   4
HETATM    4  C   UNL     1      -9.558  12.221  67.998  1.00  0.00    -0.206 A  
HETATM    5  C   UNL     1      -8.713  13.271  67.625  1.00  0.00    -0.195 A  
HETATM    6  C   UNL     1     -11.965  15.800  69.832  1.00  0.00    -0.332 A  
HETATM    7  C   UNL     1     -10.698  12.509  68.736  1.00  0.00    -0.235 A  
HETATM    8  C   UNL     1     -10.966  13.835  69.049  1.00  0.00    -0.277 A  
HETATM    9  C   UNL     1      -9.005  14.626  67.922  1.00  0.00    -0.174 A  
HETATM   10  C   UNL     1     -10.148  14.924  68.671  1.00  0.00    -0.237 A  
HETATM   11  C   UNL     1     -12.153  14.287  69.833  1.00  0.00    -0.404 A  
HETATM   12  N   UNL     1     -10.696  16.099  69.156  1.00  0.00    -0.269 NA 
BRANCH  12  13
HETATM   13  C   UNL     1     -10.307  17.483  68.969  1.00  0.00    -0.303 C  
BRANCH  13  14
HETATM   14  C   UNL     1     -10.770  18.022  67.613  1.00  0.00    -0.360 C  
BRANCH  14  15
HETATM   15  C   UNL     1      -9.835  19.069  67.025  1.00  0.00    -0.322 C  
HETATM   16  O   UNL     1     -10.199  20.356  67.524  1.00  0.00    -0.377 OA 
HETATM   17  H   UNL     1      -9.615  21.010  67.157  1.00  0.00     0.000 HD 
ENDBRANCH  14  15
ENDBRANCH  13  14
ENDBRANCH  12  13
BRANCH   9  18
HETATM   18  C   UNL     1      -7.991  15.581  67.406  1.00  0.00    -0.185 C  
HETATM   19  N   UNL     1      -6.963  15.899  68.266  1.00  0.00    -0.114 N  
HETATM   20  O   UNL     1      -8.053  16.125  66.309  1.00  0.00    -0.292 OA 
HETATM   21  H2  UNL     1      -6.903  15.501  69.203  1.00  0.00     0.000 HD 
HETATM   22  H1  UNL     1      -6.267  16.555  67.912  1.00  0.00     0.000 HD 
ENDBRANCH   9  18
ENDBRANCH   3   4
ENDBRANCH   2   3
BRANCH   2  23
HETATM   23  N   UNL     1     -10.880   8.955  67.455  1.00  0.00    -0.470 NA 
HETATM   24  H   UNL     1     -11.895   8.942  67.361  1.00  0.00     0.000 HD 
BRANCH  23  25
HETATM   25  C   UNL     1     -10.305   7.667  67.032  1.00  0.00    -0.330 C  
BRANCH  25  26
HETATM   26  C   UNL     1     -11.130   6.434  67.458  1.00  0.00    -0.306 C  
BRANCH  26  27
HETATM   27  O   UNL     1     -10.436   5.605  68.400  1.00  0.00    -0.199 OA 
BRANCH  27  28
HETATM   28  C   UNL     1     -10.771   5.750  69.723  1.00  0.00    -0.348 A  
HETATM   29  C   UNL     1     -10.486   4.990  72.005  1.00  0.00    -0.269 A  
HETATM   30  C   UNL     1     -11.783   6.613  70.178  1.00  0.00    -0.412 A  
HETATM   31  C   UNL     1     -10.119   4.934  70.661  1.00  0.00    -0.236 A  
HETATM   32  C   UNL     1     -11.501   5.846  72.441  1.00  0.00    -0.358 A  
HETATM   33  C   UNL     1     -12.151   6.657  71.518  1.00  0.00    -0.406 A  
BRANCH  31  34
HETATM   34  O   UNL     1      -9.199   3.958  70.380  1.00  0.00    -0.109 OA 
BRANCH  34  35
HETATM   35  C   UNL     1      -7.827   4.364  70.312  1.00  0.00    -0.059 C  
HETATM   36  C   UNL     1      -7.198   4.072  68.953  1.00  0.00    -0.054 C  
HETATM   37  F   UNL     1      -8.087   3.650  68.029  1.00  0.00    -0.080 F  
HETATM   38  F   UNL     1      -6.577   5.168  68.456  1.00  0.00    -0.041 F  
HETATM   39  F   UNL     1      -6.250   3.103  69.066  1.00  0.00    -0.026 F  
ENDBRANCH  34  35
ENDBRANCH  31  34
ENDBRANCH  27  28
ENDBRANCH  26  27
ENDBRANCH  25  26
ENDBRANCH  23  25
ENDBRANCH   2  23
TORSDOF 13
ENDMDL
MODEL      276
REMARK 921   NORMALIZED FREE ENERGY PREDICTED BY IDOCK:   -3.99 KCAL/MOL
REMARK 922        TOTAL FREE ENERGY PREDICTED BY IDOCK:  -10.18 KCAL/MOL
REMARK 923 INTER-LIGAND FREE ENERGY PREDICTED BY IDOCK:   -7.88 KCAL/MOL
REMARK 924 INTRA-LIGAND FREE ENERGY PREDICTED BY IDOCK:   -2.30 KCAL/MOL
REMARK 927      BINDING AFFINITY PREDICTED BY RF-SCORE:    0.00 PKD
ROOT
HETATM    1  C   UNL     1      -5.490  11.481  68.587  1.00  0.00    -0.042 C  
HETATM    2  C   UNL     1      -6.683  11.880  67.709  1.00  0.00    -0.087 C  
ENDROOT
BRANCH   2   3
HETATM    3  C   UNL     1      -7.891  12.366  68.542  1.00  0.00    -0.112 C  
BRANCH   3   4
HETATM    4  C   UNL     1      -8.085  13.855  68.502  1.00  0.00    -0.133 A  
HETATM    5  C   UNL     1      -7.006  14.705  68.768  1.00  0.00    -0.102 A  
HETATM    6  C   UNL     1     -10.231  17.981  67.926  1.00  0.00    -0.378 A  
HETATM    7  C   UNL     1      -9.323  14.413  68.215  1.00  0.00    -0.206 A  
HETATM    8  C   UNL     1      -9.431  15.797  68.176  1.00  0.00    -0.199 A  
HETATM    9  C   UNL     1      -7.114  16.116  68.700  1.00  0.00    -0.147 A  
HETATM   10  C   UNL     1      -8.360  16.688  68.418  1.00  0.00    -0.208 A  
HETATM   11  C   UNL     1     -10.697  16.530  67.881  1.00  0.00    -0.337 A  
HETATM   12  N   UNL     1      -8.814  17.991  68.315  1.00  0.00    -0.279 NA 
BRANCH  12  13
HETATM   13  C   UNL     1      -8.109  19.256  68.376  1.00  0.00    -0.343 C  
BRANCH  13  14
HETATM   14  C   UNL     1      -7.945  19.879  66.988  1.00  0.00    -0.336 C  
BRANCH  14  15
HETATM   15  C   UNL     1      -6.674  20.705  66.840  1.00  0.00    -0.279 C  
HETATM   16  O   UNL     1      -5.663  20.164  67.692  1.00  0.00    -0.183 OA 
HETATM   17  H   UNL     1      -4.870  20.679  67.599  1.00  0.00     0.000 HD 
ENDBRANCH  14  15
ENDBRANCH  13  14
ENDBRANCH  12  13
BRANCH   9  18
HETATM   18  C   UNL     1      -5.841  16.826  68.987  1.00  0.00    -0.150 C  
HETATM   19  N   UNL     1      -5.442  16.846  70.305  1.00  0.00    -0.215 N  
HETATM   20  O   UNL     1      -5.181  17.424  68.145  1.00  0.00    -0.126 OA 
HETATM   21  H2  UNL     1      -5.988  16.398  71.041  1.00  0.00     0.000 HD 
HETATM   22  H1  UNL     1      -4.567  17.333  70.503  1.00  0.00     0.000 HD 
ENDBRANCH   9  18
ENDBRANCH   3   4
ENDBRANCH   2   3
BRANCH   2  23
HETATM   23  N   UNL     1      -7.038  10.730  66.859  1.00  0.00    -0.107 NA 
HETATM   24  H   UNL     1      -7.107   9.880  67.418  1.00  0.00     0.000 HD 
BRANCH  23  25
HETATM   25  C   UNL     1      -8.262  10.926  66.064  1.00  0.00    -0.155 C  
BRANCH  25  26
HETATM   26  C   UNL     1      -9.018   9.622  65.731  1.00  0.00    -0.169 C  
BRANCH  26  27
HETATM   27  O   UNL     1     -10.423   9.716  65.998  1.00  0.00    -0.157 OA 
BRANCH  27  28
HETATM   28  C   UNL     1     -10.797  10.373  67.143  1.00  0.00    -0.238 A  
HETATM   29  C   UNL     1     -11.111  10.294  69.544  1.00  0.00    -0.310 A  
HETATM   30  C   UNL     1     -11.371  11.657  67.149  1.00  0.00    -0.373 A  
HETATM   31  C   UNL     1     -10.669   9.695  68.366  1.00  0.00    -0.209 A  
HETATM   32  C   UNL     1     -11.689  11.566  69.533  1.00  0.00    -0.413 A  
HETATM   33  C   UNL     1     -11.820  12.245  68.327  1.00  0.00    -0.367 A  
BRANCH  31  34
HETATM   34  O   UNL     1     -10.244   8.402  68.529  1.00  0.00    -0.194 OA 
BRANCH  34  35
HETATM   35  C   UNL     1      -9.902   7.997  69.860  1.00  0.00    -0.186 C  
HETATM   36  C   UNL     1     -10.745   6.824  70.349  1.00  0.00    -0.241 C  
HETATM   37  F   UNL     1     -11.526   6.286  69.388  1.00  0.00    -0.435 F  
HETATM   38  F   UNL     1      -9.966   5.836  70.848  1.00  0.00    -0.196 F  
HETATM   39  F   UNL     1     -11.570   7.219  71.357  1.00  0.00    -0.264 F  
ENDBRANCH  34  35
ENDBRANCH  31  34
ENDBRANCH  27  28
ENDBRANCH  26  27
ENDBRANCH  25  26
ENDBRANCH  23  25
ENDBRANCH   2  23
TORSDOF 13
ENDMDL
MODEL      277
REMARK 921   NORMALIZED FREE ENERGY PREDICTED BY IDOCK:   -3.98 KCAL/MOL
REMARK 922        TOTAL FREE ENERGY PREDICTED BY IDOCK:  -10.18 KCAL/MOL
REMARK 923 INTER-LIGAND FREE ENERGY PREDICTED BY IDOCK:   -9.42 KCAL/MOL
REMARK 924 INTRA-LIGAND FREE ENERGY PREDICTED BY IDOCK:   -0.76 KCAL/MOL
REMARK 927      BINDING AFFINITY PREDICTED BY RF-SCORE:    0.00 PKD
ROOT
HETATM    1  C   UNL     1     -13.159  13.522  71.748  1.00  0.00    -0.475 C  
HETATM    2  C   UNL     1     -12.443  13.731  70.408  1.00  0.00    -0.314 C  
ENDROOT
BRANCH   2   3
HETATM    3  C   UNL     1     -12.519  12.484  69.498  1.00  0.00     0.192 C  
BRANCH   3   4
HETATM    4  C   UNL     1     -11.836  11.278  70.077  1.00  0.00    -0.448 A  
HETATM    5  C   UNL     1     -10.564  10.913  69.621  1.00  0.00    -0.178 A  
HETATM    6  C   UNL     1     -11.114   7.536  72.805  1.00  0.00    -0.366 A  
HETATM    7  C   UNL     1     -12.444  10.503  71.054  1.00  0.00    -0.501 A  
HETATM    8  C   UNL     1     -11.751   9.412  71.561  1.00  0.00    -0.465 A  
HETATM    9  C   UNL     1      -9.848   9.816  70.161  1.00  0.00    -0.306 A  
HETATM   10  C   UNL     1     -10.457   9.025  71.142  1.00  0.00    -0.293 A  
HETATM   11  C   UNL     1     -12.283   8.496  72.612  1.00  0.00    -0.297 A  
HETATM   12  N   UNL     1     -10.070   7.892  71.835  1.00  0.00    -0.185 NA 
BRANCH  12  13
HETATM   13  C   UNL     1      -8.818   7.162  71.849  1.00  0.00    -0.123 C  
BRANCH  13  14
HETATM   14  C   UNL     1      -8.916   5.855  71.059  1.00  0.00    -0.148 C  
BRANCH  14  15
HETATM   15  C   UNL     1      -8.954   4.614  71.941  1.00  0.00    -0.126 C  
HETATM   16  O   UNL     1     -10.234   3.992  71.819  1.00  0.00    -0.158 OA 
HETATM   17  H   UNL     1     -10.258   3.218  72.369  1.00  0.00     0.000 HD 
ENDBRANCH  14  15
ENDBRANCH  13  14
ENDBRANCH  12  13
BRANCH   9  18
HETATM   18  C   UNL     1      -8.505   9.624  69.555  1.00  0.00    -0.159 C  
HETATM   19  N   UNL     1      -7.558  10.576  69.866  1.00  0.00    -0.334 N  
HETATM   20  O   UNL     1      -8.224   8.722  68.775  1.00  0.00    -0.113 OA 
HETATM   21  H2  UNL     1      -7.768  11.365  70.476  1.00  0.00     0.000 HD 
HETATM   22  H1  UNL     1      -6.636  10.444  69.450  1.00  0.00     0.000 HD 
ENDBRANCH   9  18
ENDBRANCH   3   4
ENDBRANCH   2   3
BRANCH   2  23
HETATM   23  N   UNL     1     -11.047  14.117  70.684  1.00  0.00    -0.332 NA 
HETATM   24  H   UNL     1     -10.468  13.289  70.823  1.00  0.00     0.000 HD 
BRANCH  23  25
HETATM   25  C   UNL     1     -10.455  14.997  69.662  1.00  0.00    -0.213 C  
BRANCH  25  26
HETATM   26  C   UNL     1     -11.095  14.865  68.264  1.00  0.00    -0.282 C  
BRANCH  26  27
HETATM   27  O   UNL     1     -10.243  14.188  67.330  1.00  0.00    -0.252 OA 
BRANCH  27  28
HETATM   28  C   UNL     1     -10.817  13.761  66.159  1.00  0.00    -0.279 A  
HETATM   29  C   UNL     1     -12.141  14.307  64.206  1.00  0.00    -0.467 A  
HETATM   30  C   UNL     1     -10.848  12.414  65.755  1.00  0.00    -0.312 A  
HETATM   31  C   UNL     1     -11.475  14.711  65.362  1.00  0.00    -0.352 A  
HETATM   32  C   UNL     1     -12.172  12.964  63.823  1.00  0.00    -0.555 A  
HETATM   33  C   UNL     1     -11.524  12.017  64.606  1.00  0.00    -0.371 A  
BRANCH  31  34
HETATM   34  O   UNL     1     -11.645  16.037  65.663  1.00  0.00     0.234 OA 
BRANCH  34  35
HETATM   35  C   UNL     1     -10.543  16.910  65.384  1.00  0.00    -0.162 C  
HETATM   36  C   UNL     1     -10.461  18.078  66.360  1.00  0.00    -0.339 C  
HETATM   37  F   UNL     1     -11.326  17.978  67.392  1.00  0.00    -0.181 F  
HETATM   38  F   UNL     1      -9.215  18.196  66.877  1.00  0.00    -0.251 F  
HETATM   39  F   UNL     1     -10.732  19.250  65.724  1.00  0.00    -0.509 F  
ENDBRANCH  34  35
ENDBRANCH  31  34
ENDBRANCH  27  28
ENDBRANCH  26  27
ENDBRANCH  25  26
ENDBRANCH  23  25
ENDBRANCH   2  23
TORSDOF 13
ENDMDL
MODEL      278
REMARK 921   NORMALIZED FREE ENERGY PREDICTED BY IDOCK:   -3.97 KCAL/MOL
REMARK 922        TOTAL FREE ENERGY PREDICTED BY IDOCK:  -10.16 KCAL/MOL
REMARK 923 INTER-LIGAND FREE ENERGY PREDICTED BY IDOCK:   -8.28 KCAL/MOL
REMARK 924 INTRA-LIGAND FREE ENERGY PREDICTED BY IDOCK:   -1.88 KCAL/MOL
REMARK 927      BINDING AFFINITY PREDICTED BY RF-SCORE:    0.00 PKD
ROOT
HETATM    1  C   UNL     1      -8.287  13.188  68.279  1.00  0.00    -0.152 C  
HETATM    2  C   UNL     1      -9.210  11.978  68.470  1.00  0.00    -0.114 C  
ENDROOT
BRANCH   2   3
HETATM    3  C   UNL     1      -9.633  11.342  67.126  1.00  0.00    -0.193 C  
BRANCH   3   4
HETATM    4  C   UNL     1      -9.489   9.847  67.099  1.00  0.00    -0.190 A  
HETATM    5  C   UNL     1      -9.959   9.083  68.173  1.00  0.00    -0.206 A  
HETATM    6  C   UNL     1      -8.405   5.576  65.504  1.00  0.00    -0.136 A  
HETATM    7  C   UNL     1      -8.887   9.199  66.030  1.00  0.00    -0.200 A  
HETATM    8  C   UNL     1      -8.803   7.814  66.058  1.00  0.00    -0.189 A  
HETATM    9  C   UNL     1      -9.896   7.668  68.185  1.00  0.00    -0.186 A  
HETATM   10  C   UNL     1      -9.285   7.007  67.114  1.00  0.00    -0.137 A  
HETATM   11  C   UNL     1      -8.184   6.990  64.978  1.00  0.00    -0.091 A  
HETATM   12  N   UNL     1      -9.026   5.677  66.831  1.00  0.00    -0.112 NA 
BRANCH  12  13
HETATM   13  C   UNL     1      -9.396   4.462  67.530  1.00  0.00    -0.154 C  
BRANCH  13  14
HETATM   14  C   UNL     1      -8.437   4.160  68.684  1.00  0.00    -0.101 C  
BRANCH  14  15
HETATM   15  C   UNL     1      -9.125   3.559  69.902  1.00  0.00    -0.125 C  
HETATM   16  O   UNL     1      -9.616   2.260  69.570  1.00  0.00    -0.083 OA 
HETATM   17  H   UNL     1     -10.045   1.885  70.331  1.00  0.00     0.000 HD 
ENDBRANCH  14  15
ENDBRANCH  13  14
ENDBRANCH  12  13
BRANCH   9  18
HETATM   18  C   UNL     1     -10.480   7.056  69.407  1.00  0.00    -0.214 C  
HETATM   19  N   UNL     1      -9.739   7.181  70.562  1.00  0.00    -0.176 N  
HETATM   20  O   UNL     1     -11.526   6.417  69.425  1.00  0.00    -0.401 OA 
HETATM   21  H2  UNL     1      -8.843   7.667  70.577  1.00  0.00     0.000 HD 
HETATM   22  H1  UNL     1     -10.140   6.761  71.401  1.00  0.00     0.000 HD 
ENDBRANCH   9  18
ENDBRANCH   3   4
ENDBRANCH   2   3
BRANCH   2  23
HETATM   23  N   UNL     1     -10.379  12.406  69.259  1.00  0.00    -0.399 NA 
HETATM   24  H   UNL     1     -10.386  11.943  70.167  1.00  0.00     0.000 HD 
BRANCH  23  25
HETATM   25  C   UNL     1     -10.491  13.865  69.421  1.00  0.00     0.120 C  
BRANCH  25  26
HETATM   26  C   UNL     1     -11.943  14.391  69.433  1.00  0.00    -0.328 C  
BRANCH  26  27
HETATM   27  O   UNL     1     -12.142  15.479  68.520  1.00  0.00    -0.246 OA 
BRANCH  27  28
HETATM   28  C   UNL     1     -11.077  15.836  67.733  1.00  0.00    -0.313 A  
HETATM   29  C   UNL     1      -9.850  15.506  65.670  1.00  0.00    -0.377 A  
HETATM   30  C   UNL     1     -10.058  16.709  68.153  1.00  0.00    -0.267 A  
HETATM   31  C   UNL     1     -10.960  15.235  66.469  1.00  0.00    -0.295 A  
HETATM   32  C   UNL     1      -8.841  16.368  66.106  1.00  0.00    -0.349 A  
HETATM   33  C   UNL     1      -8.949  16.967  67.355  1.00  0.00    -0.216 A  
BRANCH  31  34
HETATM   34  O   UNL     1     -11.792  14.276  65.953  1.00  0.00    -0.360 OA 
BRANCH  34  35
HETATM   35  C   UNL     1     -11.836  14.160  64.525  1.00  0.00    -0.436 C  
HETATM   36  C   UNL     1     -11.848  12.708  64.058  1.00  0.00    -0.431 C  
HETATM   37  F   UNL     1     -11.986  11.820  65.065  1.00  0.00    -0.336 F  
HETATM   38  F   UNL     1     -12.849  12.487  63.174  1.00  0.00    -0.467 F  
HETATM   39  F   UNL     1     -10.687  12.405  63.416  1.00  0.00    -0.422 F  
ENDBRANCH  34  35
ENDBRANCH  31  34
ENDBRANCH  27  28
ENDBRANCH  26  27
ENDBRANCH  25  26
ENDBRANCH  23  25
ENDBRANCH   2  23
TORSDOF 13
ENDMDL
MODEL      279
REMARK 921   NORMALIZED FREE ENERGY PREDICTED BY IDOCK:   -3.97 KCAL/MOL
REMARK 922        TOTAL FREE ENERGY PREDICTED BY IDOCK:  -10.15 KCAL/MOL
REMARK 923 INTER-LIGAND FREE ENERGY PREDICTED BY IDOCK:  -10.02 KCAL/MOL
REMARK 924 INTRA-LIGAND FREE ENERGY PREDICTED BY IDOCK:   -0.13 KCAL/MOL
REMARK 927      BINDING AFFINITY PREDICTED BY RF-SCORE:    0.00 PKD
ROOT
HETATM    1  C   UNL     1     -13.110  11.397  71.826  1.00  0.00    -0.523 C  
HETATM    2  C   UNL     1     -12.000  10.518  71.236  1.00  0.00    -0.289 C  
ENDROOT
BRANCH   2   3
HETATM    3  C   UNL     1     -11.892  10.659  69.700  1.00  0.00    -0.358 C  
BRANCH   3   4
HETATM    4  C   UNL     1     -11.599  12.060  69.246  1.00  0.00    -0.380 A  
HETATM    5  C   UNL     1     -12.136  13.146  69.947  1.00  0.00    -0.357 A  
HETATM    6  C   UNL     1      -9.763  15.556  66.722  1.00  0.00    -0.239 A  
HETATM    7  C   UNL     1     -10.808  12.307  68.133  1.00  0.00    -0.258 A  
HETATM    8  C   UNL     1     -10.560  13.626  67.777  1.00  0.00    -0.247 A  
HETATM    9  C   UNL     1     -11.857  14.490  69.597  1.00  0.00    -0.367 A  
HETATM   10  C   UNL     1     -11.067  14.748  68.472  1.00  0.00    -0.264 A  
HETATM   11  C   UNL     1      -9.730  14.036  66.607  1.00  0.00    -0.296 A  
HETATM   12  N   UNL     1     -10.643  15.907  67.845  1.00  0.00    -0.291 NA 
BRANCH  12  13
HETATM   13  C   UNL     1     -10.802  17.302  68.206  1.00  0.00    -0.287 C  
BRANCH  13  14
HETATM   14  C   UNL     1      -9.983  18.219  67.294  1.00  0.00    -0.343 C  
BRANCH  14  15
HETATM   15  C   UNL     1     -10.628  19.578  67.063  1.00  0.00    -0.492 C  
HETATM   16  O   UNL     1      -9.694  20.435  66.405  1.00  0.00    -0.594 OA 
HETATM   17  H   UNL     1     -10.097  21.283  66.261  1.00  0.00     0.000 HD 
ENDBRANCH  14  15
ENDBRANCH  13  14
ENDBRANCH  12  13
BRANCH   9  18
HETATM   18  C   UNL     1     -12.504  15.485  70.492  1.00  0.00    -0.427 C  
HETATM   19  N   UNL     1     -11.661  16.375  71.120  1.00  0.00    -0.605 N  
HETATM   20  O   UNL     1     -13.705  15.515  70.734  1.00  0.00    -0.475 OA 
HETATM   21  H2  UNL     1     -10.651  16.352  70.978  1.00  0.00     0.000 HD 
HETATM   22  H1  UNL     1     -12.104  17.058  71.734  1.00  0.00     0.000 HD 
ENDBRANCH   9  18
ENDBRANCH   3   4
ENDBRANCH   2   3
BRANCH   2  23
HETATM   23  N   UNL     1     -12.252   9.122  71.636  1.00  0.00    -0.337 NA 
HETATM   24  H   UNL     1     -13.010   8.723  71.082  1.00  0.00     0.000 HD 
BRANCH  23  25
HETATM   25  C   UNL     1     -11.061   8.258  71.583  1.00  0.00    -0.265 C  
BRANCH  25  26
HETATM   26  C   UNL     1     -10.382   8.030  72.950  1.00  0.00    -0.327 C  
BRANCH  26  27
HETATM   27  O   UNL     1      -8.953   7.959  72.851  1.00  0.00    -0.167 OA 
BRANCH  27  28
HETATM   28  C   UNL     1      -8.378   6.725  73.019  1.00  0.00    -0.115 A  
HETATM   29  C   UNL     1      -7.791   4.585  72.046  1.00  0.00    -0.095 A  
HETATM   30  C   UNL     1      -7.939   6.235  74.262  1.00  0.00    -0.104 A  
HETATM   31  C   UNL     1      -8.294   5.878  71.902  1.00  0.00    -0.119 A  
HETATM   32  C   UNL     1      -7.369   4.110  73.290  1.00  0.00    -0.071 A  
HETATM   33  C   UNL     1      -7.448   4.942  74.401  1.00  0.00    -0.089 A  
BRANCH  31  34
HETATM   34  O   UNL     1      -8.780   6.146  70.649  1.00  0.00    -0.136 OA 
BRANCH  34  35
HETATM   35  C   UNL     1      -9.845   5.312  70.177  1.00  0.00    -0.220 C  
HETATM   36  C   UNL     1     -10.105   5.484  68.685  1.00  0.00    -0.183 C  
HETATM   37  F   UNL     1      -9.183   6.251  68.064  1.00  0.00    -0.121 F  
HETATM   38  F   UNL     1     -10.137   4.288  68.052  1.00  0.00    -0.185 F  
HETATM   39  F   UNL     1     -11.315   6.069  68.476  1.00  0.00    -0.397 F  
ENDBRANCH  34  35
ENDBRANCH  31  34
ENDBRANCH  27  28
ENDBRANCH  26  27
ENDBRANCH  25  26
ENDBRANCH  23  25
ENDBRANCH   2  23
TORSDOF 13
ENDMDL
MODEL      280
REMARK 921   NORMALIZED FREE ENERGY PREDICTED BY IDOCK:   -3.96 KCAL/MOL
REMARK 922        TOTAL FREE ENERGY PREDICTED BY IDOCK:  -10.14 KCAL/MOL
REMARK 923 INTER-LIGAND FREE ENERGY PREDICTED BY IDOCK:   -9.17 KCAL/MOL
REMARK 924 INTRA-LIGAND FREE ENERGY PREDICTED BY IDOCK:   -0.97 KCAL/MOL
REMARK 927      BINDING AFFINITY PREDICTED BY RF-SCORE:    0.00 PKD
ROOT
HETATM    1  C   UNL     1      -9.613  10.917  65.835  1.00  0.00    -0.257 C  
HETATM    2  C   UNL     1      -8.124  11.171  66.097  1.00  0.00    -0.111 C  
ENDROOT
BRANCH   2   3
HETATM    3  C   UNL     1      -7.446   9.992  66.831  1.00  0.00    -0.095 C  
BRANCH   3   4
HETATM    4  C   UNL     1      -8.397   9.172  67.655  1.00  0.00    -0.116 A  
HETATM    5  C   UNL     1      -9.364   9.810  68.441  1.00  0.00    -0.135 A  
HETATM    6  C   UNL     1     -10.504   5.392  69.453  1.00  0.00    -0.261 A  
HETATM    7  C   UNL     1      -8.334   7.786  67.664  1.00  0.00    -0.121 A  
HETATM    8  C   UNL     1      -9.255   7.087  68.434  1.00  0.00    -0.129 A  
HETATM    9  C   UNL     1     -10.319   9.092  69.202  1.00  0.00    -0.229 A  
HETATM   10  C   UNL     1     -10.259   7.694  69.223  1.00  0.00    -0.210 A  
HETATM   11  C   UNL     1      -9.303   5.599  68.536  1.00  0.00    -0.139 A  
HETATM   12  N   UNL     1     -10.990   6.713  69.870  1.00  0.00    -0.291 NA 
BRANCH  12  13
HETATM   13  C   UNL     1     -12.171   6.798  70.706  1.00  0.00    -0.297 C  
BRANCH  13  14
HETATM   14  C   UNL     1     -11.995   6.018  72.012  1.00  0.00    -0.237 C  
BRANCH  14  15
HETATM   15  C   UNL     1     -10.792   6.466  72.829  1.00  0.00    -0.248 C  
HETATM   16  O   UNL     1     -10.707   7.892  72.795  1.00  0.00    -0.315 OA 
HETATM   17  H   UNL     1      -9.956   8.171  73.305  1.00  0.00     0.000 HD 
ENDBRANCH  14  15
ENDBRANCH  13  14
ENDBRANCH  12  13
BRANCH   9  18
HETATM   18  C   UNL     1     -11.273   9.964  69.937  1.00  0.00    -0.250 C  
HETATM   19  N   UNL     1     -12.139  10.703  69.162  1.00  0.00    -0.536 N  
HETATM   20  O   UNL     1     -11.287  10.094  71.155  1.00  0.00    -0.346 OA 
HETATM   21  H2  UNL     1     -12.126  10.655  68.144  1.00  0.00     0.000 HD 
HETATM   22  H1  UNL     1     -12.793  11.302  69.667  1.00  0.00     0.000 HD 
ENDBRANCH   9  18
ENDBRANCH   3   4
ENDBRANCH   2   3
BRANCH   2  23
HETATM   23  N   UNL     1      -7.994  12.428  66.856  1.00  0.00    -0.368 NA 
HETATM   24  H   UNL     1      -7.310  13.043  66.415  1.00  0.00     0.000 HD 
BRANCH  23  25
HETATM   25  C   UNL     1      -9.267  13.137  67.065  1.00  0.00    -0.233 C  
BRANCH  25  26
HETATM   26  C   UNL     1      -9.201  14.654  66.789  1.00  0.00    -0.264 C  
BRANCH  26  27
HETATM   27  O   UNL     1      -7.855  15.146  66.735  1.00  0.00    -0.148 OA 
BRANCH  27  28
HETATM   28  C   UNL     1      -7.554  16.224  67.528  1.00  0.00    -0.146 A  
HETATM   29  C   UNL     1      -7.736  18.611  67.901  1.00  0.00    -0.273 A  
HETATM   30  C   UNL     1      -6.686  16.158  68.633  1.00  0.00    -0.128 A  
HETATM   31  C   UNL     1      -8.082  17.475  67.170  1.00  0.00    -0.210 A  
HETATM   32  C   UNL     1      -6.864  18.531  68.989  1.00  0.00    -0.292 A  
HETATM   33  C   UNL     1      -6.337  17.297  69.351  1.00  0.00    -0.244 A  
BRANCH  31  34
HETATM   34  O   UNL     1      -8.843  17.741  66.062  1.00  0.00    -0.494 OA 
BRANCH  34  35
HETATM   35  C   UNL     1     -10.187  18.182  66.291  1.00  0.00    -0.395 C  
HETATM   36  C   UNL     1     -10.351  19.685  66.088  1.00  0.00    -0.530 C  
HETATM   37  F   UNL     1      -9.255  20.280  65.573  1.00  0.00    -0.274 F  
HETATM   38  F   UNL     1     -11.392  19.957  65.267  1.00  0.00    -0.348 F  
HETATM   39  F   UNL     1     -10.617  20.298  67.273  1.00  0.00    -0.500 F  
ENDBRANCH  34  35
ENDBRANCH  31  34
ENDBRANCH  27  28
ENDBRANCH  26  27
ENDBRANCH  25  26
ENDBRANCH  23  25
ENDBRANCH   2  23
TORSDOF 13
ENDMDL
MODEL      281
REMARK 921   NORMALIZED FREE ENERGY PREDICTED BY IDOCK:   -3.94 KCAL/MOL
REMARK 922        TOTAL FREE ENERGY PREDICTED BY IDOCK:  -10.10 KCAL/MOL
REMARK 923 INTER-LIGAND FREE ENERGY PREDICTED BY IDOCK:   -8.96 KCAL/MOL
REMARK 924 INTRA-LIGAND FREE ENERGY PREDICTED BY IDOCK:   -1.14 KCAL/MOL
REMARK 927      BINDING AFFINITY PREDICTED BY RF-SCORE:    0.00 PKD
ROOT
HETATM    1  C   UNL     1      -6.799  14.501  70.172  1.00  0.00    -0.026 C  
HETATM    2  C   UNL     1      -6.245  13.326  69.355  1.00  0.00    -0.110 C  
ENDROOT
BRANCH   2   3
HETATM    3  C   UNL     1      -6.080  13.676  67.858  1.00  0.00    -0.154 C  
BRANCH   3   4
HETATM    4  C   UNL     1      -6.898  14.859  67.426  1.00  0.00    -0.121 A  
HETATM    5  C   UNL     1      -8.274  14.716  67.218  1.00  0.00    -0.235 A  
HETATM    6  C   UNL     1      -7.936  19.274  66.245  1.00  0.00    -0.308 A  
HETATM    7  C   UNL     1      -6.315  16.101  67.216  1.00  0.00    -0.204 A  
HETATM    8  C   UNL     1      -7.130  17.159  66.835  1.00  0.00    -0.244 A  
HETATM    9  C   UNL     1      -9.107  15.804  66.857  1.00  0.00    -0.259 A  
HETATM   10  C   UNL     1      -8.527  17.057  66.636  1.00  0.00    -0.248 A  
HETATM   11  C   UNL     1      -6.639  18.544  66.576  1.00  0.00    -0.221 A  
HETATM   12  N   UNL     1      -9.025  18.289  66.247  1.00  0.00    -0.455 NA 
BRANCH  12  13
HETATM   13  C   UNL     1     -10.383  18.739  66.016  1.00  0.00    -0.422 C  
BRANCH  13  14
HETATM   14  C   UNL     1     -10.964  19.439  67.247  1.00  0.00    -0.454 C  
BRANCH  14  15
HETATM   15  C   UNL     1     -10.141  19.227  68.509  1.00  0.00    -0.430 C  
HETATM   16  O   UNL     1     -10.560  18.018  69.144  1.00  0.00    -0.400 OA 
HETATM   17  H   UNL     1     -10.046  17.886  69.932  1.00  0.00     0.000 HD 
ENDBRANCH  14  15
ENDBRANCH  13  14
ENDBRANCH  12  13
BRANCH   9  18
HETATM   18  C   UNL     1     -10.540  15.437  66.718  1.00  0.00    -0.309 C  
HETATM   19  N   UNL     1     -10.965  15.118  65.447  1.00  0.00    -0.354 N  
HETATM   20  O   UNL     1     -11.348  15.458  67.639  1.00  0.00    -0.331 OA 
HETATM   21  H2  UNL     1     -10.332  15.133  64.648  1.00  0.00     0.000 HD 
HETATM   22  H1  UNL     1     -11.949  14.867  65.352  1.00  0.00     0.000 HD 
ENDBRANCH   9  18
ENDBRANCH   3   4
ENDBRANCH   2   3
BRANCH   2  23
HETATM   23  N   UNL     1      -7.136  12.168  69.546  1.00  0.00    -0.339 NA 
HETATM   24  H   UNL     1      -7.741  12.045  68.734  1.00  0.00     0.000 HD 
BRANCH  23  25
HETATM   25  C   UNL     1      -6.431  10.914  69.860  1.00  0.00    -0.144 C  
BRANCH  25  26
HETATM   26  C   UNL     1      -7.351   9.775  70.350  1.00  0.00    -0.141 C  
BRANCH  26  27
HETATM   27  O   UNL     1      -8.699   9.916  69.884  1.00  0.00    -0.205 OA 
BRANCH  27  28
HETATM   28  C   UNL     1      -9.301   8.796  69.369  1.00  0.00    -0.157 A  
HETATM   29  C   UNL     1     -11.147   7.231  69.470  1.00  0.00    -0.129 A  
HETATM   30  C   UNL     1      -8.712   7.978  68.390  1.00  0.00    -0.130 A  
HETATM   31  C   UNL     1     -10.539   8.407  69.906  1.00  0.00    -0.228 A  
HETATM   32  C   UNL     1     -10.544   6.423  68.503  1.00  0.00    -0.302 A  
HETATM   33  C   UNL     1      -9.319   6.801  67.966  1.00  0.00    -0.118 A  
BRANCH  31  34
HETATM   34  O   UNL     1     -11.195   9.017  70.944  1.00  0.00    -0.257 OA 
BRANCH  34  35
HETATM   35  C   UNL     1     -12.619   9.129  70.831  1.00  0.00    -0.062 C  
HETATM   36  C   UNL     1     -13.356   8.217  71.806  1.00  0.00    -0.352 C  
HETATM   37  F   UNL     1     -12.542   7.612  72.696  1.00  0.00    -0.160 F  
HETATM   38  F   UNL     1     -14.292   8.902  72.504  1.00  0.00    -0.484 F  
HETATM   39  F   UNL     1     -14.012   7.233  71.133  1.00  0.00    -0.470 F  
ENDBRANCH  34  35
ENDBRANCH  31  34
ENDBRANCH  27  28
ENDBRANCH  26  27
ENDBRANCH  25  26
ENDBRANCH  23  25
ENDBRANCH   2  23
TORSDOF 13
ENDMDL
MODEL      282
REMARK 921   NORMALIZED FREE ENERGY PREDICTED BY IDOCK:   -3.94 KCAL/MOL
REMARK 922        TOTAL FREE ENERGY PREDICTED BY IDOCK:  -10.09 KCAL/MOL
REMARK 923 INTER-LIGAND FREE ENERGY PREDICTED BY IDOCK:   -8.28 KCAL/MOL
REMARK 924 INTRA-LIGAND FREE ENERGY PREDICTED BY IDOCK:   -1.82 KCAL/MOL
REMARK 927      BINDING AFFINITY PREDICTED BY RF-SCORE:    0.00 PKD
ROOT
HETATM    1  C   UNL     1     -12.496  13.901  65.679  1.00  0.00    -0.538 C  
HETATM    2  C   UNL     1     -11.751  13.243  66.847  1.00  0.00    -0.388 C  
ENDROOT
BRANCH   2   3
HETATM    3  C   UNL     1     -11.776  14.112  68.125  1.00  0.00    -0.390 C  
BRANCH   3   4
HETATM    4  C   UNL     1     -10.697  15.156  68.161  1.00  0.00    -0.254 A  
HETATM    5  C   UNL     1     -10.877  16.367  67.484  1.00  0.00    -0.249 A  
HETATM    6  C   UNL     1      -6.650  17.240  69.277  1.00  0.00    -0.237 A  
HETATM    7  C   UNL     1      -9.511  14.943  68.849  1.00  0.00    -0.209 A  
HETATM    8  C   UNL     1      -8.561  15.956  68.859  1.00  0.00    -0.221 A  
HETATM    9  C   UNL     1      -9.917  17.409  67.520  1.00  0.00    -0.298 A  
HETATM   10  C   UNL     1      -8.715  17.200  68.205  1.00  0.00    -0.241 A  
HETATM   11  C   UNL     1      -7.245  15.864  69.557  1.00  0.00    -0.174 A  
HETATM   12  N   UNL     1      -7.580  17.967  68.403  1.00  0.00    -0.272 NA 
BRANCH  12  13
HETATM   13  C   UNL     1      -7.274  19.334  68.031  1.00  0.00    -0.258 C  
BRANCH  13  14
HETATM   14  C   UNL     1      -5.879  19.453  67.412  1.00  0.00    -0.186 C  
BRANCH  14  15
HETATM   15  C   UNL     1      -5.883  19.376  65.891  1.00  0.00    -0.170 C  
HETATM   16  O   UNL     1      -7.132  18.841  65.452  1.00  0.00    -0.505 OA 
HETATM   17  H   UNL     1      -7.134  18.793  64.503  1.00  0.00     0.000 HD 
ENDBRANCH  14  15
ENDBRANCH  13  14
ENDBRANCH  12  13
BRANCH   9  18
HETATM   18  C   UNL     1     -10.322  18.619  66.758  1.00  0.00    -0.407 C  
HETATM   19  N   UNL     1     -10.908  19.628  67.489  1.00  0.00    -0.413 N  
HETATM   20  O   UNL     1     -10.214  18.735  65.542  1.00  0.00    -0.459 OA 
HETATM   21  H2  UNL     1     -11.055  19.549  68.495  1.00  0.00     0.000 HD 
HETATM   22  H1  UNL     1     -11.186  20.459  66.966  1.00  0.00     0.000 HD 
ENDBRANCH   9  18
ENDBRANCH   3   4
ENDBRANCH   2   3
BRANCH   2  23
HETATM   23  N   UNL     1     -10.372  12.955  66.415  1.00  0.00    -0.263 NA 
HETATM   24  H   UNL     1      -9.701  13.425  67.022  1.00  0.00     0.000 HD 
BRANCH  23  25
HETATM   25  C   UNL     1     -10.062  11.519  66.315  1.00  0.00    -0.226 C  
BRANCH  25  26
HETATM   26  C   UNL     1     -10.201  10.747  67.645  1.00  0.00    -0.189 C  
BRANCH  26  27
HETATM   27  O   UNL     1      -9.130   9.818  67.858  1.00  0.00    -0.122 OA 
BRANCH  27  28
HETATM   28  C   UNL     1      -9.476   8.532  68.187  1.00  0.00    -0.141 A  
HETATM   29  C   UNL     1      -9.357   6.174  67.645  1.00  0.00    -0.112 A  
HETATM   30  C   UNL     1     -10.371   8.209  69.222  1.00  0.00    -0.222 A  
HETATM   31  C   UNL     1      -8.967   7.489  67.396  1.00  0.00    -0.126 A  
HETATM   32  C   UNL     1     -10.255   5.870  68.670  1.00  0.00    -0.243 A  
HETATM   33  C   UNL     1     -10.764   6.896  69.458  1.00  0.00    -0.276 A  
BRANCH  31  34
HETATM   34  O   UNL     1      -8.183   7.632  66.281  1.00  0.00    -0.109 OA 
BRANCH  34  35
HETATM   35  C   UNL     1      -8.852   7.611  65.014  1.00  0.00     0.282 C  
HETATM   36  C   UNL     1      -8.489   8.808  64.142  1.00  0.00    -0.108 C  
HETATM   37  F   UNL     1      -7.491   9.560  64.651  1.00  0.00    -0.100 F  
HETATM   38  F   UNL     1      -8.117   8.414  62.901  1.00  0.00    -0.144 F  
HETATM   39  F   UNL     1      -9.565   9.626  63.986  1.00  0.00    -0.308 F  
ENDBRANCH  34  35
ENDBRANCH  31  34
ENDBRANCH  27  28
ENDBRANCH  26  27
ENDBRANCH  25  26
ENDBRANCH  23  25
ENDBRANCH   2  23
TORSDOF 13
ENDMDL
MODEL      283
REMARK 921   NORMALIZED FREE ENERGY PREDICTED BY IDOCK:   -3.93 KCAL/MOL
REMARK 922        TOTAL FREE ENERGY PREDICTED BY IDOCK:  -10.08 KCAL/MOL
REMARK 923 INTER-LIGAND FREE ENERGY PREDICTED BY IDOCK:   -8.17 KCAL/MOL
REMARK 924 INTRA-LIGAND FREE ENERGY PREDICTED BY IDOCK:   -1.91 KCAL/MOL
REMARK 927      BINDING AFFINITY PREDICTED BY RF-SCORE:    0.00 PKD
ROOT
HETATM    1  C   UNL     1     -11.650  11.246  69.579  1.00  0.00    -0.398 C  
HETATM    2  C   UNL     1     -10.655  10.983  68.441  1.00  0.00    -0.193 C  
ENDROOT
BRANCH   2   3
HETATM    3  C   UNL     1     -10.923   9.641  67.723  1.00  0.00    -0.203 C  
BRANCH   3   4
HETATM    4  C   UNL     1     -10.430   8.445  68.485  1.00  0.00    -0.201 A  
HETATM    5  C   UNL     1      -9.344   7.708  67.998  1.00  0.00    -0.144 A  
HETATM    6  C   UNL     1     -10.113   5.246  71.895  1.00  0.00    -0.197 A  
HETATM    7  C   UNL     1     -11.036   8.042  69.667  1.00  0.00    -0.106 A  
HETATM    8  C   UNL     1     -10.519   6.938  70.333  1.00  0.00    -0.229 A  
HETATM    9  C   UNL     1      -8.803   6.600  68.695  1.00  0.00    -0.122 A  
HETATM   10  C   UNL     1      -9.412   6.183  69.884  1.00  0.00    -0.152 A  
HETATM   11  C   UNL     1     -11.070   6.397  71.610  1.00  0.00    -0.314 A  
HETATM   12  N   UNL     1      -9.173   5.148  70.771  1.00  0.00    -0.141 NA 
BRANCH  12  13
HETATM   13  C   UNL     1      -8.113   4.160  70.823  1.00  0.00    -0.063 C  
BRANCH  13  14
HETATM   14  C   UNL     1      -8.669   2.734  70.825  1.00  0.00    -0.130 C  
BRANCH  14  15
HETATM   15  C   UNL     1      -8.759   2.116  69.436  1.00  0.00    -0.072 C  
HETATM   16  O   UNL     1      -9.517   2.980  68.588  1.00  0.00    -0.181 OA 
HETATM   17  H   UNL     1      -9.573   2.595  67.721  1.00  0.00     0.000 HD 
ENDBRANCH  14  15
ENDBRANCH  13  14
ENDBRANCH  12  13
BRANCH   9  18
HETATM   18  C   UNL     1      -7.634   5.982  68.017  1.00  0.00    -0.093 C  
HETATM   19  N   UNL     1      -6.467   6.714  68.033  1.00  0.00    -0.053 N  
HETATM   20  O   UNL     1      -7.672   4.915  67.416  1.00  0.00    -0.089 OA 
HETATM   21  H2  UNL     1      -6.409   7.626  68.485  1.00  0.00     0.000 HD 
HETATM   22  H1  UNL     1      -5.664   6.290  67.567  1.00  0.00     0.000 HD 
ENDBRANCH   9  18
ENDBRANCH   3   4
ENDBRANCH   2   3
BRANCH   2  23
HETATM   23  N   UNL     1      -9.291  11.038  68.996  1.00  0.00    -0.360 NA 
HETATM   24  H   UNL     1      -8.855  10.117  68.965  1.00  0.00     0.000 HD 
BRANCH  23  25
HETATM   25  C   UNL     1      -8.423  12.042  68.358  1.00  0.00    -0.147 C  
BRANCH  25  26
HETATM   26  C   UNL     1      -8.626  12.177  66.833  1.00  0.00    -0.191 C  
BRANCH  26  27
HETATM   27  O   UNL     1      -9.372  13.349  66.478  1.00  0.00    -0.256 OA 
BRANCH  27  28
HETATM   28  C   UNL     1     -10.278  13.224  65.455  1.00  0.00    -0.290 A  
HETATM   29  C   UNL     1     -12.126  14.192  64.224  1.00  0.00    -0.471 A  
HETATM   30  C   UNL     1     -10.443  12.048  64.702  1.00  0.00    -0.338 A  
HETATM   31  C   UNL     1     -11.137  14.305  65.200  1.00  0.00    -0.352 A  
HETATM   32  C   UNL     1     -12.284  13.013  63.491  1.00  0.00    -0.580 A  
HETATM   33  C   UNL     1     -11.438  11.938  63.737  1.00  0.00    -0.542 A  
BRANCH  31  34
HETATM   34  O   UNL     1     -11.194  15.475  65.912  1.00  0.00    -0.254 OA 
BRANCH  34  35
HETATM   35  C   UNL     1     -10.402  16.566  65.428  1.00  0.00    -0.221 C  
HETATM   36  C   UNL     1      -9.588  17.232  66.532  1.00  0.00    -0.273 C  
HETATM   37  F   UNL     1      -9.636  16.572  67.708  1.00  0.00    -0.224 F  
HETATM   38  F   UNL     1      -8.287  17.350  66.178  1.00  0.00    -0.277 F  
HETATM   39  F   UNL     1     -10.045  18.493  66.765  1.00  0.00    -0.307 F  
ENDBRANCH  34  35
ENDBRANCH  31  34
ENDBRANCH  27  28
ENDBRANCH  26  27
ENDBRANCH  25  26
ENDBRANCH  23  25
ENDBRANCH   2  23
TORSDOF 13
ENDMDL
MODEL      284
REMARK 921   NORMALIZED FREE ENERGY PREDICTED BY IDOCK:   -3.92 KCAL/MOL
REMARK 922        TOTAL FREE ENERGY PREDICTED BY IDOCK:  -10.07 KCAL/MOL
REMARK 923 INTER-LIGAND FREE ENERGY PREDICTED BY IDOCK:   -7.87 KCAL/MOL
REMARK 924 INTRA-LIGAND FREE ENERGY PREDICTED BY IDOCK:   -2.20 KCAL/MOL
REMARK 927      BINDING AFFINITY PREDICTED BY RF-SCORE:    0.00 PKD
ROOT
HETATM    1  C   UNL     1      -7.933  14.197  68.608  1.00  0.00    -0.132 C  
HETATM    2  C   UNL     1      -8.615  12.861  68.286  1.00  0.00    -0.170 C  
ENDROOT
BRANCH   2   3
HETATM    3  C   UNL     1      -8.523  12.501  66.786  1.00  0.00    -0.073 C  
BRANCH   3   4
HETATM    4  C   UNL     1      -8.533  11.022  66.523  1.00  0.00    -0.161 A  
HETATM    5  C   UNL     1      -8.195  10.538  65.255  1.00  0.00    -0.146 A  
HETATM    6  C   UNL     1      -8.959   6.427  67.344  1.00  0.00    -0.109 A  
HETATM    7  C   UNL     1      -8.883  10.116  67.515  1.00  0.00    -0.126 A  
HETATM    8  C   UNL     1      -8.854   8.761  67.213  1.00  0.00    -0.141 A  
HETATM    9  C   UNL     1      -8.139   9.153  64.959  1.00  0.00    -0.130 A  
HETATM   10  C   UNL     1      -8.496   8.233  65.951  1.00  0.00    -0.140 A  
HETATM   11  C   UNL     1      -9.204   7.679  68.180  1.00  0.00    -0.138 A  
HETATM   12  N   UNL     1      -8.589   6.852  65.988  1.00  0.00    -0.142 NA 
BRANCH  12  13
HETATM   13  C   UNL     1      -8.245   5.845  65.004  1.00  0.00    -0.138 C  
BRANCH  13  14
HETATM   14  C   UNL     1      -7.410   4.717  65.617  1.00  0.00    -0.077 C  
BRANCH  14  15
HETATM   15  C   UNL     1      -5.912   4.984  65.582  1.00  0.00    -0.022 C  
HETATM   16  O   UNL     1      -5.666   6.177  64.836  1.00  0.00    -0.020 OA 
HETATM   17  H   UNL     1      -4.731   6.344  64.814  1.00  0.00     0.000 HD 
ENDBRANCH  14  15
ENDBRANCH  13  14
ENDBRANCH  12  13
BRANCH   9  18
HETATM   18  C   UNL     1      -7.728   8.858  63.562  1.00  0.00    -0.128 C  
HETATM   19  N   UNL     1      -8.748   8.649  62.661  1.00  0.00    -0.427 N  
HETATM   20  O   UNL     1      -6.563   8.740  63.198  1.00  0.00    -0.090 OA 
HETATM   21  H2  UNL     1      -9.728   8.694  62.936  1.00  0.00     0.000 HD 
HETATM   22  H1  UNL     1      -8.465   8.446  61.701  1.00  0.00     0.000 HD 
ENDBRANCH   9  18
ENDBRANCH   3   4
ENDBRANCH   2   3
BRANCH   2  23
HETATM   23  N   UNL     1     -10.015  12.933  68.742  1.00  0.00    -0.415 NA 
HETATM   24  H   UNL     1     -10.234  12.141  69.346  1.00  0.00     0.000 HD 
BRANCH  23  25
HETATM   25  C   UNL     1     -10.367  14.201  69.402  1.00  0.00     0.081 C  
BRANCH  25  26
HETATM   26  C   UNL     1     -11.831  14.641  69.188  1.00  0.00    -0.312 C  
BRANCH  26  27
HETATM   27  O   UNL     1     -11.936  15.875  68.465  1.00  0.00    -0.306 OA 
BRANCH  27  28
HETATM   28  C   UNL     1     -10.845  16.260  67.728  1.00  0.00    -0.315 A  
HETATM   29  C   UNL     1      -9.453  15.892  65.780  1.00  0.00    -0.316 A  
HETATM   30  C   UNL     1      -9.924  17.234  68.153  1.00  0.00    -0.303 A  
HETATM   31  C   UNL     1     -10.595  15.589  66.520  1.00  0.00    -0.307 A  
HETATM   32  C   UNL     1      -8.542  16.855  66.221  1.00  0.00    -0.319 A  
HETATM   33  C   UNL     1      -8.782  17.524  67.415  1.00  0.00    -0.231 A  
BRANCH  31  34
HETATM   34  O   UNL     1     -11.317  14.538  66.018  1.00  0.00    -0.333 OA 
BRANCH  34  35
HETATM   35  C   UNL     1     -10.871  13.984  64.774  1.00  0.00    -0.419 C  
HETATM   36  C   UNL     1     -11.842  12.950  64.213  1.00  0.00    -0.395 C  
HETATM   37  F   UNL     1     -13.004  12.877  64.898  1.00  0.00    -0.511 F  
HETATM   38  F   UNL     1     -12.143  13.211  62.920  1.00  0.00    -0.591 F  
HETATM   39  F   UNL     1     -11.285  11.709  64.242  1.00  0.00    -0.367 F  
ENDBRANCH  34  35
ENDBRANCH  31  34
ENDBRANCH  27  28
ENDBRANCH  26  27
ENDBRANCH  25  26
ENDBRANCH  23  25
ENDBRANCH   2  23
TORSDOF 13
ENDMDL
MODEL      285
REMARK 921   NORMALIZED FREE ENERGY PREDICTED BY IDOCK:   -3.92 KCAL/MOL
REMARK 922        TOTAL FREE ENERGY PREDICTED BY IDOCK:  -10.07 KCAL/MOL
REMARK 923 INTER-LIGAND FREE ENERGY PREDICTED BY IDOCK:   -8.07 KCAL/MOL
REMARK 924 INTRA-LIGAND FREE ENERGY PREDICTED BY IDOCK:   -1.99 KCAL/MOL
REMARK 927      BINDING AFFINITY PREDICTED BY RF-SCORE:    0.00 PKD
ROOT
HETATM    1  C   UNL     1      -8.184  13.650  68.267  1.00  0.00    -0.156 C  
HETATM    2  C   UNL     1      -8.956  12.371  68.616  1.00  0.00     0.036 C  
ENDROOT
BRANCH   2   3
HETATM    3  C   UNL     1      -9.038  11.389  67.425  1.00  0.00    -0.160 C  
BRANCH   3   4
HETATM    4  C   UNL     1      -9.034   9.945  67.838  1.00  0.00    -0.129 A  
HETATM    5  C   UNL     1      -8.056   9.477  68.723  1.00  0.00    -0.096 A  
HETATM    6  C   UNL     1     -10.401   5.474  68.156  1.00  0.00    -0.176 A  
HETATM    7  C   UNL     1      -9.980   9.054  67.352  1.00  0.00    -0.266 A  
HETATM    8  C   UNL     1      -9.933   7.736  67.788  1.00  0.00    -0.220 A  
HETATM    9  C   UNL     1      -8.029   8.138  69.187  1.00  0.00    -0.113 A  
HETATM   10  C   UNL     1      -8.974   7.231  68.697  1.00  0.00    -0.128 A  
HETATM   11  C   UNL     1     -10.885   6.674  67.349  1.00  0.00    -0.434 A  
HETATM   12  N   UNL     1      -9.204   5.881  68.902  1.00  0.00    -0.119 NA 
BRANCH  12  13
HETATM   13  C   UNL     1      -8.576   4.932  69.800  1.00  0.00    -0.086 C  
BRANCH  13  14
HETATM   14  C   UNL     1      -9.614   4.083  70.539  1.00  0.00    -0.261 C  
BRANCH  14  15
HETATM   15  C   UNL     1     -10.153   4.745  71.799  1.00  0.00    -0.193 C  
HETATM   16  O   UNL     1      -9.432   5.955  72.037  1.00  0.00    -0.151 OA 
HETATM   17  H   UNL     1      -9.770   6.368  72.824  1.00  0.00     0.000 HD 
ENDBRANCH  14  15
ENDBRANCH  13  14
ENDBRANCH  12  13
BRANCH   9  18
HETATM   18  C   UNL     1      -6.926   7.861  70.143  1.00  0.00    -0.049 C  
HETATM   19  N   UNL     1      -7.083   8.369  71.414  1.00  0.00    -0.067 N  
HETATM   20  O   UNL     1      -5.892   7.271  69.850  1.00  0.00    -0.023 OA 
HETATM   21  H2  UNL     1      -7.909   8.903  71.682  1.00  0.00     0.000 HD 
HETATM   22  H1  UNL     1      -6.326   8.179  72.071  1.00  0.00     0.000 HD 
ENDBRANCH   9  18
ENDBRANCH   3   4
ENDBRANCH   2   3
BRANCH   2  23
HETATM   23  N   UNL     1     -10.296  12.755  69.096  1.00  0.00    -0.426 NA 
HETATM   24  H   UNL     1     -10.546  12.215  69.924  1.00  0.00     0.000 HD 
BRANCH  23  25
HETATM   25  C   UNL     1     -10.452  14.196  69.350  1.00  0.00     0.022 C  
BRANCH  25  26
HETATM   26  C   UNL     1     -11.897  14.716  69.186  1.00  0.00    -0.312 C  
BRANCH  26  27
HETATM   27  O   UNL     1     -11.959  15.950  68.460  1.00  0.00    -0.306 OA 
BRANCH  27  28
HETATM   28  C   UNL     1     -10.828  16.335  67.787  1.00  0.00    -0.315 A  
HETATM   29  C   UNL     1      -9.396  16.052  65.854  1.00  0.00    -0.335 A  
HETATM   30  C   UNL     1      -9.873  17.223  68.315  1.00  0.00    -0.304 A  
HETATM   31  C   UNL     1     -10.574  15.751  66.535  1.00  0.00    -0.306 A  
HETATM   32  C   UNL     1      -8.452  16.928  66.396  1.00  0.00    -0.325 A  
HETATM   33  C   UNL     1      -8.696  17.511  67.634  1.00  0.00    -0.223 A  
BRANCH  31  34
HETATM   34  O   UNL     1     -11.332  14.782  65.930  1.00  0.00    -0.339 OA 
BRANCH  34  35
HETATM   35  C   UNL     1     -10.649  13.891  65.040  1.00  0.00    -0.404 C  
HETATM   36  C   UNL     1     -11.569  12.815  64.471  1.00  0.00    -0.347 C  
HETATM   37  F   UNL     1     -12.870  13.006  64.775  1.00  0.00    -0.467 F  
HETATM   38  F   UNL     1     -11.467  12.746  63.124  1.00  0.00    -0.537 F  
HETATM   39  F   UNL     1     -11.223  11.590  64.953  1.00  0.00    -0.358 F  
ENDBRANCH  34  35
ENDBRANCH  31  34
ENDBRANCH  27  28
ENDBRANCH  26  27
ENDBRANCH  25  26
ENDBRANCH  23  25
ENDBRANCH   2  23
TORSDOF 13
ENDMDL
MODEL      286
REMARK 921   NORMALIZED FREE ENERGY PREDICTED BY IDOCK:   -3.91 KCAL/MOL
REMARK 922        TOTAL FREE ENERGY PREDICTED BY IDOCK:  -10.05 KCAL/MOL
REMARK 923 INTER-LIGAND FREE ENERGY PREDICTED BY IDOCK:   -8.51 KCAL/MOL
REMARK 924 INTRA-LIGAND FREE ENERGY PREDICTED BY IDOCK:   -1.54 KCAL/MOL
REMARK 927      BINDING AFFINITY PREDICTED BY RF-SCORE:    0.00 PKD
ROOT
HETATM    1  C   UNL     1     -11.995  11.849  65.017  1.00  0.00    -0.150 C  
HETATM    2  C   UNL     1     -10.542  11.587  65.432  1.00  0.00    -0.282 C  
ENDROOT
BRANCH   2   3
HETATM    3  C   UNL     1     -10.365  11.553  66.967  1.00  0.00    -0.254 C  
BRANCH   3   4
HETATM    4  C   UNL     1      -9.901  10.222  67.487  1.00  0.00    -0.204 A  
HETATM    5  C   UNL     1      -8.600  10.083  67.982  1.00  0.00    -0.121 A  
HETATM    6  C   UNL     1     -10.056   5.705  68.728  1.00  0.00    -0.186 A  
HETATM    7  C   UNL     1     -10.737   9.114  67.481  1.00  0.00    -0.255 A  
HETATM    8  C   UNL     1     -10.253   7.918  67.993  1.00  0.00    -0.256 A  
HETATM    9  C   UNL     1      -8.120   8.867  68.529  1.00  0.00    -0.108 A  
HETATM   10  C   UNL     1      -8.953   7.744  68.521  1.00  0.00    -0.133 A  
HETATM   11  C   UNL     1     -11.041   6.651  68.048  1.00  0.00    -0.296 A  
HETATM   12  N   UNL     1      -8.795   6.430  68.927  1.00  0.00    -0.125 NA 
BRANCH  12  13
HETATM   13  C   UNL     1      -7.702   5.768  69.613  1.00  0.00    -0.091 C  
BRANCH  13  14
HETATM   14  C   UNL     1      -6.989   4.765  68.702  1.00  0.00    -0.052 C  
BRANCH  14  15
HETATM   15  C   UNL     1      -5.487   4.696  68.936  1.00  0.00    -0.012 C  
HETATM   16  O   UNL     1      -5.199   3.604  69.811  1.00  0.00    -0.007 OA 
HETATM   17  H   UNL     1      -4.261   3.561  69.957  1.00  0.00     0.000 HD 
ENDBRANCH  14  15
ENDBRANCH  13  14
ENDBRANCH  12  13
BRANCH   9  18
HETATM   18  C   UNL     1      -6.721   8.948  69.025  1.00  0.00    -0.052 C  
HETATM   19  N   UNL     1      -5.736   8.965  68.062  1.00  0.00    -0.039 N  
HETATM   20  O   UNL     1      -6.409   8.944  70.211  1.00  0.00    -0.036 OA 
HETATM   21  H2  UNL     1      -5.955   8.924  67.067  1.00  0.00     0.000 HD 
HETATM   22  H1  UNL     1      -4.776   9.020  68.402  1.00  0.00     0.000 HD 
ENDBRANCH   9  18
ENDBRANCH   3   4
ENDBRANCH   2   3
BRANCH   2  23
HETATM   23  N   UNL     1      -9.689  12.616  64.811  1.00  0.00    -0.501 NA 
HETATM   24  H   UNL     1      -9.177  12.226  64.020  1.00  0.00     0.000 HD 
BRANCH  23  25
HETATM   25  C   UNL     1     -10.413  13.833  64.409  1.00  0.00    -0.241 C  
BRANCH  25  26
HETATM   26  C   UNL     1     -10.203  15.036  65.354  1.00  0.00    -0.381 C  
BRANCH  26  27
HETATM   27  O   UNL     1     -11.381  15.358  66.106  1.00  0.00    -0.233 OA 
BRANCH  27  28
HETATM   28  C   UNL     1     -11.233  15.510  67.461  1.00  0.00    -0.272 A  
HETATM   29  C   UNL     1     -10.356  16.830  69.293  1.00  0.00    -0.309 A  
HETATM   30  C   UNL     1     -11.611  14.532  68.399  1.00  0.00    -0.356 A  
HETATM   31  C   UNL     1     -10.600  16.673  67.930  1.00  0.00    -0.342 A  
HETATM   32  C   UNL     1     -10.728  15.845  70.211  1.00  0.00    -0.313 A  
HETATM   33  C   UNL     1     -11.355  14.691  69.756  1.00  0.00    -0.315 A  
BRANCH  31  34
HETATM   34  O   UNL     1     -10.063  17.667  67.154  1.00  0.00    -0.304 OA 
BRANCH  34  35
HETATM   35  C   UNL     1     -10.729  18.935  67.177  1.00  0.00    -0.432 C  
HETATM   36  C   UNL     1      -9.925  20.004  67.909  1.00  0.00    -0.422 C  
HETATM   37  F   UNL     1      -8.679  19.604  68.243  1.00  0.00    -0.345 F  
HETATM   38  F   UNL     1      -9.810  21.127  67.163  1.00  0.00    -0.596 F  
HETATM   39  F   UNL     1     -10.550  20.364  69.062  1.00  0.00    -0.493 F  
ENDBRANCH  34  35
ENDBRANCH  31  34
ENDBRANCH  27  28
ENDBRANCH  26  27
ENDBRANCH  25  26
ENDBRANCH  23  25
ENDBRANCH   2  23
TORSDOF 13
ENDMDL
MODEL      287
REMARK 921   NORMALIZED FREE ENERGY PREDICTED BY IDOCK:   -3.91 KCAL/MOL
REMARK 922        TOTAL FREE ENERGY PREDICTED BY IDOCK:  -10.05 KCAL/MOL
REMARK 923 INTER-LIGAND FREE ENERGY PREDICTED BY IDOCK:   -8.65 KCAL/MOL
REMARK 924 INTRA-LIGAND FREE ENERGY PREDICTED BY IDOCK:   -1.40 KCAL/MOL
REMARK 927      BINDING AFFINITY PREDICTED BY RF-SCORE:    0.00 PKD
ROOT
HETATM    1  C   UNL     1     -12.030   6.686  71.111  1.00  0.00    -0.412 C  
HETATM    2  C   UNL     1     -11.348   8.059  71.152  1.00  0.00    -0.266 C  
ENDROOT
BRANCH   2   3
HETATM    3  C   UNL     1     -10.522   8.344  69.878  1.00  0.00    -0.222 C  
BRANCH   3   4
HETATM    4  C   UNL     1     -10.828   9.675  69.250  1.00  0.00    -0.227 A  
HETATM    5  C   UNL     1     -11.321  10.719  70.040  1.00  0.00    -0.397 A  
HETATM    6  C   UNL     1     -11.170  12.994  65.959  1.00  0.00    -0.292 A  
HETATM    7  C   UNL     1     -10.640   9.892  67.892  1.00  0.00    -0.303 A  
HETATM    8  C   UNL     1     -10.924  11.150  67.378  1.00  0.00    -0.347 A  
HETATM    9  C   UNL     1     -11.582  12.010  69.516  1.00  0.00    -0.389 A  
HETATM   10  C   UNL     1     -11.403  12.236  68.147  1.00  0.00    -0.295 A  
HETATM   11  C   UNL     1     -10.769  11.522  65.942  1.00  0.00    -0.325 A  
HETATM   12  N   UNL     1     -11.595  13.332  67.324  1.00  0.00    -0.338 NA 
BRANCH  12  13
HETATM   13  C   UNL     1     -11.975  14.698  67.625  1.00  0.00    -0.274 C  
BRANCH  13  14
HETATM   14  C   UNL     1     -10.855  15.684  67.284  1.00  0.00    -0.298 C  
BRANCH  14  15
HETATM   15  C   UNL     1     -10.798  16.884  68.219  1.00  0.00    -0.357 C  
HETATM   16  O   UNL     1     -10.073  16.526  69.397  1.00  0.00    -0.264 OA 
HETATM   17  H   UNL     1     -10.037  17.275  69.980  1.00  0.00     0.000 HD 
ENDBRANCH  14  15
ENDBRANCH  13  14
ENDBRANCH  12  13
BRANCH   9  18
HETATM   18  C   UNL     1     -12.070  12.978  70.533  1.00  0.00    -0.292 C  
HETATM   19  N   UNL     1     -13.052  12.521  71.383  1.00  0.00    -0.287 N  
HETATM   20  O   UNL     1     -11.692  14.141  70.612  1.00  0.00    -0.277 OA 
HETATM   21  H2  UNL     1     -13.423  11.574  71.318  1.00  0.00     0.000 HD 
HETATM   22  H1  UNL     1     -13.388  13.186  72.081  1.00  0.00     0.000 HD 
ENDBRANCH   9  18
ENDBRANCH   3   4
ENDBRANCH   2   3
BRANCH   2  23
HETATM   23  N   UNL     1     -10.515   8.127  72.366  1.00  0.00    -0.293 NA 
HETATM   24  H   UNL     1     -10.618   7.277  72.918  1.00  0.00     0.000 HD 
BRANCH  23  25
HETATM   25  C   UNL     1      -9.093   8.405  72.102  1.00  0.00    -0.239 C  
BRANCH  25  26
HETATM   26  C   UNL     1      -8.252   7.151  71.778  1.00  0.00    -0.105 C  
BRANCH  26  27
HETATM   27  O   UNL     1      -8.044   6.315  72.924  1.00  0.00    -0.108 OA 
BRANCH  27  28
HETATM   28  C   UNL     1      -8.962   5.320  73.144  1.00  0.00    -0.118 A  
HETATM   29  C   UNL     1     -10.250   3.480  72.235  1.00  0.00    -0.180 A  
HETATM   30  C   UNL     1      -9.669   5.167  74.350  1.00  0.00    -0.180 A  
HETATM   31  C   UNL     1      -9.265   4.455  72.080  1.00  0.00    -0.127 A  
HETATM   32  C   UNL     1     -10.951   3.348  73.436  1.00  0.00    -0.306 A  
HETATM   33  C   UNL     1     -10.657   4.200  74.494  1.00  0.00    -0.229 A  
BRANCH  31  34
HETATM   34  O   UNL     1      -8.762   4.535  70.808  1.00  0.00    -0.089 OA 
BRANCH  34  35
HETATM   35  C   UNL     1      -9.550   3.950  69.764  1.00  0.00    -0.201 C  
HETATM   36  C   UNL     1      -9.626   4.833  68.523  1.00  0.00    -0.156 C  
HETATM   37  F   UNL     1      -8.809   5.907  68.577  1.00  0.00    -0.112 F  
HETATM   38  F   UNL     1      -9.315   4.136  67.406  1.00  0.00    -0.140 F  
HETATM   39  F   UNL     1     -10.891   5.304  68.351  1.00  0.00    -0.207 F  
ENDBRANCH  34  35
ENDBRANCH  31  34
ENDBRANCH  27  28
ENDBRANCH  26  27
ENDBRANCH  25  26
ENDBRANCH  23  25
ENDBRANCH   2  23
TORSDOF 13
ENDMDL
MODEL      288
REMARK 921   NORMALIZED FREE ENERGY PREDICTED BY IDOCK:   -3.91 KCAL/MOL
REMARK 922        TOTAL FREE ENERGY PREDICTED BY IDOCK:  -10.05 KCAL/MOL
REMARK 923 INTER-LIGAND FREE ENERGY PREDICTED BY IDOCK:   -8.25 KCAL/MOL
REMARK 924 INTRA-LIGAND FREE ENERGY PREDICTED BY IDOCK:   -1.80 KCAL/MOL
REMARK 927      BINDING AFFINITY PREDICTED BY RF-SCORE:    0.00 PKD
ROOT
HETATM    1  C   UNL     1      -6.215  11.604  66.893  1.00  0.00    -0.149 C  
HETATM    2  C   UNL     1      -7.472  10.838  67.326  1.00  0.00    -0.101 C  
ENDROOT
BRANCH   2   3
HETATM    3  C   UNL     1      -8.437  10.577  66.148  1.00  0.00    -0.154 C  
BRANCH   3   4
HETATM    4  C   UNL     1      -8.343   9.184  65.594  1.00  0.00    -0.131 A  
HETATM    5  C   UNL     1      -8.951   8.122  66.272  1.00  0.00    -0.215 A  
HETATM    6  C   UNL     1      -7.241   5.698  62.661  1.00  0.00    -0.046 A  
HETATM    7  C   UNL     1      -7.652   8.920  64.419  1.00  0.00    -0.114 A  
HETATM    8  C   UNL     1      -7.619   7.613  63.951  1.00  0.00    -0.118 A  
HETATM    9  C   UNL     1      -8.939   6.795  65.776  1.00  0.00    -0.043 A  
HETATM   10  C   UNL     1      -8.239   6.519  64.596  1.00  0.00    -0.052 A  
HETATM   11  C   UNL     1      -6.916   7.188  62.705  1.00  0.00    -0.061 A  
HETATM   12  N   UNL     1      -7.997   5.363  63.874  1.00  0.00    -0.105 NA 
BRANCH  12  13
HETATM   13  C   UNL     1      -8.482   4.008  64.050  1.00  0.00    -0.096 C  
BRANCH  13  14
HETATM   14  C   UNL     1      -9.356   3.563  62.874  1.00  0.00    -0.097 C  
BRANCH  14  15
HETATM   15  C   UNL     1     -10.668   2.921  63.303  1.00  0.00    -0.235 C  
HETATM   16  O   UNL     1     -11.101   3.515  64.528  1.00  0.00    -0.618 OA 
HETATM   17  H   UNL     1     -11.920   3.114  64.796  1.00  0.00     0.000 HD 
ENDBRANCH  14  15
ENDBRANCH  13  14
ENDBRANCH  12  13
BRANCH   9  18
HETATM   18  C   UNL     1      -9.671   5.830  66.637  1.00  0.00    -0.157 C  
HETATM   19  N   UNL     1     -10.977   5.573  66.285  1.00  0.00    -0.751 N  
HETATM   20  O   UNL     1      -9.201   5.312  67.643  1.00  0.00    -0.112 OA 
HETATM   21  H2  UNL     1     -11.416   6.019  65.480  1.00  0.00     0.000 HD 
HETATM   22  H1  UNL     1     -11.480   4.910  66.876  1.00  0.00     0.000 HD 
ENDBRANCH   9  18
ENDBRANCH   3   4
ENDBRANCH   2   3
BRANCH   2  23
HETATM   23  N   UNL     1      -8.128  11.596  68.407  1.00  0.00    -0.148 NA 
HETATM   24  H   UNL     1      -7.775  12.552  68.438  1.00  0.00     0.000 HD 
BRANCH  23  25
HETATM   25  C   UNL     1      -9.598  11.589  68.337  1.00  0.00    -0.195 C  
BRANCH  25  26
HETATM   26  C   UNL     1     -10.237  12.994  68.290  1.00  0.00    -0.246 C  
BRANCH  26  27
HETATM   27  O   UNL     1      -9.657  13.830  67.281  1.00  0.00    -0.224 OA 
BRANCH  27  28
HETATM   28  C   UNL     1     -10.446  14.145  66.203  1.00  0.00    -0.296 A  
HETATM   29  C   UNL     1     -11.383  15.868  64.782  1.00  0.00    -0.314 A  
HETATM   30  C   UNL     1     -11.231  13.204  65.514  1.00  0.00    -0.305 A  
HETATM   31  C   UNL     1     -10.530  15.493  65.820  1.00  0.00    -0.361 A  
HETATM   32  C   UNL     1     -12.165  14.924  64.113  1.00  0.00    -0.280 A  
HETATM   33  C   UNL     1     -12.087  13.587  64.487  1.00  0.00    -0.460 A  
BRANCH  31  34
HETATM   34  O   UNL     1      -9.931  16.550  66.453  1.00  0.00    -0.271 OA 
BRANCH  34  35
HETATM   35  C   UNL     1     -10.212  17.857  65.936  1.00  0.00    -0.224 C  
HETATM   36  C   UNL     1     -10.148  18.937  67.011  1.00  0.00    -0.354 C  
HETATM   37  F   UNL     1      -9.678  18.489  68.195  1.00  0.00    -0.289 F  
HETATM   38  F   UNL     1      -9.365  19.970  66.621  1.00  0.00    -0.387 F  
HETATM   39  F   UNL     1     -11.386  19.451  67.243  1.00  0.00    -0.542 F  
ENDBRANCH  34  35
ENDBRANCH  31  34
ENDBRANCH  27  28
ENDBRANCH  26  27
ENDBRANCH  25  26
ENDBRANCH  23  25
ENDBRANCH   2  23
TORSDOF 13
ENDMDL
MODEL      289
REMARK 921   NORMALIZED FREE ENERGY PREDICTED BY IDOCK:   -3.90 KCAL/MOL
REMARK 922        TOTAL FREE ENERGY PREDICTED BY IDOCK:  -10.04 KCAL/MOL
REMARK 923 INTER-LIGAND FREE ENERGY PREDICTED BY IDOCK:   -8.66 KCAL/MOL
REMARK 924 INTRA-LIGAND FREE ENERGY PREDICTED BY IDOCK:   -1.38 KCAL/MOL
REMARK 927      BINDING AFFINITY PREDICTED BY RF-SCORE:    0.00 PKD
ROOT
HETATM    1  C   UNL     1      -7.608   9.589  64.748  1.00  0.00    -0.112 C  
HETATM    2  C   UNL     1      -8.767   9.980  65.674  1.00  0.00    -0.155 C  
ENDROOT
BRANCH   2   3
HETATM    3  C   UNL     1      -8.279  10.668  66.970  1.00  0.00    -0.124 C  
BRANCH   3   4
HETATM    4  C   UNL     1      -8.395  12.165  66.933  1.00  0.00    -0.151 A  
HETATM    5  C   UNL     1      -9.556  12.761  66.430  1.00  0.00    -0.254 A  
HETATM    6  C   UNL     1      -7.250  16.666  67.560  1.00  0.00    -0.145 A  
HETATM    7  C   UNL     1      -7.364  12.979  67.382  1.00  0.00    -0.122 A  
HETATM    8  C   UNL     1      -7.542  14.356  67.339  1.00  0.00    -0.196 A  
HETATM    9  C   UNL     1      -9.744  14.166  66.413  1.00  0.00    -0.313 A  
HETATM   10  C   UNL     1      -8.708  14.994  66.858  1.00  0.00    -0.256 A  
HETATM   11  C   UNL     1      -6.521  15.346  67.788  1.00  0.00    -0.183 A  
HETATM   12  N   UNL     1      -8.547  16.366  66.940  1.00  0.00    -0.195 NA 
BRANCH  12  13
HETATM   13  C   UNL     1      -9.467  17.454  66.670  1.00  0.00    -0.274 C  
BRANCH  13  14
HETATM   14  C   UNL     1      -9.480  18.478  67.808  1.00  0.00    -0.308 C  
BRANCH  14  15
HETATM   15  C   UNL     1     -10.609  19.493  67.696  1.00  0.00    -0.440 C  
HETATM   16  O   UNL     1     -10.611  20.321  68.861  1.00  0.00    -0.443 OA 
HETATM   17  H   UNL     1     -11.316  20.955  68.791  1.00  0.00     0.000 HD 
ENDBRANCH  14  15
ENDBRANCH  13  14
ENDBRANCH  12  13
BRANCH   9  18
HETATM   18  C   UNL     1     -11.061  14.584  65.866  1.00  0.00    -0.327 C  
HETATM   19  N   UNL     1     -11.032  15.267  64.670  1.00  0.00    -0.642 N  
HETATM   20  O   UNL     1     -12.132  14.406  66.436  1.00  0.00    -0.414 OA 
HETATM   21  H2  UNL     1     -10.157  15.473  64.189  1.00  0.00     0.000 HD 
HETATM   22  H1  UNL     1     -11.936  15.554  64.294  1.00  0.00     0.000 HD 
ENDBRANCH   9  18
ENDBRANCH   3   4
ENDBRANCH   2   3
BRANCH   2  23
HETATM   23  N   UNL     1      -9.555   8.770  65.966  1.00  0.00    -0.361 NA 
HETATM   24  H   UNL     1      -8.941   7.970  66.115  1.00  0.00     0.000 HD 
BRANCH  23  25
HETATM   25  C   UNL     1     -10.491   8.920  67.093  1.00  0.00    -0.274 C  
BRANCH  25  26
HETATM   26  C   UNL     1     -10.355   7.832  68.180  1.00  0.00    -0.200 C  
BRANCH  26  27
HETATM   27  O   UNL     1      -9.221   6.981  67.968  1.00  0.00    -0.131 OA 
BRANCH  27  28
HETATM   28  C   UNL     1      -9.263   5.733  68.538  1.00  0.00    -0.121 A  
HETATM   29  C   UNL     1      -9.007   4.379  70.530  1.00  0.00    -0.155 A  
HETATM   30  C   UNL     1      -9.429   4.548  67.800  1.00  0.00    -0.196 A  
HETATM   31  C   UNL     1      -9.053   5.633  69.922  1.00  0.00    -0.136 A  
HETATM   32  C   UNL     1      -9.163   3.209  69.782  1.00  0.00    -0.220 A  
HETATM   33  C   UNL     1      -9.371   3.300  68.410  1.00  0.00    -0.241 A  
BRANCH  31  34
HETATM   34  O   UNL     1      -8.758   6.669  70.770  1.00  0.00    -0.141 OA 
BRANCH  34  35
HETATM   35  C   UNL     1      -9.569   6.794  71.944  1.00  0.00    -0.148 C  
HETATM   36  C   UNL     1      -9.785   8.247  72.354  1.00  0.00    -0.303 C  
HETATM   37  F   UNL     1      -9.321   9.134  71.449  1.00  0.00    -0.292 F  
HETATM   38  F   UNL     1     -11.098   8.509  72.552  1.00  0.00    -0.399 F  
HETATM   39  F   UNL     1      -9.152   8.509  73.530  1.00  0.00    -0.289 F  
ENDBRANCH  34  35
ENDBRANCH  31  34
ENDBRANCH  27  28
ENDBRANCH  26  27
ENDBRANCH  25  26
ENDBRANCH  23  25
ENDBRANCH   2  23
TORSDOF 13
ENDMDL
MODEL      290
REMARK 921   NORMALIZED FREE ENERGY PREDICTED BY IDOCK:   -3.89 KCAL/MOL
REMARK 922        TOTAL FREE ENERGY PREDICTED BY IDOCK:  -10.01 KCAL/MOL
REMARK 923 INTER-LIGAND FREE ENERGY PREDICTED BY IDOCK:   -8.65 KCAL/MOL
REMARK 924 INTRA-LIGAND FREE ENERGY PREDICTED BY IDOCK:   -1.35 KCAL/MOL
REMARK 927      BINDING AFFINITY PREDICTED BY RF-SCORE:    0.00 PKD
ROOT
HETATM    1  C   UNL     1     -12.119  13.389  67.684  1.00  0.00    -0.311 C  
HETATM    2  C   UNL     1     -10.656  13.848  67.637  1.00  0.00    -0.245 C  
ENDROOT
BRANCH   2   3
HETATM    3  C   UNL     1     -10.320  14.610  66.335  1.00  0.00    -0.293 C  
BRANCH   3   4
HETATM    4  C   UNL     1      -9.392  15.773  66.544  1.00  0.00    -0.312 A  
HETATM    5  C   UNL     1      -9.917  17.050  66.770  1.00  0.00    -0.297 A  
HETATM    6  C   UNL     1      -5.382  18.144  67.054  1.00  0.00    -0.134 A  
HETATM    7  C   UNL     1      -8.014  15.612  66.510  1.00  0.00    -0.097 A  
HETATM    8  C   UNL     1      -7.212  16.724  66.729  1.00  0.00    -0.270 A  
HETATM    9  C   UNL     1      -9.095  18.177  67.022  1.00  0.00    -0.263 A  
HETATM   10  C   UNL     1      -7.705  18.025  66.982  1.00  0.00    -0.216 A  
HETATM   11  C   UNL     1      -5.720  16.695  66.721  1.00  0.00    -0.042 A  
HETATM   12  N   UNL     1      -6.641  18.896  67.139  1.00  0.00    -0.199 NA 
BRANCH  12  13
HETATM   13  C   UNL     1      -6.601  20.299  67.503  1.00  0.00    -0.234 C  
BRANCH  13  14
HETATM   14  C   UNL     1      -6.872  20.503  68.995  1.00  0.00     0.000 C  
BRANCH  14  15
HETATM   15  C   UNL     1      -5.608  20.695  69.821  1.00  0.00    -0.359 C  
HETATM   16  O   UNL     1      -5.955  20.744  71.206  1.00  0.00    -0.580 OA 
HETATM   17  H   UNL     1      -5.166  20.864  71.721  1.00  0.00     0.000 HD 
ENDBRANCH  14  15
ENDBRANCH  13  14
ENDBRANCH  12  13
BRANCH   9  18
HETATM   18  C   UNL     1      -9.858  19.429  67.266  1.00  0.00    -0.344 C  
HETATM   19  N   UNL     1      -9.862  20.347  66.240  1.00  0.00    -0.636 N  
HETATM   20  O   UNL     1     -10.419  19.698  68.322  1.00  0.00    -0.424 OA 
HETATM   21  H2  UNL     1      -9.369  20.178  65.363  1.00  0.00     0.000 HD 
HETATM   22  H1  UNL     1     -10.385  21.207  66.408  1.00  0.00     0.000 HD 
ENDBRANCH   9  18
ENDBRANCH   3   4
ENDBRANCH   2   3
BRANCH   2  23
HETATM   23  N   UNL     1      -9.793  12.666  67.812  1.00  0.00    -0.206 NA 
HETATM   24  H   UNL     1     -10.140  12.079  68.570  1.00  0.00     0.000 HD 
BRANCH  23  25
HETATM   25  C   UNL     1      -9.607  11.873  66.586  1.00  0.00    -0.209 C  
BRANCH  25  26
HETATM   26  C   UNL     1     -10.437  10.572  66.541  1.00  0.00    -0.212 C  
BRANCH  26  27
HETATM   27  O   UNL     1      -9.669   9.415  66.899  1.00  0.00    -0.163 OA 
BRANCH  27  28
HETATM   28  C   UNL     1     -10.160   8.629  67.910  1.00  0.00    -0.203 A  
HETATM   29  C   UNL     1     -10.946   6.449  68.616  1.00  0.00    -0.404 A  
HETATM   30  C   UNL     1     -10.533   9.129  69.171  1.00  0.00    -0.230 A  
HETATM   31  C   UNL     1     -10.372   7.267  67.644  1.00  0.00    -0.227 A  
HETATM   32  C   UNL     1     -11.321   6.962  69.860  1.00  0.00    -0.321 A  
HETATM   33  C   UNL     1     -11.114   8.310  70.133  1.00  0.00    -0.189 A  
BRANCH  31  34
HETATM   34  O   UNL     1     -10.179   6.642  66.439  1.00  0.00    -0.095 OA 
BRANCH  34  35
HETATM   35  C   UNL     1     -10.597   5.275  66.347  1.00  0.00    -0.276 C  
HETATM   36  C   UNL     1      -9.696   4.449  65.435  1.00  0.00    -0.197 C  
HETATM   37  F   UNL     1      -8.591   5.110  65.028  1.00  0.00    -0.129 F  
HETATM   38  F   UNL     1      -9.292   3.311  66.046  1.00  0.00    -0.147 F  
HETATM   39  F   UNL     1     -10.369   4.072  64.314  1.00  0.00    -0.192 F  
ENDBRANCH  34  35
ENDBRANCH  31  34
ENDBRANCH  27  28
ENDBRANCH  26  27
ENDBRANCH  25  26
ENDBRANCH  23  25
ENDBRANCH   2  23
TORSDOF 13
ENDMDL
MODEL      291
REMARK 921   NORMALIZED FREE ENERGY PREDICTED BY IDOCK:   -3.88 KCAL/MOL
REMARK 922        TOTAL FREE ENERGY PREDICTED BY IDOCK:   -9.99 KCAL/MOL
REMARK 923 INTER-LIGAND FREE ENERGY PREDICTED BY IDOCK:   -8.13 KCAL/MOL
REMARK 924 INTRA-LIGAND FREE ENERGY PREDICTED BY IDOCK:   -1.87 KCAL/MOL
REMARK 927      BINDING AFFINITY PREDICTED BY RF-SCORE:    0.00 PKD
ROOT
HETATM    1  C   UNL     1     -12.615   8.849  71.977  1.00  0.00    -0.460 C  
HETATM    2  C   UNL     1     -11.850   9.578  70.865  1.00  0.00    -0.309 C  
ENDROOT
BRANCH   2   3
HETATM    3  C   UNL     1     -10.320   9.540  71.080  1.00  0.00    -0.353 C  
BRANCH   3   4
HETATM    4  C   UNL     1      -9.597   8.677  70.086  1.00  0.00    -0.181 A  
HETATM    5  C   UNL     1      -9.447   7.308  70.333  1.00  0.00    -0.165 A  
HETATM    6  C   UNL     1      -7.297   7.467  66.186  1.00  0.00    -0.082 A  
HETATM    7  C   UNL     1      -9.060   9.211  68.923  1.00  0.00    -0.139 A  
HETATM    8  C   UNL     1      -8.419   8.355  68.037  1.00  0.00    -0.132 A  
HETATM    9  C   UNL     1      -8.817   6.433  69.412  1.00  0.00    -0.132 A  
HETATM   10  C   UNL     1      -8.267   6.964  68.241  1.00  0.00    -0.123 A  
HETATM   11  C   UNL     1      -7.798   8.791  66.752  1.00  0.00    -0.097 A  
HETATM   12  N   UNL     1      -7.570   6.418  67.177  1.00  0.00    -0.094 NA 
BRANCH  12  13
HETATM   13  C   UNL     1      -7.239   5.043  66.857  1.00  0.00    -0.077 C  
BRANCH  13  14
HETATM   14  C   UNL     1      -8.416   4.317  66.200  1.00  0.00    -0.112 C  
BRANCH  14  15
HETATM   15  C   UNL     1      -8.297   4.215  64.686  1.00  0.00    -0.104 C  
HETATM   16  O   UNL     1      -9.318   5.009  64.081  1.00  0.00    -0.358 OA 
HETATM   17  H   UNL     1      -9.244   4.945  63.136  1.00  0.00     0.000 HD 
ENDBRANCH  14  15
ENDBRANCH  13  14
ENDBRANCH  12  13
BRANCH   9  18
HETATM   18  C   UNL     1      -8.794   5.016  69.858  1.00  0.00    -0.102 C  
HETATM   19  N   UNL     1      -9.889   4.254  69.516  1.00  0.00    -0.199 N  
HETATM   20  O   UNL     1      -7.902   4.523  70.540  1.00  0.00    -0.053 OA 
HETATM   21  H2  UNL     1     -10.671   4.641  68.988  1.00  0.00     0.000 HD 
HETATM   22  H1  UNL     1      -9.873   3.281  69.822  1.00  0.00     0.000 HD 
ENDBRANCH   9  18
ENDBRANCH   3   4
ENDBRANCH   2   3
BRANCH   2  23
HETATM   23  N   UNL     1     -12.353  10.961  70.786  1.00  0.00    -0.357 NA 
HETATM   24  H   UNL     1     -12.342  11.398  71.707  1.00  0.00     0.000 HD 
BRANCH  23  25
HETATM   25  C   UNL     1     -11.645  11.802  69.806  1.00  0.00    -0.299 C  
BRANCH  25  26
HETATM   26  C   UNL     1     -11.906  11.416  68.334  1.00  0.00    -0.274 C  
BRANCH  26  27
HETATM   27  O   UNL     1     -10.849  11.834  67.460  1.00  0.00    -0.217 OA 
BRANCH  27  28
HETATM   28  C   UNL     1     -11.176  12.729  66.472  1.00  0.00    -0.307 A  
HETATM   29  C   UNL     1     -11.008  14.988  65.615  1.00  0.00    -0.357 A  
HETATM   30  C   UNL     1     -12.075  12.442  65.430  1.00  0.00    -0.428 A  
HETATM   31  C   UNL     1     -10.639  14.024  66.552  1.00  0.00    -0.279 A  
HETATM   32  C   UNL     1     -11.911  14.691  64.591  1.00  0.00    -0.472 A  
HETATM   33  C   UNL     1     -12.447  13.411  64.505  1.00  0.00    -0.359 A  
BRANCH  31  34
HETATM   34  O   UNL     1      -9.847  14.508  67.560  1.00  0.00    -0.220 OA 
BRANCH  34  35
HETATM   35  C   UNL     1      -9.396  15.862  67.434  1.00  0.00    -0.210 C  
HETATM   36  C   UNL     1      -9.286  16.568  68.781  1.00  0.00    -0.252 C  
HETATM   37  F   UNL     1      -9.467  15.746  69.836  1.00  0.00    -0.272 F  
HETATM   38  F   UNL     1      -8.078  17.162  68.925  1.00  0.00    -0.247 F  
HETATM   39  F   UNL     1     -10.219  17.553  68.879  1.00  0.00    -0.303 F  
ENDBRANCH  34  35
ENDBRANCH  31  34
ENDBRANCH  27  28
ENDBRANCH  26  27
ENDBRANCH  25  26
ENDBRANCH  23  25
ENDBRANCH   2  23
TORSDOF 13
ENDMDL
MODEL      292
REMARK 921   NORMALIZED FREE ENERGY PREDICTED BY IDOCK:   -3.86 KCAL/MOL
REMARK 922        TOTAL FREE ENERGY PREDICTED BY IDOCK:   -9.97 KCAL/MOL
REMARK 923 INTER-LIGAND FREE ENERGY PREDICTED BY IDOCK:   -8.91 KCAL/MOL
REMARK 924 INTRA-LIGAND FREE ENERGY PREDICTED BY IDOCK:   -1.05 KCAL/MOL
REMARK 927      BINDING AFFINITY PREDICTED BY RF-SCORE:    0.00 PKD
ROOT
HETATM    1  C   UNL     1      -7.169  14.700  69.879  1.00  0.00    -0.003 C  
HETATM    2  C   UNL     1      -6.338  13.665  69.111  1.00  0.00    -0.103 C  
ENDROOT
BRANCH   2   3
HETATM    3  C   UNL     1      -6.199  14.015  67.612  1.00  0.00    -0.108 C  
BRANCH   3   4
HETATM    4  C   UNL     1      -6.951  15.253  67.215  1.00  0.00    -0.152 A  
HETATM    5  C   UNL     1      -8.311  15.169  66.898  1.00  0.00    -0.267 A  
HETATM    6  C   UNL     1      -7.782  19.775  66.307  1.00  0.00    -0.319 A  
HETATM    7  C   UNL     1      -6.322  16.488  67.144  1.00  0.00    -0.220 A  
HETATM    8  C   UNL     1      -7.078  17.596  66.788  1.00  0.00    -0.239 A  
HETATM    9  C   UNL     1      -9.086  16.308  66.562  1.00  0.00    -0.302 A  
HETATM   10  C   UNL     1      -8.458  17.555  66.482  1.00  0.00    -0.268 A  
HETATM   11  C   UNL     1      -6.533  18.981  66.673  1.00  0.00    -0.202 A  
HETATM   12  N   UNL     1      -8.893  18.828  66.154  1.00  0.00    -0.474 NA 
BRANCH  12  13
HETATM   13  C   UNL     1     -10.218  19.338  65.861  1.00  0.00    -0.362 C  
BRANCH  13  14
HETATM   14  C   UNL     1     -11.025  19.584  67.139  1.00  0.00    -0.459 C  
BRANCH  14  15
HETATM   15  C   UNL     1     -10.160  19.734  68.382  1.00  0.00    -0.454 C  
HETATM   16  O   UNL     1     -10.243  18.538  69.158  1.00  0.00    -0.477 OA 
HETATM   17  H   UNL     1      -9.703  18.632  69.934  1.00  0.00     0.000 HD 
ENDBRANCH  14  15
ENDBRANCH  13  14
ENDBRANCH  12  13
BRANCH   9  18
HETATM   18  C   UNL     1     -10.514  15.998  66.292  1.00  0.00    -0.320 C  
HETATM   19  N   UNL     1     -11.352  15.999  67.385  1.00  0.00    -0.088 N  
HETATM   20  O   UNL     1     -10.957  15.698  65.189  1.00  0.00    -0.384 OA 
HETATM   21  H2  UNL     1     -11.011  16.199  68.325  1.00  0.00     0.000 HD 
HETATM   22  H1  UNL     1     -12.332  15.786  67.200  1.00  0.00     0.000 HD 
ENDBRANCH   9  18
ENDBRANCH   3   4
ENDBRANCH   2   3
BRANCH   2  23
HETATM   23  N   UNL     1      -6.954  12.340  69.304  1.00  0.00    -0.284 NA 
HETATM   24  H   UNL     1      -6.995  12.105  70.295  1.00  0.00     0.000 HD 
BRANCH  23  25
HETATM   25  C   UNL     1      -8.282  12.200  68.684  1.00  0.00    -0.033 C  
BRANCH  25  26
HETATM   26  C   UNL     1      -8.414  10.990  67.734  1.00  0.00    -0.122 C  
BRANCH  26  27
HETATM   27  O   UNL     1      -9.089   9.882  68.344  1.00  0.00    -0.122 OA 
BRANCH  27  28
HETATM   28  C   UNL     1     -10.175  10.170  69.131  1.00  0.00    -0.214 A  
HETATM   29  C   UNL     1     -11.343   9.818  71.224  1.00  0.00    -0.445 A  
HETATM   30  C   UNL     1     -11.277  10.925  68.689  1.00  0.00    -0.326 A  
HETATM   31  C   UNL     1     -10.221   9.617  70.421  1.00  0.00    -0.288 A  
HETATM   32  C   UNL     1     -12.434  10.561  70.767  1.00  0.00    -0.472 A  
HETATM   33  C   UNL     1     -12.397  11.113  69.492  1.00  0.00    -0.262 A  
BRANCH  31  34
HETATM   34  O   UNL     1      -9.297   8.764  70.965  1.00  0.00    -0.181 OA 
BRANCH  34  35
HETATM   35  C   UNL     1      -9.286   8.649  72.393  1.00  0.00    -0.214 C  
HETATM   36  C   UNL     1      -9.488   7.213  72.865  1.00  0.00    -0.151 C  
HETATM   37  F   UNL     1      -9.468   6.310  71.861  1.00  0.00    -0.153 F  
HETATM   38  F   UNL     1      -8.539   6.854  73.761  1.00  0.00    -0.134 F  
HETATM   39  F   UNL     1     -10.687   7.083  73.493  1.00  0.00    -0.310 F  
ENDBRANCH  34  35
ENDBRANCH  31  34
ENDBRANCH  27  28
ENDBRANCH  26  27
ENDBRANCH  25  26
ENDBRANCH  23  25
ENDBRANCH   2  23
TORSDOF 13
ENDMDL
MODEL      293
REMARK 921   NORMALIZED FREE ENERGY PREDICTED BY IDOCK:   -3.86 KCAL/MOL
REMARK 922        TOTAL FREE ENERGY PREDICTED BY IDOCK:   -9.95 KCAL/MOL
REMARK 923 INTER-LIGAND FREE ENERGY PREDICTED BY IDOCK:   -8.59 KCAL/MOL
REMARK 924 INTRA-LIGAND FREE ENERGY PREDICTED BY IDOCK:   -1.36 KCAL/MOL
REMARK 927      BINDING AFFINITY PREDICTED BY RF-SCORE:    0.00 PKD
ROOT
HETATM    1  C   UNL     1      -9.582   8.243  70.667  1.00  0.00    -0.190 C  
HETATM    2  C   UNL     1     -11.024   8.309  70.147  1.00  0.00    -0.222 C  
ENDROOT
BRANCH   2   3
HETATM    3  C   UNL     1     -11.923   9.215  71.019  1.00  0.00    -0.344 C  
BRANCH   3   4
HETATM    4  C   UNL     1     -11.936  10.650  70.577  1.00  0.00    -0.446 A  
HETATM    5  C   UNL     1     -11.402  11.000  69.332  1.00  0.00    -0.352 A  
HETATM    6  C   UNL     1     -12.783  15.258  70.674  1.00  0.00    -0.416 A  
HETATM    7  C   UNL     1     -12.463  11.649  71.384  1.00  0.00    -0.314 A  
HETATM    8  C   UNL     1     -12.462  12.953  70.908  1.00  0.00    -0.383 A  
HETATM    9  C   UNL     1     -11.429  12.328  68.839  1.00  0.00    -0.355 A  
HETATM   10  C   UNL     1     -11.951  13.342  69.649  1.00  0.00    -0.324 A  
HETATM   11  C   UNL     1     -12.996  14.122  71.668  1.00  0.00    -0.423 A  
HETATM   12  N   UNL     1     -12.092  14.711  69.499  1.00  0.00    -0.307 NA 
BRANCH  12  13
HETATM   13  C   UNL     1     -11.820  15.581  68.373  1.00  0.00    -0.224 C  
BRANCH  13  14
HETATM   14  C   UNL     1     -10.847  16.703  68.746  1.00  0.00    -0.331 C  
BRANCH  14  15
HETATM   15  C   UNL     1      -9.974  17.159  67.586  1.00  0.00    -0.283 C  
HETATM   16  O   UNL     1     -10.516  18.361  67.037  1.00  0.00    -0.383 OA 
HETATM   17  H   UNL     1      -9.970  18.646  66.313  1.00  0.00     0.000 HD 
ENDBRANCH  14  15
ENDBRANCH  13  14
ENDBRANCH  12  13
BRANCH   9  18
HETATM   18  C   UNL     1     -10.836  12.473  67.484  1.00  0.00    -0.232 C  
HETATM   19  N   UNL     1     -11.725  12.499  66.433  1.00  0.00    -0.394 N  
HETATM   20  O   UNL     1      -9.631  12.511  67.260  1.00  0.00    -0.197 OA 
HETATM   21  H2  UNL     1     -12.731  12.424  66.576  1.00  0.00     0.000 HD 
HETATM   22  H1  UNL     1     -11.318  12.598  65.502  1.00  0.00     0.000 HD 
ENDBRANCH   9  18
ENDBRANCH   3   4
ENDBRANCH   2   3
BRANCH   2  23
HETATM   23  N   UNL     1     -11.552   6.936  70.067  1.00  0.00    -0.550 NA 
HETATM   24  H   UNL     1     -12.525   6.909  70.368  1.00  0.00     0.000 HD 
BRANCH  23  25
HETATM   25  C   UNL     1     -11.404   6.312  68.741  1.00  0.00    -0.134 C  
BRANCH  25  26
HETATM   26  C   UNL     1     -10.038   5.629  68.512  1.00  0.00    -0.182 C  
BRANCH  26  27
HETATM   27  O   UNL     1      -9.360   6.129  67.352  1.00  0.00    -0.116 OA 
BRANCH  27  28
HETATM   28  C   UNL     1      -8.157   5.550  67.036  1.00  0.00    -0.101 A  
HETATM   29  C   UNL     1      -6.721   4.605  65.329  1.00  0.00    -0.049 A  
HETATM   30  C   UNL     1      -7.207   5.159  67.996  1.00  0.00    -0.067 A  
HETATM   31  C   UNL     1      -7.896   5.266  65.686  1.00  0.00    -0.100 A  
HETATM   32  C   UNL     1      -5.792   4.213  66.295  1.00  0.00    -0.023 A  
HETATM   33  C   UNL     1      -6.043   4.491  67.634  1.00  0.00    -0.028 A  
BRANCH  31  34
HETATM   34  O   UNL     1      -8.757   5.469  64.638  1.00  0.00    -0.117 OA 
BRANCH  34  35
HETATM   35  C   UNL     1      -9.012   4.346  63.786  1.00  0.00    -0.143 C  
HETATM   36  C   UNL     1     -10.287   3.601  64.168  1.00  0.00    -0.246 C  
HETATM   37  F   UNL     1     -11.014   4.230  65.115  1.00  0.00    -0.310 F  
HETATM   38  F   UNL     1     -11.086   3.415  63.091  1.00  0.00    -0.194 F  
HETATM   39  F   UNL     1      -9.988   2.364  64.651  1.00  0.00    -0.113 F  
ENDBRANCH  34  35
ENDBRANCH  31  34
ENDBRANCH  27  28
ENDBRANCH  26  27
ENDBRANCH  25  26
ENDBRANCH  23  25
ENDBRANCH   2  23
TORSDOF 13
ENDMDL
MODEL      294
REMARK 921   NORMALIZED FREE ENERGY PREDICTED BY IDOCK:   -3.86 KCAL/MOL
REMARK 922        TOTAL FREE ENERGY PREDICTED BY IDOCK:   -9.95 KCAL/MOL
REMARK 923 INTER-LIGAND FREE ENERGY PREDICTED BY IDOCK:   -8.38 KCAL/MOL
REMARK 924 INTRA-LIGAND FREE ENERGY PREDICTED BY IDOCK:   -1.58 KCAL/MOL
REMARK 927      BINDING AFFINITY PREDICTED BY RF-SCORE:    0.00 PKD
ROOT
HETATM    1  C   UNL     1     -11.787  12.099  67.554  1.00  0.00    -0.307 C  
HETATM    2  C   UNL     1     -10.288  12.134  67.227  1.00  0.00    -0.212 C  
ENDROOT
BRANCH   2   3
HETATM    3  C   UNL     1      -9.479  11.116  68.062  1.00  0.00    -0.174 C  
BRANCH   3   4
HETATM    4  C   UNL     1      -9.481   9.730  67.482  1.00  0.00    -0.170 A  
HETATM    5  C   UNL     1      -8.685   9.440  66.370  1.00  0.00    -0.149 A  
HETATM    6  C   UNL     1     -10.520   5.187  66.990  1.00  0.00    -0.196 A  
HETATM    7  C   UNL     1     -10.269   8.723  68.023  1.00  0.00    -0.264 A  
HETATM    8  C   UNL     1     -10.211   7.459  67.452  1.00  0.00    -0.315 A  
HETATM    9  C   UNL     1      -8.607   8.141  65.808  1.00  0.00    -0.175 A  
HETATM   10  C   UNL     1      -9.402   7.122  66.342  1.00  0.00    -0.143 A  
HETATM   11  C   UNL     1     -11.001   6.287  67.930  1.00  0.00    -0.421 A  
HETATM   12  N   UNL     1      -9.596   5.790  66.021  1.00  0.00    -0.102 NA 
BRANCH  12  13
HETATM   13  C   UNL     1      -8.947   4.939  65.043  1.00  0.00    -0.147 C  
BRANCH  13  14
HETATM   14  C   UNL     1      -8.371   3.675  65.687  1.00  0.00    -0.105 C  
BRANCH  14  15
HETATM   15  C   UNL     1      -8.728   2.398  64.940  1.00  0.00    -0.111 C  
HETATM   16  O   UNL     1     -10.150   2.299  64.834  1.00  0.00    -0.332 OA 
HETATM   17  H   UNL     1     -10.372   1.502  64.367  1.00  0.00     0.000 HD 
ENDBRANCH  14  15
ENDBRANCH  13  14
ENDBRANCH  12  13
BRANCH   9  18
HETATM   18  C   UNL     1      -7.678   8.047  64.652  1.00  0.00    -0.126 C  
HETATM   19  N   UNL     1      -6.371   7.727  64.948  1.00  0.00    -0.044 N  
HETATM   20  O   UNL     1      -7.995   8.287  63.492  1.00  0.00    -0.150 OA 
HETATM   21  H2  UNL     1      -6.060   7.564  65.905  1.00  0.00     0.000 HD 
HETATM   22  H1  UNL     1      -5.733   7.662  64.154  1.00  0.00     0.000 HD 
ENDBRANCH   9  18
ENDBRANCH   3   4
ENDBRANCH   2   3
BRANCH   2  23
HETATM   23  N   UNL     1      -9.802  13.511  67.430  1.00  0.00    -0.224 NA 
HETATM   24  H   UNL     1      -8.984  13.514  68.039  1.00  0.00     0.000 HD 
BRANCH  23  25
HETATM   25  C   UNL     1      -9.521  14.238  66.182  1.00  0.00    -0.222 C  
BRANCH  25  26
HETATM   26  C   UNL     1     -10.608  15.261  65.785  1.00  0.00    -0.347 C  
BRANCH  26  27
HETATM   27  O   UNL     1     -10.077  16.575  65.571  1.00  0.00    -0.535 OA 
BRANCH  27  28
HETATM   28  C   UNL     1      -9.116  17.009  66.449  1.00  0.00    -0.270 A  
HETATM   29  C   UNL     1      -8.569  17.744  68.691  1.00  0.00    -0.264 A  
HETATM   30  C   UNL     1      -7.799  17.322  66.067  1.00  0.00    -0.210 A  
HETATM   31  C   UNL     1      -9.492  17.226  67.784  1.00  0.00    -0.255 A  
HETATM   32  C   UNL     1      -7.267  18.059  68.294  1.00  0.00    -0.248 A  
HETATM   33  C   UNL     1      -6.886  17.848  66.974  1.00  0.00    -0.204 A  
BRANCH  31  34
HETATM   34  O   UNL     1     -10.755  17.089  68.298  1.00  0.00    -0.358 OA 
BRANCH  34  35
HETATM   35  C   UNL     1     -10.861  16.522  69.610  1.00  0.00    -0.322 C  
HETATM   36  C   UNL     1     -11.925  15.432  69.691  1.00  0.00    -0.343 C  
HETATM   37  F   UNL     1     -12.440  15.094  68.490  1.00  0.00    -0.145 F  
HETATM   38  F   UNL     1     -11.432  14.307  70.259  1.00  0.00    -0.301 F  
HETATM   39  F   UNL     1     -12.964  15.840  70.469  1.00  0.00    -0.483 F  
ENDBRANCH  34  35
ENDBRANCH  31  34
ENDBRANCH  27  28
ENDBRANCH  26  27
ENDBRANCH  25  26
ENDBRANCH  23  25
ENDBRANCH   2  23
TORSDOF 13
ENDMDL
MODEL      295
REMARK 921   NORMALIZED FREE ENERGY PREDICTED BY IDOCK:   -3.85 KCAL/MOL
REMARK 922        TOTAL FREE ENERGY PREDICTED BY IDOCK:   -9.95 KCAL/MOL
REMARK 923 INTER-LIGAND FREE ENERGY PREDICTED BY IDOCK:   -9.01 KCAL/MOL
REMARK 924 INTRA-LIGAND FREE ENERGY PREDICTED BY IDOCK:   -0.94 KCAL/MOL
REMARK 927      BINDING AFFINITY PREDICTED BY RF-SCORE:    0.00 PKD
ROOT
HETATM    1  C   UNL     1     -12.617  10.427  71.466  1.00  0.00    -0.544 C  
HETATM    2  C   UNL     1     -11.681   9.892  70.374  1.00  0.00    -0.258 C  
ENDROOT
BRANCH   2   3
HETATM    3  C   UNL     1     -11.878  10.617  69.024  1.00  0.00    -0.256 C  
BRANCH   3   4
HETATM    4  C   UNL     1     -11.451  12.057  69.049  1.00  0.00    -0.357 A  
HETATM    5  C   UNL     1     -10.447  12.502  68.182  1.00  0.00    -0.238 A  
HETATM    6  C   UNL     1     -11.361  16.580  70.273  1.00  0.00    -0.055 A  
HETATM    7  C   UNL     1     -12.028  12.965  69.927  1.00  0.00    -0.377 A  
HETATM    8  C   UNL     1     -11.602  14.286  69.887  1.00  0.00    -0.337 A  
HETATM    9  C   UNL     1     -10.036  13.856  68.125  1.00  0.00    -0.240 A  
HETATM   10  C   UNL     1     -10.606  14.776  69.011  1.00  0.00    -0.248 A  
HETATM   11  C   UNL     1     -12.134  15.364  70.771  1.00  0.00    -0.413 A  
HETATM   12  N   UNL     1     -10.414  16.127  69.245  1.00  0.00    -0.246 NA 
BRANCH  12  13
HETATM   13  C   UNL     1      -9.591  17.107  68.564  1.00  0.00    -0.288 C  
BRANCH  13  14
HETATM   14  C   UNL     1     -10.278  17.645  67.306  1.00  0.00    -0.343 C  
BRANCH  14  15
HETATM   15  C   UNL     1     -10.623  19.126  67.390  1.00  0.00    -0.481 C  
HETATM   16  O   UNL     1     -10.644  19.677  66.073  1.00  0.00    -0.485 OA 
HETATM   17  H   UNL     1     -10.859  20.601  66.126  1.00  0.00     0.000 HD 
ENDBRANCH  14  15
ENDBRANCH  13  14
ENDBRANCH  12  13
BRANCH   9  18
HETATM   18  C   UNL     1      -8.979  14.116  67.113  1.00  0.00    -0.225 C  
HETATM   19  N   UNL     1      -9.416  14.375  65.833  1.00  0.00    -0.515 N  
HETATM   20  O   UNL     1      -7.777  14.058  67.342  1.00  0.00    -0.176 OA 
HETATM   21  H2  UNL     1     -10.408  14.388  65.594  1.00  0.00     0.000 HD 
HETATM   22  H1  UNL     1      -8.691  14.554  65.137  1.00  0.00     0.000 HD 
ENDBRANCH   9  18
ENDBRANCH   3   4
ENDBRANCH   2   3
BRANCH   2  23
HETATM   23  N   UNL     1     -11.900   8.440  70.247  1.00  0.00    -0.461 NA 
HETATM   24  H   UNL     1     -12.746   8.252  69.711  1.00  0.00     0.000 HD 
BRANCH  23  25
HETATM   25  C   UNL     1     -10.755   7.709  69.680  1.00  0.00    -0.228 C  
BRANCH  25  26
HETATM   26  C   UNL     1     -10.911   6.173  69.700  1.00  0.00    -0.389 C  
BRANCH  26  27
HETATM   27  O   UNL     1      -9.832   5.518  70.380  1.00  0.00    -0.175 OA 
BRANCH  27  28
HETATM   28  C   UNL     1     -10.004   5.258  71.716  1.00  0.00    -0.190 A  
HETATM   29  C   UNL     1      -9.005   5.084  73.916  1.00  0.00    -0.113 A  
HETATM   30  C   UNL     1     -11.204   4.772  72.265  1.00  0.00     0.091 A  
HETATM   31  C   UNL     1      -8.897   5.415  72.566  1.00  0.00    -0.130 A  
HETATM   32  C   UNL     1     -10.201   4.592  74.445  1.00  0.00    -0.282 A  
HETATM   33  C   UNL     1     -11.302   4.434  73.610  1.00  0.00    -0.287 A  
BRANCH  31  34
HETATM   34  O   UNL     1      -7.628   5.762  72.181  1.00  0.00    -0.097 OA 
BRANCH  34  35
HETATM   35  C   UNL     1      -7.492   6.966  71.417  1.00  0.00    -0.082 C  
HETATM   36  C   UNL     1      -7.548   8.218  72.286  1.00  0.00    -0.123 C  
HETATM   37  F   UNL     1      -7.544   7.955  73.610  1.00  0.00    -0.133 F  
HETATM   38  F   UNL     1      -6.504   9.041  72.027  1.00  0.00    -0.079 F  
HETATM   39  F   UNL     1      -8.679   8.928  72.024  1.00  0.00    -0.253 F  
ENDBRANCH  34  35
ENDBRANCH  31  34
ENDBRANCH  27  28
ENDBRANCH  26  27
ENDBRANCH  25  26
ENDBRANCH  23  25
ENDBRANCH   2  23
TORSDOF 13
ENDMDL
MODEL      296
REMARK 921   NORMALIZED FREE ENERGY PREDICTED BY IDOCK:   -3.84 KCAL/MOL
REMARK 922        TOTAL FREE ENERGY PREDICTED BY IDOCK:   -9.93 KCAL/MOL
REMARK 923 INTER-LIGAND FREE ENERGY PREDICTED BY IDOCK:   -7.66 KCAL/MOL
REMARK 924 INTRA-LIGAND FREE ENERGY PREDICTED BY IDOCK:   -2.27 KCAL/MOL
REMARK 927      BINDING AFFINITY PREDICTED BY RF-SCORE:    0.00 PKD
ROOT
HETATM    1  C   UNL     1     -11.410   7.162  71.818  1.00  0.00    -0.285 C  
HETATM    2  C   UNL     1     -11.317   8.536  71.141  1.00  0.00    -0.270 C  
ENDROOT
BRANCH   2   3
HETATM    3  C   UNL     1     -11.284   8.432  69.600  1.00  0.00     0.089 C  
BRANCH   3   4
HETATM    4  C   UNL     1     -11.142   9.760  68.912  1.00  0.00    -0.139 A  
HETATM    5  C   UNL     1     -10.517   9.833  67.663  1.00  0.00    -0.305 A  
HETATM    6  C   UNL     1     -11.557  14.364  68.144  1.00  0.00    -0.329 A  
HETATM    7  C   UNL     1     -11.611  10.928  69.496  1.00  0.00    -0.384 A  
HETATM    8  C   UNL     1     -11.465  12.120  68.800  1.00  0.00    -0.359 A  
HETATM    9  C   UNL     1     -10.395  11.048  66.943  1.00  0.00    -0.279 A  
HETATM   10  C   UNL     1     -10.860  12.231  67.527  1.00  0.00    -0.234 A  
HETATM   11  C   UNL     1     -11.923  13.447  69.307  1.00  0.00    -0.367 A  
HETATM   12  N   UNL     1     -10.864  13.558  67.131  1.00  0.00    -0.282 NA 
BRANCH  12  13
HETATM   13  C   UNL     1     -10.458  14.185  65.889  1.00  0.00    -0.306 C  
BRANCH  13  14
HETATM   14  C   UNL     1     -11.644  14.829  65.166  1.00  0.00    -0.358 C  
BRANCH  14  15
HETATM   15  C   UNL     1     -12.911  13.986  65.211  1.00  0.00    -0.384 C  
HETATM   16  O   UNL     1     -12.668  12.741  64.554  1.00  0.00    -0.655 OA 
HETATM   17  H   UNL     1     -13.459  12.215  64.582  1.00  0.00     0.000 HD 
ENDBRANCH  14  15
ENDBRANCH  13  14
ENDBRANCH  12  13
BRANCH   9  18
HETATM   18  C   UNL     1      -9.727  10.896  65.625  1.00  0.00    -0.232 C  
HETATM   19  N   UNL     1      -8.425  10.448  65.653  1.00  0.00    -0.159 N  
HETATM   20  O   UNL     1     -10.243  11.192  64.553  1.00  0.00    -0.275 OA 
HETATM   21  H2  UNL     1      -7.947  10.234  66.528  1.00  0.00     0.000 HD 
HETATM   22  H1  UNL     1      -7.966  10.343  64.748  1.00  0.00     0.000 HD 
ENDBRANCH   9  18
ENDBRANCH   3   4
ENDBRANCH   2   3
BRANCH   2  23
HETATM   23  N   UNL     1     -10.127   9.231  71.664  1.00  0.00    -0.267 NA 
HETATM   24  H   UNL     1     -10.396   9.927  72.358  1.00  0.00     0.000 HD 
BRANCH  23  25
HETATM   25  C   UNL     1      -9.096   8.331  72.206  1.00  0.00    -0.221 C  
BRANCH  25  26
HETATM   26  C   UNL     1      -7.775   8.326  71.407  1.00  0.00    -0.097 C  
BRANCH  26  27
HETATM   27  O   UNL     1      -7.801   9.229  70.294  1.00  0.00    -0.104 OA 
BRANCH  27  28
HETATM   28  C   UNL     1      -7.195   8.810  69.137  1.00  0.00    -0.067 A  
HETATM   29  C   UNL     1      -7.120   7.202  67.327  1.00  0.00    -0.084 A  
HETATM   30  C   UNL     1      -6.007   9.371  68.635  1.00  0.00    -0.044 A  
HETATM   31  C   UNL     1      -7.750   7.711  68.462  1.00  0.00    -0.119 A  
HETATM   32  C   UNL     1      -5.935   7.763  66.847  1.00  0.00    -0.047 A  
HETATM   33  C   UNL     1      -5.378   8.851  67.509  1.00  0.00    -0.034 A  
BRANCH  31  34
HETATM   34  O   UNL     1      -8.829   6.973  68.874  1.00  0.00    -0.131 OA 
BRANCH  34  35
HETATM   35  C   UNL     1      -8.577   5.611  69.240  1.00  0.00    -0.106 C  
HETATM   36  C   UNL     1      -9.739   4.688  68.889  1.00  0.00    -0.166 C  
HETATM   37  F   UNL     1     -10.701   5.289  68.156  1.00  0.00    -0.221 F  
HETATM   38  F   UNL     1      -9.313   3.604  68.199  1.00  0.00    -0.169 F  
HETATM   39  F   UNL     1     -10.334   4.221  70.020  1.00  0.00    -0.265 F  
ENDBRANCH  34  35
ENDBRANCH  31  34
ENDBRANCH  27  28
ENDBRANCH  26  27
ENDBRANCH  25  26
ENDBRANCH  23  25
ENDBRANCH   2  23
TORSDOF 13
ENDMDL
MODEL      297
REMARK 921   NORMALIZED FREE ENERGY PREDICTED BY IDOCK:   -3.83 KCAL/MOL
REMARK 922        TOTAL FREE ENERGY PREDICTED BY IDOCK:   -9.90 KCAL/MOL
REMARK 923 INTER-LIGAND FREE ENERGY PREDICTED BY IDOCK:   -8.33 KCAL/MOL
REMARK 924 INTRA-LIGAND FREE ENERGY PREDICTED BY IDOCK:   -1.57 KCAL/MOL
REMARK 927      BINDING AFFINITY PREDICTED BY RF-SCORE:    0.00 PKD
ROOT
HETATM    1  C   UNL     1     -11.448  12.716  67.487  1.00  0.00    -0.397 C  
HETATM    2  C   UNL     1     -10.334  12.378  66.488  1.00  0.00    -0.228 C  
ENDROOT
BRANCH   2   3
HETATM    3  C   UNL     1     -10.121  10.855  66.336  1.00  0.00    -0.280 C  
BRANCH   3   4
HETATM    4  C   UNL     1      -9.763  10.169  67.623  1.00  0.00    -0.187 A  
HETATM    5  C   UNL     1     -10.670   9.284  68.216  1.00  0.00    -0.195 A  
HETATM    6  C   UNL     1      -7.222   8.884  71.345  1.00  0.00    -0.078 A  
HETATM    7  C   UNL     1      -8.546  10.400  68.249  1.00  0.00    -0.128 A  
HETATM    8  C   UNL     1      -8.269   9.720  69.428  1.00  0.00    -0.135 A  
HETATM    9  C   UNL     1     -10.372   8.571  69.404  1.00  0.00    -0.218 A  
HETATM   10  C   UNL     1      -9.151   8.803  70.046  1.00  0.00    -0.160 A  
HETATM   11  C   UNL     1      -7.004   9.872  70.205  1.00  0.00    -0.138 A  
HETATM   12  N   UNL     1      -8.572   8.321  71.207  1.00  0.00    -0.135 NA 
BRANCH  12  13
HETATM   13  C   UNL     1      -9.010   7.304  72.141  1.00  0.00    -0.131 C  
BRANCH  13  14
HETATM   14  C   UNL     1      -7.905   6.283  72.425  1.00  0.00    -0.103 C  
BRANCH  14  15
HETATM   15  C   UNL     1      -7.718   5.266  71.309  1.00  0.00    -0.102 C  
HETATM   16  O   UNL     1      -8.887   5.251  70.488  1.00  0.00    -0.127 OA 
HETATM   17  H   UNL     1      -8.770   4.616  69.791  1.00  0.00     0.000 HD 
ENDBRANCH  14  15
ENDBRANCH  13  14
ENDBRANCH  12  13
BRANCH   9  18
HETATM   18  C   UNL     1     -11.463   7.663  69.843  1.00  0.00     0.081 C  
HETATM   19  N   UNL     1     -12.425   8.219  70.657  1.00  0.00    -0.448 N  
HETATM   20  O   UNL     1     -11.515   6.468  69.572  1.00  0.00    -0.371 OA 
HETATM   21  H2  UNL     1     -12.390   9.198  70.941  1.00  0.00     0.000 HD 
HETATM   22  H1  UNL     1     -13.174   7.595  70.959  1.00  0.00     0.000 HD 
ENDBRANCH   9  18
ENDBRANCH   3   4
ENDBRANCH   2   3
BRANCH   2  23
HETATM   23  N   UNL     1      -9.100  13.058  66.921  1.00  0.00    -0.228 NA 
HETATM   24  H   UNL     1      -8.328  12.830  66.296  1.00  0.00     0.000 HD 
BRANCH  23  25
HETATM   25  C   UNL     1      -9.237  14.517  67.063  1.00  0.00    -0.240 C  
BRANCH  25  26
HETATM   26  C   UNL     1      -7.923  15.245  67.417  1.00  0.00    -0.186 C  
BRANCH  26  27
HETATM   27  O   UNL     1      -7.943  16.630  67.046  1.00  0.00    -0.164 OA 
BRANCH  27  28
HETATM   28  C   UNL     1      -7.346  17.515  67.908  1.00  0.00    -0.203 A  
HETATM   29  C   UNL     1      -6.761  19.812  68.409  1.00  0.00    -0.324 A  
HETATM   30  C   UNL     1      -6.599  17.121  69.032  1.00  0.00    -0.218 A  
HETATM   31  C   UNL     1      -7.423  18.884  67.605  1.00  0.00    -0.226 A  
HETATM   32  C   UNL     1      -6.014  19.404  69.516  1.00  0.00    -0.293 A  
HETATM   33  C   UNL     1      -5.933  18.050  69.823  1.00  0.00    -0.227 A  
BRANCH  31  34
HETATM   34  O   UNL     1      -8.004  19.432  66.492  1.00  0.00    -0.268 OA 
BRANCH  34  35
HETATM   35  C   UNL     1      -9.206  20.185  66.694  1.00  0.00    -0.351 C  
HETATM   36  C   UNL     1     -10.451  19.432  66.236  1.00  0.00    -0.493 C  
HETATM   37  F   UNL     1     -10.207  18.151  65.889  1.00  0.00    -0.351 F  
HETATM   38  F   UNL     1     -11.400  19.424  67.201  1.00  0.00    -0.524 F  
HETATM   39  F   UNL     1     -11.002  20.040  65.151  1.00  0.00    -0.559 F  
ENDBRANCH  34  35
ENDBRANCH  31  34
ENDBRANCH  27  28
ENDBRANCH  26  27
ENDBRANCH  25  26
ENDBRANCH  23  25
ENDBRANCH   2  23
TORSDOF 13
ENDMDL
MODEL      298
REMARK 921   NORMALIZED FREE ENERGY PREDICTED BY IDOCK:   -3.82 KCAL/MOL
REMARK 922        TOTAL FREE ENERGY PREDICTED BY IDOCK:   -9.90 KCAL/MOL
REMARK 923 INTER-LIGAND FREE ENERGY PREDICTED BY IDOCK:   -8.60 KCAL/MOL
REMARK 924 INTRA-LIGAND FREE ENERGY PREDICTED BY IDOCK:   -1.30 KCAL/MOL
REMARK 927      BINDING AFFINITY PREDICTED BY RF-SCORE:    0.00 PKD
ROOT
HETATM    1  C   UNL     1     -11.046  11.232  67.241  1.00  0.00    -0.367 C  
HETATM    2  C   UNL     1     -10.368  12.250  68.168  1.00  0.00    -0.216 C  
ENDROOT
BRANCH   2   3
HETATM    3  C   UNL     1      -8.884  12.481  67.803  1.00  0.00    -0.178 C  
BRANCH   3   4
HETATM    4  C   UNL     1      -8.419  13.888  68.047  1.00  0.00    -0.173 A  
HETATM    5  C   UNL     1      -9.061  14.955  67.409  1.00  0.00    -0.196 A  
HETATM    6  C   UNL     1      -5.938  17.434  69.845  1.00  0.00    -0.232 A  
HETATM    7  C   UNL     1      -7.351  14.158  68.892  1.00  0.00    -0.122 A  
HETATM    8  C   UNL     1      -6.983  15.483  69.089  1.00  0.00    -0.158 A  
HETATM    9  C   UNL     1      -8.700  16.306  67.635  1.00  0.00    -0.188 A  
HETATM   10  C   UNL     1      -7.621  16.587  68.480  1.00  0.00    -0.200 A  
HETATM   11  C   UNL     1      -5.857  15.917  69.968  1.00  0.00    -0.168 A  
HETATM   12  N   UNL     1      -6.996  17.756  68.879  1.00  0.00    -0.246 NA 
BRANCH  12  13
HETATM   13  C   UNL     1      -7.317  19.146  68.622  1.00  0.00    -0.330 C  
BRANCH  13  14
HETATM   14  C   UNL     1      -6.063  19.967  68.309  1.00  0.00    -0.281 C  
BRANCH  14  15
HETATM   15  C   UNL     1      -6.345  21.212  67.479  1.00  0.00    -0.368 C  
HETATM   16  O   UNL     1      -7.676  21.141  66.966  1.00  0.00    -0.648 OA 
HETATM   17  H   UNL     1      -7.851  21.918  66.448  1.00  0.00     0.000 HD 
ENDBRANCH  14  15
ENDBRANCH  13  14
ENDBRANCH  12  13
BRANCH   9  18
HETATM   18  C   UNL     1      -9.532  17.279  66.881  1.00  0.00    -0.257 C  
HETATM   19  N   UNL     1     -10.230  18.195  67.636  1.00  0.00    -0.355 N  
HETATM   20  O   UNL     1      -9.665  17.271  65.662  1.00  0.00    -0.535 OA 
HETATM   21  H2  UNL     1     -10.179  18.204  68.655  1.00  0.00     0.000 HD 
HETATM   22  H1  UNL     1     -10.801  18.863  67.118  1.00  0.00     0.000 HD 
ENDBRANCH   9  18
ENDBRANCH   3   4
ENDBRANCH   2   3
BRANCH   2  23
HETATM   23  N   UNL     1     -10.518  11.784  69.558  1.00  0.00    -0.412 NA 
HETATM   24  H   UNL     1     -10.258  12.522  70.212  1.00  0.00     0.000 HD 
BRANCH  23  25
HETATM   25  C   UNL     1     -11.857  11.261  69.874  1.00  0.00    -0.360 C  
BRANCH  25  26
HETATM   26  C   UNL     1     -11.850   9.983  70.739  1.00  0.00    -0.346 C  
BRANCH  26  27
HETATM   27  O   UNL     1     -11.600   8.798  69.971  1.00  0.00    -0.042 OA 
BRANCH  27  28
HETATM   28  C   UNL     1     -11.263   7.664  70.666  1.00  0.00    -0.266 A  
HETATM   29  C   UNL     1     -10.105   5.537  70.682  1.00  0.00    -0.288 A  
HETATM   30  C   UNL     1     -11.788   7.344  71.931  1.00  0.00    -0.332 A  
HETATM   31  C   UNL     1     -10.408   6.740  70.046  1.00  0.00    -0.199 A  
HETATM   32  C   UNL     1     -10.642   5.228  71.934  1.00  0.00    -0.274 A  
HETATM   33  C   UNL     1     -11.490   6.138  72.556  1.00  0.00    -0.318 A  
BRANCH  31  34
HETATM   34  O   UNL     1      -9.904   6.835  68.775  1.00  0.00    -0.141 OA 
BRANCH  34  35
HETATM   35  C   UNL     1      -8.763   6.024  68.470  1.00  0.00    -0.110 C  
HETATM   36  C   UNL     1      -7.497   6.850  68.266  1.00  0.00    -0.099 C  
HETATM   37  F   UNL     1      -7.651   8.155  68.574  1.00  0.00    -0.093 F  
HETATM   38  F   UNL     1      -6.474   6.369  69.010  1.00  0.00    -0.035 F  
HETATM   39  F   UNL     1      -7.096   6.793  66.967  1.00  0.00    -0.064 F  
ENDBRANCH  34  35
ENDBRANCH  31  34
ENDBRANCH  27  28
ENDBRANCH  26  27
ENDBRANCH  25  26
ENDBRANCH  23  25
ENDBRANCH   2  23
TORSDOF 13
ENDMDL
MODEL      299
REMARK 921   NORMALIZED FREE ENERGY PREDICTED BY IDOCK:   -3.82 KCAL/MOL
REMARK 922        TOTAL FREE ENERGY PREDICTED BY IDOCK:   -9.89 KCAL/MOL
REMARK 923 INTER-LIGAND FREE ENERGY PREDICTED BY IDOCK:   -8.02 KCAL/MOL
REMARK 924 INTRA-LIGAND FREE ENERGY PREDICTED BY IDOCK:   -1.88 KCAL/MOL
REMARK 927      BINDING AFFINITY PREDICTED BY RF-SCORE:    0.00 PKD
ROOT
HETATM    1  C   UNL     1     -12.160  13.635  68.370  1.00  0.00    -0.312 C  
HETATM    2  C   UNL     1     -11.142  12.491  68.284  1.00  0.00    -0.257 C  
ENDROOT
BRANCH   2   3
HETATM    3  C   UNL     1     -11.738  11.138  68.734  1.00  0.00    -0.394 C  
BRANCH   3   4
HETATM    4  C   UNL     1     -11.001   9.947  68.191  1.00  0.00    -0.261 A  
HETATM    5  C   UNL     1     -10.860   8.798  68.976  1.00  0.00    -0.052 A  
HETATM    6  C   UNL     1      -8.640   7.263  65.160  1.00  0.00     0.061 A  
HETATM    7  C   UNL     1     -10.443   9.964  66.920  1.00  0.00    -0.284 A  
HETATM    8  C   UNL     1      -9.790   8.823  66.470  1.00  0.00    -0.349 A  
HETATM    9  C   UNL     1     -10.218   7.627  68.502  1.00  0.00    -0.220 A  
HETATM   10  C   UNL     1      -9.647   7.636  67.225  1.00  0.00    -0.157 A  
HETATM   11  C   UNL     1      -9.146   8.701  65.129  1.00  0.00    -0.045 A  
HETATM   12  N   UNL     1      -8.933   6.707  66.488  1.00  0.00    -0.140 NA 
BRANCH  12  13
HETATM   13  C   UNL     1      -8.602   5.323  66.760  1.00  0.00    -0.106 C  
BRANCH  13  14
HETATM   14  C   UNL     1      -7.159   4.998  66.367  1.00  0.00    -0.072 C  
BRANCH  14  15
HETATM   15  C   UNL     1      -7.035   3.772  65.473  1.00  0.00    -0.061 C  
HETATM   16  O   UNL     1      -8.006   3.854  64.428  1.00  0.00    -0.084 OA 
HETATM   17  H   UNL     1      -7.929   3.088  63.871  1.00  0.00     0.000 HD 
ENDBRANCH  14  15
ENDBRANCH  13  14
ENDBRANCH  12  13
BRANCH   9  18
HETATM   18  C   UNL     1     -10.207   6.513  69.486  1.00  0.00    -0.186 C  
HETATM   19  N   UNL     1     -11.438   6.033  69.872  1.00  0.00    -0.309 N  
HETATM   20  O   UNL     1      -9.191   6.056  69.996  1.00  0.00    -0.147 OA 
HETATM   21  H2  UNL     1     -12.307   6.418  69.503  1.00  0.00     0.000 HD 
HETATM   22  H1  UNL     1     -11.431   5.268  70.548  1.00  0.00     0.000 HD 
ENDBRANCH   9  18
ENDBRANCH   3   4
ENDBRANCH   2   3
BRANCH   2  23
HETATM   23  N   UNL     1      -9.962  12.858  69.086  1.00  0.00    -0.315 NA 
HETATM   24  H   UNL     1      -9.875  12.244  69.896  1.00  0.00     0.000 HD 
BRANCH  23  25
HETATM   25  C   UNL     1      -8.703  12.888  68.323  1.00  0.00    -0.168 C  
BRANCH  25  26
HETATM   26  C   UNL     1      -8.892  12.926  66.791  1.00  0.00    -0.147 C  
BRANCH  26  27
HETATM   27  O   UNL     1      -8.897  14.262  66.270  1.00  0.00    -0.071 OA 
BRANCH  27  28
HETATM   28  C   UNL     1      -9.991  14.639  65.533  1.00  0.00    -0.352 A  
HETATM   29  C   UNL     1     -11.395  16.438  64.721  1.00  0.00    -0.154 A  
HETATM   30  C   UNL     1     -10.906  13.727  64.979  1.00  0.00    -0.377 A  
HETATM   31  C   UNL     1     -10.250  16.012  65.392  1.00  0.00    -0.302 A  
HETATM   32  C   UNL     1     -12.301  15.519  64.184  1.00  0.00     0.049 A  
HETATM   33  C   UNL     1     -12.052  14.159  64.319  1.00  0.00    -0.471 A  
BRANCH  31  34
HETATM   34  O   UNL     1      -9.534  17.030  65.966  1.00  0.00    -0.436 OA 
BRANCH  34  35
HETATM   35  C   UNL     1     -10.119  17.668  67.108  1.00  0.00    -0.328 C  
HETATM   36  C   UNL     1     -10.371  19.155  66.881  1.00  0.00    -0.416 C  
HETATM   37  F   UNL     1     -10.157  19.549  65.608  1.00  0.00    -0.413 F  
HETATM   38  F   UNL     1     -11.640  19.492  67.208  1.00  0.00    -0.343 F  
HETATM   39  F   UNL     1      -9.553  19.901  67.672  1.00  0.00    -0.396 F  
ENDBRANCH  34  35
ENDBRANCH  31  34
ENDBRANCH  27  28
ENDBRANCH  26  27
ENDBRANCH  25  26
ENDBRANCH  23  25
ENDBRANCH   2  23
TORSDOF 13
ENDMDL
MODEL      300
REMARK 921   NORMALIZED FREE ENERGY PREDICTED BY IDOCK:   -3.82 KCAL/MOL
REMARK 922        TOTAL FREE ENERGY PREDICTED BY IDOCK:   -9.88 KCAL/MOL
REMARK 923 INTER-LIGAND FREE ENERGY PREDICTED BY IDOCK:   -8.44 KCAL/MOL
REMARK 924 INTRA-LIGAND FREE ENERGY PREDICTED BY IDOCK:   -1.44 KCAL/MOL
REMARK 927      BINDING AFFINITY PREDICTED BY RF-SCORE:    0.00 PKD
ROOT
HETATM    1  C   UNL     1      -8.142  10.652  66.967  1.00  0.00    -0.120 C  
HETATM    2  C   UNL     1      -7.661  10.729  68.422  1.00  0.00    -0.113 C  
ENDROOT
BRANCH   2   3
HETATM    3  C   UNL     1      -6.865   9.474  68.845  1.00  0.00    -0.055 C  
BRANCH   3   4
HETATM    4  C   UNL     1      -7.650   8.531  69.713  1.00  0.00    -0.083 A  
HETATM    5  C   UNL     1      -7.378   8.456  71.083  1.00  0.00    -0.074 A  
HETATM    6  C   UNL     1     -10.859   5.342  70.934  1.00  0.00    -0.120 A  
HETATM    7  C   UNL     1      -8.642   7.719  69.181  1.00  0.00    -0.138 A  
HETATM    8  C   UNL     1      -9.343   6.883  70.041  1.00  0.00    -0.158 A  
HETATM    9  C   UNL     1      -8.115   7.623  71.961  1.00  0.00    -0.115 A  
HETATM   10  C   UNL     1      -9.112   6.795  71.433  1.00  0.00    -0.142 A  
HETATM   11  C   UNL     1     -10.432   5.960  69.607  1.00  0.00    -0.346 A  
HETATM   12  N   UNL     1      -9.970   5.859  71.983  1.00  0.00    -0.174 NA 
BRANCH  12  13
HETATM   13  C   UNL     1     -10.202   5.468  73.359  1.00  0.00    -0.203 C  
BRANCH  13  14
HETATM   14  C   UNL     1     -11.202   4.314  73.458  1.00  0.00    -0.361 C  
BRANCH  14  15
HETATM   15  C   UNL     1     -10.638   3.081  74.150  1.00  0.00    -0.185 C  
HETATM   16  O   UNL     1      -9.433   2.685  73.492  1.00  0.00    -0.083 OA 
HETATM   17  H   UNL     1      -9.081   1.915  73.924  1.00  0.00     0.000 HD 
ENDBRANCH  14  15
ENDBRANCH  13  14
ENDBRANCH  12  13
BRANCH   9  18
HETATM   18  C   UNL     1      -7.681   7.720  73.379  1.00  0.00    -0.130 C  
HETATM   19  N   UNL     1      -6.810   6.747  73.815  1.00  0.00    -0.072 N  
HETATM   20  O   UNL     1      -8.092   8.563  74.168  1.00  0.00    -0.356 OA 
HETATM   21  H2  UNL     1      -6.481   6.003  73.199  1.00  0.00     0.000 HD 
HETATM   22  H1  UNL     1      -6.512   6.813  74.789  1.00  0.00     0.000 HD 
ENDBRANCH   9  18
ENDBRANCH   3   4
ENDBRANCH   2   3
BRANCH   2  23
HETATM   23  N   UNL     1      -8.834  10.945  69.287  1.00  0.00    -0.378 NA 
HETATM   24  H   UNL     1      -8.623  11.630  70.012  1.00  0.00     0.000 HD 
BRANCH  23  25
HETATM   25  C   UNL     1     -10.056  11.323  68.558  1.00  0.00    -0.204 C  
BRANCH  25  26
HETATM   26  C   UNL     1     -11.361  11.111  69.355  1.00  0.00    -0.283 C  
BRANCH  26  27
HETATM   27  O   UNL     1     -12.355  12.101  69.058  1.00  0.00    -0.095 OA 
BRANCH  27  28
HETATM   28  C   UNL     1     -12.126  13.373  69.519  1.00  0.00    -0.278 A  
HETATM   29  C   UNL     1     -11.698  15.698  68.994  1.00  0.00    -0.408 A  
HETATM   30  C   UNL     1     -11.925  13.683  70.876  1.00  0.00    -0.226 A  
HETATM   31  C   UNL     1     -12.011  14.406  68.575  1.00  0.00    -0.298 A  
HETATM   32  C   UNL     1     -11.491  15.989  70.344  1.00  0.00    -0.392 A  
HETATM   33  C   UNL     1     -11.603  14.972  71.285  1.00  0.00    -0.384 A  
BRANCH  31  34
HETATM   34  O   UNL     1     -12.058  14.262  67.213  1.00  0.00    -0.411 OA 
BRANCH  34  35
HETATM   35  C   UNL     1     -11.078  14.978  66.453  1.00  0.00    -0.329 C  
HETATM   36  C   UNL     1     -11.350  14.928  64.953  1.00  0.00    -0.413 C  
HETATM   37  F   UNL     1     -12.539  14.371  64.641  1.00  0.00    -0.432 F  
HETATM   38  F   UNL     1     -11.320  16.167  64.409  1.00  0.00    -0.490 F  
HETATM   39  F   UNL     1     -10.391  14.200  64.320  1.00  0.00    -0.396 F  
ENDBRANCH  34  35
ENDBRANCH  31  34
ENDBRANCH  27  28
ENDBRANCH  26  27
ENDBRANCH  25  26
ENDBRANCH  23  25
ENDBRANCH   2  23
TORSDOF 13
ENDMDL
MODEL      301
REMARK 921   NORMALIZED FREE ENERGY PREDICTED BY IDOCK:   -3.81 KCAL/MOL
REMARK 922        TOTAL FREE ENERGY PREDICTED BY IDOCK:   -9.87 KCAL/MOL
REMARK 923 INTER-LIGAND FREE ENERGY PREDICTED BY IDOCK:   -8.81 KCAL/MOL
REMARK 924 INTRA-LIGAND FREE ENERGY PREDICTED BY IDOCK:   -1.07 KCAL/MOL
REMARK 927      BINDING AFFINITY PREDICTED BY RF-SCORE:    0.00 PKD
ROOT
HETATM    1  C   UNL     1     -11.729  11.858  67.273  1.00  0.00    -0.319 C  
HETATM    2  C   UNL     1     -10.689  12.086  66.169  1.00  0.00    -0.275 C  
ENDROOT
BRANCH   2   3
HETATM    3  C   UNL     1      -9.392  11.279  66.406  1.00  0.00    -0.210 C  
BRANCH   3   4
HETATM    4  C   UNL     1      -9.591  10.067  67.270  1.00  0.00    -0.188 A  
HETATM    5  C   UNL     1      -9.791   8.815  66.677  1.00  0.00    -0.335 A  
HETATM    6  C   UNL     1      -9.947   7.458  71.147  1.00  0.00    -0.185 A  
HETATM    7  C   UNL     1      -9.590  10.160  68.655  1.00  0.00    -0.165 A  
HETATM    8  C   UNL     1      -9.760   8.998  69.396  1.00  0.00    -0.169 A  
HETATM    9  C   UNL     1      -9.936   7.628  67.438  1.00  0.00    -0.252 A  
HETATM   10  C   UNL     1      -9.943   7.713  68.834  1.00  0.00    -0.176 A  
HETATM   11  C   UNL     1      -9.779   8.951  70.887  1.00  0.00    -0.300 A  
HETATM   12  N   UNL     1     -10.097   6.786  69.850  1.00  0.00    -0.178 NA 
BRANCH  12  13
HETATM   13  C   UNL     1     -10.215   5.342  69.814  1.00  0.00    -0.294 C  
BRANCH  13  14
HETATM   14  C   UNL     1      -8.845   4.664  69.735  1.00  0.00    -0.128 C  
BRANCH  14  15
HETATM   15  C   UNL     1      -8.856   3.364  68.944  1.00  0.00    -0.112 C  
HETATM   16  O   UNL     1      -9.751   3.496  67.838  1.00  0.00    -0.157 OA 
HETATM   17  H   UNL     1      -9.758   2.685  67.344  1.00  0.00     0.000 HD 
ENDBRANCH  14  15
ENDBRANCH  13  14
ENDBRANCH  12  13
BRANCH   9  18
HETATM   18  C   UNL     1     -10.106   6.406  66.608  1.00  0.00    -0.145 C  
HETATM   19  N   UNL     1     -11.403   6.003  66.382  1.00  0.00    -0.657 N  
HETATM   20  O   UNL     1      -9.178   5.732  66.178  1.00  0.00    -0.157 OA 
HETATM   21  H2  UNL     1     -12.200   6.513  66.761  1.00  0.00     0.000 HD 
HETATM   22  H1  UNL     1     -11.521   5.164  65.813  1.00  0.00     0.000 HD 
ENDBRANCH   9  18
ENDBRANCH   3   4
ENDBRANCH   2   3
BRANCH   2  23
HETATM   23  N   UNL     1     -10.419  13.532  66.076  1.00  0.00    -0.293 NA 
HETATM   24  H   UNL     1     -10.192  13.793  65.117  1.00  0.00     0.000 HD 
BRANCH  23  25
HETATM   25  C   UNL     1     -11.503  14.379  66.600  1.00  0.00    -0.363 C  
BRANCH  25  26
HETATM   26  C   UNL     1     -11.037  15.756  67.120  1.00  0.00    -0.180 C  
BRANCH  26  27
HETATM   27  O   UNL     1      -9.953  16.297  66.353  1.00  0.00    -0.266 OA 
BRANCH  27  28
HETATM   28  C   UNL     1      -9.659  17.624  66.539  1.00  0.00    -0.292 A  
HETATM   29  C   UNL     1      -7.961  19.326  66.830  1.00  0.00    -0.278 A  
HETATM   30  C   UNL     1     -10.633  18.609  66.782  1.00  0.00    -0.422 A  
HETATM   31  C   UNL     1      -8.307  18.003  66.564  1.00  0.00    -0.268 A  
HETATM   32  C   UNL     1      -8.939  20.292  67.080  1.00  0.00    -0.469 A  
HETATM   33  C   UNL     1     -10.280  19.925  67.057  1.00  0.00    -0.588 A  
BRANCH  31  34
HETATM   34  O   UNL     1      -7.232  17.159  66.466  1.00  0.00    -0.217 OA 
BRANCH  34  35
HETATM   35  C   UNL     1      -7.194  16.052  67.375  1.00  0.00    -0.187 C  
HETATM   36  C   UNL     1      -6.386  16.356  68.632  1.00  0.00    -0.133 C  
HETATM   37  F   UNL     1      -6.008  17.648  68.728  1.00  0.00    -0.159 F  
HETATM   38  F   UNL     1      -7.085  16.048  69.750  1.00  0.00    -0.204 F  
HETATM   39  F   UNL     1      -5.252  15.606  68.662  1.00  0.00    -0.087 F  
ENDBRANCH  34  35
ENDBRANCH  31  34
ENDBRANCH  27  28
ENDBRANCH  26  27
ENDBRANCH  25  26
ENDBRANCH  23  25
ENDBRANCH   2  23
TORSDOF 13
ENDMDL
MODEL      302
REMARK 921   NORMALIZED FREE ENERGY PREDICTED BY IDOCK:   -3.80 KCAL/MOL
REMARK 922        TOTAL FREE ENERGY PREDICTED BY IDOCK:   -9.85 KCAL/MOL
REMARK 923 INTER-LIGAND FREE ENERGY PREDICTED BY IDOCK:   -8.67 KCAL/MOL
REMARK 924 INTRA-LIGAND FREE ENERGY PREDICTED BY IDOCK:   -1.18 KCAL/MOL
REMARK 927      BINDING AFFINITY PREDICTED BY RF-SCORE:    0.00 PKD
ROOT
HETATM    1  C   UNL     1      -7.476  14.784  69.812  1.00  0.00    -0.024 C  
HETATM    2  C   UNL     1      -6.615  13.778  69.036  1.00  0.00    -0.108 C  
ENDROOT
BRANCH   2   3
HETATM    3  C   UNL     1      -6.133  14.339  67.679  1.00  0.00    -0.071 C  
BRANCH   3   4
HETATM    4  C   UNL     1      -6.821  15.613  67.279  1.00  0.00    -0.197 A  
HETATM    5  C   UNL     1      -8.125  15.570  66.774  1.00  0.00    -0.247 A  
HETATM    6  C   UNL     1      -7.512  20.201  66.617  1.00  0.00    -0.279 A  
HETATM    7  C   UNL     1      -6.186  16.842  67.390  1.00  0.00    -0.195 A  
HETATM    8  C   UNL     1      -6.885  17.983  67.020  1.00  0.00    -0.213 A  
HETATM    9  C   UNL     1      -8.844  16.740  66.424  1.00  0.00    -0.331 A  
HETATM   10  C   UNL     1      -8.209  17.983  66.527  1.00  0.00    -0.271 A  
HETATM   11  C   UNL     1      -6.326  19.366  67.088  1.00  0.00    -0.195 A  
HETATM   12  N   UNL     1      -8.594  19.281  66.241  1.00  0.00    -0.359 NA 
BRANCH  12  13
HETATM   13  C   UNL     1      -9.865  19.828  65.810  1.00  0.00    -0.208 C  
BRANCH  13  14
HETATM   14  C   UNL     1     -10.938  19.684  66.892  1.00  0.00    -0.389 C  
BRANCH  14  15
HETATM   15  C   UNL     1     -10.390  19.785  68.308  1.00  0.00    -0.410 C  
HETATM   16  O   UNL     1     -10.396  18.487  68.906  1.00  0.00    -0.458 OA 
HETATM   17  H   UNL     1     -10.053  18.550  69.790  1.00  0.00     0.000 HD 
ENDBRANCH  14  15
ENDBRANCH  13  14
ENDBRANCH  12  13
BRANCH   9  18
HETATM   18  C   UNL     1     -10.223  16.470  65.939  1.00  0.00    -0.349 C  
HETATM   19  N   UNL     1     -11.058  15.817  66.818  1.00  0.00    -0.192 N  
HETATM   20  O   UNL     1     -10.621  16.741  64.812  1.00  0.00    -0.674 OA 
HETATM   21  H2  UNL     1     -10.749  15.535  67.748  1.00  0.00     0.000 HD 
HETATM   22  H1  UNL     1     -12.005  15.631  66.485  1.00  0.00     0.000 HD 
ENDBRANCH   9  18
ENDBRANCH   3   4
ENDBRANCH   2   3
BRANCH   2  23
HETATM   23  N   UNL     1      -7.393  12.538  68.865  1.00  0.00    -0.254 NA 
HETATM   24  H   UNL     1      -7.914  12.561  67.989  1.00  0.00     0.000 HD 
BRANCH  23  25
HETATM   25  C   UNL     1      -6.588  11.308  68.956  1.00  0.00    -0.079 C  
BRANCH  25  26
HETATM   26  C   UNL     1      -7.244  10.181  69.783  1.00  0.00    -0.141 C  
BRANCH  26  27
HETATM   27  O   UNL     1      -8.676  10.205  69.709  1.00  0.00    -0.188 OA 
BRANCH  27  28
HETATM   28  C   UNL     1      -9.300   9.040  69.344  1.00  0.00    -0.158 A  
HETATM   29  C   UNL     1     -10.534   7.815  67.657  1.00  0.00    -0.308 A  
HETATM   30  C   UNL     1      -9.514   7.964  70.225  1.00  0.00    -0.163 A  
HETATM   31  C   UNL     1      -9.821   8.949  68.043  1.00  0.00    -0.168 A  
HETATM   32  C   UNL     1     -10.747   6.759  68.547  1.00  0.00    -0.280 A  
HETATM   33  C   UNL     1     -10.235   6.841  69.836  1.00  0.00    -0.211 A  
BRANCH  31  34
HETATM   34  O   UNL     1      -9.809   9.943  67.100  1.00  0.00    -0.171 OA 
BRANCH  34  35
HETATM   35  C   UNL     1     -10.021   9.545  65.740  1.00  0.00    -0.245 C  
HETATM   36  C   UNL     1      -9.809  10.691  64.756  1.00  0.00    -0.310 C  
HETATM   37  F   UNL     1      -9.303  11.804  65.328  1.00  0.00    -0.223 F  
HETATM   38  F   UNL     1      -8.975  10.328  63.754  1.00  0.00    -0.167 F  
HETATM   39  F   UNL     1     -10.988  11.043  64.175  1.00  0.00    -0.434 F  
ENDBRANCH  34  35
ENDBRANCH  31  34
ENDBRANCH  27  28
ENDBRANCH  26  27
ENDBRANCH  25  26
ENDBRANCH  23  25
ENDBRANCH   2  23
TORSDOF 13
ENDMDL
MODEL      303
REMARK 921   NORMALIZED FREE ENERGY PREDICTED BY IDOCK:   -3.79 KCAL/MOL
REMARK 922        TOTAL FREE ENERGY PREDICTED BY IDOCK:   -9.84 KCAL/MOL
REMARK 923 INTER-LIGAND FREE ENERGY PREDICTED BY IDOCK:   -7.76 KCAL/MOL
REMARK 924 INTRA-LIGAND FREE ENERGY PREDICTED BY IDOCK:   -2.08 KCAL/MOL
REMARK 927      BINDING AFFINITY PREDICTED BY RF-SCORE:    0.00 PKD
ROOT
HETATM    1  C   UNL     1     -11.510   7.723  72.695  1.00  0.00    -0.430 C  
HETATM    2  C   UNL     1     -11.244   7.772  71.185  1.00  0.00    -0.264 C  
ENDROOT
BRANCH   2   3
HETATM    3  C   UNL     1      -9.736   7.866  70.856  1.00  0.00    -0.177 C  
BRANCH   3   4
HETATM    4  C   UNL     1      -9.324   7.016  69.688  1.00  0.00    -0.149 A  
HETATM    5  C   UNL     1      -7.970   6.736  69.475  1.00  0.00    -0.125 A  
HETATM    6  C   UNL     1      -9.714   4.322  65.874  1.00  0.00    -0.209 A  
HETATM    7  C   UNL     1     -10.261   6.506  68.801  1.00  0.00    -0.194 A  
HETATM    8  C   UNL     1      -9.816   5.712  67.752  1.00  0.00    -0.153 A  
HETATM    9  C   UNL     1      -7.522   5.903  68.420  1.00  0.00    -0.086 A  
HETATM   10  C   UNL     1      -8.459   5.389  67.517  1.00  0.00    -0.106 A  
HETATM   11  C   UNL     1     -10.710   5.099  66.727  1.00  0.00    -0.187 A  
HETATM   12  N   UNL     1      -8.365   4.598  66.385  1.00  0.00    -0.107 NA 
BRANCH  12  13
HETATM   13  C   UNL     1      -7.231   3.929  65.779  1.00  0.00    -0.071 C  
BRANCH  13  14
HETATM   14  C   UNL     1      -6.403   4.887  64.919  1.00  0.00    -0.035 C  
BRANCH  14  15
HETATM   15  C   UNL     1      -6.882   4.975  63.477  1.00  0.00    -0.046 C  
HETATM   16  O   UNL     1      -7.803   3.912  63.223  1.00  0.00    -0.072 OA 
HETATM   17  H   UNL     1      -8.102   3.967  62.323  1.00  0.00     0.000 HD 
ENDBRANCH  14  15
ENDBRANCH  13  14
ENDBRANCH  12  13
BRANCH   9  18
HETATM   18  C   UNL     1      -6.049   5.712  68.395  1.00  0.00    -0.021 C  
HETATM   19  N   UNL     1      -5.314   6.733  67.835  1.00  0.00    -0.011 N  
HETATM   20  O   UNL     1      -5.479   4.699  68.786  1.00  0.00    -0.010 OA 
HETATM   21  H2  UNL     1      -5.756   7.571  67.459  1.00  0.00     0.000 HD 
HETATM   22  H1  UNL     1      -4.302   6.602  67.818  1.00  0.00     0.000 HD 
ENDBRANCH   9  18
ENDBRANCH   3   4
ENDBRANCH   2   3
BRANCH   2  23
HETATM   23  N   UNL     1     -11.994   8.906  70.617  1.00  0.00    -0.471 NA 
HETATM   24  H   UNL     1     -12.838   9.084  71.161  1.00  0.00     0.000 HD 
BRANCH  23  25
HETATM   25  C   UNL     1     -11.202  10.138  70.474  1.00  0.00    -0.336 C  
BRANCH  25  26
HETATM   26  C   UNL     1     -12.044  11.432  70.430  1.00  0.00    -0.384 C  
BRANCH  26  27
HETATM   27  O   UNL     1     -12.438  11.787  69.098  1.00  0.00    -0.142 OA 
BRANCH  27  28
HETATM   28  C   UNL     1     -12.010  13.002  68.625  1.00  0.00    -0.263 A  
HETATM   29  C   UNL     1     -11.394  14.356  66.713  1.00  0.00    -0.360 A  
HETATM   30  C   UNL     1     -11.605  14.060  69.456  1.00  0.00    -0.350 A  
HETATM   31  C   UNL     1     -11.901  13.167  67.234  1.00  0.00    -0.367 A  
HETATM   32  C   UNL     1     -10.985  15.395  67.553  1.00  0.00    -0.315 A  
HETATM   33  C   UNL     1     -11.090  15.240  68.930  1.00  0.00    -0.269 A  
BRANCH  31  34
HETATM   34  O   UNL     1     -12.137  12.205  66.288  1.00  0.00    -0.626 OA 
BRANCH  34  35
HETATM   35  C   UNL     1     -11.101  11.977  65.325  1.00  0.00    -0.317 C  
HETATM   36  C   UNL     1     -10.219  10.786  65.687  1.00  0.00    -0.257 C  
HETATM   37  F   UNL     1     -10.679  10.078  66.740  1.00  0.00    -0.287 F  
HETATM   38  F   UNL     1     -10.092   9.936  64.642  1.00  0.00    -0.388 F  
HETATM   39  F   UNL     1      -8.964  11.204  66.005  1.00  0.00    -0.177 F  
ENDBRANCH  34  35
ENDBRANCH  31  34
ENDBRANCH  27  28
ENDBRANCH  26  27
ENDBRANCH  25  26
ENDBRANCH  23  25
ENDBRANCH   2  23
TORSDOF 13
ENDMDL
MODEL      304
REMARK 921   NORMALIZED FREE ENERGY PREDICTED BY IDOCK:   -3.78 KCAL/MOL
REMARK 922        TOTAL FREE ENERGY PREDICTED BY IDOCK:   -9.83 KCAL/MOL
REMARK 923 INTER-LIGAND FREE ENERGY PREDICTED BY IDOCK:   -8.65 KCAL/MOL
REMARK 924 INTRA-LIGAND FREE ENERGY PREDICTED BY IDOCK:   -1.18 KCAL/MOL
REMARK 927      BINDING AFFINITY PREDICTED BY RF-SCORE:    0.00 PKD
ROOT
HETATM    1  C   UNL     1      -5.580  10.903  67.574  1.00  0.00    -0.044 C  
HETATM    2  C   UNL     1      -6.909  11.636  67.799  1.00  0.00    -0.079 C  
ENDROOT
BRANCH   2   3
HETATM    3  C   UNL     1      -6.738  12.918  68.647  1.00  0.00    -0.095 C  
BRANCH   3   4
HETATM    4  C   UNL     1      -7.366  14.134  68.027  1.00  0.00    -0.142 A  
HETATM    5  C   UNL     1      -8.756  14.203  67.884  1.00  0.00    -0.182 A  
HETATM    6  C   UNL     1      -7.701  18.388  66.089  1.00  0.00    -0.218 A  
HETATM    7  C   UNL     1      -6.592  15.196  67.579  1.00  0.00    -0.167 A  
HETATM    8  C   UNL     1      -7.235  16.298  67.033  1.00  0.00    -0.262 A  
HETATM    9  C   UNL     1      -9.409  15.342  67.352  1.00  0.00    -0.205 A  
HETATM   10  C   UNL     1      -8.638  16.415  66.892  1.00  0.00    -0.214 A  
HETATM   11  C   UNL     1      -6.530  17.507  66.514  1.00  0.00    -0.269 A  
HETATM   12  N   UNL     1      -8.940  17.628  66.298  1.00  0.00    -0.444 NA 
BRANCH  12  13
HETATM   13  C   UNL     1     -10.212  18.266  66.024  1.00  0.00    -0.323 C  
BRANCH  13  14
HETATM   14  C   UNL     1     -10.871  18.788  67.303  1.00  0.00    -0.408 C  
BRANCH  14  15
HETATM   15  C   UNL     1     -10.102  19.925  67.960  1.00  0.00    -0.440 C  
HETATM   16  O   UNL     1      -9.221  19.387  68.947  1.00  0.00    -0.378 OA 
HETATM   17  H   UNL     1      -8.741  20.097  69.357  1.00  0.00     0.000 HD 
ENDBRANCH  14  15
ENDBRANCH  13  14
ENDBRANCH  12  13
BRANCH   9  18
HETATM   18  C   UNL     1     -10.890  15.219  67.319  1.00  0.00    -0.318 C  
HETATM   19  N   UNL     1     -11.439  14.818  66.121  1.00  0.00    -0.338 N  
HETATM   20  O   UNL     1     -11.625  15.500  68.259  1.00  0.00    -0.357 OA 
HETATM   21  H2  UNL     1     -10.863  14.618  65.305  1.00  0.00     0.000 HD 
HETATM   22  H1  UNL     1     -12.456  14.733  66.099  1.00  0.00     0.000 HD 
ENDBRANCH   9  18
ENDBRANCH   3   4
ENDBRANCH   2   3
BRANCH   2  23
HETATM   23  N   UNL     1      -7.857  10.696  68.423  1.00  0.00    -0.107 NA 
HETATM   24  H   UNL     1      -8.659  10.540  67.812  1.00  0.00     0.000 HD 
BRANCH  23  25
HETATM   25  C   UNL     1      -7.255   9.414  68.825  1.00  0.00    -0.073 C  
BRANCH  25  26
HETATM   26  C   UNL     1      -8.212   8.207  68.729  1.00  0.00    -0.125 C  
BRANCH  26  27
HETATM   27  O   UNL     1      -9.592   8.594  68.745  1.00  0.00    -0.153 OA 
BRANCH  27  28
HETATM   28  C   UNL     1     -10.329   8.229  69.842  1.00  0.00    -0.218 A  
HETATM   29  C   UNL     1     -11.856   6.641  70.851  1.00  0.00    -0.434 A  
HETATM   30  C   UNL     1     -10.482   9.040  70.981  1.00  0.00    -0.339 A  
HETATM   31  C   UNL     1     -11.030   7.013  69.791  1.00  0.00    -0.250 A  
HETATM   32  C   UNL     1     -12.005   7.463  71.972  1.00  0.00    -0.333 A  
HETATM   33  C   UNL     1     -11.315   8.668  72.030  1.00  0.00    -0.432 A  
BRANCH  31  34
HETATM   34  O   UNL     1     -11.091   6.162  68.719  1.00  0.00    -0.344 OA 
BRANCH  34  35
HETATM   35  C   UNL     1      -9.896   5.437  68.401  1.00  0.00    -0.147 C  
HETATM   36  C   UNL     1      -9.970   4.757  67.038  1.00  0.00    -0.204 C  
HETATM   37  F   UNL     1     -11.063   5.102  66.324  1.00  0.00    -0.312 F  
HETATM   38  F   UNL     1      -8.881   5.045  66.288  1.00  0.00    -0.114 F  
HETATM   39  F   UNL     1     -10.000   3.405  67.182  1.00  0.00    -0.181 F  
ENDBRANCH  34  35
ENDBRANCH  31  34
ENDBRANCH  27  28
ENDBRANCH  26  27
ENDBRANCH  25  26
ENDBRANCH  23  25
ENDBRANCH   2  23
TORSDOF 13
ENDMDL
MODEL      305
REMARK 921   NORMALIZED FREE ENERGY PREDICTED BY IDOCK:   -3.77 KCAL/MOL
REMARK 922        TOTAL FREE ENERGY PREDICTED BY IDOCK:   -9.81 KCAL/MOL
REMARK 923 INTER-LIGAND FREE ENERGY PREDICTED BY IDOCK:   -8.02 KCAL/MOL
REMARK 924 INTRA-LIGAND FREE ENERGY PREDICTED BY IDOCK:   -1.79 KCAL/MOL
REMARK 927      BINDING AFFINITY PREDICTED BY RF-SCORE:    0.00 PKD
ROOT
HETATM    1  C   UNL     1      -5.628  12.360  69.821  1.00  0.00    -0.102 C  
HETATM    2  C   UNL     1      -6.833  12.878  69.025  1.00  0.00    -0.080 C  
ENDROOT
BRANCH   2   3
HETATM    3  C   UNL     1      -7.019  12.130  67.685  1.00  0.00    -0.121 C  
BRANCH   3   4
HETATM    4  C   UNL     1      -7.839  10.877  67.808  1.00  0.00    -0.109 A  
HETATM    5  C   UNL     1      -8.651  10.684  68.930  1.00  0.00    -0.158 A  
HETATM    6  C   UNL     1      -9.698   6.728  66.673  1.00  0.00    -0.158 A  
HETATM    7  C   UNL     1      -7.803   9.894  66.829  1.00  0.00    -0.109 A  
HETATM    8  C   UNL     1      -8.599   8.768  66.994  1.00  0.00    -0.119 A  
HETATM    9  C   UNL     1      -9.483   9.547  69.080  1.00  0.00    -0.163 A  
HETATM   10  C   UNL     1      -9.448   8.547  68.103  1.00  0.00    -0.141 A  
HETATM   11  C   UNL     1      -8.659   7.636  66.023  1.00  0.00    -0.165 A  
HETATM   12  N   UNL     1     -10.083   7.326  67.959  1.00  0.00    -0.165 NA 
BRANCH  12  13
HETATM   13  C   UNL     1     -11.109   6.683  68.755  1.00  0.00    -0.227 C  
BRANCH  13  14
HETATM   14  C   UNL     1     -10.508   5.893  69.921  1.00  0.00    -0.337 C  
BRANCH  14  15
HETATM   15  C   UNL     1      -9.842   4.593  69.493  1.00  0.00    -0.216 C  
HETATM   16  O   UNL     1      -8.470   4.616  69.891  1.00  0.00    -0.073 OA 
HETATM   17  H   UNL     1      -8.055   3.804  69.624  1.00  0.00     0.000 HD 
ENDBRANCH  14  15
ENDBRANCH  13  14
ENDBRANCH  12  13
BRANCH   9  18
HETATM   18  C   UNL     1     -10.286   9.557  70.331  1.00  0.00    -0.279 C  
HETATM   19  N   UNL     1      -9.668   9.049  71.452  1.00  0.00    -0.298 N  
HETATM   20  O   UNL     1     -11.451   9.931  70.398  1.00  0.00    -0.265 OA 
HETATM   21  H2  UNL     1      -8.715   8.687  71.425  1.00  0.00     0.000 HD 
HETATM   22  H1  UNL     1     -10.219   9.055  72.311  1.00  0.00     0.000 HD 
ENDBRANCH   9  18
ENDBRANCH   3   4
ENDBRANCH   2   3
BRANCH   2  23
HETATM   23  N   UNL     1      -6.663  14.327  68.818  1.00  0.00    -0.089 NA 
HETATM   24  H   UNL     1      -5.850  14.512  68.230  1.00  0.00     0.000 HD 
BRANCH  23  25
HETATM   25  C   UNL     1      -7.855  15.000  68.277  1.00  0.00    -0.119 C  
BRANCH  25  26
HETATM   26  C   UNL     1      -7.596  15.812  66.990  1.00  0.00    -0.222 C  
BRANCH  26  27
HETATM   27  O   UNL     1      -8.804  16.304  66.395  1.00  0.00    -0.252 OA 
BRANCH  27  28
HETATM   28  C   UNL     1      -9.163  17.595  66.690  1.00  0.00    -0.271 A  
HETATM   29  C   UNL     1     -10.832  19.106  67.585  1.00  0.00    -0.467 A  
HETATM   30  C   UNL     1      -8.406  18.717  66.311  1.00  0.00    -0.262 A  
HETATM   31  C   UNL     1     -10.391  17.807  67.339  1.00  0.00    -0.369 A  
HETATM   32  C   UNL     1     -10.074  20.212  67.192  1.00  0.00    -0.590 A  
HETATM   33  C   UNL     1      -8.857  20.011  66.550  1.00  0.00    -0.414 A  
BRANCH  31  34
HETATM   34  O   UNL     1     -11.304  16.840  67.671  1.00  0.00    -0.068 OA 
BRANCH  34  35
HETATM   35  C   UNL     1     -11.122  16.186  68.932  1.00  0.00    -0.347 C  
HETATM   36  C   UNL     1     -11.699  14.774  68.947  1.00  0.00    -0.309 C  
HETATM   37  F   UNL     1     -12.113  14.351  67.734  1.00  0.00    -0.387 F  
HETATM   38  F   UNL     1     -10.793  13.880  69.407  1.00  0.00    -0.245 F  
HETATM   39  F   UNL     1     -12.772  14.707  69.780  1.00  0.00    -0.327 F  
ENDBRANCH  34  35
ENDBRANCH  31  34
ENDBRANCH  27  28
ENDBRANCH  26  27
ENDBRANCH  25  26
ENDBRANCH  23  25
ENDBRANCH   2  23
TORSDOF 13
ENDMDL
MODEL      306
REMARK 921   NORMALIZED FREE ENERGY PREDICTED BY IDOCK:   -3.77 KCAL/MOL
REMARK 922        TOTAL FREE ENERGY PREDICTED BY IDOCK:   -9.81 KCAL/MOL
REMARK 923 INTER-LIGAND FREE ENERGY PREDICTED BY IDOCK:   -7.01 KCAL/MOL
REMARK 924 INTRA-LIGAND FREE ENERGY PREDICTED BY IDOCK:   -2.79 KCAL/MOL
REMARK 927      BINDING AFFINITY PREDICTED BY RF-SCORE:    0.00 PKD
ROOT
HETATM    1  C   UNL     1     -12.527  14.391  70.517  1.00  0.00    -0.416 C  
HETATM    2  C   UNL     1     -11.842  13.638  69.369  1.00  0.00    -0.339 C  
ENDROOT
BRANCH   2   3
HETATM    3  C   UNL     1     -12.161  12.126  69.383  1.00  0.00    -0.247 C  
BRANCH   3   4
HETATM    4  C   UNL     1     -11.170  11.298  68.615  1.00  0.00    -0.310 A  
HETATM    5  C   UNL     1     -11.040  11.472  67.233  1.00  0.00    -0.351 A  
HETATM    6  C   UNL     1      -7.777   8.173  67.789  1.00  0.00    -0.110 A  
HETATM    7  C   UNL     1     -10.379  10.349  69.248  1.00  0.00    -0.250 A  
HETATM    8  C   UNL     1      -9.470   9.630  68.484  1.00  0.00    -0.145 A  
HETATM    9  C   UNL     1     -10.091  10.756  66.462  1.00  0.00    -0.277 A  
HETATM   10  C   UNL     1      -9.295   9.792  67.090  1.00  0.00    -0.142 A  
HETATM   11  C   UNL     1      -8.559   8.582  69.032  1.00  0.00    -0.130 A  
HETATM   12  N   UNL     1      -8.324   8.912  66.644  1.00  0.00    -0.110 NA 
BRANCH  12  13
HETATM   13  C   UNL     1      -7.713   8.746  65.341  1.00  0.00    -0.089 C  
BRANCH  13  14
HETATM   14  C   UNL     1      -7.178   7.325  65.144  1.00  0.00    -0.070 C  
BRANCH  14  15
HETATM   15  C   UNL     1      -8.202   6.369  64.549  1.00  0.00    -0.038 C  
HETATM   16  O   UNL     1      -9.209   6.094  65.524  1.00  0.00    -0.366 OA 
HETATM   17  H   UNL     1      -9.848   5.497  65.153  1.00  0.00     0.000 HD 
ENDBRANCH  14  15
ENDBRANCH  13  14
ENDBRANCH  12  13
BRANCH   9  18
HETATM   18  C   UNL     1     -10.100  11.116  65.020  1.00  0.00    -0.283 C  
HETATM   19  N   UNL     1      -9.753  12.414  64.717  1.00  0.00    -0.472 N  
HETATM   20  O   UNL     1     -10.445  10.356  64.123  1.00  0.00    -0.158 OA 
HETATM   21  H2  UNL     1      -9.503  13.088  65.440  1.00  0.00     0.000 HD 
HETATM   22  H1  UNL     1      -9.759  12.662  63.727  1.00  0.00     0.000 HD 
ENDBRANCH   9  18
ENDBRANCH   3   4
ENDBRANCH   2   3
BRANCH   2  23
HETATM   23  N   UNL     1     -10.391  13.888  69.452  1.00  0.00    -0.430 NA 
HETATM   24  H   UNL     1      -9.870  13.060  69.164  1.00  0.00     0.000 HD 
BRANCH  23  25
HETATM   25  C   UNL     1      -9.942  15.071  68.701  1.00  0.00    -0.220 C  
BRANCH  25  26
HETATM   26  C   UNL     1      -9.151  14.742  67.416  1.00  0.00    -0.195 C  
BRANCH  26  27
HETATM   27  O   UNL     1      -8.327  15.833  66.982  1.00  0.00    -0.185 OA 
BRANCH  27  28
HETATM   28  C   UNL     1      -7.348  16.255  67.845  1.00  0.00    -0.127 A  
HETATM   29  C   UNL     1      -5.177  15.848  68.841  1.00  0.00    -0.103 A  
HETATM   30  C   UNL     1      -7.495  17.354  68.710  1.00  0.00    -0.258 A  
HETATM   31  C   UNL     1      -6.165  15.502  67.920  1.00  0.00    -0.150 A  
HETATM   32  C   UNL     1      -5.343  16.936  69.701  1.00  0.00    -0.165 A  
HETATM   33  C   UNL     1      -6.511  17.687  69.633  1.00  0.00    -0.136 A  
BRANCH  31  34
HETATM   34  O   UNL     1      -5.905  14.340  67.241  1.00  0.00    -0.294 OA 
BRANCH  34  35
HETATM   35  C   UNL     1      -5.454  13.224  68.019  1.00  0.00    -0.111 C  
HETATM   36  C   UNL     1      -6.375  12.015  67.895  1.00  0.00    -0.073 C  
HETATM   37  F   UNL     1      -7.334  12.165  66.956  1.00  0.00    -0.134 F  
HETATM   38  F   UNL     1      -5.676  10.896  67.595  1.00  0.00    -0.043 F  
HETATM   39  F   UNL     1      -7.008  11.776  69.075  1.00  0.00    -0.086 F  
ENDBRANCH  34  35
ENDBRANCH  31  34
ENDBRANCH  27  28
ENDBRANCH  26  27
ENDBRANCH  25  26
ENDBRANCH  23  25
ENDBRANCH   2  23
TORSDOF 13
ENDMDL
MODEL      307
REMARK 921   NORMALIZED FREE ENERGY PREDICTED BY IDOCK:   -3.77 KCAL/MOL
REMARK 922        TOTAL FREE ENERGY PREDICTED BY IDOCK:   -9.80 KCAL/MOL
REMARK 923 INTER-LIGAND FREE ENERGY PREDICTED BY IDOCK:   -8.09 KCAL/MOL
REMARK 924 INTRA-LIGAND FREE ENERGY PREDICTED BY IDOCK:   -1.71 KCAL/MOL
REMARK 927      BINDING AFFINITY PREDICTED BY RF-SCORE:    0.00 PKD
ROOT
HETATM    1  C   UNL     1      -5.617  13.905  71.047  1.00  0.00    -0.206 C  
HETATM    2  C   UNL     1      -6.282  13.379  69.769  1.00  0.00    -0.113 C  
ENDROOT
BRANCH   2   3
HETATM    3  C   UNL     1      -5.464  12.249  69.103  1.00  0.00    -0.064 C  
BRANCH   3   4
HETATM    4  C   UNL     1      -6.222  10.959  68.970  1.00  0.00    -0.043 A  
HETATM    5  C   UNL     1      -7.240  10.653  69.880  1.00  0.00    -0.109 A  
HETATM    6  C   UNL     1      -7.577   6.833  67.209  1.00  0.00    -0.104 A  
HETATM    7  C   UNL     1      -5.930  10.051  67.962  1.00  0.00    -0.038 A  
HETATM    8  C   UNL     1      -6.681   8.886  67.882  1.00  0.00    -0.069 A  
HETATM    9  C   UNL     1      -8.022   9.476  69.778  1.00  0.00    -0.134 A  
HETATM   10  C   UNL     1      -7.730   8.552  68.770  1.00  0.00    -0.102 A  
HETATM   11  C   UNL     1      -6.476   7.826  66.852  1.00  0.00    -0.055 A  
HETATM   12  N   UNL     1      -8.253   7.320  68.418  1.00  0.00    -0.124 NA 
BRANCH  12  13
HETATM   13  C   UNL     1      -9.387   6.580  68.937  1.00  0.00    -0.131 C  
BRANCH  13  14
HETATM   14  C   UNL     1     -10.700   7.035  68.295  1.00  0.00    -0.231 C  
BRANCH  14  15
HETATM   15  C   UNL     1     -10.516   8.109  67.232  1.00  0.00    -0.309 C  
HETATM   16  O   UNL     1     -10.918   9.371  67.767  1.00  0.00    -0.479 OA 
HETATM   17  H   UNL     1     -10.803  10.041  67.103  1.00  0.00     0.000 HD 
ENDBRANCH  14  15
ENDBRANCH  13  14
ENDBRANCH  12  13
BRANCH   9  18
HETATM   18  C   UNL     1      -9.068   9.363  70.829  1.00  0.00    -0.204 C  
HETATM   19  N   UNL     1     -10.273   9.968  70.552  1.00  0.00    -0.396 N  
HETATM   20  O   UNL     1      -8.896   8.823  71.916  1.00  0.00    -0.271 OA 
HETATM   21  H2  UNL     1     -10.439  10.466  69.677  1.00  0.00     0.000 HD 
HETATM   22  H1  UNL     1     -10.991   9.891  71.273  1.00  0.00     0.000 HD 
ENDBRANCH   9  18
ENDBRANCH   3   4
ENDBRANCH   2   3
BRANCH   2  23
HETATM   23  N   UNL     1      -6.486  14.514  68.851  1.00  0.00    -0.088 NA 
HETATM   24  H   UNL     1      -6.217  14.258  67.901  1.00  0.00     0.000 HD 
BRANCH  23  25
HETATM   25  C   UNL     1      -7.851  15.064  68.872  1.00  0.00    -0.162 C  
BRANCH  25  26
HETATM   26  C   UNL     1      -8.956  14.030  68.563  1.00  0.00    -0.160 C  
BRANCH  26  27
HETATM   27  O   UNL     1     -10.258  14.625  68.477  1.00  0.00    -0.227 OA 
BRANCH  27  28
HETATM   28  C   UNL     1     -10.476  15.500  67.443  1.00  0.00    -0.281 A  
HETATM   29  C   UNL     1     -10.902  15.816  65.079  1.00  0.00    -0.461 A  
HETATM   30  C   UNL     1     -10.362  16.895  67.570  1.00  0.00    -0.318 A  
HETATM   31  C   UNL     1     -10.753  14.966  66.174  1.00  0.00    -0.317 A  
HETATM   32  C   UNL     1     -10.775  17.201  65.219  1.00  0.00    -0.067 A  
HETATM   33  C   UNL     1     -10.501  17.737  66.471  1.00  0.00    -0.297 A  
BRANCH  31  34
HETATM   34  O   UNL     1     -10.782  13.635  65.848  1.00  0.00    -0.276 OA 
BRANCH  34  35
HETATM   35  C   UNL     1     -11.938  13.167  65.143  1.00  0.00    -0.394 C  
HETATM   36  C   UNL     1     -11.618  12.737  63.716  1.00  0.00    -0.481 C  
HETATM   37  F   UNL     1     -10.295  12.718  63.444  1.00  0.00    -0.368 F  
HETATM   38  F   UNL     1     -12.110  11.504  63.454  1.00  0.00    -0.547 F  
HETATM   39  F   UNL     1     -12.195  13.586  62.823  1.00  0.00    -0.469 F  
ENDBRANCH  34  35
ENDBRANCH  31  34
ENDBRANCH  27  28
ENDBRANCH  26  27
ENDBRANCH  25  26
ENDBRANCH  23  25
ENDBRANCH   2  23
TORSDOF 13
ENDMDL
MODEL      308
REMARK 921   NORMALIZED FREE ENERGY PREDICTED BY IDOCK:   -3.77 KCAL/MOL
REMARK 922        TOTAL FREE ENERGY PREDICTED BY IDOCK:   -9.80 KCAL/MOL
REMARK 923 INTER-LIGAND FREE ENERGY PREDICTED BY IDOCK:   -8.23 KCAL/MOL
REMARK 924 INTRA-LIGAND FREE ENERGY PREDICTED BY IDOCK:   -1.56 KCAL/MOL
REMARK 927      BINDING AFFINITY PREDICTED BY RF-SCORE:    0.00 PKD
ROOT
HETATM    1  C   UNL     1     -11.011   7.797  73.077  1.00  0.00    -0.442 C  
HETATM    2  C   UNL     1     -10.570   8.818  72.021  1.00  0.00    -0.344 C  
ENDROOT
BRANCH   2   3
HETATM    3  C   UNL     1     -11.277   8.604  70.663  1.00  0.00    -0.284 C  
BRANCH   3   4
HETATM    4  C   UNL     1     -11.120   9.760  69.717  1.00  0.00    -0.272 A  
HETATM    5  C   UNL     1     -10.377   9.602  68.542  1.00  0.00    -0.231 A  
HETATM    6  C   UNL     1     -11.638  14.060  67.926  1.00  0.00    -0.343 A  
HETATM    7  C   UNL     1     -11.691  10.996  69.987  1.00  0.00    -0.437 A  
HETATM    8  C   UNL     1     -11.523  12.018  69.062  1.00  0.00    -0.357 A  
HETATM    9  C   UNL     1     -10.233  10.639  67.588  1.00  0.00    -0.229 A  
HETATM   10  C   UNL     1     -10.799  11.890  67.855  1.00  0.00    -0.213 A  
HETATM   11  C   UNL     1     -12.081  13.393  69.224  1.00  0.00    -0.312 A  
HETATM   12  N   UNL     1     -10.817  13.098  67.179  1.00  0.00    -0.255 NA 
BRANCH  12  13
HETATM   13  C   UNL     1     -10.314  13.468  65.871  1.00  0.00    -0.299 C  
BRANCH  13  14
HETATM   14  C   UNL     1     -11.266  13.030  64.755  1.00  0.00    -0.344 C  
BRANCH  14  15
HETATM   15  C   UNL     1     -12.288  14.092  64.378  1.00  0.00    -0.381 C  
HETATM   16  O   UNL     1     -12.398  14.153  62.955  1.00  0.00    -1.070 OA 
HETATM   17  H   UNL     1     -13.036  14.816  62.720  1.00  0.00     0.000 HD 
ENDBRANCH  14  15
ENDBRANCH  13  14
ENDBRANCH  12  13
BRANCH   9  18
HETATM   18  C   UNL     1      -9.431  10.248  66.399  1.00  0.00    -0.174 C  
HETATM   19  N   UNL     1     -10.132   9.699  65.349  1.00  0.00    -0.345 N  
HETATM   20  O   UNL     1      -8.210  10.336  66.333  1.00  0.00    -0.123 OA 
HETATM   21  H2  UNL     1     -11.142   9.568  65.384  1.00  0.00     0.000 HD 
HETATM   22  H1  UNL     1      -9.581   9.430  64.532  1.00  0.00     0.000 HD 
ENDBRANCH   9  18
ENDBRANCH   3   4
ENDBRANCH   2   3
BRANCH   2  23
HETATM   23  N   UNL     1      -9.104   8.742  71.886  1.00  0.00    -0.331 NA 
HETATM   24  H   UNL     1      -8.716   9.662  71.679  1.00  0.00     0.000 HD 
BRANCH  23  25
HETATM   25  C   UNL     1      -8.425   8.145  73.048  1.00  0.00    -0.209 C  
BRANCH  25  26
HETATM   26  C   UNL     1      -7.454   6.998  72.694  1.00  0.00    -0.084 C  
BRANCH  26  27
HETATM   27  O   UNL     1      -7.778   6.367  71.448  1.00  0.00    -0.096 OA 
BRANCH  27  28
HETATM   28  C   UNL     1      -8.396   5.144  71.511  1.00  0.00    -0.120 A  
HETATM   29  C   UNL     1      -8.424   2.822  70.821  1.00  0.00    -0.091 A  
HETATM   30  C   UNL     1      -9.638   4.932  72.136  1.00  0.00    -0.196 A  
HETATM   31  C   UNL     1      -7.790   4.063  70.850  1.00  0.00    -0.055 A  
HETATM   32  C   UNL     1      -9.663   2.630  71.437  1.00  0.00    -0.217 A  
HETATM   33  C   UNL     1     -10.270   3.694  72.094  1.00  0.00    -0.171 A  
BRANCH  31  34
HETATM   34  O   UNL     1      -6.647   4.119  70.096  1.00  0.00    -0.031 OA 
BRANCH  34  35
HETATM   35  C   UNL     1      -6.720   4.852  68.867  1.00  0.00    -0.050 C  
HETATM   36  C   UNL     1      -6.307   4.013  67.661  1.00  0.00    -0.037 C  
HETATM   37  F   UNL     1      -6.118   2.709  67.953  1.00  0.00    -0.022 F  
HETATM   38  F   UNL     1      -7.232   4.085  66.676  1.00  0.00    -0.063 F  
HETATM   39  F   UNL     1      -5.140   4.477  67.136  1.00  0.00    -0.006 F  
ENDBRANCH  34  35
ENDBRANCH  31  34
ENDBRANCH  27  28
ENDBRANCH  26  27
ENDBRANCH  25  26
ENDBRANCH  23  25
ENDBRANCH   2  23
TORSDOF 13
ENDMDL
MODEL      309
REMARK 921   NORMALIZED FREE ENERGY PREDICTED BY IDOCK:   -3.76 KCAL/MOL
REMARK 922        TOTAL FREE ENERGY PREDICTED BY IDOCK:   -9.79 KCAL/MOL
REMARK 923 INTER-LIGAND FREE ENERGY PREDICTED BY IDOCK:   -8.92 KCAL/MOL
REMARK 924 INTRA-LIGAND FREE ENERGY PREDICTED BY IDOCK:   -0.87 KCAL/MOL
REMARK 927      BINDING AFFINITY PREDICTED BY RF-SCORE:    0.00 PKD
ROOT
HETATM    1  C   UNL     1      -8.373  14.106  69.530  1.00  0.00     0.560 C  
HETATM    2  C   UNL     1      -7.481  13.036  68.888  1.00  0.00     0.014 C  
ENDROOT
BRANCH   2   3
HETATM    3  C   UNL     1      -6.951  13.466  67.501  1.00  0.00    -0.153 C  
BRANCH   3   4
HETATM    4  C   UNL     1      -7.203  14.913  67.186  1.00  0.00    -0.005 A  
HETATM    5  C   UNL     1      -8.484  15.330  66.809  1.00  0.00    -0.290 A  
HETATM    6  C   UNL     1      -6.365  19.493  66.653  1.00  0.00    -0.183 A  
HETATM    7  C   UNL     1      -6.184  15.853  67.251  1.00  0.00    -0.117 A  
HETATM    8  C   UNL     1      -6.487  17.178  66.965  1.00  0.00    -0.225 A  
HETATM    9  C   UNL     1      -8.795  16.687  66.545  1.00  0.00    -0.314 A  
HETATM   10  C   UNL     1      -7.773  17.641  66.602  1.00  0.00    -0.249 A  
HETATM   11  C   UNL     1      -5.493  18.290  66.997  1.00  0.00    -0.151 A  
HETATM   12  N   UNL     1      -7.721  19.005  66.372  1.00  0.00    -0.264 NA 
BRANCH  12  13
HETATM   13  C   UNL     1      -8.767  19.963  66.073  1.00  0.00    -0.245 C  
BRANCH  13  14
HETATM   14  C   UNL     1      -9.273  20.661  67.338  1.00  0.00    -0.436 C  
BRANCH  14  15
HETATM   15  C   UNL     1      -9.192  19.790  68.584  1.00  0.00    -0.230 C  
HETATM   16  O   UNL     1     -10.477  19.744  69.207  1.00  0.00    -0.599 OA 
HETATM   17  H   UNL     1     -10.426  19.200  69.985  1.00  0.00     0.000 HD 
ENDBRANCH  14  15
ENDBRANCH  13  14
ENDBRANCH  12  13
BRANCH   9  18
HETATM   18  C   UNL     1     -10.221  16.914  66.192  1.00  0.00    -0.341 C  
HETATM   19  N   UNL     1     -11.115  16.894  67.239  1.00  0.00    -0.015 N  
HETATM   20  O   UNL     1     -10.631  17.058  65.046  1.00  0.00    -0.703 OA 
HETATM   21  H2  UNL     1     -10.817  16.732  68.200  1.00  0.00     0.000 HD 
HETATM   22  H1  UNL     1     -12.094  17.050  66.996  1.00  0.00     0.000 HD 
ENDBRANCH   9  18
ENDBRANCH   3   4
ENDBRANCH   2   3
BRANCH   2  23
HETATM   23  N   UNL     1      -8.246  11.779  68.811  1.00  0.00    -0.327 NA 
HETATM   24  H   UNL     1      -8.191  11.272  69.694  1.00  0.00     0.000 HD 
BRANCH  23  25
HETATM   25  C   UNL     1      -9.649  11.955  68.402  1.00  0.00    -0.196 C  
BRANCH  25  26
HETATM   26  C   UNL     1     -10.564  10.759  68.742  1.00  0.00    -0.200 C  
BRANCH  26  27
HETATM   27  O   UNL     1     -10.252  10.171  70.012  1.00  0.00    -0.254 OA 
BRANCH  27  28
HETATM   28  C   UNL     1     -11.309   9.760  70.785  1.00  0.00    -0.342 A  
HETATM   29  C   UNL     1     -12.561   7.916  71.733  1.00  0.00    -0.353 A  
HETATM   30  C   UNL     1     -12.291  10.633  71.285  1.00  0.00    -0.488 A  
HETATM   31  C   UNL     1     -11.457   8.384  71.022  1.00  0.00    -0.268 A  
HETATM   32  C   UNL     1     -13.534   8.795  72.215  1.00  0.00    -0.463 A  
HETATM   33  C   UNL     1     -13.395  10.158  71.985  1.00  0.00    -0.492 A  
BRANCH  31  34
HETATM   34  O   UNL     1     -10.665   7.388  70.512  1.00  0.00    -0.224 OA 
BRANCH  34  35
HETATM   35  C   UNL     1     -11.307   6.416  69.678  1.00  0.00    -0.412 C  
HETATM   36  C   UNL     1     -10.695   6.348  68.283  1.00  0.00    -0.285 C  
HETATM   37  F   UNL     1      -9.572   7.085  68.152  1.00  0.00    -0.131 F  
HETATM   38  F   UNL     1     -10.394   5.073  67.942  1.00  0.00    -0.212 F  
HETATM   39  F   UNL     1     -11.579   6.802  67.353  1.00  0.00    -0.325 F  
ENDBRANCH  34  35
ENDBRANCH  31  34
ENDBRANCH  27  28
ENDBRANCH  26  27
ENDBRANCH  25  26
ENDBRANCH  23  25
ENDBRANCH   2  23
TORSDOF 13
ENDMDL
MODEL      310
REMARK 921   NORMALIZED FREE ENERGY PREDICTED BY IDOCK:   -3.76 KCAL/MOL
REMARK 922        TOTAL FREE ENERGY PREDICTED BY IDOCK:   -9.78 KCAL/MOL
REMARK 923 INTER-LIGAND FREE ENERGY PREDICTED BY IDOCK:   -7.36 KCAL/MOL
REMARK 924 INTRA-LIGAND FREE ENERGY PREDICTED BY IDOCK:   -2.42 KCAL/MOL
REMARK 927      BINDING AFFINITY PREDICTED BY RF-SCORE:    0.00 PKD
ROOT
HETATM    1  C   UNL     1      -6.935   6.661  64.320  1.00  0.00    -0.051 C  
HETATM    2  C   UNL     1      -6.320   7.669  65.299  1.00  0.00    -0.038 C  
ENDROOT
BRANCH   2   3
HETATM    3  C   UNL     1      -5.566   6.979  66.458  1.00  0.00    -0.023 C  
BRANCH   3   4
HETATM    4  C   UNL     1      -6.465   6.532  67.576  1.00  0.00    -0.052 A  
HETATM    5  C   UNL     1      -6.523   7.274  68.761  1.00  0.00    -0.040 A  
HETATM    6  C   UNL     1      -9.634   3.976  69.897  1.00  0.00    -0.211 A  
HETATM    7  C   UNL     1      -7.240   5.386  67.464  1.00  0.00    -0.075 A  
HETATM    8  C   UNL     1      -8.064   5.039  68.526  1.00  0.00    -0.085 A  
HETATM    9  C   UNL     1      -7.387   6.931  69.831  1.00  0.00    -0.088 A  
HETATM   10  C   UNL     1      -8.166   5.774  69.730  1.00  0.00    -0.108 A  
HETATM   11  C   UNL     1      -8.948   3.837  68.542  1.00  0.00    -0.173 A  
HETATM   12  N   UNL     1      -9.061   5.144  70.578  1.00  0.00    -0.136 NA 
BRANCH  12  13
HETATM   13  C   UNL     1      -9.586   5.533  71.872  1.00  0.00    -0.156 C  
BRANCH  13  14
HETATM   14  C   UNL     1     -11.116   5.495  71.895  1.00  0.00    -0.233 C  
BRANCH  14  15
HETATM   15  C   UNL     1     -11.760   6.858  71.682  1.00  0.00    -0.304 C  
HETATM   16  O   UNL     1     -10.831   7.716  71.015  1.00  0.00    -0.236 OA 
HETATM   17  H   UNL     1     -11.233   8.566  70.882  1.00  0.00     0.000 HD 
ENDBRANCH  14  15
ENDBRANCH  13  14
ENDBRANCH  12  13
BRANCH   9  18
HETATM   18  C   UNL     1      -7.313   7.870  70.981  1.00  0.00    -0.062 C  
HETATM   19  N   UNL     1      -8.171   8.946  70.941  1.00  0.00    -0.159 N  
HETATM   20  O   UNL     1      -6.512   7.767  71.903  1.00  0.00    -0.042 OA 
HETATM   21  H2  UNL     1      -8.819   9.090  70.168  1.00  0.00     0.000 HD 
HETATM   22  H1  UNL     1      -8.120   9.591  71.730  1.00  0.00     0.000 HD 
ENDBRANCH   9  18
ENDBRANCH   3   4
ENDBRANCH   2   3
BRANCH   2  23
HETATM   23  N   UNL     1      -7.394   8.547  65.797  1.00  0.00    -0.079 NA 
HETATM   24  H   UNL     1      -7.154   9.526  65.648  1.00  0.00     0.000 HD 
BRANCH  23  25
HETATM   25  C   UNL     1      -8.722   8.248  65.235  1.00  0.00    -0.086 C  
BRANCH  25  26
HETATM   26  C   UNL     1      -9.614   9.490  65.024  1.00  0.00    -0.148 C  
BRANCH  26  27
HETATM   27  O   UNL     1      -9.284  10.564  65.915  1.00  0.00    -0.166 OA 
BRANCH  27  28
HETATM   28  C   UNL     1     -10.160  10.813  66.941  1.00  0.00    -0.212 A  
HETATM   29  C   UNL     1     -11.861  12.260  67.880  1.00  0.00    -0.358 A  
HETATM   30  C   UNL     1     -10.195  10.065  68.131  1.00  0.00    -0.205 A  
HETATM   31  C   UNL     1     -11.013  11.923  66.826  1.00  0.00    -0.292 A  
HETATM   32  C   UNL     1     -11.877  11.513  69.060  1.00  0.00    -0.408 A  
HETATM   33  C   UNL     1     -11.037  10.413  69.182  1.00  0.00    -0.296 A  
BRANCH  31  34
HETATM   34  O   UNL     1     -11.027  12.825  65.794  1.00  0.00    -0.270 OA 
BRANCH  34  35
HETATM   35  C   UNL     1     -12.245  12.935  65.049  1.00  0.00    -0.464 C  
HETATM   36  C   UNL     1     -12.080  12.514  63.593  1.00  0.00    -0.554 C  
HETATM   37  F   UNL     1     -10.877  11.963  63.326  1.00  0.00    -0.400 F  
HETATM   38  F   UNL     1     -13.031  11.622  63.230  1.00  0.00    -0.680 F  
HETATM   39  F   UNL     1     -12.217  13.588  62.768  1.00  0.00    -0.469 F  
ENDBRANCH  34  35
ENDBRANCH  31  34
ENDBRANCH  27  28
ENDBRANCH  26  27
ENDBRANCH  25  26
ENDBRANCH  23  25
ENDBRANCH   2  23
TORSDOF 13
ENDMDL
MODEL      311
REMARK 921   NORMALIZED FREE ENERGY PREDICTED BY IDOCK:   -3.72 KCAL/MOL
REMARK 922        TOTAL FREE ENERGY PREDICTED BY IDOCK:   -9.72 KCAL/MOL
REMARK 923 INTER-LIGAND FREE ENERGY PREDICTED BY IDOCK:   -8.70 KCAL/MOL
REMARK 924 INTRA-LIGAND FREE ENERGY PREDICTED BY IDOCK:   -1.02 KCAL/MOL
REMARK 927      BINDING AFFINITY PREDICTED BY RF-SCORE:    0.00 PKD
ROOT
HETATM    1  C   UNL     1     -12.018  13.127  66.620  1.00  0.00    -0.451 C  
HETATM    2  C   UNL     1     -11.839  12.762  65.141  1.00  0.00    -0.391 C  
ENDROOT
BRANCH   2   3
HETATM    3  C   UNL     1     -11.141  11.397  64.952  1.00  0.00    -0.235 C  
BRANCH   3   4
HETATM    4  C   UNL     1     -10.228  11.029  66.086  1.00  0.00    -0.298 A  
HETATM    5  C   UNL     1     -10.767  10.583  67.298  1.00  0.00    -0.333 A  
HETATM    6  C   UNL     1      -6.246  10.258  68.435  1.00  0.00    -0.047 A  
HETATM    7  C   UNL     1      -8.849  11.129  65.964  1.00  0.00    -0.196 A  
HETATM    8  C   UNL     1      -8.060  10.755  67.044  1.00  0.00    -0.124 A  
HETATM    9  C   UNL     1      -9.958  10.176  68.387  1.00  0.00    -0.173 A  
HETATM   10  C   UNL     1      -8.568  10.280  68.275  1.00  0.00    -0.122 A  
HETATM   11  C   UNL     1      -6.569  10.812  67.051  1.00  0.00    -0.085 A  
HETATM   12  N   UNL     1      -7.515  10.015  69.134  1.00  0.00    -0.084 NA 
BRANCH  12  13
HETATM   13  C   UNL     1      -7.488   9.429  70.460  1.00  0.00    -0.145 C  
BRANCH  13  14
HETATM   14  C   UNL     1      -6.518   8.247  70.535  1.00  0.00    -0.036 C  
BRANCH  14  15
HETATM   15  C   UNL     1      -7.154   6.916  70.161  1.00  0.00    -0.071 C  
HETATM   16  O   UNL     1      -8.204   7.147  69.219  1.00  0.00    -0.125 OA 
HETATM   17  H   UNL     1      -8.601   6.316  68.986  1.00  0.00     0.000 HD 
ENDBRANCH  14  15
ENDBRANCH  13  14
ENDBRANCH  12  13
BRANCH   9  18
HETATM   18  C   UNL     1     -10.735   9.709  69.565  1.00  0.00    -0.232 C  
HETATM   19  N   UNL     1     -11.017   8.362  69.610  1.00  0.00    -0.414 N  
HETATM   20  O   UNL     1     -11.170  10.449  70.440  1.00  0.00    -0.297 OA 
HETATM   21  H2  UNL     1     -10.710   7.722  68.878  1.00  0.00     0.000 HD 
HETATM   22  H1  UNL     1     -11.551   8.041  70.419  1.00  0.00     0.000 HD 
ENDBRANCH   9  18
ENDBRANCH   3   4
ENDBRANCH   2   3
BRANCH   2  23
HETATM   23  N   UNL     1     -11.092  13.849  64.482  1.00  0.00    -0.479 NA 
HETATM   24  H   UNL     1     -11.030  13.682  63.478  1.00  0.00     0.000 HD 
BRANCH  23  25
HETATM   25  C   UNL     1     -11.628  15.194  64.751  1.00  0.00    -0.364 C  
BRANCH  25  26
HETATM   26  C   UNL     1     -10.590  16.189  65.312  1.00  0.00    -0.369 C  
BRANCH  26  27
HETATM   27  O   UNL     1     -11.099  16.953  66.414  1.00  0.00     0.089 OA 
BRANCH  27  28
HETATM   28  C   UNL     1     -10.258  17.887  66.965  1.00  0.00    -0.358 A  
HETATM   29  C   UNL     1      -9.322  18.873  68.970  1.00  0.00    -0.261 A  
HETATM   30  C   UNL     1      -9.607  18.884  66.218  1.00  0.00    -0.344 A  
HETATM   31  C   UNL     1     -10.102  17.891  68.361  1.00  0.00    -0.383 A  
HETATM   32  C   UNL     1      -8.690  19.863  68.215  1.00  0.00    -0.263 A  
HETATM   33  C   UNL     1      -8.839  19.866  66.833  1.00  0.00    -0.419 A  
BRANCH  31  34
HETATM   34  O   UNL     1     -10.753  17.073  69.247  1.00  0.00    -0.323 OA 
BRANCH  34  35
HETATM   35  C   UNL     1     -11.234  15.823  68.738  1.00  0.00    -0.342 C  
HETATM   36  C   UNL     1     -11.231  14.722  69.794  1.00  0.00    -0.273 C  
HETATM   37  F   UNL     1     -10.942  15.169  71.035  1.00  0.00    -0.332 F  
HETATM   38  F   UNL     1     -12.430  14.096  69.851  1.00  0.00    -0.359 F  
HETATM   39  F   UNL     1     -10.308  13.771  69.488  1.00  0.00    -0.062 F  
ENDBRANCH  34  35
ENDBRANCH  31  34
ENDBRANCH  27  28
ENDBRANCH  26  27
ENDBRANCH  25  26
ENDBRANCH  23  25
ENDBRANCH   2  23
TORSDOF 13
ENDMDL
MODEL      312
REMARK 921   NORMALIZED FREE ENERGY PREDICTED BY IDOCK:   -3.71 KCAL/MOL
REMARK 922        TOTAL FREE ENERGY PREDICTED BY IDOCK:   -9.70 KCAL/MOL
REMARK 923 INTER-LIGAND FREE ENERGY PREDICTED BY IDOCK:   -8.74 KCAL/MOL
REMARK 924 INTRA-LIGAND FREE ENERGY PREDICTED BY IDOCK:   -0.95 KCAL/MOL
REMARK 927      BINDING AFFINITY PREDICTED BY RF-SCORE:    0.00 PKD
ROOT
HETATM    1  C   UNL     1      -9.516  11.235  67.554  1.00  0.00    -0.177 C  
HETATM    2  C   UNL     1      -8.302  12.106  67.900  1.00  0.00    -0.161 C  
ENDROOT
BRANCH   2   3
HETATM    3  C   UNL     1      -7.127  11.280  68.470  1.00  0.00    -0.083 C  
BRANCH   3   4
HETATM    4  C   UNL     1      -7.538   9.928  68.980  1.00  0.00    -0.086 A  
HETATM    5  C   UNL     1      -8.087   9.804  70.261  1.00  0.00    -0.181 A  
HETATM    6  C   UNL     1      -8.314   5.306  69.013  1.00  0.00    -0.095 A  
HETATM    7  C   UNL     1      -7.375   8.786  68.208  1.00  0.00    -0.087 A  
HETATM    8  C   UNL     1      -7.792   7.569  68.731  1.00  0.00    -0.121 A  
HETATM    9  C   UNL     1      -8.538   8.565  70.779  1.00  0.00    -0.175 A  
HETATM   10  C   UNL     1      -8.372   7.408  70.011  1.00  0.00    -0.137 A  
HETATM   11  C   UNL     1      -7.679   6.266  68.013  1.00  0.00    -0.103 A  
HETATM   12  N   UNL     1      -8.655   6.069  70.221  1.00  0.00    -0.140 NA 
BRANCH  12  13
HETATM   13  C   UNL     1      -9.330   5.396  71.312  1.00  0.00    -0.147 C  
BRANCH  13  14
HETATM   14  C   UNL     1     -10.844   5.620  71.265  1.00  0.00    -0.289 C  
BRANCH  14  15
HETATM   15  C   UNL     1     -11.359   5.984  69.879  1.00  0.00    -0.285 C  
HETATM   16  O   UNL     1     -11.975   7.272  69.932  1.00  0.00    -0.515 OA 
HETATM   17  H   UNL     1     -12.297   7.499  69.067  1.00  0.00     0.000 HD 
ENDBRANCH  14  15
ENDBRANCH  13  14
ENDBRANCH  12  13
BRANCH   9  18
HETATM   18  C   UNL     1      -9.116   8.664  72.145  1.00  0.00    -0.231 C  
HETATM   19  N   UNL     1     -10.468   8.914  72.214  1.00  0.00    -0.259 N  
HETATM   20  O   UNL     1      -8.458   8.593  73.177  1.00  0.00    -0.398 OA 
HETATM   21  H2  UNL     1     -11.040   9.024  71.377  1.00  0.00     0.000 HD 
HETATM   22  H1  UNL     1     -10.865   8.983  73.152  1.00  0.00     0.000 HD 
ENDBRANCH   9  18
ENDBRANCH   3   4
ENDBRANCH   2   3
BRANCH   2  23
HETATM   23  N   UNL     1      -8.736  13.154  68.841  1.00  0.00    -0.360 NA 
HETATM   24  H   UNL     1      -8.498  12.895  69.798  1.00  0.00     0.000 HD 
BRANCH  23  25
HETATM   25  C   UNL     1      -8.221  14.496  68.525  1.00  0.00    -0.154 C  
BRANCH  25  26
HETATM   26  C   UNL     1      -8.526  14.969  67.088  1.00  0.00    -0.218 C  
BRANCH  26  27
HETATM   27  O   UNL     1      -8.011  16.280  66.818  1.00  0.00    -0.214 OA 
BRANCH  27  28
HETATM   28  C   UNL     1      -8.909  17.317  66.828  1.00  0.00    -0.247 A  
HETATM   29  C   UNL     1     -10.853  18.355  65.822  1.00  0.00    -0.025 A  
HETATM   30  C   UNL     1      -8.786  18.443  67.660  1.00  0.00    -0.272 A  
HETATM   31  C   UNL     1      -9.965  17.284  65.902  1.00  0.00    -0.173 A  
HETATM   32  C   UNL     1     -10.712  19.472  66.648  1.00  0.00    -0.552 A  
HETATM   33  C   UNL     1      -9.670  19.513  67.568  1.00  0.00    -0.456 A  
BRANCH  31  34
HETATM   34  O   UNL     1     -10.164  16.326  64.941  1.00  0.00    -0.507 OA 
BRANCH  34  35
HETATM   35  C   UNL     1     -11.521  16.064  64.564  1.00  0.00    -0.271 C  
HETATM   36  C   UNL     1     -11.876  14.583  64.652  1.00  0.00    -0.453 C  
HETATM   37  F   UNL     1     -10.911  13.833  65.225  1.00  0.00    -0.294 F  
HETATM   38  F   UNL     1     -13.017  14.395  65.356  1.00  0.00    -0.473 F  
HETATM   39  F   UNL     1     -12.095  14.072  63.411  1.00  0.00    -0.409 F  
ENDBRANCH  34  35
ENDBRANCH  31  34
ENDBRANCH  27  28
ENDBRANCH  26  27
ENDBRANCH  25  26
ENDBRANCH  23  25
ENDBRANCH   2  23
TORSDOF 13
ENDMDL
MODEL      313
REMARK 921   NORMALIZED FREE ENERGY PREDICTED BY IDOCK:   -3.70 KCAL/MOL
REMARK 922        TOTAL FREE ENERGY PREDICTED BY IDOCK:   -9.69 KCAL/MOL
REMARK 923 INTER-LIGAND FREE ENERGY PREDICTED BY IDOCK:   -8.68 KCAL/MOL
REMARK 924 INTRA-LIGAND FREE ENERGY PREDICTED BY IDOCK:   -1.00 KCAL/MOL
REMARK 927      BINDING AFFINITY PREDICTED BY RF-SCORE:    0.00 PKD
ROOT
HETATM    1  C   UNL     1      -9.627  12.482  67.882  1.00  0.00    -0.206 C  
HETATM    2  C   UNL     1      -8.305  13.198  68.189  1.00  0.00    -0.161 C  
ENDROOT
BRANCH   2   3
HETATM    3  C   UNL     1      -7.195  12.218  68.632  1.00  0.00    -0.105 C  
BRANCH   3   4
HETATM    4  C   UNL     1      -7.587  10.773  68.511  1.00  0.00    -0.104 A  
HETATM    5  C   UNL     1      -7.378  10.093  67.306  1.00  0.00    -0.090 A  
HETATM    6  C   UNL     1      -9.199   6.551  69.751  1.00  0.00    -0.145 A  
HETATM    7  C   UNL     1      -8.167  10.092  69.573  1.00  0.00    -0.173 A  
HETATM    8  C   UNL     1      -8.489   8.752  69.402  1.00  0.00    -0.125 A  
HETATM    9  C   UNL     1      -7.683   8.719  67.145  1.00  0.00    -0.096 A  
HETATM   10  C   UNL     1      -8.273   8.026  68.208  1.00  0.00    -0.123 A  
HETATM   11  C   UNL     1      -9.115   7.900  70.455  1.00  0.00    -0.154 A  
HETATM   12  N   UNL     1      -8.722   6.727  68.373  1.00  0.00    -0.124 NA 
BRANCH  12  13
HETATM   13  C   UNL     1      -8.645   5.572  67.501  1.00  0.00    -0.108 C  
BRANCH  13  14
HETATM   14  C   UNL     1     -10.010   4.901  67.330  1.00  0.00    -0.209 C  
BRANCH  14  15
HETATM   15  C   UNL     1     -10.887   5.568  66.280  1.00  0.00    -0.057 C  
HETATM   16  O   UNL     1     -11.313   4.586  65.333  1.00  0.00    -0.937 OA 
HETATM   17  H   UNL     1     -11.860   5.003  64.678  1.00  0.00     0.000 HD 
ENDBRANCH  14  15
ENDBRANCH  13  14
ENDBRANCH  12  13
BRANCH   9  18
HETATM   18  C   UNL     1      -7.353   8.189  65.797  1.00  0.00    -0.076 C  
HETATM   19  N   UNL     1      -6.056   7.767  65.611  1.00  0.00    -0.038 N  
HETATM   20  O   UNL     1      -8.139   8.163  64.856  1.00  0.00    -0.140 OA 
HETATM   21  H2  UNL     1      -5.362   7.814  66.357  1.00  0.00     0.000 HD 
HETATM   22  H1  UNL     1      -5.829   7.403  64.685  1.00  0.00     0.000 HD 
ENDBRANCH   9  18
ENDBRANCH   3   4
ENDBRANCH   2   3
BRANCH   2  23
HETATM   23  N   UNL     1      -8.561  14.226  69.214  1.00  0.00    -0.355 NA 
HETATM   24  H   UNL     1      -8.389  13.851  70.147  1.00  0.00     0.000 HD 
BRANCH  23  25
HETATM   25  C   UNL     1      -7.810  15.475  69.011  1.00  0.00    -0.201 C  
BRANCH  25  26
HETATM   26  C   UNL     1      -7.186  15.619  67.606  1.00  0.00    -0.173 C  
BRANCH  26  27
HETATM   27  O   UNL     1      -7.232  16.966  67.118  1.00  0.00    -0.150 OA 
BRANCH  27  28
HETATM   28  C   UNL     1      -8.337  17.710  67.445  1.00  0.00    -0.210 A  
HETATM   29  C   UNL     1     -10.601  18.372  66.894  1.00  0.00    -0.381 A  
HETATM   30  C   UNL     1      -8.357  18.653  68.488  1.00  0.00    -0.369 A  
HETATM   31  C   UNL     1      -9.484  17.576  66.646  1.00  0.00    -0.275 A  
HETATM   32  C   UNL     1     -10.602  19.312  67.927  1.00  0.00    -0.478 A  
HETATM   33  C   UNL     1      -9.471  19.451  68.724  1.00  0.00    -0.464 A  
BRANCH  31  34
HETATM   34  O   UNL     1      -9.597  16.797  65.524  1.00  0.00    -0.515 OA 
BRANCH  34  35
HETATM   35  C   UNL     1      -9.967  15.428  65.722  1.00  0.00    -0.362 C  
HETATM   36  C   UNL     1     -11.217  15.041  64.939  1.00  0.00    -0.416 C  
HETATM   37  F   UNL     1     -11.635  16.000  64.086  1.00  0.00    -0.473 F  
HETATM   38  F   UNL     1     -11.016  13.911  64.222  1.00  0.00    -0.378 F  
HETATM   39  F   UNL     1     -12.250  14.786  65.788  1.00  0.00    -0.313 F  
ENDBRANCH  34  35
ENDBRANCH  31  34
ENDBRANCH  27  28
ENDBRANCH  26  27
ENDBRANCH  25  26
ENDBRANCH  23  25
ENDBRANCH   2  23
TORSDOF 13
ENDMDL
MODEL      314
REMARK 921   NORMALIZED FREE ENERGY PREDICTED BY IDOCK:   -3.69 KCAL/MOL
REMARK 922        TOTAL FREE ENERGY PREDICTED BY IDOCK:   -9.66 KCAL/MOL
REMARK 923 INTER-LIGAND FREE ENERGY PREDICTED BY IDOCK:   -8.24 KCAL/MOL
REMARK 924 INTRA-LIGAND FREE ENERGY PREDICTED BY IDOCK:   -1.42 KCAL/MOL
REMARK 927      BINDING AFFINITY PREDICTED BY RF-SCORE:    0.00 PKD
ROOT
HETATM    1  C   UNL     1     -12.109  11.598  69.047  1.00  0.00    -0.288 C  
HETATM    2  C   UNL     1     -11.031  11.853  67.986  1.00  0.00    -0.224 C  
ENDROOT
BRANCH   2   3
HETATM    3  C   UNL     1     -11.369  13.059  67.080  1.00  0.00    -0.348 C  
BRANCH   3   4
HETATM    4  C   UNL     1     -10.518  14.267  67.348  1.00  0.00    -0.264 A  
HETATM    5  C   UNL     1      -9.169  14.108  67.682  1.00  0.00    -0.193 A  
HETATM    6  C   UNL     1      -9.319  18.778  67.771  1.00  0.00    -0.293 A  
HETATM    7  C   UNL     1     -11.045  15.549  67.281  1.00  0.00    -0.271 A  
HETATM    8  C   UNL     1     -10.199  16.625  67.522  1.00  0.00    -0.289 A  
HETATM    9  C   UNL     1      -8.303  15.209  67.898  1.00  0.00    -0.153 A  
HETATM   10  C   UNL     1      -8.827  16.505  67.840  1.00  0.00    -0.193 A  
HETATM   11  C   UNL     1     -10.630  18.053  67.483  1.00  0.00    -0.402 A  
HETATM   12  N   UNL     1      -8.288  17.765  68.032  1.00  0.00    -0.242 NA 
BRANCH  12  13
HETATM   13  C   UNL     1      -6.926  18.194  68.278  1.00  0.00    -0.233 C  
BRANCH  13  14
HETATM   14  C   UNL     1      -6.880  19.521  69.040  1.00  0.00    -0.384 C  
BRANCH  14  15
HETATM   15  C   UNL     1      -5.970  19.489  70.260  1.00  0.00    -0.250 C  
HETATM   16  O   UNL     1      -5.580  18.139  70.517  1.00  0.00    -0.244 OA 
HETATM   17  H   UNL     1      -5.012  18.119  71.279  1.00  0.00     0.000 HD 
ENDBRANCH  14  15
ENDBRANCH  13  14
ENDBRANCH  12  13
BRANCH   9  18
HETATM   18  C   UNL     1      -6.905  14.815  68.210  1.00  0.00    -0.114 C  
HETATM   19  N   UNL     1      -6.619  14.589  69.538  1.00  0.00    -0.134 N  
HETATM   20  O   UNL     1      -6.009  14.739  67.376  1.00  0.00    -0.339 OA 
HETATM   21  H2  UNL     1      -7.327  14.686  70.265  1.00  0.00     0.000 HD 
HETATM   22  H1  UNL     1      -5.659  14.319  69.752  1.00  0.00     0.000 HD 
ENDBRANCH   9  18
ENDBRANCH   3   4
ENDBRANCH   2   3
BRANCH   2  23
HETATM   23  N   UNL     1     -10.851  10.619  67.201  1.00  0.00    -0.281 NA 
HETATM   24  H   UNL     1     -11.010  10.799  66.210  1.00  0.00     0.000 HD 
BRANCH  23  25
HETATM   25  C   UNL     1      -9.550   9.962  67.406  1.00  0.00    -0.155 C  
BRANCH  25  26
HETATM   26  C   UNL     1      -9.477   9.079  68.670  1.00  0.00    -0.147 C  
BRANCH  26  27
HETATM   27  O   UNL     1     -10.708   8.395  68.936  1.00  0.00    -0.179 OA 
BRANCH  27  28
HETATM   28  C   UNL     1     -10.712   7.501  69.977  1.00  0.00    -0.240 A  
HETATM   29  C   UNL     1     -10.229   5.258  70.755  1.00  0.00    -0.317 A  
HETATM   30  C   UNL     1     -11.293   7.768  71.229  1.00  0.00    -0.289 A  
HETATM   31  C   UNL     1     -10.173   6.224  69.751  1.00  0.00    -0.187 A  
HETATM   32  C   UNL     1     -10.820   5.536  71.991  1.00  0.00    -0.287 A  
HETATM   33  C   UNL     1     -11.355   6.797  72.222  1.00  0.00    -0.310 A  
BRANCH  31  34
HETATM   34  O   UNL     1      -9.677   5.757  68.562  1.00  0.00    -0.121 OA 
BRANCH  34  35
HETATM   35  C   UNL     1      -8.921   4.540  68.610  1.00  0.00    -0.112 C  
HETATM   36  C   UNL     1      -9.286   3.581  67.482  1.00  0.00    -0.206 C  
HETATM   37  F   UNL     1     -10.117   4.120  66.566  1.00  0.00    -0.230 F  
HETATM   38  F   UNL     1      -8.181   3.148  66.832  1.00  0.00    -0.084 F  
HETATM   39  F   UNL     1      -9.905   2.476  67.980  1.00  0.00    -0.237 F  
ENDBRANCH  34  35
ENDBRANCH  31  34
ENDBRANCH  27  28
ENDBRANCH  26  27
ENDBRANCH  25  26
ENDBRANCH  23  25
ENDBRANCH   2  23
TORSDOF 13
ENDMDL
MODEL      315
REMARK 921   NORMALIZED FREE ENERGY PREDICTED BY IDOCK:   -3.67 KCAL/MOL
REMARK 922        TOTAL FREE ENERGY PREDICTED BY IDOCK:   -9.62 KCAL/MOL
REMARK 923 INTER-LIGAND FREE ENERGY PREDICTED BY IDOCK:   -8.42 KCAL/MOL
REMARK 924 INTRA-LIGAND FREE ENERGY PREDICTED BY IDOCK:   -1.20 KCAL/MOL
REMARK 927      BINDING AFFINITY PREDICTED BY RF-SCORE:    0.00 PKD
ROOT
HETATM    1  C   UNL     1      -7.903   9.818  65.696  1.00  0.00    -0.114 C  
HETATM    2  C   UNL     1      -8.665   9.767  67.026  1.00  0.00    -0.135 C  
ENDROOT
BRANCH   2   3
HETATM    3  C   UNL     1      -9.660   8.585  67.090  1.00  0.00    -0.232 C  
BRANCH   3   4
HETATM    4  C   UNL     1      -9.737   7.939  68.444  1.00  0.00    -0.170 A  
HETATM    5  C   UNL     1     -10.841   8.181  69.268  1.00  0.00    -0.064 A  
HETATM    6  C   UNL     1      -8.539   5.257  72.095  1.00  0.00    -0.126 A  
HETATM    7  C   UNL     1      -8.726   7.108  68.905  1.00  0.00    -0.128 A  
HETATM    8  C   UNL     1      -8.867   6.527  70.158  1.00  0.00    -0.144 A  
HETATM    9  C   UNL     1     -10.994   7.564  70.534  1.00  0.00    -0.266 A  
HETATM   10  C   UNL     1      -9.977   6.730  71.010  1.00  0.00    -0.182 A  
HETATM   11  C   UNL     1      -7.860   5.616  70.777  1.00  0.00    -0.093 A  
HETATM   12  N   UNL     1      -9.790   6.020  72.184  1.00  0.00    -0.161 NA 
BRANCH  12  13
HETATM   13  C   UNL     1     -10.661   5.815  73.325  1.00  0.00    -0.254 C  
BRANCH  13  14
HETATM   14  C   UNL     1      -9.976   4.988  74.416  1.00  0.00    -0.236 C  
BRANCH  14  15
HETATM   15  C   UNL     1     -10.514   3.569  74.529  1.00  0.00    -0.183 C  
HETATM   16  O   UNL     1     -10.890   3.106  73.230  1.00  0.00    -0.179 OA 
HETATM   17  H   UNL     1     -11.226   2.220  73.301  1.00  0.00     0.000 HD 
ENDBRANCH  14  15
ENDBRANCH  13  14
ENDBRANCH  12  13
BRANCH   9  18
HETATM   18  C   UNL     1     -12.254   7.935  71.230  1.00  0.00    -0.294 C  
HETATM   19  N   UNL     1     -13.327   7.094  71.032  1.00  0.00    -0.540 N  
HETATM   20  O   UNL     1     -12.396   8.949  71.903  1.00  0.00    -0.326 OA 
HETATM   21  H2  UNL     1     -13.260   6.264  70.443  1.00  0.00     0.000 HD 
HETATM   22  H1  UNL     1     -14.192   7.348  71.509  1.00  0.00     0.000 HD 
ENDBRANCH   9  18
ENDBRANCH   3   4
ENDBRANCH   2   3
BRANCH   2  23
HETATM   23  N   UNL     1      -9.346  11.060  67.221  1.00  0.00    -0.156 NA 
HETATM   24  H   UNL     1      -9.132  11.695  66.453  1.00  0.00     0.000 HD 
BRANCH  23  25
HETATM   25  C   UNL     1     -10.802  10.949  67.409  1.00  0.00    -0.279 C  
BRANCH  25  26
HETATM   26  C   UNL     1     -11.600  12.174  66.915  1.00  0.00    -0.341 C  
BRANCH  26  27
HETATM   27  O   UNL     1     -10.901  13.408  67.123  1.00  0.00    -0.271 OA 
BRANCH  27  28
HETATM   28  C   UNL     1     -11.254  14.147  68.223  1.00  0.00    -0.272 A  
HETATM   29  C   UNL     1     -11.332  16.317  69.297  1.00  0.00    -0.288 A  
HETATM   30  C   UNL     1     -11.724  13.581  69.421  1.00  0.00    -0.381 A  
HETATM   31  C   UNL     1     -11.063  15.538  68.173  1.00  0.00    -0.325 A  
HETATM   32  C   UNL     1     -11.789  15.739  70.483  1.00  0.00    -0.402 A  
HETATM   33  C   UNL     1     -11.981  14.363  70.542  1.00  0.00    -0.395 A  
BRANCH  31  34
HETATM   34  O   UNL     1     -10.505  16.237  67.135  1.00  0.00    -0.294 OA 
BRANCH  34  35
HETATM   35  C   UNL     1      -9.954  17.523  67.445  1.00  0.00    -0.315 C  
HETATM   36  C   UNL     1      -8.429  17.521  67.442  1.00  0.00    -0.216 C  
HETATM   37  F   UNL     1      -7.894  16.368  66.987  1.00  0.00    -0.168 F  
HETATM   38  F   UNL     1      -7.940  18.529  66.683  1.00  0.00    -0.230 F  
HETATM   39  F   UNL     1      -7.951  17.712  68.701  1.00  0.00    -0.256 F  
ENDBRANCH  34  35
ENDBRANCH  31  34
ENDBRANCH  27  28
ENDBRANCH  26  27
ENDBRANCH  25  26
ENDBRANCH  23  25
ENDBRANCH   2  23
TORSDOF 13
ENDMDL
MODEL      316
REMARK 921   NORMALIZED FREE ENERGY PREDICTED BY IDOCK:   -3.66 KCAL/MOL
REMARK 922        TOTAL FREE ENERGY PREDICTED BY IDOCK:   -9.61 KCAL/MOL
REMARK 923 INTER-LIGAND FREE ENERGY PREDICTED BY IDOCK:   -7.75 KCAL/MOL
REMARK 924 INTRA-LIGAND FREE ENERGY PREDICTED BY IDOCK:   -1.87 KCAL/MOL
REMARK 927      BINDING AFFINITY PREDICTED BY RF-SCORE:    0.00 PKD
ROOT
HETATM    1  C   UNL     1      -9.860   9.938  65.471  1.00  0.00    -0.381 C  
HETATM    2  C   UNL     1      -9.418  10.700  66.727  1.00  0.00    -0.162 C  
ENDROOT
BRANCH   2   3
HETATM    3  C   UNL     1     -10.593  10.968  67.696  1.00  0.00    -0.255 C  
BRANCH   3   4
HETATM    4  C   UNL     1     -10.761   9.903  68.741  1.00  0.00    -0.247 A  
HETATM    5  C   UNL     1     -10.322   8.600  68.484  1.00  0.00    -0.228 A  
HETATM    6  C   UNL     1     -11.893   7.917  72.832  1.00  0.00    -0.112 A  
HETATM    7  C   UNL     1     -11.357  10.180  69.964  1.00  0.00    -0.351 A  
HETATM    8  C   UNL     1     -11.466   9.155  70.894  1.00  0.00    -0.357 A  
HETATM    9  C   UNL     1     -10.409   7.564  69.447  1.00  0.00    -0.213 A  
HETATM   10  C   UNL     1     -11.014   7.832  70.680  1.00  0.00    -0.249 A  
HETATM   11  C   UNL     1     -12.082   9.312  72.244  1.00  0.00    -0.262 A  
HETATM   12  N   UNL     1     -11.291   7.066  71.798  1.00  0.00    -0.249 NA 
BRANCH  12  13
HETATM   13  C   UNL     1     -10.953   5.694  72.124  1.00  0.00    -0.250 C  
BRANCH  13  14
HETATM   14  C   UNL     1      -9.514   5.572  72.632  1.00  0.00    -0.160 C  
BRANCH  14  15
HETATM   15  C   UNL     1      -8.915   4.188  72.430  1.00  0.00    -0.111 C  
HETATM   16  O   UNL     1      -9.222   3.733  71.111  1.00  0.00    -0.109 OA 
HETATM   17  H   UNL     1      -8.847   2.869  70.984  1.00  0.00     0.000 HD 
ENDBRANCH  14  15
ENDBRANCH  13  14
ENDBRANCH  12  13
BRANCH   9  18
HETATM   18  C   UNL     1      -9.855   6.267  68.979  1.00  0.00    -0.143 C  
HETATM   19  N   UNL     1     -10.776   5.313  68.605  1.00  0.00    -0.033 N  
HETATM   20  O   UNL     1      -8.660   5.994  68.963  1.00  0.00    -0.118 OA 
HETATM   21  H2  UNL     1     -11.780   5.488  68.648  1.00  0.00     0.000 HD 
HETATM   22  H1  UNL     1     -10.396   4.422  68.284  1.00  0.00     0.000 HD 
ENDBRANCH   9  18
ENDBRANCH   3   4
ENDBRANCH   2   3
BRANCH   2  23
HETATM   23  N   UNL     1      -8.768  11.953  66.304  1.00  0.00    -0.365 NA 
HETATM   24  H   UNL     1      -9.382  12.484  65.687  1.00  0.00     0.000 HD 
BRANCH  23  25
HETATM   25  C   UNL     1      -8.303  12.794  67.419  1.00  0.00    -0.189 C  
BRANCH  25  26
HETATM   26  C   UNL     1      -7.740  14.166  66.988  1.00  0.00     0.159 C  
BRANCH  26  27
HETATM   27  O   UNL     1      -7.328  14.968  68.102  1.00  0.00    -0.101 OA 
BRANCH  27  28
HETATM   28  C   UNL     1      -7.829  16.244  68.170  1.00  0.00    -0.155 A  
HETATM   29  C   UNL     1      -9.710  17.684  68.675  1.00  0.00    -0.332 A  
HETATM   30  C   UNL     1      -7.137  17.375  67.703  1.00  0.00    -0.176 A  
HETATM   31  C   UNL     1      -9.132  16.416  68.663  1.00  0.00    -0.233 A  
HETATM   32  C   UNL     1      -9.014  18.798  68.197  1.00  0.00    -0.337 A  
HETATM   33  C   UNL     1      -7.723  18.637  67.708  1.00  0.00    -0.253 A  
BRANCH  31  34
HETATM   34  O   UNL     1      -9.987  15.415  69.046  1.00  0.00    -0.206 OA 
BRANCH  34  35
HETATM   35  C   UNL     1     -10.990  15.757  70.011  1.00  0.00    -0.338 C  
HETATM   36  C   UNL     1     -11.812  14.550  70.451  1.00  0.00    -0.311 C  
HETATM   37  F   UNL     1     -11.336  13.376  69.985  1.00  0.00    -0.265 F  
HETATM   38  F   UNL     1     -11.871  14.464  71.800  1.00  0.00    -0.370 F  
HETATM   39  F   UNL     1     -13.095  14.662  70.011  1.00  0.00    -0.286 F  
ENDBRANCH  34  35
ENDBRANCH  31  34
ENDBRANCH  27  28
ENDBRANCH  26  27
ENDBRANCH  25  26
ENDBRANCH  23  25
ENDBRANCH   2  23
TORSDOF 13
ENDMDL
MODEL      317
REMARK 921   NORMALIZED FREE ENERGY PREDICTED BY IDOCK:   -3.65 KCAL/MOL
REMARK 922        TOTAL FREE ENERGY PREDICTED BY IDOCK:   -9.59 KCAL/MOL
REMARK 923 INTER-LIGAND FREE ENERGY PREDICTED BY IDOCK:   -7.39 KCAL/MOL
REMARK 924 INTRA-LIGAND FREE ENERGY PREDICTED BY IDOCK:   -2.21 KCAL/MOL
REMARK 927      BINDING AFFINITY PREDICTED BY RF-SCORE:    0.00 PKD
ROOT
HETATM    1  C   UNL     1      -8.495  14.490  66.770  1.00  0.00    -0.108 C  
HETATM    2  C   UNL     1      -8.044  13.966  68.139  1.00  0.00    -0.150 C  
ENDROOT
BRANCH   2   3
HETATM    3  C   UNL     1      -6.610  13.391  68.106  1.00  0.00    -0.118 C  
BRANCH   3   4
HETATM    4  C   UNL     1      -6.563  11.913  67.839  1.00  0.00    -0.075 A  
HETATM    5  C   UNL     1      -6.290  11.447  66.548  1.00  0.00    -0.095 A  
HETATM    6  C   UNL     1      -6.697   7.303  68.669  1.00  0.00    -0.060 A  
HETATM    7  C   UNL     1      -6.796  10.990  68.849  1.00  0.00    -0.079 A  
HETATM    8  C   UNL     1      -6.720   9.639  68.540  1.00  0.00    -0.052 A  
HETATM    9  C   UNL     1      -6.185  10.067  66.244  1.00  0.00    -0.070 A  
HETATM   10  C   UNL     1      -6.425   9.130  67.254  1.00  0.00    -0.060 A  
HETATM   11  C   UNL     1      -6.946   8.540  69.525  1.00  0.00    -0.048 A  
HETATM   12  N   UNL     1      -6.444   7.746  67.292  1.00  0.00    -0.054 NA 
BRANCH  12  13
HETATM   13  C   UNL     1      -6.119   6.759  66.283  1.00  0.00    -0.034 C  
BRANCH  13  14
HETATM   14  C   UNL     1      -7.093   5.578  66.312  1.00  0.00    -0.072 C  
BRANCH  14  15
HETATM   15  C   UNL     1      -7.936   5.456  65.051  1.00  0.00    -0.110 C  
HETATM   16  O   UNL     1      -8.326   6.761  64.620  1.00  0.00    -0.294 OA 
HETATM   17  H   UNL     1      -8.852   6.684  63.832  1.00  0.00     0.000 HD 
ENDBRANCH  14  15
ENDBRANCH  13  14
ENDBRANCH  12  13
BRANCH   9  18
HETATM   18  C   UNL     1      -5.857   9.794  64.820  1.00  0.00    -0.087 C  
HETATM   19  N   UNL     1      -5.517  10.888  64.055  1.00  0.00    -0.358 N  
HETATM   20  O   UNL     1      -5.928   8.688  64.298  1.00  0.00    -0.065 OA 
HETATM   21  H2  UNL     1      -5.491  11.830  64.444  1.00  0.00     0.000 HD 
HETATM   22  H1  UNL     1      -5.292  10.700  63.078  1.00  0.00     0.000 HD 
ENDBRANCH   9  18
ENDBRANCH   3   4
ENDBRANCH   2   3
BRANCH   2  23
HETATM   23  N   UNL     1      -9.021  12.961  68.596  1.00  0.00    -0.394 NA 
HETATM   24  H   UNL     1      -8.777  12.622  69.526  1.00  0.00     0.000 HD 
BRANCH  23  25
HETATM   25  C   UNL     1     -10.418  13.426  68.565  1.00  0.00    -0.252 C  
BRANCH  25  26
HETATM   26  C   UNL     1     -11.463  12.300  68.716  1.00  0.00    -0.311 C  
BRANCH  26  27
HETATM   27  O   UNL     1     -12.045  11.917  67.463  1.00  0.00    -0.573 OA 
BRANCH  27  28
HETATM   28  C   UNL     1     -11.218  11.312  66.550  1.00  0.00    -0.152 A  
HETATM   29  C   UNL     1     -10.597  11.012  64.228  1.00  0.00    -0.402 A  
HETATM   30  C   UNL     1     -10.292  10.309  66.887  1.00  0.00    -0.298 A  
HETATM   31  C   UNL     1     -11.360  11.661  65.198  1.00  0.00    -0.156 A  
HETATM   32  C   UNL     1      -9.688  10.010  64.577  1.00  0.00    -0.310 A  
HETATM   33  C   UNL     1      -9.541   9.658  65.914  1.00  0.00    -0.321 A  
BRANCH  31  34
HETATM   34  O   UNL     1     -12.290  12.526  64.682  1.00  0.00    -0.449 OA 
BRANCH  34  35
HETATM   35  C   UNL     1     -11.794  13.604  63.879  1.00  0.00    -0.374 C  
HETATM   36  C   UNL     1     -11.833  14.942  64.610  1.00  0.00    -0.407 C  
HETATM   37  F   UNL     1     -12.163  14.833  65.914  1.00  0.00    -0.310 F  
HETATM   38  F   UNL     1     -10.639  15.574  64.539  1.00  0.00    -0.394 F  
HETATM   39  F   UNL     1     -12.748  15.771  64.036  1.00  0.00    -0.295 F  
ENDBRANCH  34  35
ENDBRANCH  31  34
ENDBRANCH  27  28
ENDBRANCH  26  27
ENDBRANCH  25  26
ENDBRANCH  23  25
ENDBRANCH   2  23
TORSDOF 13
ENDMDL
MODEL      318
REMARK 921   NORMALIZED FREE ENERGY PREDICTED BY IDOCK:   -3.64 KCAL/MOL
REMARK 922        TOTAL FREE ENERGY PREDICTED BY IDOCK:   -9.57 KCAL/MOL
REMARK 923 INTER-LIGAND FREE ENERGY PREDICTED BY IDOCK:   -7.77 KCAL/MOL
REMARK 924 INTRA-LIGAND FREE ENERGY PREDICTED BY IDOCK:   -1.80 KCAL/MOL
REMARK 927      BINDING AFFINITY PREDICTED BY RF-SCORE:    0.00 PKD
ROOT
HETATM    1  C   UNL     1      -5.157  14.327  69.720  1.00  0.00    -0.091 C  
HETATM    2  C   UNL     1      -5.680  15.174  68.553  1.00  0.00    -0.096 C  
ENDROOT
BRANCH   2   3
HETATM    3  C   UNL     1      -6.974  15.938  68.914  1.00  0.00    -0.143 C  
BRANCH   3   4
HETATM    4  C   UNL     1      -8.203  15.379  68.255  1.00  0.00    -0.145 A  
HETATM    5  C   UNL     1      -8.845  16.109  67.248  1.00  0.00    -0.202 A  
HETATM    6  C   UNL     1     -11.645  12.367  67.236  1.00  0.00    -0.365 A  
HETATM    7  C   UNL     1      -8.727  14.150  68.630  1.00  0.00    -0.126 A  
HETATM    8  C   UNL     1      -9.854  13.682  67.967  1.00  0.00    -0.244 A  
HETATM    9  C   UNL     1      -9.978  15.615  66.556  1.00  0.00    -0.287 A  
HETATM   10  C   UNL     1     -10.518  14.380  66.932  1.00  0.00    -0.269 A  
HETATM   11  C   UNL     1     -10.522  12.381  68.266  1.00  0.00    -0.234 A  
HETATM   12  N   UNL     1     -11.608  13.641  66.506  1.00  0.00    -0.349 NA 
BRANCH  12  13
HETATM   13  C   UNL     1     -12.545  13.859  65.422  1.00  0.00    -0.507 C  
BRANCH  13  14
HETATM   14  C   UNL     1     -12.854  12.561  64.671  1.00  0.00    -0.325 C  
BRANCH  14  15
HETATM   15  C   UNL     1     -12.292  12.530  63.257  1.00  0.00    -0.371 C  
HETATM   16  O   UNL     1     -12.760  11.355  62.593  1.00  0.00    -0.834 OA 
HETATM   17  H   UNL     1     -12.410  11.336  61.710  1.00  0.00     0.000 HD 
ENDBRANCH  14  15
ENDBRANCH  13  14
ENDBRANCH  12  13
BRANCH   9  18
HETATM   18  C   UNL     1     -10.483  16.536  65.505  1.00  0.00    -0.301 C  
HETATM   19  N   UNL     1     -10.391  17.882  65.783  1.00  0.00    -0.269 N  
HETATM   20  O   UNL     1     -11.011  16.167  64.462  1.00  0.00    -0.645 OA 
HETATM   21  H2  UNL     1     -10.000  18.226  66.659  1.00  0.00     0.000 HD 
HETATM   22  H1  UNL     1     -10.738  18.515  65.061  1.00  0.00     0.000 HD 
ENDBRANCH   9  18
ENDBRANCH   3   4
ENDBRANCH   2   3
BRANCH   2  23
HETATM   23  N   UNL     1      -5.878  14.290  67.391  1.00  0.00    -0.312 NA 
HETATM   24  H   UNL     1      -5.425  14.680  66.564  1.00  0.00     0.000 HD 
BRANCH  23  25
HETATM   25  C   UNL     1      -5.443  12.901  67.612  1.00  0.00    -0.109 C  
BRANCH  25  26
HETATM   26  C   UNL     1      -6.320  11.843  66.910  1.00  0.00    -0.107 C  
BRANCH  26  27
HETATM   27  O   UNL     1      -6.131  10.526  67.446  1.00  0.00    -0.052 OA 
BRANCH  27  28
HETATM   28  C   UNL     1      -7.153  10.008  68.200  1.00  0.00    -0.080 A  
HETATM   29  C   UNL     1      -9.207   8.725  68.265  1.00  0.00    -0.143 A  
HETATM   30  C   UNL     1      -7.336  10.297  69.563  1.00  0.00    -0.132 A  
HETATM   31  C   UNL     1      -8.108   9.206  67.555  1.00  0.00    -0.104 A  
HETATM   32  C   UNL     1      -9.381   9.031  69.617  1.00  0.00    -0.169 A  
HETATM   33  C   UNL     1      -8.440   9.823  70.264  1.00  0.00    -0.163 A  
BRANCH  31  34
HETATM   34  O   UNL     1      -8.150   8.923  66.214  1.00  0.00    -0.107 OA 
BRANCH  34  35
HETATM   35  C   UNL     1      -7.327   7.843  65.756  1.00  0.00    -0.076 C  
HETATM   36  C   UNL     1      -8.106   6.543  65.595  1.00  0.00    -0.128 C  
HETATM   37  F   UNL     1      -9.439   6.692  65.748  1.00  0.00    -0.106 F  
HETATM   38  F   UNL     1      -7.891   5.991  64.378  1.00  0.00    -0.086 F  
HETATM   39  F   UNL     1      -7.700   5.627  66.516  1.00  0.00    -0.093 F  
ENDBRANCH  34  35
ENDBRANCH  31  34
ENDBRANCH  27  28
ENDBRANCH  26  27
ENDBRANCH  25  26
ENDBRANCH  23  25
ENDBRANCH   2  23
TORSDOF 13
ENDMDL
MODEL      319
REMARK 921   NORMALIZED FREE ENERGY PREDICTED BY IDOCK:   -3.63 KCAL/MOL
REMARK 922        TOTAL FREE ENERGY PREDICTED BY IDOCK:   -9.55 KCAL/MOL
REMARK 923 INTER-LIGAND FREE ENERGY PREDICTED BY IDOCK:   -7.07 KCAL/MOL
REMARK 924 INTRA-LIGAND FREE ENERGY PREDICTED BY IDOCK:   -2.48 KCAL/MOL
REMARK 927      BINDING AFFINITY PREDICTED BY RF-SCORE:    0.00 PKD
ROOT
HETATM    1  C   UNL     1     -11.503   6.703  72.474  1.00  0.00    -0.269 C  
HETATM    2  C   UNL     1     -11.446   8.069  71.779  1.00  0.00    -0.277 C  
ENDROOT
BRANCH   2   3
HETATM    3  C   UNL     1     -11.434   7.946  70.238  1.00  0.00    -0.097 C  
BRANCH   3   4
HETATM    4  C   UNL     1     -11.253   9.260  69.533  1.00  0.00    -0.017 A  
HETATM    5  C   UNL     1     -10.640   9.296  68.276  1.00  0.00    -0.237 A  
HETATM    6  C   UNL     1     -11.515  13.866  68.713  1.00  0.00    -0.292 A  
HETATM    7  C   UNL     1     -11.675  10.450  70.108  1.00  0.00    -0.394 A  
HETATM    8  C   UNL     1     -11.495  11.629  69.395  1.00  0.00    -0.372 A  
HETATM    9  C   UNL     1     -10.484  10.497  67.541  1.00  0.00    -0.284 A  
HETATM   10  C   UNL     1     -10.900  11.703  68.115  1.00  0.00    -0.217 A  
HETATM   11  C   UNL     1     -11.901  12.977  69.890  1.00  0.00    -0.377 A  
HETATM   12  N   UNL     1     -10.862  13.024  67.702  1.00  0.00    -0.236 NA 
BRANCH  12  13
HETATM   13  C   UNL     1     -10.448  13.622  66.449  1.00  0.00    -0.288 C  
BRANCH  13  14
HETATM   14  C   UNL     1     -11.594  14.383  65.779  1.00  0.00    -0.353 C  
BRANCH  14  15
HETATM   15  C   UNL     1     -12.898  13.598  65.732  1.00  0.00    -0.333 C  
HETATM   16  O   UNL     1     -12.667  12.346  65.084  1.00  0.00    -0.630 OA 
HETATM   17  H   UNL     1     -13.481  11.856  65.055  1.00  0.00     0.000 HD 
ENDBRANCH  14  15
ENDBRANCH  13  14
ENDBRANCH  12  13
BRANCH   9  18
HETATM   18  C   UNL     1      -9.835  10.306  66.217  1.00  0.00    -0.219 C  
HETATM   19  N   UNL     1      -8.507   9.944  66.239  1.00  0.00    -0.127 N  
HETATM   20  O   UNL     1     -10.392  10.503  65.143  1.00  0.00    -0.304 OA 
HETATM   21  H2  UNL     1      -7.998   9.815  67.113  1.00  0.00     0.000 HD 
HETATM   22  H1  UNL     1      -8.061   9.812  65.331  1.00  0.00     0.000 HD 
ENDBRANCH   9  18
ENDBRANCH   3   4
ENDBRANCH   2   3
BRANCH   2  23
HETATM   23  N   UNL     1     -10.260   8.792  72.273  1.00  0.00    -0.293 NA 
HETATM   24  H   UNL     1     -10.529   9.477  72.979  1.00  0.00     0.000 HD 
BRANCH  23  25
HETATM   25  C   UNL     1      -9.193   7.916  72.783  1.00  0.00    -0.221 C  
BRANCH  25  26
HETATM   26  C   UNL     1      -7.798   8.202  72.185  1.00  0.00    -0.125 C  
BRANCH  26  27
HETATM   27  O   UNL     1      -7.818   9.269  71.227  1.00  0.00    -0.322 OA 
BRANCH  27  28
HETATM   28  C   UNL     1      -6.895   9.213  70.213  1.00  0.00    -0.055 A  
HETATM   29  C   UNL     1      -5.647  10.399  68.509  1.00  0.00    -0.037 A  
HETATM   30  C   UNL     1      -6.365   8.012  69.711  1.00  0.00    -0.036 A  
HETATM   31  C   UNL     1      -6.520  10.417  69.596  1.00  0.00    -0.076 A  
HETATM   32  C   UNL     1      -5.136   9.196  68.014  1.00  0.00    -0.034 A  
HETATM   33  C   UNL     1      -5.502   8.000  68.620  1.00  0.00    -0.031 A  
BRANCH  31  34
HETATM   34  O   UNL     1      -7.027  11.659  69.877  1.00  0.00     0.020 OA 
BRANCH  34  35
HETATM   35  C   UNL     1      -7.754  12.312  68.829  1.00  0.00    -0.016 C  
HETATM   36  C   UNL     1      -7.239  13.721  68.551  1.00  0.00    -0.108 C  
HETATM   37  F   UNL     1      -6.104  14.019  69.217  1.00  0.00    -0.084 F  
HETATM   38  F   UNL     1      -7.003  13.904  67.231  1.00  0.00    -0.189 F  
HETATM   39  F   UNL     1      -8.168  14.647  68.914  1.00  0.00    -0.144 F  
ENDBRANCH  34  35
ENDBRANCH  31  34
ENDBRANCH  27  28
ENDBRANCH  26  27
ENDBRANCH  25  26
ENDBRANCH  23  25
ENDBRANCH   2  23
TORSDOF 13
ENDMDL
MODEL      320
REMARK 921   NORMALIZED FREE ENERGY PREDICTED BY IDOCK:   -3.63 KCAL/MOL
REMARK 922        TOTAL FREE ENERGY PREDICTED BY IDOCK:   -9.55 KCAL/MOL
REMARK 923 INTER-LIGAND FREE ENERGY PREDICTED BY IDOCK:   -7.64 KCAL/MOL
REMARK 924 INTRA-LIGAND FREE ENERGY PREDICTED BY IDOCK:   -1.91 KCAL/MOL
REMARK 927      BINDING AFFINITY PREDICTED BY RF-SCORE:    0.00 PKD
ROOT
HETATM    1  C   UNL     1      -9.508   7.744  66.351  1.00  0.00    -0.245 C  
HETATM    2  C   UNL     1     -10.154   8.764  67.297  1.00  0.00    -0.236 C  
ENDROOT
BRANCH   2   3
HETATM    3  C   UNL     1      -9.106   9.616  68.049  1.00  0.00    -0.128 C  
BRANCH   3   4
HETATM    4  C   UNL     1      -9.270  11.094  67.835  1.00  0.00    -0.154 A  
HETATM    5  C   UNL     1      -8.283  11.976  68.288  1.00  0.00    -0.161 A  
HETATM    6  C   UNL     1     -11.163  15.130  66.390  1.00  0.00    -0.277 A  
HETATM    7  C   UNL     1     -10.391  11.611  67.201  1.00  0.00    -0.247 A  
HETATM    8  C   UNL     1     -10.473  12.985  67.018  1.00  0.00    -0.249 A  
HETATM    9  C   UNL     1      -8.357  13.375  68.074  1.00  0.00    -0.165 A  
HETATM   10  C   UNL     1      -9.487  13.906  67.442  1.00  0.00    -0.226 A  
HETATM   11  C   UNL     1     -11.617  13.675  66.353  1.00  0.00    -0.375 A  
HETATM   12  N   UNL     1      -9.889  15.190  67.118  1.00  0.00    -0.227 NA 
BRANCH  12  13
HETATM   13  C   UNL     1      -9.209  16.464  67.244  1.00  0.00    -0.215 C  
BRANCH  13  14
HETATM   14  C   UNL     1      -8.156  16.654  66.149  1.00  0.00    -0.273 C  
BRANCH  14  15
HETATM   15  C   UNL     1      -6.923  17.413  66.619  1.00  0.00    -0.233 C  
HETATM   16  O   UNL     1      -5.755  16.663  66.282  1.00  0.00    -0.228 OA 
HETATM   17  H   UNL     1      -4.986  17.137  66.575  1.00  0.00     0.000 HD 
ENDBRANCH  14  15
ENDBRANCH  13  14
ENDBRANCH  12  13
BRANCH   9  18
HETATM   18  C   UNL     1      -7.189  14.123  68.608  1.00  0.00    -0.116 C  
HETATM   19  N   UNL     1      -7.345  14.677  69.859  1.00  0.00    -0.393 N  
HETATM   20  O   UNL     1      -6.149  14.310  67.987  1.00  0.00    -0.123 OA 
HETATM   21  H2  UNL     1      -8.212  14.581  70.387  1.00  0.00     0.000 HD 
HETATM   22  H1  UNL     1      -6.543  15.191  70.226  1.00  0.00     0.000 HD 
ENDBRANCH   9  18
ENDBRANCH   3   4
ENDBRANCH   2   3
BRANCH   2  23
HETATM   23  N   UNL     1     -11.034   8.039  68.230  1.00  0.00    -0.428 NA 
HETATM   24  H   UNL     1     -11.215   7.095  67.890  1.00  0.00     0.000 HD 
BRANCH  23  25
HETATM   25  C   UNL     1     -10.540   8.004  69.616  1.00  0.00    -0.223 C  
BRANCH  25  26
HETATM   26  C   UNL     1     -11.623   8.279  70.682  1.00  0.00    -0.191 C  
BRANCH  26  27
HETATM   27  O   UNL     1     -11.082   8.364  72.007  1.00  0.00    -0.280 OA 
BRANCH  27  28
HETATM   28  C   UNL     1     -10.898   7.184  72.682  1.00  0.00    -0.279 A  
HETATM   29  C   UNL     1      -9.526   5.878  74.193  1.00  0.00    -0.150 A  
HETATM   30  C   UNL     1     -11.703   6.047  72.494  1.00  0.00    -0.280 A  
HETATM   31  C   UNL     1      -9.798   7.084  73.550  1.00  0.00    -0.259 A  
HETATM   32  C   UNL     1     -10.330   4.754  73.988  1.00  0.00    -0.299 A  
HETATM   33  C   UNL     1     -11.421   4.843  73.131  1.00  0.00    -0.362 A  
BRANCH  31  34
HETATM   34  O   UNL     1      -8.847   8.049  73.758  1.00  0.00    -0.266 OA 
BRANCH  34  35
HETATM   35  C   UNL     1      -7.943   8.310  72.677  1.00  0.00    -0.137 C  
HETATM   36  C   UNL     1      -6.584   7.648  72.879  1.00  0.00    -0.064 C  
HETATM   37  F   UNL     1      -6.545   6.814  73.938  1.00  0.00    -0.070 F  
HETATM   38  F   UNL     1      -6.217   6.942  71.784  1.00  0.00    -0.037 F  
HETATM   39  F   UNL     1      -5.622   8.590  73.077  1.00  0.00    -0.049 F  
ENDBRANCH  34  35
ENDBRANCH  31  34
ENDBRANCH  27  28
ENDBRANCH  26  27
ENDBRANCH  25  26
ENDBRANCH  23  25
ENDBRANCH   2  23
TORSDOF 13
ENDMDL
MODEL      321
REMARK 921   NORMALIZED FREE ENERGY PREDICTED BY IDOCK:   -3.61 KCAL/MOL
REMARK 922        TOTAL FREE ENERGY PREDICTED BY IDOCK:   -9.52 KCAL/MOL
REMARK 923 INTER-LIGAND FREE ENERGY PREDICTED BY IDOCK:   -7.17 KCAL/MOL
REMARK 924 INTRA-LIGAND FREE ENERGY PREDICTED BY IDOCK:   -2.35 KCAL/MOL
REMARK 927      BINDING AFFINITY PREDICTED BY RF-SCORE:    0.00 PKD
ROOT
HETATM    1  C   UNL     1      -5.388  12.195  71.281  1.00  0.00    -0.047 C  
HETATM    2  C   UNL     1      -5.755  12.665  69.868  1.00  0.00    -0.123 C  
ENDROOT
BRANCH   2   3
HETATM    3  C   UNL     1      -5.307  11.663  68.779  1.00  0.00    -0.045 C  
BRANCH   3   4
HETATM    4  C   UNL     1      -6.387  11.333  67.788  1.00  0.00    -0.056 A  
HETATM    5  C   UNL     1      -7.731  11.461  68.155  1.00  0.00    -0.118 A  
HETATM    6  C   UNL     1      -8.384  10.059  63.745  1.00  0.00    -0.170 A  
HETATM    7  C   UNL     1      -6.081  10.891  66.509  1.00  0.00    -0.122 A  
HETATM    8  C   UNL     1      -7.126  10.621  65.635  1.00  0.00    -0.076 A  
HETATM    9  C   UNL     1      -8.793  11.212  67.251  1.00  0.00    -0.144 A  
HETATM   10  C   UNL     1      -8.494  10.759  65.961  1.00  0.00    -0.169 A  
HETATM   11  C   UNL     1      -6.942  10.141  64.233  1.00  0.00    -0.103 A  
HETATM   12  N   UNL     1      -9.265  10.394  64.871  1.00  0.00    -0.201 NA 
BRANCH  12  13
HETATM   13  C   UNL     1     -10.698  10.445  64.654  1.00  0.00     0.416 C  
BRANCH  13  14
HETATM   14  C   UNL     1     -11.113  11.725  63.924  1.00  0.00    -0.482 C  
BRANCH  14  15
HETATM   15  C   UNL     1     -12.614  11.977  63.948  1.00  0.00    -0.406 C  
HETATM   16  O   UNL     1     -12.915  12.911  64.986  1.00  0.00    -0.777 OA 
HETATM   17  H   UNL     1     -13.852  13.069  65.001  1.00  0.00     0.000 HD 
ENDBRANCH  14  15
ENDBRANCH  13  14
ENDBRANCH  12  13
BRANCH   9  18
HETATM   18  C   UNL     1     -10.140  11.439  67.836  1.00  0.00    -0.183 C  
HETATM   19  N   UNL     1     -10.913  12.400  67.225  1.00  0.00    -0.249 N  
HETATM   20  O   UNL     1     -10.560  10.870  68.838  1.00  0.00    -0.188 OA 
HETATM   21  H2  UNL     1     -10.581  12.926  66.417  1.00  0.00     0.000 HD 
HETATM   22  H1  UNL     1     -11.838  12.557  67.627  1.00  0.00     0.000 HD 
ENDBRANCH   9  18
ENDBRANCH   3   4
ENDBRANCH   2   3
BRANCH   2  23
HETATM   23  N   UNL     1      -5.164  13.998  69.653  1.00  0.00    -0.090 NA 
HETATM   24  H   UNL     1      -4.538  13.986  68.849  1.00  0.00     0.000 HD 
BRANCH  23  25
HETATM   25  C   UNL     1      -6.154  15.079  69.523  1.00  0.00    -0.117 C  
BRANCH  25  26
HETATM   26  C   UNL     1      -6.844  15.144  68.143  1.00  0.00    -0.128 C  
BRANCH  26  27
HETATM   27  O   UNL     1      -8.000  15.992  68.145  1.00  0.00    -0.138 OA 
BRANCH  27  28
HETATM   28  C   UNL     1      -8.849  15.890  67.072  1.00  0.00    -0.215 A  
HETATM   29  C   UNL     1     -10.766  16.772  65.882  1.00  0.00    -0.166 A  
HETATM   30  C   UNL     1      -8.836  14.811  66.171  1.00  0.00     0.077 A  
HETATM   31  C   UNL     1      -9.832  16.880  66.911  1.00  0.00    -0.276 A  
HETATM   32  C   UNL     1     -10.747  15.688  65.001  1.00  0.00    -0.458 A  
HETATM   33  C   UNL     1      -9.777  14.704  65.153  1.00  0.00     0.003 A  
BRANCH  31  34
HETATM   34  O   UNL     1     -10.063  17.931  67.760  1.00  0.00    -0.315 OA 
BRANCH  34  35
HETATM   35  C   UNL     1      -9.203  19.070  67.627  1.00  0.00    -0.294 C  
HETATM   36  C   UNL     1      -9.849  20.199  66.832  1.00  0.00    -0.454 C  
HETATM   37  F   UNL     1     -11.152  19.983  66.553  1.00  0.00    -0.510 F  
HETATM   38  F   UNL     1      -9.759  21.377  67.493  1.00  0.00    -0.562 F  
HETATM   39  F   UNL     1      -9.211  20.369  65.643  1.00  0.00    -0.282 F  
ENDBRANCH  34  35
ENDBRANCH  31  34
ENDBRANCH  27  28
ENDBRANCH  26  27
ENDBRANCH  25  26
ENDBRANCH  23  25
ENDBRANCH   2  23
TORSDOF 13
ENDMDL
MODEL      322
REMARK 921   NORMALIZED FREE ENERGY PREDICTED BY IDOCK:   -3.61 KCAL/MOL
REMARK 922        TOTAL FREE ENERGY PREDICTED BY IDOCK:   -9.51 KCAL/MOL
REMARK 923 INTER-LIGAND FREE ENERGY PREDICTED BY IDOCK:   -8.26 KCAL/MOL
REMARK 924 INTRA-LIGAND FREE ENERGY PREDICTED BY IDOCK:   -1.25 KCAL/MOL
REMARK 927      BINDING AFFINITY PREDICTED BY RF-SCORE:    0.00 PKD
ROOT
HETATM    1  C   UNL     1      -7.664  12.930  69.254  1.00  0.00     0.459 C  
HETATM    2  C   UNL     1      -8.180  11.624  68.638  1.00  0.00    -0.110 C  
ENDROOT
BRANCH   2   3
HETATM    3  C   UNL     1      -7.914  11.545  67.117  1.00  0.00    -0.160 C  
BRANCH   3   4
HETATM    4  C   UNL     1      -8.016  10.152  66.563  1.00  0.00    -0.118 A  
HETATM    5  C   UNL     1      -8.090   9.958  65.179  1.00  0.00    -0.138 A  
HETATM    6  C   UNL     1      -8.204   5.471  66.479  1.00  0.00    -0.105 A  
HETATM    7  C   UNL     1      -8.050   9.044  67.397  1.00  0.00    -0.108 A  
HETATM    8  C   UNL     1      -8.126   7.784  66.820  1.00  0.00    -0.115 A  
HETATM    9  C   UNL     1      -8.139   8.669  64.593  1.00  0.00    -0.156 A  
HETATM   10  C   UNL     1      -8.180   7.546  65.427  1.00  0.00    -0.135 A  
HETATM   11  C   UNL     1      -8.169   6.509  67.595  1.00  0.00    -0.122 A  
HETATM   12  N   UNL     1      -8.267   6.184  65.197  1.00  0.00    -0.139 NA 
BRANCH  12  13
HETATM   13  C   UNL     1      -8.252   5.421  63.965  1.00  0.00    -0.125 C  
BRANCH  13  14
HETATM   14  C   UNL     1      -8.924   4.057  64.136  1.00  0.00    -0.135 C  
BRANCH  14  15
HETATM   15  C   UNL     1     -10.141   3.863  63.242  1.00  0.00    -0.165 C  
HETATM   16  O   UNL     1     -11.162   3.189  63.979  1.00  0.00    -0.587 OA 
HETATM   17  H   UNL     1     -11.921   3.068  63.420  1.00  0.00     0.000 HD 
ENDBRANCH  14  15
ENDBRANCH  13  14
ENDBRANCH  12  13
BRANCH   9  18
HETATM   18  C   UNL     1      -8.181   8.690  63.108  1.00  0.00    -0.170 C  
HETATM   19  N   UNL     1      -9.381   9.056  62.540  1.00  0.00    -0.495 N  
HETATM   20  O   UNL     1      -7.248   8.353  62.388  1.00  0.00    -0.097 OA 
HETATM   21  H2  UNL     1     -10.193   9.299  63.107  1.00  0.00     0.000 HD 
HETATM   22  H1  UNL     1      -9.410   9.071  61.520  1.00  0.00     0.000 HD 
ENDBRANCH   9  18
ENDBRANCH   3   4
ENDBRANCH   2   3
BRANCH   2  23
HETATM   23  N   UNL     1      -9.616  11.501  68.944  1.00  0.00    -0.395 NA 
HETATM   24  H   UNL     1      -9.845  12.016  69.794  1.00  0.00     0.000 HD 
BRANCH  23  25
HETATM   25  C   UNL     1     -10.502  11.905  67.840  1.00  0.00    -0.204 C  
BRANCH  25  26
HETATM   26  C   UNL     1     -11.673  12.816  68.268  1.00  0.00    -0.344 C  
BRANCH  26  27
HETATM   27  O   UNL     1     -11.809  13.970  67.428  1.00  0.00    -0.367 OA 
BRANCH  27  28
HETATM   28  C   UNL     1     -10.941  15.008  67.650  1.00  0.00    -0.305 A  
HETATM   29  C   UNL     1     -10.385  16.975  68.951  1.00  0.00    -0.337 A  
HETATM   30  C   UNL     1      -9.856  15.308  66.807  1.00  0.00    -0.246 A  
HETATM   31  C   UNL     1     -11.195  15.861  68.736  1.00  0.00    -0.359 A  
HETATM   32  C   UNL     1      -9.318  17.265  68.098  1.00  0.00    -0.274 A  
HETATM   33  C   UNL     1      -9.058  16.426  67.020  1.00  0.00    -0.232 A  
BRANCH  31  34
HETATM   34  O   UNL     1     -12.270  15.787  69.584  1.00  0.00    -0.336 OA 
BRANCH  34  35
HETATM   35  C   UNL     1     -11.983  15.648  70.981  1.00  0.00    -0.400 C  
HETATM   36  C   UNL     1     -13.152  15.056  71.761  1.00  0.00    -0.356 C  
HETATM   37  F   UNL     1     -14.159  14.623  70.974  1.00  0.00    -0.425 F  
HETATM   38  F   UNL     1     -12.751  14.015  72.528  1.00  0.00    -0.397 F  
HETATM   39  F   UNL     1     -13.678  15.984  72.606  1.00  0.00    -0.562 F  
ENDBRANCH  34  35
ENDBRANCH  31  34
ENDBRANCH  27  28
ENDBRANCH  26  27
ENDBRANCH  25  26
ENDBRANCH  23  25
ENDBRANCH   2  23
TORSDOF 13
ENDMDL
MODEL      323
REMARK 921   NORMALIZED FREE ENERGY PREDICTED BY IDOCK:   -3.60 KCAL/MOL
REMARK 922        TOTAL FREE ENERGY PREDICTED BY IDOCK:   -9.50 KCAL/MOL
REMARK 923 INTER-LIGAND FREE ENERGY PREDICTED BY IDOCK:   -8.10 KCAL/MOL
REMARK 924 INTRA-LIGAND FREE ENERGY PREDICTED BY IDOCK:   -1.40 KCAL/MOL
REMARK 927      BINDING AFFINITY PREDICTED BY RF-SCORE:    0.00 PKD
ROOT
HETATM    1  C   UNL     1      -8.423  11.180  66.328  1.00  0.00    -0.168 C  
HETATM    2  C   UNL     1      -7.848  12.459  66.951  1.00  0.00    -0.011 C  
ENDROOT
BRANCH   2   3
HETATM    3  C   UNL     1      -7.870  12.423  68.496  1.00  0.00    -0.112 C  
BRANCH   3   4
HETATM    4  C   UNL     1      -8.154  11.060  69.059  1.00  0.00    -0.105 A  
HETATM    5  C   UNL     1      -9.374  10.810  69.697  1.00  0.00     0.215 A  
HETATM    6  C   UNL     1      -7.525   6.539  70.123  1.00  0.00    -0.094 A  
HETATM    7  C   UNL     1      -7.223  10.034  68.970  1.00  0.00    -0.076 A  
HETATM    8  C   UNL     1      -7.554   8.792  69.495  1.00  0.00    -0.080 A  
HETATM    9  C   UNL     1      -9.719   9.533  70.205  1.00  0.00    -0.314 A  
HETATM   10  C   UNL     1      -8.784   8.496  70.126  1.00  0.00    -0.137 A  
HETATM   11  C   UNL     1      -6.652   7.604  69.468  1.00  0.00    -0.036 A  
HETATM   12  N   UNL     1      -8.779   7.177  70.545  1.00  0.00    -0.148 NA 
BRANCH  12  13
HETATM   13  C   UNL     1      -9.815   6.362  71.149  1.00  0.00    -0.179 C  
BRANCH  13  14
HETATM   14  C   UNL     1     -10.438   5.399  70.136  1.00  0.00    -0.361 C  
BRANCH  14  15
HETATM   15  C   UNL     1     -11.474   6.054  69.233  1.00  0.00     0.031 C  
HETATM   16  O   UNL     1     -10.814   6.631  68.105  1.00  0.00    -0.254 OA 
HETATM   17  H   UNL     1     -11.461   7.040  67.542  1.00  0.00     0.000 HD 
ENDBRANCH  14  15
ENDBRANCH  13  14
ENDBRANCH  12  13
BRANCH   9  18
HETATM   18  C   UNL     1     -11.074   9.481  70.815  1.00  0.00    -0.323 C  
HETATM   19  N   UNL     1     -12.130   9.731  69.968  1.00  0.00    -0.466 N  
HETATM   20  O   UNL     1     -11.285   9.288  72.007  1.00  0.00    -0.343 OA 
HETATM   21  H2  UNL     1     -11.991   9.940  68.979  1.00  0.00     0.000 HD 
HETATM   22  H1  UNL     1     -13.060   9.696  70.386  1.00  0.00     0.000 HD 
ENDBRANCH   9  18
ENDBRANCH   3   4
ENDBRANCH   2   3
BRANCH   2  23
HETATM   23  N   UNL     1      -8.602  13.611  66.424  1.00  0.00    -0.367 NA 
HETATM   24  H   UNL     1      -9.604  13.422  66.446  1.00  0.00     0.000 HD 
BRANCH  23  25
HETATM   25  C   UNL     1      -8.300  14.884  67.098  1.00  0.00    -0.221 C  
BRANCH  25  26
HETATM   26  C   UNL     1      -9.540  15.615  67.657  1.00  0.00    -0.220 C  
BRANCH  26  27
HETATM   27  O   UNL     1      -9.532  15.699  69.088  1.00  0.00    -0.219 OA 
BRANCH  27  28
HETATM   28  C   UNL     1     -10.672  15.307  69.742  1.00  0.00    -0.283 A  
HETATM   29  C   UNL     1     -12.568  13.802  69.835  1.00  0.00    -0.147 A  
HETATM   30  C   UNL     1     -11.227  16.009  70.826  1.00  0.00    -0.381 A  
HETATM   31  C   UNL     1     -11.362  14.186  69.251  1.00  0.00    -0.281 A  
HETATM   32  C   UNL     1     -13.112  14.516  70.905  1.00  0.00    -0.405 A  
HETATM   33  C   UNL     1     -12.436  15.626  71.397  1.00  0.00    -0.500 A  
BRANCH  31  34
HETATM   34  O   UNL     1     -11.031  13.461  68.137  1.00  0.00    -0.239 OA 
BRANCH  34  35
HETATM   35  C   UNL     1     -12.114  12.909  67.379  1.00  0.00    -0.197 C  
HETATM   36  C   UNL     1     -12.177  13.462  65.960  1.00  0.00    -0.437 C  
HETATM   37  F   UNL     1     -11.114  14.228  65.634  1.00  0.00    -0.297 F  
HETATM   38  F   UNL     1     -12.260  12.465  65.048  1.00  0.00    -0.435 F  
HETATM   39  F   UNL     1     -13.287  14.233  65.798  1.00  0.00    -0.505 F  
ENDBRANCH  34  35
ENDBRANCH  31  34
ENDBRANCH  27  28
ENDBRANCH  26  27
ENDBRANCH  25  26
ENDBRANCH  23  25
ENDBRANCH   2  23
TORSDOF 13
ENDMDL
MODEL      324
REMARK 921   NORMALIZED FREE ENERGY PREDICTED BY IDOCK:   -3.58 KCAL/MOL
REMARK 922        TOTAL FREE ENERGY PREDICTED BY IDOCK:   -9.48 KCAL/MOL
REMARK 923 INTER-LIGAND FREE ENERGY PREDICTED BY IDOCK:   -6.56 KCAL/MOL
REMARK 924 INTRA-LIGAND FREE ENERGY PREDICTED BY IDOCK:   -2.92 KCAL/MOL
REMARK 927      BINDING AFFINITY PREDICTED BY RF-SCORE:    0.00 PKD
ROOT
HETATM    1  C   UNL     1      -9.502   4.533  66.708  1.00  0.00    -0.187 C  
HETATM    2  C   UNL     1      -9.360   6.016  67.076  1.00  0.00    -0.122 C  
ENDROOT
BRANCH   2   3
HETATM    3  C   UNL     1      -8.138   6.676  66.399  1.00  0.00    -0.113 C  
BRANCH   3   4
HETATM    4  C   UNL     1      -8.108   8.171  66.542  1.00  0.00    -0.106 A  
HETATM    5  C   UNL     1      -9.209   8.931  66.132  1.00  0.00    -0.273 A  
HETATM    6  C   UNL     1      -6.531  12.435  67.681  1.00  0.00    -0.130 A  
HETATM    7  C   UNL     1      -7.002   8.823  67.068  1.00  0.00    -0.074 A  
HETATM    8  C   UNL     1      -7.046  10.206  67.191  1.00  0.00    -0.089 A  
HETATM    9  C   UNL     1      -9.260  10.339  66.286  1.00  0.00    -0.191 A  
HETATM   10  C   UNL     1      -8.147  11.006  66.808  1.00  0.00    -0.151 A  
HETATM   11  C   UNL     1      -5.931  11.034  67.738  1.00  0.00    -0.046 A  
HETATM   12  N   UNL     1      -7.854  12.337  67.050  1.00  0.00    -0.145 NA 
BRANCH  12  13
HETATM   13  C   UNL     1      -8.665  13.531  66.927  1.00  0.00    -0.145 C  
BRANCH  13  14
HETATM   14  C   UNL     1      -9.458  13.811  68.206  1.00  0.00    -0.214 C  
BRANCH  14  15
HETATM   15  C   UNL     1      -9.276  15.226  68.735  1.00  0.00    -0.203 C  
HETATM   16  O   UNL     1      -8.441  15.958  67.836  1.00  0.00    -0.159 OA 
HETATM   17  H   UNL     1      -8.328  16.842  68.167  1.00  0.00     0.000 HD 
ENDBRANCH  14  15
ENDBRANCH  13  14
ENDBRANCH  12  13
BRANCH   9  18
HETATM   18  C   UNL     1     -10.533  10.944  65.813  1.00  0.00    -0.210 C  
HETATM   19  N   UNL     1     -11.491  11.172  66.776  1.00  0.00    -0.056 N  
HETATM   20  O   UNL     1     -10.784  11.189  64.638  1.00  0.00    -0.325 OA 
HETATM   21  H2  UNL     1     -11.335  10.939  67.756  1.00  0.00     0.000 HD 
HETATM   22  H1  UNL     1     -12.365  11.587  66.452  1.00  0.00     0.000 HD 
ENDBRANCH   9  18
ENDBRANCH   3   4
ENDBRANCH   2   3
BRANCH   2  23
HETATM   23  N   UNL     1      -9.290   6.124  68.545  1.00  0.00    -0.118 NA 
HETATM   24  H   UNL     1      -9.213   7.101  68.827  1.00  0.00     0.000 HD 
BRANCH  23  25
HETATM   25  C   UNL     1     -10.405   5.469  69.248  1.00  0.00    -0.265 C  
BRANCH  25  26
HETATM   26  C   UNL     1     -11.554   6.422  69.643  1.00  0.00    -0.282 C  
BRANCH  26  27
HETATM   27  O   UNL     1     -11.252   7.194  70.812  1.00  0.00    -0.259 OA 
BRANCH  27  28
HETATM   28  C   UNL     1     -11.620   8.516  70.798  1.00  0.00    -0.231 A  
HETATM   29  C   UNL     1     -11.038  10.801  70.242  1.00  0.00    -0.248 A  
HETATM   30  C   UNL     1     -12.788   9.004  71.409  1.00  0.00    -0.355 A  
HETATM   31  C   UNL     1     -10.742   9.439  70.207  1.00  0.00    -0.253 A  
HETATM   32  C   UNL     1     -12.198  11.271  70.862  1.00  0.00    -0.460 A  
HETATM   33  C   UNL     1     -13.072  10.364  71.450  1.00  0.00    -0.512 A  
BRANCH  31  34
HETATM   34  O   UNL     1      -9.511   9.154  69.675  1.00  0.00    -0.160 OA 
BRANCH  34  35
HETATM   35  C   UNL     1      -8.605   8.416  70.503  1.00  0.00    -0.134 C  
HETATM   36  C   UNL     1      -7.348   9.209  70.844  1.00  0.00    -0.116 C  
HETATM   37  F   UNL     1      -7.402  10.499  70.449  1.00  0.00    -0.158 F  
HETATM   38  F   UNL     1      -7.107   9.196  72.176  1.00  0.00    -0.036 F  
HETATM   39  F   UNL     1      -6.259   8.655  70.245  1.00  0.00    -0.035 F  
ENDBRANCH  34  35
ENDBRANCH  31  34
ENDBRANCH  27  28
ENDBRANCH  26  27
ENDBRANCH  25  26
ENDBRANCH  23  25
ENDBRANCH   2  23
TORSDOF 13
ENDMDL
MODEL      325
REMARK 921   NORMALIZED FREE ENERGY PREDICTED BY IDOCK:   -3.56 KCAL/MOL
REMARK 922        TOTAL FREE ENERGY PREDICTED BY IDOCK:   -9.43 KCAL/MOL
REMARK 923 INTER-LIGAND FREE ENERGY PREDICTED BY IDOCK:   -8.26 KCAL/MOL
REMARK 924 INTRA-LIGAND FREE ENERGY PREDICTED BY IDOCK:   -1.17 KCAL/MOL
REMARK 927      BINDING AFFINITY PREDICTED BY RF-SCORE:    0.00 PKD
ROOT
HETATM    1  C   UNL     1      -8.597  10.878  66.726  1.00  0.00    -0.137 C  
HETATM    2  C   UNL     1      -8.939  10.671  68.206  1.00  0.00    -0.143 C  
ENDROOT
BRANCH   2   3
HETATM    3  C   UNL     1      -9.774   9.392  68.444  1.00  0.00    -0.163 C  
BRANCH   3   4
HETATM    4  C   UNL     1      -9.226   8.511  69.530  1.00  0.00    -0.150 A  
HETATM    5  C   UNL     1      -9.944   8.341  70.718  1.00  0.00    -0.217 A  
HETATM    6  C   UNL     1      -6.331   5.556  71.732  1.00  0.00    -0.043 A  
HETATM    7  C   UNL     1      -8.007   7.863  69.385  1.00  0.00    -0.117 A  
HETATM    8  C   UNL     1      -7.565   7.048  70.419  1.00  0.00    -0.090 A  
HETATM    9  C   UNL     1      -9.503   7.486  71.758  1.00  0.00    -0.170 A  
HETATM   10  C   UNL     1      -8.273   6.834  71.624  1.00  0.00    -0.110 A  
HETATM   11  C   UNL     1      -6.278   6.293  70.398  1.00  0.00    -0.035 A  
HETATM   12  N   UNL     1      -7.545   5.984  72.439  1.00  0.00    -0.099 NA 
BRANCH  12  13
HETATM   13  C   UNL     1      -7.864   5.383  73.719  1.00  0.00    -0.102 C  
BRANCH  13  14
HETATM   14  C   UNL     1      -7.575   3.880  73.725  1.00  0.00    -0.078 C  
BRANCH  14  15
HETATM   15  C   UNL     1      -8.722   3.039  73.183  1.00  0.00    -0.080 C  
HETATM   16  O   UNL     1      -9.808   3.898  72.834  1.00  0.00    -0.129 OA 
HETATM   17  H   UNL     1     -10.524   3.374  72.495  1.00  0.00     0.000 HD 
ENDBRANCH  14  15
ENDBRANCH  13  14
ENDBRANCH  12  13
BRANCH   9  18
HETATM   18  C   UNL     1     -10.433   7.428  72.916  1.00  0.00    -0.295 C  
HETATM   19  N   UNL     1     -11.736   7.085  72.632  1.00  0.00    -0.490 N  
HETATM   20  O   UNL     1     -10.119   7.715  74.066  1.00  0.00    -0.114 OA 
HETATM   21  H2  UNL     1     -12.045   6.883  71.681  1.00  0.00     0.000 HD 
HETATM   22  H1  UNL     1     -12.374   7.045  73.427  1.00  0.00     0.000 HD 
ENDBRANCH   9  18
ENDBRANCH   3   4
ENDBRANCH   2   3
BRANCH   2  23
HETATM   23  N   UNL     1      -9.637  11.874  68.694  1.00  0.00    -0.357 NA 
HETATM   24  H   UNL     1      -9.404  12.681  68.117  1.00  0.00     0.000 HD 
BRANCH  23  25
HETATM   25  C   UNL     1     -11.098  11.718  68.799  1.00  0.00    -0.241 C  
BRANCH  25  26
HETATM   26  C   UNL     1     -11.903  12.645  67.862  1.00  0.00    -0.332 C  
BRANCH  26  27
HETATM   27  O   UNL     1     -11.524  14.022  67.991  1.00  0.00    -0.277 OA 
BRANCH  27  28
HETATM   28  C   UNL     1     -11.706  14.606  69.219  1.00  0.00    -0.312 A  
HETATM   29  C   UNL     1     -11.267  16.487  70.680  1.00  0.00    -0.086 A  
HETATM   30  C   UNL     1     -12.325  13.959  70.303  1.00  0.00    -0.413 A  
HETATM   31  C   UNL     1     -11.176  15.890  69.423  1.00  0.00    -0.336 A  
HETATM   32  C   UNL     1     -11.876  15.828  71.750  1.00  0.00    -0.549 A  
HETATM   33  C   UNL     1     -12.403  14.556  71.556  1.00  0.00    -0.430 A  
BRANCH  31  34
HETATM   34  O   UNL     1     -10.442  16.612  68.519  1.00  0.00    -0.280 OA 
BRANCH  34  35
HETATM   35  C   UNL     1      -9.730  17.748  69.025  1.00  0.00    -0.186 C  
HETATM   36  C   UNL     1     -10.094  19.038  68.298  1.00  0.00    -0.396 C  
HETATM   37  F   UNL     1     -11.128  18.899  67.443  1.00  0.00    -0.499 F  
HETATM   38  F   UNL     1     -10.412  20.019  69.174  1.00  0.00    -0.495 F  
HETATM   39  F   UNL     1      -9.035  19.490  67.572  1.00  0.00    -0.311 F  
ENDBRANCH  34  35
ENDBRANCH  31  34
ENDBRANCH  27  28
ENDBRANCH  26  27
ENDBRANCH  25  26
ENDBRANCH  23  25
ENDBRANCH   2  23
TORSDOF 13
ENDMDL
MODEL      326
REMARK 921   NORMALIZED FREE ENERGY PREDICTED BY IDOCK:   -3.55 KCAL/MOL
REMARK 922        TOTAL FREE ENERGY PREDICTED BY IDOCK:   -9.41 KCAL/MOL
REMARK 923 INTER-LIGAND FREE ENERGY PREDICTED BY IDOCK:   -7.80 KCAL/MOL
REMARK 924 INTRA-LIGAND FREE ENERGY PREDICTED BY IDOCK:   -1.62 KCAL/MOL
REMARK 927      BINDING AFFINITY PREDICTED BY RF-SCORE:    0.00 PKD
ROOT
HETATM    1  C   UNL     1      -5.313  11.715  67.411  1.00  0.00    -0.078 C  
HETATM    2  C   UNL     1      -6.678  12.370  67.659  1.00  0.00    -0.132 C  
ENDROOT
BRANCH   2   3
HETATM    3  C   UNL     1      -7.807  11.709  66.837  1.00  0.00    -0.156 C  
BRANCH   3   4
HETATM    4  C   UNL     1      -8.414  10.510  67.509  1.00  0.00    -0.118 A  
HETATM    5  C   UNL     1      -9.289  10.686  68.587  1.00  0.00    -0.177 A  
HETATM    6  C   UNL     1      -9.434   6.020  68.378  1.00  0.00    -0.119 A  
HETATM    7  C   UNL     1      -8.119   9.221  67.090  1.00  0.00    -0.109 A  
HETATM    8  C   UNL     1      -8.728   8.157  67.742  1.00  0.00    -0.130 A  
HETATM    9  C   UNL     1      -9.930   9.599  69.231  1.00  0.00    -0.197 A  
HETATM   10  C   UNL     1      -9.633   8.296  68.820  1.00  0.00    -0.150 A  
HETATM   11  C   UNL     1      -8.503   6.723  67.396  1.00  0.00    -0.121 A  
HETATM   12  N   UNL     1     -10.038   7.041  69.243  1.00  0.00    -0.169 NA 
BRANCH  12  13
HETATM   13  C   UNL     1     -11.015   6.637  70.234  1.00  0.00    -0.303 C  
BRANCH  13  14
HETATM   14  C   UNL     1     -10.782   5.199  70.705  1.00  0.00    -0.133 C  
BRANCH  14  15
HETATM   15  C   UNL     1     -10.584   5.078  72.209  1.00  0.00    -0.206 C  
HETATM   16  O   UNL     1     -10.420   3.701  72.551  1.00  0.00    -0.157 OA 
HETATM   17  H   UNL     1     -10.296   3.625  73.490  1.00  0.00     0.000 HD 
ENDBRANCH  14  15
ENDBRANCH  13  14
ENDBRANCH  12  13
BRANCH   9  18
HETATM   18  C   UNL     1     -10.842  10.011  70.330  1.00  0.00    -0.318 C  
HETATM   19  N   UNL     1     -11.862  10.868  69.983  1.00  0.00    -0.315 N  
HETATM   20  O   UNL     1     -10.700   9.681  71.502  1.00  0.00    -0.301 OA 
HETATM   21  H2  UNL     1     -11.985  11.200  69.027  1.00  0.00     0.000 HD 
HETATM   22  H1  UNL     1     -12.488  11.151  70.737  1.00  0.00     0.000 HD 
ENDBRANCH   9  18
ENDBRANCH   3   4
ENDBRANCH   2   3
BRANCH   2  23
HETATM   23  N   UNL     1      -6.562  13.809  67.361  1.00  0.00    -0.399 NA 
HETATM   24  H   UNL     1      -7.476  14.202  67.137  1.00  0.00     0.000 HD 
BRANCH  23  25
HETATM   25  C   UNL     1      -5.909  14.591  68.423  1.00  0.00    -0.105 C  
BRANCH  25  26
HETATM   26  C   UNL     1      -6.687  14.625  69.756  1.00  0.00    -0.165 C  
BRANCH  26  27
HETATM   27  O   UNL     1      -7.608  15.721  69.829  1.00  0.00    -0.148 OA 
BRANCH  27  28
HETATM   28  C   UNL     1      -8.659  15.712  68.947  1.00  0.00    -0.211 A  
HETATM   29  C   UNL     1      -9.979  16.923  67.316  1.00  0.00    -0.277 A  
HETATM   30  C   UNL     1      -9.574  14.649  68.840  1.00  0.00    -0.184 A  
HETATM   31  C   UNL     1      -8.875  16.858  68.166  1.00  0.00    -0.223 A  
HETATM   32  C   UNL     1     -10.885  15.863  67.228  1.00  0.00    -0.279 A  
HETATM   33  C   UNL     1     -10.678  14.725  67.998  1.00  0.00    -0.248 A  
BRANCH  31  34
HETATM   34  O   UNL     1      -8.157  18.024  68.230  1.00  0.00    -0.272 OA 
BRANCH  34  35
HETATM   35  C   UNL     1      -8.903  19.232  68.421  1.00  0.00    -0.352 C  
HETATM   36  C   UNL     1      -8.913  20.116  67.178  1.00  0.00    -0.360 C  
HETATM   37  F   UNL     1      -8.370  19.523  66.094  1.00  0.00    -0.305 F  
HETATM   38  F   UNL     1     -10.173  20.491  66.855  1.00  0.00    -0.561 F  
HETATM   39  F   UNL     1      -8.210  21.259  67.401  1.00  0.00    -0.319 F  
ENDBRANCH  34  35
ENDBRANCH  31  34
ENDBRANCH  27  28
ENDBRANCH  26  27
ENDBRANCH  25  26
ENDBRANCH  23  25
ENDBRANCH   2  23
TORSDOF 13
ENDMDL
MODEL      327
REMARK 921   NORMALIZED FREE ENERGY PREDICTED BY IDOCK:   -3.55 KCAL/MOL
REMARK 922        TOTAL FREE ENERGY PREDICTED BY IDOCK:   -9.41 KCAL/MOL
REMARK 923 INTER-LIGAND FREE ENERGY PREDICTED BY IDOCK:   -8.10 KCAL/MOL
REMARK 924 INTRA-LIGAND FREE ENERGY PREDICTED BY IDOCK:   -1.30 KCAL/MOL
REMARK 927      BINDING AFFINITY PREDICTED BY RF-SCORE:    0.00 PKD
ROOT
HETATM    1  C   UNL     1      -5.157  11.371  67.477  1.00  0.00    -0.047 C  
HETATM    2  C   UNL     1      -6.615  11.791  67.701  1.00  0.00    -0.085 C  
ENDROOT
BRANCH   2   3
HETATM    3  C   UNL     1      -6.743  12.974  68.687  1.00  0.00    -0.096 C  
BRANCH   3   4
HETATM    4  C   UNL     1      -7.395  14.187  68.087  1.00  0.00    -0.130 A  
HETATM    5  C   UNL     1      -8.790  14.276  68.042  1.00  0.00    -0.178 A  
HETATM    6  C   UNL     1      -7.805  18.405  66.086  1.00  0.00    -0.207 A  
HETATM    7  C   UNL     1      -6.640  15.227  67.563  1.00  0.00    -0.181 A  
HETATM    8  C   UNL     1      -7.304  16.328  67.040  1.00  0.00    -0.264 A  
HETATM    9  C   UNL     1      -9.463  15.414  67.532  1.00  0.00    -0.205 A  
HETATM   10  C   UNL     1      -8.711  16.464  66.996  1.00  0.00    -0.199 A  
HETATM   11  C   UNL     1      -6.620  17.515  66.446  1.00  0.00    -0.290 A  
HETATM   12  N   UNL     1      -9.037  17.669  66.399  1.00  0.00    -0.368 NA 
BRANCH  12  13
HETATM   13  C   UNL     1     -10.316  18.322  66.201  1.00  0.00    -0.398 C  
BRANCH  13  14
HETATM   14  C   UNL     1     -10.869  18.890  67.510  1.00  0.00    -0.440 C  
BRANCH  14  15
HETATM   15  C   UNL     1     -10.310  20.261  67.861  1.00  0.00    -0.254 C  
HETATM   16  O   UNL     1      -9.899  20.920  66.662  1.00  0.00    -0.594 OA 
HETATM   17  H   UNL     1      -9.550  21.776  66.881  1.00  0.00     0.000 HD 
ENDBRANCH  14  15
ENDBRANCH  13  14
ENDBRANCH  12  13
BRANCH   9  18
HETATM   18  C   UNL     1     -10.944  15.314  67.607  1.00  0.00    -0.311 C  
HETATM   19  N   UNL     1     -11.521  15.717  68.791  1.00  0.00    -0.356 N  
HETATM   20  O   UNL     1     -11.648  14.852  66.716  1.00  0.00    -0.344 OA 
HETATM   21  H2  UNL     1     -10.964  16.064  69.571  1.00  0.00     0.000 HD 
HETATM   22  H1  UNL     1     -12.538  15.647  68.842  1.00  0.00     0.000 HD 
ENDBRANCH   9  18
ENDBRANCH   3   4
ENDBRANCH   2   3
BRANCH   2  23
HETATM   23  N   UNL     1      -7.371  10.614  68.165  1.00  0.00    -0.087 NA 
HETATM   24  H   UNL     1      -6.807  10.058  68.807  1.00  0.00     0.000 HD 
BRANCH  23  25
HETATM   25  C   UNL     1      -8.674  10.938  68.768  1.00  0.00    -0.158 C  
BRANCH  25  26
HETATM   26  C   UNL     1      -9.295   9.787  69.590  1.00  0.00    -0.219 C  
BRANCH  26  27
HETATM   27  O   UNL     1      -8.665   8.525  69.334  1.00  0.00    -0.133 OA 
BRANCH  27  28
HETATM   28  C   UNL     1      -9.350   7.635  68.546  1.00  0.00    -0.147 A  
HETATM   29  C   UNL     1     -10.740   5.656  68.419  1.00  0.00    -0.229 A  
HETATM   30  C   UNL     1      -9.283   7.631  67.141  1.00  0.00    -0.158 A  
HETATM   31  C   UNL     1     -10.096   6.629  69.181  1.00  0.00    -0.169 A  
HETATM   32  C   UNL     1     -10.656   5.658  67.024  1.00  0.00    -0.358 A  
HETATM   33  C   UNL     1      -9.920   6.651  66.388  1.00  0.00    -0.076 A  
BRANCH  31  34
HETATM   34  O   UNL     1     -10.172   6.414  70.532  1.00  0.00    -0.183 OA 
BRANCH  34  35
HETATM   35  C   UNL     1     -11.424   6.707  71.163  1.00  0.00    -0.320 C  
HETATM   36  C   UNL     1     -11.375   6.516  72.675  1.00  0.00    -0.222 C  
HETATM   37  F   UNL     1     -10.133   6.276  73.147  1.00  0.00    -0.168 F  
HETATM   38  F   UNL     1     -11.857   7.603  73.322  1.00  0.00    -0.221 F  
HETATM   39  F   UNL     1     -12.153   5.464  73.048  1.00  0.00    -0.310 F  
ENDBRANCH  34  35
ENDBRANCH  31  34
ENDBRANCH  27  28
ENDBRANCH  26  27
ENDBRANCH  25  26
ENDBRANCH  23  25
ENDBRANCH   2  23
TORSDOF 13
ENDMDL
MODEL      328
REMARK 921   NORMALIZED FREE ENERGY PREDICTED BY IDOCK:   -3.52 KCAL/MOL
REMARK 922        TOTAL FREE ENERGY PREDICTED BY IDOCK:   -9.37 KCAL/MOL
REMARK 923 INTER-LIGAND FREE ENERGY PREDICTED BY IDOCK:   -8.60 KCAL/MOL
REMARK 924 INTRA-LIGAND FREE ENERGY PREDICTED BY IDOCK:   -0.76 KCAL/MOL
REMARK 927      BINDING AFFINITY PREDICTED BY RF-SCORE:    0.00 PKD
ROOT
HETATM    1  C   UNL     1      -8.236   9.235  69.763  1.00  0.00    -0.131 C  
HETATM    2  C   UNL     1      -9.482   9.717  69.008  1.00  0.00    -0.168 C  
ENDROOT
BRANCH   2   3
HETATM    3  C   UNL     1      -9.168  10.120  67.549  1.00  0.00    -0.150 C  
BRANCH   3   4
HETATM    4  C   UNL     1      -8.910  11.590  67.376  1.00  0.00    -0.157 A  
HETATM    5  C   UNL     1      -7.913  12.215  68.132  1.00  0.00    -0.151 A  
HETATM    6  C   UNL     1      -9.306  15.938  65.675  1.00  0.00    -0.130 A  
HETATM    7  C   UNL     1      -9.650  12.351  66.483  1.00  0.00    -0.242 A  
HETATM    8  C   UNL     1      -9.349  13.701  66.357  1.00  0.00    -0.203 A  
HETATM    9  C   UNL     1      -7.590  13.586  67.980  1.00  0.00    -0.143 A  
HETATM   10  C   UNL     1      -8.335  14.363  67.087  1.00  0.00    -0.191 A  
HETATM   11  C   UNL     1     -10.062  14.636  65.437  1.00  0.00    -0.403 A  
HETATM   12  N   UNL     1      -8.314  15.701  66.732  1.00  0.00    -0.258 NA 
BRANCH  12  13
HETATM   13  C   UNL     1      -7.417  16.775  67.110  1.00  0.00    -0.182 C  
BRANCH  13  14
HETATM   14  C   UNL     1      -7.737  18.070  66.358  1.00  0.00    -0.304 C  
BRANCH  14  15
HETATM   15  C   UNL     1      -6.524  18.694  65.682  1.00  0.00    -0.276 C  
HETATM   16  O   UNL     1      -6.816  20.055  65.361  1.00  0.00    -0.286 OA 
HETATM   17  H   UNL     1      -6.059  20.444  64.939  1.00  0.00     0.000 HD 
ENDBRANCH  14  15
ENDBRANCH  13  14
ENDBRANCH  12  13
BRANCH   9  18
HETATM   18  C   UNL     1      -6.479  14.039  68.858  1.00  0.00    -0.096 C  
HETATM   19  N   UNL     1      -6.713  13.975  70.213  1.00  0.00    -0.401 N  
HETATM   20  O   UNL     1      -5.422  14.502  68.446  1.00  0.00    -0.093 OA 
HETATM   21  H2  UNL     1      -7.598  13.637  70.593  1.00  0.00     0.000 HD 
HETATM   22  H1  UNL     1      -5.951  14.286  70.816  1.00  0.00     0.000 HD 
ENDBRANCH   9  18
ENDBRANCH   3   4
ENDBRANCH   2   3
BRANCH   2  23
HETATM   23  N   UNL     1     -10.079  10.833  69.763  1.00  0.00    -0.438 NA 
HETATM   24  H   UNL     1      -9.527  11.682  69.641  1.00  0.00     0.000 HD 
BRANCH  23  25
HETATM   25  C   UNL     1     -11.493  11.086  69.443  1.00  0.00    -0.294 C  
BRANCH  25  26
HETATM   26  C   UNL     1     -12.247  11.911  70.508  1.00  0.00    -0.336 C  
BRANCH  26  27
HETATM   27  O   UNL     1     -12.391  13.288  70.138  1.00  0.00    -0.301 OA 
BRANCH  27  28
HETATM   28  C   UNL     1     -12.731  14.169  71.133  1.00  0.00    -0.361 A  
HETATM   29  C   UNL     1     -12.005  15.845  72.724  1.00  0.00    -0.616 A  
HETATM   30  C   UNL     1     -14.013  14.236  71.708  1.00  0.00    -0.526 A  
HETATM   31  C   UNL     1     -11.722  14.994  71.657  1.00  0.00    -0.377 A  
HETATM   32  C   UNL     1     -13.280  15.892  73.291  1.00  0.00    -0.698 A  
HETATM   33  C   UNL     1     -14.285  15.080  72.779  1.00  0.00    -0.033 A  
BRANCH  31  34
HETATM   34  O   UNL     1     -10.399  14.974  71.300  1.00  0.00     0.351 OA 
BRANCH  34  35
HETATM   35  C   UNL     1     -10.092  15.309  69.942  1.00  0.00    -0.188 C  
HETATM   36  C   UNL     1     -10.613  16.687  69.547  1.00  0.00    -0.308 C  
HETATM   37  F   UNL     1     -11.108  17.392  70.587  1.00  0.00     0.104 F  
HETATM   38  F   UNL     1      -9.640  17.432  68.972  1.00  0.00    -0.269 F  
HETATM   39  F   UNL     1     -11.612  16.574  68.631  1.00  0.00    -0.344 F  
ENDBRANCH  34  35
ENDBRANCH  31  34
ENDBRANCH  27  28
ENDBRANCH  26  27
ENDBRANCH  25  26
ENDBRANCH  23  25
ENDBRANCH   2  23
TORSDOF 13
ENDMDL
MODEL      329
REMARK 921   NORMALIZED FREE ENERGY PREDICTED BY IDOCK:   -3.49 KCAL/MOL
REMARK 922        TOTAL FREE ENERGY PREDICTED BY IDOCK:   -9.31 KCAL/MOL
REMARK 923 INTER-LIGAND FREE ENERGY PREDICTED BY IDOCK:   -8.31 KCAL/MOL
REMARK 924 INTRA-LIGAND FREE ENERGY PREDICTED BY IDOCK:   -1.01 KCAL/MOL
REMARK 927      BINDING AFFINITY PREDICTED BY RF-SCORE:    0.00 PKD
ROOT
HETATM    1  C   UNL     1      -9.457   7.412  66.328  1.00  0.00    -0.144 C  
HETATM    2  C   UNL     1     -10.639   7.767  67.239  1.00  0.00    -0.306 C  
ENDROOT
BRANCH   2   3
HETATM    3  C   UNL     1     -10.193   8.516  68.516  1.00  0.00    -0.225 C  
BRANCH   3   4
HETATM    4  C   UNL     1     -10.608   9.960  68.539  1.00  0.00    -0.248 A  
HETATM    5  C   UNL     1     -10.432  10.753  67.399  1.00  0.00    -0.268 A  
HETATM    6  C   UNL     1     -12.388  13.984  70.152  1.00  0.00    -0.345 A  
HETATM    7  C   UNL     1     -11.157  10.535  69.676  1.00  0.00    -0.338 A  
HETATM    8  C   UNL     1     -11.536  11.869  69.626  1.00  0.00    -0.387 A  
HETATM    9  C   UNL     1     -10.847  12.107  67.343  1.00  0.00    -0.286 A  
HETATM   10  C   UNL     1     -11.395  12.696  68.487  1.00  0.00    -0.296 A  
HETATM   11  C   UNL     1     -12.139  12.613  70.771  1.00  0.00    -0.239 A  
HETATM   12  N   UNL     1     -11.855  13.967  68.783  1.00  0.00    -0.344 NA 
BRANCH  12  13
HETATM   13  C   UNL     1     -12.018  15.142  67.950  1.00  0.00    -0.057 C  
BRANCH  13  14
HETATM   14  C   UNL     1     -11.271  16.349  68.522  1.00  0.00    -0.334 C  
BRANCH  14  15
HETATM   15  C   UNL     1      -9.799  16.390  68.135  1.00  0.00    -0.238 C  
HETATM   16  O   UNL     1      -9.599  17.420  67.165  1.00  0.00    -0.253 OA 
HETATM   17  H   UNL     1      -8.680  17.446  66.924  1.00  0.00     0.000 HD 
ENDBRANCH  14  15
ENDBRANCH  13  14
ENDBRANCH  12  13
BRANCH   9  18
HETATM   18  C   UNL     1     -10.595  12.753  66.029  1.00  0.00    -0.268 C  
HETATM   19  N   UNL     1      -9.402  13.430  65.905  1.00  0.00    -0.491 N  
HETATM   20  O   UNL     1     -11.396  12.761  65.101  1.00  0.00    -0.297 OA 
HETATM   21  H2  UNL     1      -8.730  13.483  66.670  1.00  0.00     0.000 HD 
HETATM   22  H1  UNL     1      -9.229  13.874  65.002  1.00  0.00     0.000 HD 
ENDBRANCH   9  18
ENDBRANCH   3   4
ENDBRANCH   2   3
BRANCH   2  23
HETATM   23  N   UNL     1     -11.364   6.526  67.564  1.00  0.00    -0.732 NA 
HETATM   24  H   UNL     1     -11.212   5.824  66.840  1.00  0.00     0.000 HD 
BRANCH  23  25
HETATM   25  C   UNL     1     -11.047   5.977  68.893  1.00  0.00    -0.279 C  
BRANCH  25  26
HETATM   26  C   UNL     1     -11.841   6.620  70.050  1.00  0.00    -0.238 C  
BRANCH  26  27
HETATM   27  O   UNL     1     -11.028   6.868  71.205  1.00  0.00    -0.240 OA 
BRANCH  27  28
HETATM   28  C   UNL     1     -10.006   5.986  71.448  1.00  0.00    -0.186 A  
HETATM   29  C   UNL     1      -7.655   5.654  71.931  1.00  0.00    -0.096 A  
HETATM   30  C   UNL     1     -10.139   4.591  71.331  1.00  0.00    -0.230 A  
HETATM   31  C   UNL     1      -8.740   6.511  71.756  1.00  0.00    -0.131 A  
HETATM   32  C   UNL     1      -7.801   4.271  71.800  1.00  0.00    -0.080 A  
HETATM   33  C   UNL     1      -9.050   3.742  71.496  1.00  0.00    -0.173 A  
BRANCH  31  34
HETATM   34  O   UNL     1      -8.407   7.840  71.792  1.00  0.00    -0.103 OA 
BRANCH  34  35
HETATM   35  C   UNL     1      -7.020   8.163  71.627  1.00  0.00    -0.072 C  
HETATM   36  C   UNL     1      -6.802   9.328  70.667  1.00  0.00    -0.094 C  
HETATM   37  F   UNL     1      -7.947   9.937  70.292  1.00  0.00    -0.163 F  
HETATM   38  F   UNL     1      -5.996  10.267  71.214  1.00  0.00    -0.084 F  
HETATM   39  F   UNL     1      -6.189   8.899  69.531  1.00  0.00    -0.040 F  
ENDBRANCH  34  35
ENDBRANCH  31  34
ENDBRANCH  27  28
ENDBRANCH  26  27
ENDBRANCH  25  26
ENDBRANCH  23  25
ENDBRANCH   2  23
TORSDOF 13
ENDMDL
MODEL      330
REMARK 921   NORMALIZED FREE ENERGY PREDICTED BY IDOCK:   -3.48 KCAL/MOL
REMARK 922        TOTAL FREE ENERGY PREDICTED BY IDOCK:   -9.30 KCAL/MOL
REMARK 923 INTER-LIGAND FREE ENERGY PREDICTED BY IDOCK:   -7.19 KCAL/MOL
REMARK 924 INTRA-LIGAND FREE ENERGY PREDICTED BY IDOCK:   -2.11 KCAL/MOL
REMARK 927      BINDING AFFINITY PREDICTED BY RF-SCORE:    0.00 PKD
ROOT
HETATM    1  C   UNL     1     -10.244   8.119  66.948  1.00  0.00    -0.387 C  
HETATM    2  C   UNL     1      -9.145   9.186  66.855  1.00  0.00    -0.135 C  
ENDROOT
BRANCH   2   3
HETATM    3  C   UNL     1      -7.846   8.757  67.574  1.00  0.00    -0.102 C  
BRANCH   3   4
HETATM    4  C   UNL     1      -8.081   7.841  68.741  1.00  0.00    -0.126 A  
HETATM    5  C   UNL     1      -8.432   8.375  69.986  1.00  0.00    -0.125 A  
HETATM    6  C   UNL     1      -8.512   3.854  71.166  1.00  0.00    -0.076 A  
HETATM    7  C   UNL     1      -7.950   6.465  68.615  1.00  0.00    -0.106 A  
HETATM    8  C   UNL     1      -8.200   5.673  69.728  1.00  0.00    -0.106 A  
HETATM    9  C   UNL     1      -8.713   7.561  71.111  1.00  0.00    -0.136 A  
HETATM   10  C   UNL     1      -8.576   6.174  70.995  1.00  0.00    -0.132 A  
HETATM   11  C   UNL     1      -8.097   4.184  69.736  1.00  0.00    -0.059 A  
HETATM   12  N   UNL     1      -8.729   5.119  71.879  1.00  0.00    -0.129 NA 
BRANCH  12  13
HETATM   13  C   UNL     1      -9.192   5.083  73.252  1.00  0.00    -0.128 C  
BRANCH  13  14
HETATM   14  C   UNL     1     -10.336   4.084  73.438  1.00  0.00    -0.232 C  
BRANCH  14  15
HETATM   15  C   UNL     1     -11.707   4.667  73.127  1.00  0.00    -0.083 C  
HETATM   16  O   UNL     1     -11.573   6.066  72.869  1.00  0.00    -0.466 OA 
HETATM   17  H   UNL     1     -12.429   6.430  72.675  1.00  0.00     0.000 HD 
ENDBRANCH  14  15
ENDBRANCH  13  14
ENDBRANCH  12  13
BRANCH   9  18
HETATM   18  C   UNL     1      -9.095   8.331  72.323  1.00  0.00    -0.221 C  
HETATM   19  N   UNL     1     -10.424   8.676  72.429  1.00  0.00    -0.298 N  
HETATM   20  O   UNL     1      -8.300   8.711  73.176  1.00  0.00    -0.405 OA 
HETATM   21  H2  UNL     1     -11.106   8.417  71.718  1.00  0.00     0.000 HD 
HETATM   22  H1  UNL     1     -10.686   9.205  73.262  1.00  0.00     0.000 HD 
ENDBRANCH   9  18
ENDBRANCH   3   4
ENDBRANCH   2   3
BRANCH   2  23
HETATM   23  N   UNL     1      -9.676  10.448  67.401  1.00  0.00    -0.161 NA 
HETATM   24  H   UNL     1      -9.189  11.246  66.994  1.00  0.00     0.000 HD 
BRANCH  23  25
HETATM   25  C   UNL     1     -11.133  10.600  67.252  1.00  0.00    -0.243 C  
BRANCH  25  26
HETATM   26  C   UNL     1     -11.725  11.807  68.011  1.00  0.00    -0.293 C  
BRANCH  26  27
HETATM   27  O   UNL     1     -10.896  12.973  67.924  1.00  0.00    -0.231 OA 
BRANCH  27  28
HETATM   28  C   UNL     1     -11.147  13.984  68.817  1.00  0.00    -0.264 A  
HETATM   29  C   UNL     1     -10.545  16.175  69.657  1.00  0.00    -0.311 A  
HETATM   30  C   UNL     1     -12.075  13.879  69.868  1.00  0.00    -0.406 A  
HETATM   31  C   UNL     1     -10.379  15.155  68.720  1.00  0.00    -0.236 A  
HETATM   32  C   UNL     1     -11.464  16.052  70.701  1.00  0.00    -0.427 A  
HETATM   33  C   UNL     1     -12.228  14.896  70.805  1.00  0.00    -0.387 A  
BRANCH  31  34
HETATM   34  O   UNL     1      -9.354  15.376  67.838  1.00  0.00    -0.191 OA 
BRANCH  34  35
HETATM   35  C   UNL     1      -8.029  15.090  68.302  1.00  0.00    -0.128 C  
HETATM   36  C   UNL     1      -7.469  13.801  67.710  1.00  0.00    -0.163 C  
HETATM   37  F   UNL     1      -8.248  13.270  66.744  1.00  0.00    -0.145 F  
HETATM   38  F   UNL     1      -6.237  13.998  67.184  1.00  0.00    -0.054 F  
HETATM   39  F   UNL     1      -7.333  12.853  68.677  1.00  0.00    -0.097 F  
ENDBRANCH  34  35
ENDBRANCH  31  34
ENDBRANCH  27  28
ENDBRANCH  26  27
ENDBRANCH  25  26
ENDBRANCH  23  25
ENDBRANCH   2  23
TORSDOF 13
ENDMDL
MODEL      331
REMARK 921   NORMALIZED FREE ENERGY PREDICTED BY IDOCK:   -3.48 KCAL/MOL
REMARK 922        TOTAL FREE ENERGY PREDICTED BY IDOCK:   -9.29 KCAL/MOL
REMARK 923 INTER-LIGAND FREE ENERGY PREDICTED BY IDOCK:   -7.64 KCAL/MOL
REMARK 924 INTRA-LIGAND FREE ENERGY PREDICTED BY IDOCK:   -1.65 KCAL/MOL
REMARK 927      BINDING AFFINITY PREDICTED BY RF-SCORE:    0.00 PKD
ROOT
HETATM    1  C   UNL     1     -13.129  11.817  71.332  1.00  0.00    -0.322 C  
HETATM    2  C   UNL     1     -12.370  10.785  70.488  1.00  0.00    -0.369 C  
ENDROOT
BRANCH   2   3
HETATM    3  C   UNL     1     -12.109   9.472  71.261  1.00  0.00    -0.443 C  
BRANCH   3   4
HETATM    4  C   UNL     1     -10.881   8.740  70.800  1.00  0.00    -0.282 A  
HETATM    5  C   UNL     1     -10.978   7.793  69.774  1.00  0.00    -0.162 A  
HETATM    6  C   UNL     1      -6.374   7.488  70.514  1.00  0.00    -0.038 A  
HETATM    7  C   UNL     1      -9.642   8.975  71.379  1.00  0.00    -0.356 A  
HETATM    8  C   UNL     1      -8.542   8.279  70.894  1.00  0.00    -0.152 A  
HETATM    9  C   UNL     1      -9.849   7.106  69.264  1.00  0.00    -0.161 A  
HETATM   10  C   UNL     1      -8.597   7.332  69.846  1.00  0.00    -0.141 A  
HETATM   11  C   UNL     1      -7.155   8.433  71.421  1.00  0.00    -0.074 A  
HETATM   12  N   UNL     1      -7.332   6.817  69.626  1.00  0.00    -0.084 NA 
BRANCH  12  13
HETATM   13  C   UNL     1      -6.835   5.902  68.617  1.00  0.00    -0.066 C  
BRANCH  13  14
HETATM   14  C   UNL     1      -7.059   4.442  69.019  1.00  0.00    -0.051 C  
BRANCH  14  15
HETATM   15  C   UNL     1      -7.208   3.502  67.831  1.00  0.00    -0.051 C  
HETATM   16  O   UNL     1      -8.382   2.708  68.006  1.00  0.00    -0.071 OA 
HETATM   17  H   UNL     1      -8.475   2.121  67.264  1.00  0.00     0.000 HD 
ENDBRANCH  14  15
ENDBRANCH  13  14
ENDBRANCH  12  13
BRANCH   9  18
HETATM   18  C   UNL     1     -10.172   6.169  68.156  1.00  0.00    -0.175 C  
HETATM   19  N   UNL     1     -10.129   4.828  68.464  1.00  0.00    -0.094 N  
HETATM   20  O   UNL     1     -10.412   6.520  67.006  1.00  0.00    -0.225 OA 
HETATM   21  H2  UNL     1      -9.889   4.497  69.398  1.00  0.00     0.000 HD 
HETATM   22  H1  UNL     1     -10.351   4.185  67.703  1.00  0.00     0.000 HD 
ENDBRANCH   9  18
ENDBRANCH   3   4
ENDBRANCH   2   3
BRANCH   2  23
HETATM   23  N   UNL     1     -11.114  11.399  70.023  1.00  0.00    -0.480 NA 
HETATM   24  H   UNL     1     -10.324  11.053  70.566  1.00  0.00     0.000 HD 
BRANCH  23  25
HETATM   25  C   UNL     1     -10.863  11.232  68.582  1.00  0.00    -0.204 C  
BRANCH  25  26
HETATM   26  C   UNL     1      -9.380  10.999  68.219  1.00  0.00    -0.172 C  
BRANCH  26  27
HETATM   27  O   UNL     1      -9.074  11.389  66.874  1.00  0.00    -0.166 OA 
BRANCH  27  28
HETATM   28  C   UNL     1      -8.722  10.390  66.001  1.00  0.00    -0.152 A  
HETATM   29  C   UNL     1      -8.686   9.580  63.719  1.00  0.00    -0.237 A  
HETATM   30  C   UNL     1      -8.214   9.145  66.410  1.00  0.00    -0.114 A  
HETATM   31  C   UNL     1      -8.954  10.599  64.632  1.00  0.00    -0.197 A  
HETATM   32  C   UNL     1      -8.191   8.344  64.141  1.00  0.00    -0.122 A  
HETATM   33  C   UNL     1      -7.959   8.129  65.495  1.00  0.00    -0.112 A  
BRANCH  31  34
HETATM   34  O   UNL     1      -9.551  11.699  64.074  1.00  0.00    -0.213 OA 
BRANCH  34  35
HETATM   35  C   UNL     1     -10.975  11.654  63.921  1.00  0.00    -0.407 C  
HETATM   36  C   UNL     1     -11.622  13.027  64.062  1.00  0.00    -0.430 C  
HETATM   37  F   UNL     1     -10.729  14.037  64.134  1.00  0.00    -0.353 F  
HETATM   38  F   UNL     1     -12.453  13.286  63.026  1.00  0.00    -0.560 F  
HETATM   39  F   UNL     1     -12.377  13.083  65.193  1.00  0.00    -0.407 F  
ENDBRANCH  34  35
ENDBRANCH  31  34
ENDBRANCH  27  28
ENDBRANCH  26  27
ENDBRANCH  25  26
ENDBRANCH  23  25
ENDBRANCH   2  23
TORSDOF 13
ENDMDL
MODEL      332
REMARK 921   NORMALIZED FREE ENERGY PREDICTED BY IDOCK:   -3.47 KCAL/MOL
REMARK 922        TOTAL FREE ENERGY PREDICTED BY IDOCK:   -9.28 KCAL/MOL
REMARK 923 INTER-LIGAND FREE ENERGY PREDICTED BY IDOCK:   -7.18 KCAL/MOL
REMARK 924 INTRA-LIGAND FREE ENERGY PREDICTED BY IDOCK:   -2.10 KCAL/MOL
REMARK 927      BINDING AFFINITY PREDICTED BY RF-SCORE:    0.00 PKD
ROOT
HETATM    1  C   UNL     1     -12.573  14.368  70.113  1.00  0.00    -0.340 C  
HETATM    2  C   UNL     1     -12.023  13.094  69.460  1.00  0.00    -0.294 C  
ENDROOT
BRANCH   2   3
HETATM    3  C   UNL     1     -12.430  11.816  70.229  1.00  0.00    -0.237 C  
BRANCH   3   4
HETATM    4  C   UNL     1     -11.487  10.665  70.020  1.00  0.00    -0.404 A  
HETATM    5  C   UNL     1     -11.130  10.285  68.721  1.00  0.00    -0.276 A  
HETATM    6  C   UNL     1      -8.568   7.147  71.052  1.00  0.00    -0.133 A  
HETATM    7  C   UNL     1     -10.963   9.958  71.093  1.00  0.00    -0.298 A  
HETATM    8  C   UNL     1     -10.083   8.916  70.831  1.00  0.00    -0.304 A  
HETATM    9  C   UNL     1     -10.209   9.240  68.461  1.00  0.00    -0.225 A  
HETATM   10  C   UNL     1      -9.682   8.517  69.536  1.00  0.00    -0.176 A  
HETATM   11  C   UNL     1      -9.446   8.074  71.886  1.00  0.00    -0.240 A  
HETATM   12  N   UNL     1      -8.815   7.443  69.634  1.00  0.00    -0.141 NA 
BRANCH  12  13
HETATM   13  C   UNL     1      -8.055   6.733  68.624  1.00  0.00    -0.120 C  
BRANCH  13  14
HETATM   14  C   UNL     1      -8.084   5.220  68.855  1.00  0.00    -0.086 C  
BRANCH  14  15
HETATM   15  C   UNL     1      -9.053   4.485  67.939  1.00  0.00    -0.123 C  
HETATM   16  O   UNL     1     -10.323   5.136  67.983  1.00  0.00    -0.148 OA 
HETATM   17  H   UNL     1     -10.928   4.678  67.411  1.00  0.00     0.000 HD 
ENDBRANCH  14  15
ENDBRANCH  13  14
ENDBRANCH  12  13
BRANCH   9  18
HETATM   18  C   UNL     1      -9.949   9.022  67.014  1.00  0.00    -0.230 C  
HETATM   19  N   UNL     1     -10.480   7.875  66.468  1.00  0.00    -0.450 N  
HETATM   20  O   UNL     1      -9.260   9.761  66.319  1.00  0.00    -0.151 OA 
HETATM   21  H2  UNL     1     -11.021   7.213  67.024  1.00  0.00     0.000 HD 
HETATM   22  H1  UNL     1     -10.302   7.725  65.474  1.00  0.00     0.000 HD 
ENDBRANCH   9  18
ENDBRANCH   3   4
ENDBRANCH   2   3
BRANCH   2  23
HETATM   23  N   UNL     1     -10.558  13.221  69.356  1.00  0.00    -0.428 NA 
HETATM   24  H   UNL     1     -10.141  12.332  69.079  1.00  0.00     0.000 HD 
BRANCH  23  25
HETATM   25  C   UNL     1     -10.112  14.302  68.463  1.00  0.00    -0.246 C  
BRANCH  25  26
HETATM   26  C   UNL     1      -9.445  13.813  67.159  1.00  0.00    -0.244 C  
BRANCH  26  27
HETATM   27  O   UNL     1      -8.692  14.844  66.505  1.00  0.00    -0.254 OA 
BRANCH  27  28
HETATM   28  C   UNL     1      -7.833  15.577  67.283  1.00  0.00    -0.204 A  
HETATM   29  C   UNL     1      -5.853  15.614  68.678  1.00  0.00    -0.101 A  
HETATM   30  C   UNL     1      -8.059  16.919  67.637  1.00  0.00    -0.193 A  
HETATM   31  C   UNL     1      -6.708  14.928  67.817  1.00  0.00    -0.172 A  
HETATM   32  C   UNL     1      -6.096  16.944  69.028  1.00  0.00    -0.179 A  
HETATM   33  C   UNL     1      -7.207  17.594  68.505  1.00  0.00    -0.242 A  
BRANCH  31  34
HETATM   34  O   UNL     1      -6.401  13.600  67.674  1.00  0.00    -0.161 OA 
BRANCH  34  35
HETATM   35  C   UNL     1      -6.199  12.851  68.879  1.00  0.00    -0.085 C  
HETATM   36  C   UNL     1      -6.479  11.363  68.696  1.00  0.00    -0.059 C  
HETATM   37  F   UNL     1      -6.696  11.011  67.411  1.00  0.00    -0.067 F  
HETATM   38  F   UNL     1      -5.454  10.611  69.161  1.00  0.00    -0.042 F  
HETATM   39  F   UNL     1      -7.583  10.997  69.401  1.00  0.00    -0.130 F  
ENDBRANCH  34  35
ENDBRANCH  31  34
ENDBRANCH  27  28
ENDBRANCH  26  27
ENDBRANCH  25  26
ENDBRANCH  23  25
ENDBRANCH   2  23
TORSDOF 13
ENDMDL
MODEL      333
REMARK 921   NORMALIZED FREE ENERGY PREDICTED BY IDOCK:   -3.45 KCAL/MOL
REMARK 922        TOTAL FREE ENERGY PREDICTED BY IDOCK:   -9.24 KCAL/MOL
REMARK 923 INTER-LIGAND FREE ENERGY PREDICTED BY IDOCK:   -8.13 KCAL/MOL
REMARK 924 INTRA-LIGAND FREE ENERGY PREDICTED BY IDOCK:   -1.10 KCAL/MOL
REMARK 927      BINDING AFFINITY PREDICTED BY RF-SCORE:    0.00 PKD
ROOT
HETATM    1  C   UNL     1      -8.028  14.170  66.959  1.00  0.00     0.008 C  
HETATM    2  C   UNL     1      -7.809  14.144  68.477  1.00  0.00    -0.140 C  
ENDROOT
BRANCH   2   3
HETATM    3  C   UNL     1      -6.820  13.039  68.910  1.00  0.00    -0.099 C  
BRANCH   3   4
HETATM    4  C   UNL     1      -7.385  11.651  68.797  1.00  0.00    -0.118 A  
HETATM    5  C   UNL     1      -8.711  11.407  69.170  1.00  0.00     0.186 A  
HETATM    6  C   UNL     1      -7.601   7.074  67.815  1.00  0.00    -0.111 A  
HETATM    7  C   UNL     1      -6.613  10.594  68.336  1.00  0.00    -0.055 A  
HETATM    8  C   UNL     1      -7.201   9.340  68.238  1.00  0.00    -0.077 A  
HETATM    9  C   UNL     1      -9.315  10.132  69.041  1.00  0.00    -0.192 A  
HETATM   10  C   UNL     1      -8.543   9.059  68.583  1.00  0.00    -0.129 A  
HETATM   11  C   UNL     1      -6.491   8.118  67.759  1.00  0.00    -0.053 A  
HETATM   12  N   UNL     1      -8.797   7.713  68.381  1.00  0.00    -0.130 NA 
BRANCH  12  13
HETATM   13  C   UNL     1     -10.022   6.946  68.489  1.00  0.00    -0.148 C  
BRANCH  13  14
HETATM   14  C   UNL     1     -10.690   6.753  67.125  1.00  0.00    -0.441 C  
BRANCH  14  15
HETATM   15  C   UNL     1     -10.521   5.350  66.560  1.00  0.00    -0.294 C  
HETATM   16  O   UNL     1     -10.000   5.439  65.233  1.00  0.00    -0.361 OA 
HETATM   17  H   UNL     1      -9.894   4.563  64.880  1.00  0.00     0.000 HD 
ENDBRANCH  14  15
ENDBRANCH  13  14
ENDBRANCH  12  13
BRANCH   9  18
HETATM   18  C   UNL     1     -10.739  10.101  69.465  1.00  0.00    -0.249 C  
HETATM   19  N   UNL     1     -11.673  10.252  68.464  1.00  0.00    -0.502 N  
HETATM   20  O   UNL     1     -11.108  10.007  70.630  1.00  0.00    -0.298 OA 
HETATM   21  H2  UNL     1     -11.403  10.378  67.489  1.00  0.00     0.000 HD 
HETATM   22  H1  UNL     1     -12.651  10.231  68.755  1.00  0.00     0.000 HD 
ENDBRANCH   9  18
ENDBRANCH   3   4
ENDBRANCH   2   3
BRANCH   2  23
HETATM   23  N   UNL     1      -9.120  13.987  69.132  1.00  0.00    -0.373 NA 
HETATM   24  H   UNL     1      -9.074  13.268  69.854  1.00  0.00     0.000 HD 
BRANCH  23  25
HETATM   25  C   UNL     1      -9.671  15.237  69.681  1.00  0.00    -0.200 C  
BRANCH  25  26
HETATM   26  C   UNL     1     -11.212  15.266  69.769  1.00  0.00    -0.286 C  
BRANCH  26  27
HETATM   27  O   UNL     1     -11.814  15.963  68.671  1.00  0.00    -0.388 OA 
BRANCH  27  28
HETATM   28  C   UNL     1     -11.530  15.503  67.410  1.00  0.00    -0.140 A  
HETATM   29  C   UNL     1     -10.672  15.984  65.196  1.00  0.00    -0.429 A  
HETATM   30  C   UNL     1     -11.900  14.228  66.947  1.00  0.00    -0.458 A  
HETATM   31  C   UNL     1     -10.905  16.383  66.512  1.00  0.00    -0.073 A  
HETATM   32  C   UNL     1     -11.055  14.717  64.748  1.00  0.00    -0.393 A  
HETATM   33  C   UNL     1     -11.674  13.840  65.631  1.00  0.00    -0.360 A  
BRANCH  31  34
HETATM   34  O   UNL     1     -10.586  17.693  66.757  1.00  0.00    -0.313 OA 
BRANCH  34  35
HETATM   35  C   UNL     1      -9.217  18.071  66.568  1.00  0.00    -0.275 C  
HETATM   36  C   UNL     1      -8.708  18.993  67.671  1.00  0.00    -0.290 C  
HETATM   37  F   UNL     1      -9.578  19.140  68.693  1.00  0.00    -0.364 F  
HETATM   38  F   UNL     1      -7.541  18.542  68.186  1.00  0.00    -0.246 F  
HETATM   39  F   UNL     1      -8.462  20.236  67.176  1.00  0.00    -0.342 F  
ENDBRANCH  34  35
ENDBRANCH  31  34
ENDBRANCH  27  28
ENDBRANCH  26  27
ENDBRANCH  25  26
ENDBRANCH  23  25
ENDBRANCH   2  23
TORSDOF 13
ENDMDL
MODEL      334
REMARK 921   NORMALIZED FREE ENERGY PREDICTED BY IDOCK:   -3.42 KCAL/MOL
REMARK 922        TOTAL FREE ENERGY PREDICTED BY IDOCK:   -9.19 KCAL/MOL
REMARK 923 INTER-LIGAND FREE ENERGY PREDICTED BY IDOCK:   -7.83 KCAL/MOL
REMARK 924 INTRA-LIGAND FREE ENERGY PREDICTED BY IDOCK:   -1.36 KCAL/MOL
REMARK 927      BINDING AFFINITY PREDICTED BY RF-SCORE:    0.00 PKD
ROOT
HETATM    1  C   UNL     1     -10.426   7.878  66.858  1.00  0.00    -0.388 C  
HETATM    2  C   UNL     1      -9.226   8.828  66.758  1.00  0.00    -0.169 C  
ENDROOT
BRANCH   2   3
HETATM    3  C   UNL     1      -7.913   8.172  67.243  1.00  0.00    -0.113 C  
BRANCH   3   4
HETATM    4  C   UNL     1      -8.090   7.305  68.456  1.00  0.00    -0.125 A  
HETATM    5  C   UNL     1      -8.394   7.889  69.691  1.00  0.00    -0.131 A  
HETATM    6  C   UNL     1      -8.376   3.422  71.066  1.00  0.00    -0.066 A  
HETATM    7  C   UNL     1      -7.949   5.926  68.385  1.00  0.00    -0.105 A  
HETATM    8  C   UNL     1      -8.143   5.180  69.540  1.00  0.00    -0.083 A  
HETATM    9  C   UNL     1      -8.619   7.122  70.861  1.00  0.00    -0.138 A  
HETATM   10  C   UNL     1      -8.472   5.732  70.799  1.00  0.00    -0.125 A  
HETATM   11  C   UNL     1      -8.024   3.694  69.607  1.00  0.00    -0.056 A  
HETATM   12  N   UNL     1      -8.577   4.715  71.733  1.00  0.00    -0.119 NA 
BRANCH  12  13
HETATM   13  C   UNL     1      -8.981   4.735  73.125  1.00  0.00    -0.114 C  
BRANCH  13  14
HETATM   14  C   UNL     1      -9.705   3.445  73.521  1.00  0.00    -0.148 C  
BRANCH  14  15
HETATM   15  C   UNL     1     -11.214   3.607  73.634  1.00  0.00    -0.185 C  
HETATM   16  O   UNL     1     -11.564   4.958  73.331  1.00  0.00    -0.441 OA 
HETATM   17  H   UNL     1     -12.507   5.059  73.401  1.00  0.00     0.000 HD 
ENDBRANCH  14  15
ENDBRANCH  13  14
ENDBRANCH  12  13
BRANCH   9  18
HETATM   18  C   UNL     1      -8.958   7.940  72.054  1.00  0.00    -0.141 C  
HETATM   19  N   UNL     1     -10.251   7.831  72.517  1.00  0.00    -0.237 N  
HETATM   20  O   UNL     1      -8.185   8.724  72.593  1.00  0.00    -0.403 OA 
HETATM   21  H2  UNL     1     -10.935   7.224  72.067  1.00  0.00     0.000 HD 
HETATM   22  H1  UNL     1     -10.484   8.393  73.336  1.00  0.00     0.000 HD 
ENDBRANCH   9  18
ENDBRANCH   3   4
ENDBRANCH   2   3
BRANCH   2  23
HETATM   23  N   UNL     1      -9.536  10.050  67.522  1.00  0.00    -0.147 NA 
HETATM   24  H   UNL     1      -9.107  10.864  67.084  1.00  0.00     0.000 HD 
BRANCH  23  25
HETATM   25  C   UNL     1     -10.975  10.275  67.735  1.00  0.00    -0.300 C  
BRANCH  25  26
HETATM   26  C   UNL     1     -11.308  11.590  68.473  1.00  0.00    -0.277 C  
BRANCH  26  27
HETATM   27  O   UNL     1     -10.552  12.704  67.981  1.00  0.00    -0.210 OA 
BRANCH  27  28
HETATM   28  C   UNL     1     -10.925  13.224  66.767  1.00  0.00    -0.287 A  
HETATM   29  C   UNL     1     -10.471  14.799  64.984  1.00  0.00    -0.443 A  
HETATM   30  C   UNL     1     -12.132  12.901  66.122  1.00  0.00    -0.458 A  
HETATM   31  C   UNL     1     -10.090  14.186  66.177  1.00  0.00    -0.313 A  
HETATM   32  C   UNL     1     -11.678  14.476  64.360  1.00  0.00    -0.381 A  
HETATM   33  C   UNL     1     -12.511  13.524  64.938  1.00  0.00    -0.429 A  
BRANCH  31  34
HETATM   34  O   UNL     1      -8.944  14.703  66.723  1.00  0.00    -0.246 OA 
BRANCH  34  35
HETATM   35  C   UNL     1      -9.095  15.827  67.598  1.00  0.00    -0.192 C  
HETATM   36  C   UNL     1      -8.712  15.502  69.038  1.00  0.00    -0.235 C  
HETATM   37  F   UNL     1      -8.149  14.284  69.182  1.00  0.00    -0.129 F  
HETATM   38  F   UNL     1      -7.846  16.418  69.532  1.00  0.00    -0.240 F  
HETATM   39  F   UNL     1      -9.811  15.531  69.840  1.00  0.00    -0.261 F  
ENDBRANCH  34  35
ENDBRANCH  31  34
ENDBRANCH  27  28
ENDBRANCH  26  27
ENDBRANCH  25  26
ENDBRANCH  23  25
ENDBRANCH   2  23
TORSDOF 13
ENDMDL
MODEL      335
REMARK 921   NORMALIZED FREE ENERGY PREDICTED BY IDOCK:   -3.42 KCAL/MOL
REMARK 922        TOTAL FREE ENERGY PREDICTED BY IDOCK:   -9.19 KCAL/MOL
REMARK 923 INTER-LIGAND FREE ENERGY PREDICTED BY IDOCK:   -8.72 KCAL/MOL
REMARK 924 INTRA-LIGAND FREE ENERGY PREDICTED BY IDOCK:   -0.47 KCAL/MOL
REMARK 927      BINDING AFFINITY PREDICTED BY RF-SCORE:    0.00 PKD
ROOT
HETATM    1  C   UNL     1     -11.958  10.168  71.556  1.00  0.00    -0.404 C  
HETATM    2  C   UNL     1     -11.408   9.636  70.226  1.00  0.00    -0.257 C  
ENDROOT
BRANCH   2   3
HETATM    3  C   UNL     1     -11.897  10.462  69.015  1.00  0.00    -0.094 C  
BRANCH   3   4
HETATM    4  C   UNL     1     -11.444  11.894  69.043  1.00  0.00    -0.355 A  
HETATM    5  C   UNL     1     -10.447  12.326  68.162  1.00  0.00    -0.228 A  
HETATM    6  C   UNL     1     -11.250  16.405  70.299  1.00  0.00    -0.246 A  
HETATM    7  C   UNL     1     -11.988  12.804  69.938  1.00  0.00    -0.368 A  
HETATM    8  C   UNL     1     -11.539  14.118  69.901  1.00  0.00    -0.329 A  
HETATM    9  C   UNL     1     -10.012  13.674  68.108  1.00  0.00    -0.246 A  
HETATM   10  C   UNL     1     -10.550  14.597  69.011  1.00  0.00    -0.247 A  
HETATM   11  C   UNL     1     -12.036  15.199  70.802  1.00  0.00    -0.376 A  
HETATM   12  N   UNL     1     -10.330  15.942  69.251  1.00  0.00    -0.230 NA 
BRANCH  12  13
HETATM   13  C   UNL     1      -9.501  16.912  68.563  1.00  0.00    -0.266 C  
BRANCH  13  14
HETATM   14  C   UNL     1     -10.340  17.870  67.712  1.00  0.00    -0.393 C  
BRANCH  14  15
HETATM   15  C   UNL     1     -10.270  19.316  68.181  1.00  0.00    -0.418 C  
HETATM   16  O   UNL     1     -10.013  20.160  67.058  1.00  0.00    -0.406 OA 
HETATM   17  H   UNL     1      -9.969  21.063  67.350  1.00  0.00     0.000 HD 
ENDBRANCH  14  15
ENDBRANCH  13  14
ENDBRANCH  12  13
BRANCH   9  18
HETATM   18  C   UNL     1      -8.969  13.923  67.079  1.00  0.00    -0.240 C  
HETATM   19  N   UNL     1      -9.298  13.581  65.786  1.00  0.00    -0.485 N  
HETATM   20  O   UNL     1      -7.847  14.351  67.326  1.00  0.00    -0.195 OA 
HETATM   21  H2  UNL     1     -10.205  13.180  65.549  1.00  0.00     0.000 HD 
HETATM   22  H1  UNL     1      -8.582  13.751  65.080  1.00  0.00     0.000 HD 
ENDBRANCH   9  18
ENDBRANCH   3   4
ENDBRANCH   2   3
BRANCH   2  23
HETATM   23  N   UNL     1     -11.785   8.217  70.103  1.00  0.00    -0.458 NA 
HETATM   24  H   UNL     1     -12.688   8.126  69.638  1.00  0.00     0.000 HD 
BRANCH  23  25
HETATM   25  C   UNL     1     -10.773   7.383  69.434  1.00  0.00    -0.211 C  
BRANCH  25  26
HETATM   26  C   UNL     1     -11.057   5.867  69.497  1.00  0.00    -0.332 C  
BRANCH  26  27
HETATM   27  O   UNL     1      -9.955   5.121  70.030  1.00  0.00    -0.210 OA 
BRANCH  27  28
HETATM   28  C   UNL     1     -10.128   4.550  71.266  1.00  0.00    -0.155 A  
HETATM   29  C   UNL     1     -10.001   2.561  72.642  1.00  0.00    -0.218 A  
HETATM   30  C   UNL     1     -10.717   5.218  72.354  1.00  0.00    -0.286 A  
HETATM   31  C   UNL     1      -9.767   3.203  71.427  1.00  0.00    -0.149 A  
HETATM   32  C   UNL     1     -10.596   3.235  73.711  1.00  0.00    -0.274 A  
HETATM   33  C   UNL     1     -10.957   4.569  73.560  1.00  0.00    -0.387 A  
BRANCH  31  34
HETATM   34  O   UNL     1      -9.294   2.372  70.445  1.00  0.00    -0.119 OA 
BRANCH  34  35
HETATM   35  C   UNL     1      -8.147   2.823  69.714  1.00  0.00    -0.041 C  
HETATM   36  C   UNL     1      -6.839   2.533  70.443  1.00  0.00    -0.033 C  
HETATM   37  F   UNL     1      -6.995   1.765  71.542  1.00  0.00    -0.025 F  
HETATM   38  F   UNL     1      -5.953   1.913  69.629  1.00  0.00    -0.020 F  
HETATM   39  F   UNL     1      -6.253   3.693  70.847  1.00  0.00    -0.016 F  
ENDBRANCH  34  35
ENDBRANCH  31  34
ENDBRANCH  27  28
ENDBRANCH  26  27
ENDBRANCH  25  26
ENDBRANCH  23  25
ENDBRANCH   2  23
TORSDOF 13
ENDMDL
MODEL      336
REMARK 921   NORMALIZED FREE ENERGY PREDICTED BY IDOCK:   -3.41 KCAL/MOL
REMARK 922        TOTAL FREE ENERGY PREDICTED BY IDOCK:   -9.17 KCAL/MOL
REMARK 923 INTER-LIGAND FREE ENERGY PREDICTED BY IDOCK:   -8.47 KCAL/MOL
REMARK 924 INTRA-LIGAND FREE ENERGY PREDICTED BY IDOCK:   -0.69 KCAL/MOL
REMARK 927      BINDING AFFINITY PREDICTED BY RF-SCORE:    0.00 PKD
ROOT
HETATM    1  C   UNL     1     -12.630  11.689  64.224  1.00  0.00     0.083 C  
HETATM    2  C   UNL     1     -11.749  12.737  63.532  1.00  0.00    -0.530 C  
ENDROOT
BRANCH   2   3
HETATM    3  C   UNL     1     -10.314  12.771  64.104  1.00  0.00    -0.401 C  
BRANCH   3   4
HETATM    4  C   UNL     1      -9.789  11.416  64.485  1.00  0.00    -0.302 A  
HETATM    5  C   UNL     1      -8.607  10.940  63.907  1.00  0.00     0.051 A  
HETATM    6  C   UNL     1      -9.498   7.286  66.681  1.00  0.00    -0.177 A  
HETATM    7  C   UNL     1     -10.459  10.613  65.397  1.00  0.00    -0.254 A  
HETATM    8  C   UNL     1      -9.910   9.379  65.720  1.00  0.00    -0.345 A  
HETATM    9  C   UNL     1      -8.036   9.692  64.260  1.00  0.00    -0.139 A  
HETATM   10  C   UNL     1      -8.708   8.873  65.174  1.00  0.00    -0.178 A  
HETATM   11  C   UNL     1     -10.521   8.416  66.683  1.00  0.00    -0.221 A  
HETATM   12  N   UNL     1      -8.459   7.616  65.696  1.00  0.00    -0.146 NA 
BRANCH  12  13
HETATM   13  C   UNL     1      -7.328   6.723  65.540  1.00  0.00    -0.079 C  
BRANCH  13  14
HETATM   14  C   UNL     1      -6.411   6.752  66.765  1.00  0.00    -0.042 C  
BRANCH  14  15
HETATM   15  C   UNL     1      -5.349   7.841  66.701  1.00  0.00    -0.025 C  
HETATM   16  O   UNL     1      -5.946   9.098  67.023  1.00  0.00    -0.054 OA 
HETATM   17  H   UNL     1      -5.283   9.777  66.984  1.00  0.00     0.000 HD 
ENDBRANCH  14  15
ENDBRANCH  13  14
ENDBRANCH  12  13
BRANCH   9  18
HETATM   18  C   UNL     1      -6.764   9.397  63.550  1.00  0.00    -0.095 C  
HETATM   19  N   UNL     1      -6.855   8.543  62.473  1.00  0.00    -0.094 N  
HETATM   20  O   UNL     1      -5.667   9.817  63.899  1.00  0.00    -0.091 OA 
HETATM   21  H2  UNL     1      -7.744   8.138  62.180  1.00  0.00     0.000 HD 
HETATM   22  H1  UNL     1      -5.982   8.340  61.986  1.00  0.00     0.000 HD 
ENDBRANCH   9  18
ENDBRANCH   3   4
ENDBRANCH   2   3
BRANCH   2  23
HETATM   23  N   UNL     1     -12.411  14.049  63.648  1.00  0.00    -1.059 NA 
HETATM   24  H   UNL     1     -13.323  14.031  63.193  1.00  0.00     0.000 HD 
BRANCH  23  25
HETATM   25  C   UNL     1     -12.531  14.540  65.030  1.00  0.00    -0.301 C  
BRANCH  25  26
HETATM   26  C   UNL     1     -11.243  15.180  65.590  1.00  0.00    -0.296 C  
BRANCH  26  27
HETATM   27  O   UNL     1     -10.638  14.389  66.622  1.00  0.00    -0.277 OA 
BRANCH  27  28
HETATM   28  C   UNL     1     -11.118  14.554  67.896  1.00  0.00    -0.279 A  
HETATM   29  C   UNL     1     -12.166  13.556  69.839  1.00  0.00    -0.356 A  
HETATM   30  C   UNL     1     -11.226  15.805  68.529  1.00  0.00    -0.354 A  
HETATM   31  C   UNL     1     -11.596  13.421  68.574  1.00  0.00    -0.333 A  
HETATM   32  C   UNL     1     -12.277  14.807  70.450  1.00  0.00    -0.395 A  
HETATM   33  C   UNL     1     -11.806  15.934  69.787  1.00  0.00    -0.303 A  
BRANCH  31  34
HETATM   34  O   UNL     1     -11.676  12.152  68.063  1.00  0.00    -0.331 OA 
BRANCH  34  35
HETATM   35  C   UNL     1     -12.063  11.113  68.972  1.00  0.00    -0.246 C  
HETATM   36  C   UNL     1     -10.878  10.540  69.742  1.00  0.00    -0.281 C  
HETATM   37  F   UNL     1      -9.730  11.225  69.550  1.00  0.00    -0.061 F  
HETATM   38  F   UNL     1     -11.124  10.515  71.073  1.00  0.00    -0.357 F  
HETATM   39  F   UNL     1     -10.641   9.255  69.364  1.00  0.00    -0.205 F  
ENDBRANCH  34  35
ENDBRANCH  31  34
ENDBRANCH  27  28
ENDBRANCH  26  27
ENDBRANCH  25  26
ENDBRANCH  23  25
ENDBRANCH   2  23
TORSDOF 13
ENDMDL
MODEL      337
REMARK 921   NORMALIZED FREE ENERGY PREDICTED BY IDOCK:   -3.39 KCAL/MOL
REMARK 922        TOTAL FREE ENERGY PREDICTED BY IDOCK:   -9.13 KCAL/MOL
REMARK 923 INTER-LIGAND FREE ENERGY PREDICTED BY IDOCK:   -7.68 KCAL/MOL
REMARK 924 INTRA-LIGAND FREE ENERGY PREDICTED BY IDOCK:   -1.45 KCAL/MOL
REMARK 927      BINDING AFFINITY PREDICTED BY RF-SCORE:    0.00 PKD
ROOT
HETATM    1  C   UNL     1      -6.460  15.666  67.295  1.00  0.00    -0.093 C  
HETATM    2  C   UNL     1      -7.062  15.917  68.683  1.00  0.00    -0.133 C  
ENDROOT
BRANCH   2   3
HETATM    3  C   UNL     1      -8.010  14.779  69.128  1.00  0.00    -0.133 C  
BRANCH   3   4
HETATM    4  C   UNL     1      -7.783  13.489  68.393  1.00  0.00    -0.135 A  
HETATM    5  C   UNL     1      -8.741  13.029  67.482  1.00  0.00    -0.197 A  
HETATM    6  C   UNL     1      -5.637   9.573  66.969  1.00  0.00    -0.047 A  
HETATM    7  C   UNL     1      -6.641  12.730  68.603  1.00  0.00    -0.084 A  
HETATM    8  C   UNL     1      -6.484  11.556  67.877  1.00  0.00    -0.056 A  
HETATM    9  C   UNL     1      -8.563  11.846  66.723  1.00  0.00    -0.181 A  
HETATM   10  C   UNL     1      -7.418  11.071  66.934  1.00  0.00    -0.133 A  
HETATM   11  C   UNL     1      -5.308  10.646  68.002  1.00  0.00    -0.036 A  
HETATM   12  N   UNL     1      -6.961   9.875  66.409  1.00  0.00    -0.092 NA 
BRANCH  12  13
HETATM   13  C   UNL     1      -7.487   9.032  65.353  1.00  0.00    -0.089 C  
BRANCH  13  14
HETATM   14  C   UNL     1      -8.913   8.566  65.660  1.00  0.00    -0.209 C  
BRANCH  14  15
HETATM   15  C   UNL     1      -8.988   7.549  66.790  1.00  0.00    -0.144 C  
HETATM   16  O   UNL     1      -9.412   8.207  67.985  1.00  0.00    -0.142 OA 
HETATM   17  H   UNL     1      -9.459   7.572  68.691  1.00  0.00     0.000 HD 
ENDBRANCH  14  15
ENDBRANCH  13  14
ENDBRANCH  12  13
BRANCH   9  18
HETATM   18  C   UNL     1      -9.688  11.559  65.795  1.00  0.00    -0.235 C  
HETATM   19  N   UNL     1      -9.444  11.788  64.459  1.00  0.00    -0.428 N  
HETATM   20  O   UNL     1     -10.802  11.195  66.154  1.00  0.00    -0.253 OA 
HETATM   21  H2  UNL     1      -8.544  12.133  64.126  1.00  0.00     0.000 HD 
HETATM   22  H1  UNL     1     -10.216  11.591  63.821  1.00  0.00     0.000 HD 
ENDBRANCH   9  18
ENDBRANCH   3   4
ENDBRANCH   2   3
BRANCH   2  23
HETATM   23  N   UNL     1      -7.752  17.219  68.661  1.00  0.00    -0.257 NA 
HETATM   24  H   UNL     1      -7.595  17.691  67.771  1.00  0.00     0.000 HD 
BRANCH  23  25
HETATM   25  C   UNL     1      -9.191  17.141  68.959  1.00  0.00    -0.135 C  
BRANCH  25  26
HETATM   26  C   UNL     1     -10.104  17.299  67.724  1.00  0.00    -0.311 C  
BRANCH  26  27
HETATM   27  O   UNL     1      -9.760  16.397  66.665  1.00  0.00    -0.235 OA 
BRANCH  27  28
HETATM   28  C   UNL     1     -10.776  15.647  66.130  1.00  0.00    -0.303 A  
HETATM   29  C   UNL     1     -12.507  13.989  66.484  1.00  0.00    -0.351 A  
HETATM   30  C   UNL     1     -11.063  15.595  64.754  1.00  0.00    -0.426 A  
HETATM   31  C   UNL     1     -11.519  14.829  66.997  1.00  0.00    -0.353 A  
HETATM   32  C   UNL     1     -12.773  13.942  65.114  1.00  0.00    -0.434 A  
HETATM   33  C   UNL     1     -12.043  14.748  64.249  1.00  0.00    -0.415 A  
BRANCH  31  34
HETATM   34  O   UNL     1     -11.296  14.665  68.339  1.00  0.00    -0.266 OA 
BRANCH  34  35
HETATM   35  C   UNL     1     -12.336  14.031  69.094  1.00  0.00    -0.134 C  
HETATM   36  C   UNL     1     -12.094  14.105  70.598  1.00  0.00    -0.351 C  
HETATM   37  F   UNL     1     -11.050  14.890  70.936  1.00  0.00    -0.300 F  
HETATM   38  F   UNL     1     -13.187  14.570  71.247  1.00  0.00    -0.359 F  
HETATM   39  F   UNL     1     -11.839  12.866  71.100  1.00  0.00    -0.237 F  
ENDBRANCH  34  35
ENDBRANCH  31  34
ENDBRANCH  27  28
ENDBRANCH  26  27
ENDBRANCH  25  26
ENDBRANCH  23  25
ENDBRANCH   2  23
TORSDOF 13
ENDMDL
MODEL      338
REMARK 921   NORMALIZED FREE ENERGY PREDICTED BY IDOCK:   -3.36 KCAL/MOL
REMARK 922        TOTAL FREE ENERGY PREDICTED BY IDOCK:   -9.08 KCAL/MOL
REMARK 923 INTER-LIGAND FREE ENERGY PREDICTED BY IDOCK:   -7.68 KCAL/MOL
REMARK 924 INTRA-LIGAND FREE ENERGY PREDICTED BY IDOCK:   -1.40 KCAL/MOL
REMARK 927      BINDING AFFINITY PREDICTED BY RF-SCORE:    0.00 PKD
ROOT
HETATM    1  C   UNL     1     -12.560  12.595  64.472  1.00  0.00    -0.491 C  
HETATM    2  C   UNL     1     -11.462  13.161  65.380  1.00  0.00    -0.304 C  
ENDROOT
BRANCH   2   3
HETATM    3  C   UNL     1     -10.727  14.360  64.738  1.00  0.00    -0.423 C  
BRANCH   3   4
HETATM    4  C   UNL     1     -10.059  15.259  65.739  1.00  0.00    -0.384 A  
HETATM    5  C   UNL     1     -10.429  16.606  65.820  1.00  0.00    -0.324 A  
HETATM    6  C   UNL     1      -7.234  16.595  69.232  1.00  0.00    -0.200 A  
HETATM    7  C   UNL     1      -9.068  14.784  66.586  1.00  0.00    -0.300 A  
HETATM    8  C   UNL     1      -8.503  15.663  67.501  1.00  0.00    -0.182 A  
HETATM    9  C   UNL     1      -9.870  17.492  66.775  1.00  0.00    -0.306 A  
HETATM   10  C   UNL     1      -8.865  17.023  67.629  1.00  0.00    -0.220 A  
HETATM   11  C   UNL     1      -7.431  15.288  68.470  1.00  0.00    -0.121 A  
HETATM   12  N   UNL     1      -8.100  17.611  68.621  1.00  0.00    -0.282 NA 
BRANCH  12  13
HETATM   13  C   UNL     1      -8.144  18.939  69.200  1.00  0.00    -0.067 C  
BRANCH  13  14
HETATM   14  C   UNL     1      -6.929  19.776  68.790  1.00  0.00    -0.366 C  
BRANCH  14  15
HETATM   15  C   UNL     1      -7.284  20.975  67.923  1.00  0.00    -0.042 C  
HETATM   16  O   UNL     1      -7.448  20.544  66.571  1.00  0.00    -0.410 OA 
HETATM   17  H   UNL     1      -7.669  21.292  66.029  1.00  0.00     0.000 HD 
ENDBRANCH  14  15
ENDBRANCH  13  14
ENDBRANCH  12  13
BRANCH   9  18
HETATM   18  C   UNL     1     -10.427  18.868  66.708  1.00  0.00    -0.428 C  
HETATM   19  N   UNL     1     -10.208  19.555  65.535  1.00  0.00    -0.132 N  
HETATM   20  O   UNL     1     -11.003  19.423  67.637  1.00  0.00    -0.429 OA 
HETATM   21  H2  UNL     1      -9.694  19.143  64.757  1.00  0.00     0.000 HD 
HETATM   22  H1  UNL     1     -10.590  20.500  65.489  1.00  0.00     0.000 HD 
ENDBRANCH   9  18
ENDBRANCH   3   4
ENDBRANCH   2   3
BRANCH   2  23
HETATM   23  N   UNL     1     -10.530  12.071  65.717  1.00  0.00    -0.245 NA 
HETATM   24  H   UNL     1      -9.589  12.291  65.389  1.00  0.00     0.000 HD 
BRANCH  23  25
HETATM   25  C   UNL     1     -10.511  11.717  67.145  1.00  0.00    -0.220 C  
BRANCH  25  26
HETATM   26  C   UNL     1      -9.241  10.961  67.594  1.00  0.00    -0.152 C  
BRANCH  26  27
HETATM   27  O   UNL     1      -9.414  10.291  68.850  1.00  0.00    -0.168 OA 
BRANCH  27  28
HETATM   28  C   UNL     1      -8.312   9.672  69.383  1.00  0.00    -0.145 A  
HETATM   29  C   UNL     1      -7.121   7.604  69.797  1.00  0.00    -0.067 A  
HETATM   30  C   UNL     1      -7.348  10.337  70.161  1.00  0.00    -0.115 A  
HETATM   31  C   UNL     1      -8.182   8.285  69.204  1.00  0.00    -0.121 A  
HETATM   32  C   UNL     1      -6.177   8.277  70.577  1.00  0.00    -0.035 A  
HETATM   33  C   UNL     1      -6.297   9.650  70.759  1.00  0.00    -0.097 A  
BRANCH  31  34
HETATM   34  O   UNL     1      -9.086   7.466  68.580  1.00  0.00    -0.137 OA 
BRANCH  34  35
HETATM   35  C   UNL     1      -8.555   6.486  67.679  1.00  0.00    -0.116 C  
HETATM   36  C   UNL     1      -9.165   6.582  66.285  1.00  0.00    -0.133 C  
HETATM   37  F   UNL     1      -9.954   7.664  66.118  1.00  0.00    -0.222 F  
HETATM   38  F   UNL     1      -8.205   6.620  65.332  1.00  0.00    -0.116 F  
HETATM   39  F   UNL     1      -9.931   5.487  66.025  1.00  0.00    -0.179 F  
ENDBRANCH  34  35
ENDBRANCH  31  34
ENDBRANCH  27  28
ENDBRANCH  26  27
ENDBRANCH  25  26
ENDBRANCH  23  25
ENDBRANCH   2  23
TORSDOF 13
ENDMDL
MODEL      339
REMARK 921   NORMALIZED FREE ENERGY PREDICTED BY IDOCK:   -3.32 KCAL/MOL
REMARK 922        TOTAL FREE ENERGY PREDICTED BY IDOCK:   -9.00 KCAL/MOL
REMARK 923 INTER-LIGAND FREE ENERGY PREDICTED BY IDOCK:   -7.76 KCAL/MOL
REMARK 924 INTRA-LIGAND FREE ENERGY PREDICTED BY IDOCK:   -1.24 KCAL/MOL
REMARK 927      BINDING AFFINITY PREDICTED BY RF-SCORE:    0.00 PKD
ROOT
HETATM    1  C   UNL     1      -6.241  14.213  71.243  1.00  0.00     0.078 C  
HETATM    2  C   UNL     1      -6.023  13.603  69.852  1.00  0.00    -0.131 C  
ENDROOT
BRANCH   2   3
HETATM    3  C   UNL     1      -5.129  14.489  68.955  1.00  0.00    -0.083 C  
BRANCH   3   4
HETATM    4  C   UNL     1      -5.651  15.887  68.782  1.00  0.00    -0.104 A  
HETATM    5  C   UNL     1      -6.449  16.200  67.677  1.00  0.00    -0.190 A  
HETATM    6  C   UNL     1      -6.476  20.404  69.717  1.00  0.00    -0.154 A  
HETATM    7  C   UNL     1      -5.350  16.887  69.696  1.00  0.00    -0.165 A  
HETATM    8  C   UNL     1      -5.879  18.154  69.488  1.00  0.00    -0.234 A  
HETATM    9  C   UNL     1      -7.011  17.486  67.484  1.00  0.00    -0.183 A  
HETATM   10  C   UNL     1      -6.707  18.503  68.396  1.00  0.00    -0.241 A  
HETATM   11  C   UNL     1      -5.639  19.320  70.388  1.00  0.00    -0.255 A  
HETATM   12  N   UNL     1      -7.043  19.842  68.484  1.00  0.00    -0.309 NA 
BRANCH  12  13
HETATM   13  C   UNL     1      -7.934  20.658  67.683  1.00  0.00    -0.173 C  
BRANCH  13  14
HETATM   14  C   UNL     1      -9.377  20.585  68.189  1.00  0.00    -0.048 C  
BRANCH  14  15
HETATM   15  C   UNL     1     -10.364  20.101  67.137  1.00  0.00    -0.361 C  
HETATM   16  O   UNL     1      -9.992  20.634  65.865  1.00  0.00    -0.543 OA 
HETATM   17  H   UNL     1     -10.608  20.331  65.208  1.00  0.00     0.000 HD 
ENDBRANCH  14  15
ENDBRANCH  13  14
ENDBRANCH  12  13
BRANCH   9  18
HETATM   18  C   UNL     1      -7.851  17.593  66.263  1.00  0.00    -0.273 C  
HETATM   19  N   UNL     1      -8.900  16.706  66.169  1.00  0.00    -0.307 N  
HETATM   20  O   UNL     1      -7.629  18.369  65.340  1.00  0.00    -0.442 OA 
HETATM   21  H2  UNL     1      -9.089  16.016  66.896  1.00  0.00     0.000 HD 
HETATM   22  H1  UNL     1      -9.477  16.778  65.331  1.00  0.00     0.000 HD 
ENDBRANCH   9  18
ENDBRANCH   3   4
ENDBRANCH   2   3
BRANCH   2  23
HETATM   23  N   UNL     1      -7.341  13.366  69.238  1.00  0.00    -0.316 NA 
HETATM   24  H   UNL     1      -7.683  12.435  69.475  1.00  0.00     0.000 HD 
BRANCH  23  25
HETATM   25  C   UNL     1      -8.350  14.387  69.567  1.00  0.00     0.364 C  
BRANCH  25  26
HETATM   26  C   UNL     1      -9.656  14.273  68.753  1.00  0.00    -0.153 C  
BRANCH  26  27
HETATM   27  O   UNL     1      -9.671  13.127  67.892  1.00  0.00    -0.208 OA 
BRANCH  27  28
HETATM   28  C   UNL     1     -10.659  13.074  66.941  1.00  0.00    -0.254 A  
HETATM   29  C   UNL     1     -11.497  12.056  64.909  1.00  0.00    -0.352 A  
HETATM   30  C   UNL     1     -11.720  13.993  66.872  1.00  0.00    -0.435 A  
HETATM   31  C   UNL     1     -10.559  12.094  65.940  1.00  0.00    -0.258 A  
HETATM   32  C   UNL     1     -12.540  12.983  64.848  1.00  0.00    -0.490 A  
HETATM   33  C   UNL     1     -12.646  13.956  65.835  1.00  0.00    -0.498 A  
BRANCH  31  34
HETATM   34  O   UNL     1      -9.532  11.200  65.787  1.00  0.00    -0.205 OA 
BRANCH  34  35
HETATM   35  C   UNL     1      -9.503  10.452  64.565  1.00  0.00    -0.286 C  
HETATM   36  C   UNL     1      -8.111   9.926  64.235  1.00  0.00    -0.152 C  
HETATM   37  F   UNL     1      -7.216  10.115  65.228  1.00  0.00    -0.117 F  
HETATM   38  F   UNL     1      -8.141   8.602  63.956  1.00  0.00    -0.133 F  
HETATM   39  F   UNL     1      -7.617  10.547  63.130  1.00  0.00    -0.149 F  
ENDBRANCH  34  35
ENDBRANCH  31  34
ENDBRANCH  27  28
ENDBRANCH  26  27
ENDBRANCH  25  26
ENDBRANCH  23  25
ENDBRANCH   2  23
TORSDOF 13
ENDMDL
MODEL      340
REMARK 921   NORMALIZED FREE ENERGY PREDICTED BY IDOCK:   -3.27 KCAL/MOL
REMARK 922        TOTAL FREE ENERGY PREDICTED BY IDOCK:   -8.92 KCAL/MOL
REMARK 923 INTER-LIGAND FREE ENERGY PREDICTED BY IDOCK:   -7.42 KCAL/MOL
REMARK 924 INTRA-LIGAND FREE ENERGY PREDICTED BY IDOCK:   -1.50 KCAL/MOL
REMARK 927      BINDING AFFINITY PREDICTED BY RF-SCORE:    0.00 PKD
ROOT
HETATM    1  C   UNL     1      -7.800  15.170  69.191  1.00  0.00    -0.199 C  
HETATM    2  C   UNL     1      -8.170  13.707  68.911  1.00  0.00     0.123 C  
ENDROOT
BRANCH   2   3
HETATM    3  C   UNL     1      -7.635  13.216  67.547  1.00  0.00    -0.166 C  
BRANCH   3   4
HETATM    4  C   UNL     1      -7.696  11.724  67.381  1.00  0.00    -0.151 A  
HETATM    5  C   UNL     1      -8.616  10.978  68.127  1.00  0.00    -0.140 A  
HETATM    6  C   UNL     1      -6.709   7.454  65.721  1.00  0.00    -0.052 A  
HETATM    7  C   UNL     1      -6.849  11.060  66.505  1.00  0.00    -0.132 A  
HETATM    8  C   UNL     1      -6.969   9.682  66.385  1.00  0.00    -0.088 A  
HETATM    9  C   UNL     1      -8.755   9.576  67.980  1.00  0.00    -0.120 A  
HETATM   10  C   UNL     1      -7.900   8.898  67.105  1.00  0.00    -0.096 A  
HETATM   11  C   UNL     1      -6.126   8.843  65.484  1.00  0.00    -0.055 A  
HETATM   12  N   UNL     1      -7.741   7.566  66.760  1.00  0.00    -0.100 NA 
BRANCH  12  13
HETATM   13  C   UNL     1      -8.497   6.387  67.133  1.00  0.00    -0.112 C  
BRANCH  13  14
HETATM   14  C   UNL     1      -7.832   5.105  66.623  1.00  0.00    -0.100 C  
BRANCH  14  15
HETATM   15  C   UNL     1      -8.631   4.398  65.538  1.00  0.00    -0.121 C  
HETATM   16  O   UNL     1      -9.680   5.258  65.092  1.00  0.00    -0.364 OA 
HETATM   17  H   UNL     1     -10.179   4.816  64.415  1.00  0.00     0.000 HD 
ENDBRANCH  14  15
ENDBRANCH  13  14
ENDBRANCH  12  13
BRANCH   9  18
HETATM   18  C   UNL     1      -9.811   8.988  68.844  1.00  0.00    -0.175 C  
HETATM   19  N   UNL     1      -9.376   8.164  69.858  1.00  0.00    -0.159 N  
HETATM   20  O   UNL     1     -11.013   9.151  68.669  1.00  0.00    -0.099 OA 
HETATM   21  H2  UNL     1      -8.387   7.968  70.007  1.00  0.00     0.000 HD 
HETATM   22  H1  UNL     1     -10.102   7.760  70.451  1.00  0.00     0.000 HD 
ENDBRANCH   9  18
ENDBRANCH   3   4
ENDBRANCH   2   3
BRANCH   2  23
HETATM   23  N   UNL     1      -9.635  13.574  69.000  1.00  0.00    -0.397 NA 
HETATM   24  H   UNL     1      -9.887  12.685  69.432  1.00  0.00     0.000 HD 
BRANCH  23  25
HETATM   25  C   UNL     1     -10.299  14.692  69.690  1.00  0.00    -0.003 C  
BRANCH  25  26
HETATM   26  C   UNL     1     -11.790  14.863  69.330  1.00  0.00    -0.324 C  
BRANCH  26  27
HETATM   27  O   UNL     1     -12.032  16.020  68.519  1.00  0.00    -0.273 OA 
BRANCH  27  28
HETATM   28  C   UNL     1     -10.984  16.481  67.763  1.00  0.00    -0.252 A  
HETATM   29  C   UNL     1      -9.523  16.145  65.860  1.00  0.00    -0.337 A  
HETATM   30  C   UNL     1     -10.198  17.592  68.120  1.00  0.00    -0.359 A  
HETATM   31  C   UNL     1     -10.632  15.758  66.612  1.00  0.00    -0.307 A  
HETATM   32  C   UNL     1      -8.746  17.244  66.234  1.00  0.00    -0.259 A  
HETATM   33  C   UNL     1      -9.088  17.966  67.372  1.00  0.00    -0.245 A  
BRANCH  31  34
HETATM   34  O   UNL     1     -11.210  14.591  66.186  1.00  0.00    -0.328 OA 
BRANCH  34  35
HETATM   35  C   UNL     1     -10.549  13.894  65.123  1.00  0.00    -0.379 C  
HETATM   36  C   UNL     1     -11.329  12.671  64.652  1.00  0.00    -0.318 C  
HETATM   37  F   UNL     1     -12.559  12.575  65.200  1.00  0.00    -0.514 F  
HETATM   38  F   UNL     1     -11.477  12.673  63.307  1.00  0.00    -0.503 F  
HETATM   39  F   UNL     1     -10.661  11.529  64.970  1.00  0.00    -0.314 F  
ENDBRANCH  34  35
ENDBRANCH  31  34
ENDBRANCH  27  28
ENDBRANCH  26  27
ENDBRANCH  25  26
ENDBRANCH  23  25
ENDBRANCH   2  23
TORSDOF 13
ENDMDL
MODEL      341
REMARK 921   NORMALIZED FREE ENERGY PREDICTED BY IDOCK:   -3.26 KCAL/MOL
REMARK 922        TOTAL FREE ENERGY PREDICTED BY IDOCK:   -8.91 KCAL/MOL
REMARK 923 INTER-LIGAND FREE ENERGY PREDICTED BY IDOCK:   -7.26 KCAL/MOL
REMARK 924 INTRA-LIGAND FREE ENERGY PREDICTED BY IDOCK:   -1.65 KCAL/MOL
REMARK 927      BINDING AFFINITY PREDICTED BY RF-SCORE:    0.00 PKD
ROOT
HETATM    1  C   UNL     1     -13.338  11.088  71.713  1.00  0.00    -0.400 C  
HETATM    2  C   UNL     1     -12.199  10.459  70.900  1.00  0.00    -0.383 C  
ENDROOT
BRANCH   2   3
HETATM    3  C   UNL     1     -12.262  10.843  69.404  1.00  0.00    -0.293 C  
BRANCH   3   4
HETATM    4  C   UNL     1     -11.438  12.051  69.061  1.00  0.00    -0.357 A  
HETATM    5  C   UNL     1     -10.086  11.902  68.733  1.00  0.00    -0.133 A  
HETATM    6  C   UNL     1     -10.378  16.538  68.218  1.00  0.00    -0.293 A  
HETATM    7  C   UNL     1     -11.988  13.325  69.070  1.00  0.00    -0.336 A  
HETATM    8  C   UNL     1     -11.177  14.398  68.725  1.00  0.00    -0.282 A  
HETATM    9  C   UNL     1      -9.270  12.996  68.354  1.00  0.00    -0.136 A  
HETATM   10  C   UNL     1      -9.814  14.285  68.367  1.00  0.00    -0.233 A  
HETATM   11  C   UNL     1     -11.636  15.818  68.693  1.00  0.00    -0.392 A  
HETATM   12  N   UNL     1      -9.304  15.543  68.100  1.00  0.00    -0.196 NA 
BRANCH  12  13
HETATM   13  C   UNL     1      -8.007  15.962  67.606  1.00  0.00    -0.146 C  
BRANCH  13  14
HETATM   14  C   UNL     1      -8.119  16.667  66.251  1.00  0.00    -0.361 C  
BRANCH  14  15
HETATM   15  C   UNL     1      -7.427  18.022  66.214  1.00  0.00    -0.277 C  
HETATM   16  O   UNL     1      -7.401  18.571  67.532  1.00  0.00    -0.216 OA 
HETATM   17  H   UNL     1      -6.970  19.418  67.509  1.00  0.00     0.000 HD 
ENDBRANCH  14  15
ENDBRANCH  13  14
ENDBRANCH  12  13
BRANCH   9  18
HETATM   18  C   UNL     1      -7.875  12.610  68.016  1.00  0.00    -0.149 C  
HETATM   19  N   UNL     1      -6.962  12.673  69.046  1.00  0.00    -0.195 N  
HETATM   20  O   UNL     1      -7.499  12.304  66.891  1.00  0.00    -0.100 OA 
HETATM   21  H2  UNL     1      -7.229  12.967  69.985  1.00  0.00     0.000 HD 
HETATM   22  H1  UNL     1      -6.004  12.408  68.814  1.00  0.00     0.000 HD 
ENDBRANCH   9  18
ENDBRANCH   3   4
ENDBRANCH   2   3
BRANCH   2  23
HETATM   23  N   UNL     1     -12.248   8.998  71.087  1.00  0.00    -0.360 NA 
HETATM   24  H   UNL     1     -12.781   8.559  70.337  1.00  0.00     0.000 HD 
BRANCH  23  25
HETATM   25  C   UNL     1     -10.925   8.365  71.220  1.00  0.00    -0.252 C  
BRANCH  25  26
HETATM   26  C   UNL     1     -10.948   6.986  71.912  1.00  0.00    -0.233 C  
BRANCH  26  27
HETATM   27  O   UNL     1     -10.442   5.939  71.073  1.00  0.00    -0.216 OA 
BRANCH  27  28
HETATM   28  C   UNL     1      -9.080   5.859  70.930  1.00  0.00    -0.149 A  
HETATM   29  C   UNL     1      -7.189   5.548  69.448  1.00  0.00    -0.065 A  
HETATM   30  C   UNL     1      -8.185   5.839  72.013  1.00  0.00    -0.112 A  
HETATM   31  C   UNL     1      -8.561   5.714  69.633  1.00  0.00    -0.110 A  
HETATM   32  C   UNL     1      -6.313   5.519  70.536  1.00  0.00    -0.027 A  
HETATM   33  C   UNL     1      -6.819   5.662  71.823  1.00  0.00    -0.067 A  
BRANCH  31  34
HETATM   34  O   UNL     1      -9.293   5.594  68.481  1.00  0.00    -0.119 OA 
BRANCH  34  35
HETATM   35  C   UNL     1      -8.730   4.789  67.438  1.00  0.00    -0.103 C  
HETATM   36  C   UNL     1      -9.297   5.131  66.065  1.00  0.00    -0.158 C  
HETATM   37  F   UNL     1     -10.084   6.227  66.066  1.00  0.00    -0.111 F  
HETATM   38  F   UNL     1      -8.307   5.335  65.164  1.00  0.00    -0.118 F  
HETATM   39  F   UNL     1     -10.049   4.101  65.591  1.00  0.00    -0.187 F  
ENDBRANCH  34  35
ENDBRANCH  31  34
ENDBRANCH  27  28
ENDBRANCH  26  27
ENDBRANCH  25  26
ENDBRANCH  23  25
ENDBRANCH   2  23
TORSDOF 13
ENDMDL
MODEL      342
REMARK 921   NORMALIZED FREE ENERGY PREDICTED BY IDOCK:   -3.24 KCAL/MOL
REMARK 922        TOTAL FREE ENERGY PREDICTED BY IDOCK:   -8.88 KCAL/MOL
REMARK 923 INTER-LIGAND FREE ENERGY PREDICTED BY IDOCK:   -7.29 KCAL/MOL
REMARK 924 INTRA-LIGAND FREE ENERGY PREDICTED BY IDOCK:   -1.58 KCAL/MOL
REMARK 927      BINDING AFFINITY PREDICTED BY RF-SCORE:    0.00 PKD
ROOT
HETATM    1  C   UNL     1      -7.678  12.936  69.182  1.00  0.00     0.324 C  
HETATM    2  C   UNL     1      -8.202  11.624  68.584  1.00  0.00    -0.110 C  
ENDROOT
BRANCH   2   3
HETATM    3  C   UNL     1      -8.022  11.564  67.050  1.00  0.00    -0.161 C  
BRANCH   3   4
HETATM    4  C   UNL     1      -8.019  10.165  66.501  1.00  0.00    -0.118 A  
HETATM    5  C   UNL     1      -8.066   9.074  67.376  1.00  0.00    -0.108 A  
HETATM    6  C   UNL     1      -8.022   6.691  63.357  1.00  0.00    -0.072 A  
HETATM    7  C   UNL     1      -7.962   9.926  65.135  1.00  0.00    -0.139 A  
HETATM    8  C   UNL     1      -7.982   8.610  64.693  1.00  0.00    -0.141 A  
HETATM    9  C   UNL     1      -8.114   7.734  66.919  1.00  0.00    -0.116 A  
HETATM   10  C   UNL     1      -8.050   7.484  65.544  1.00  0.00    -0.131 A  
HETATM   11  C   UNL     1      -7.926   8.209  63.256  1.00  0.00    -0.149 A  
HETATM   12  N   UNL     1      -8.035   6.330  64.780  1.00  0.00    -0.121 NA 
BRANCH  12  13
HETATM   13  C   UNL     1      -8.179   4.936  65.152  1.00  0.00    -0.124 C  
BRANCH  13  14
HETATM   14  C   UNL     1      -6.993   4.097  64.671  1.00  0.00    -0.050 C  
BRANCH  14  15
HETATM   15  C   UNL     1      -6.050   3.681  65.792  1.00  0.00    -0.027 C  
HETATM   16  O   UNL     1      -5.183   4.773  66.103  1.00  0.00    -0.008 OA 
HETATM   17  H   UNL     1      -4.595   4.513  66.803  1.00  0.00     0.000 HD 
ENDBRANCH  14  15
ENDBRANCH  13  14
ENDBRANCH  12  13
BRANCH   9  18
HETATM   18  C   UNL     1      -8.191   6.733  68.015  1.00  0.00    -0.114 C  
HETATM   19  N   UNL     1      -7.025   6.060  68.305  1.00  0.00    -0.073 N  
HETATM   20  O   UNL     1      -9.221   6.447  68.614  1.00  0.00    -0.127 OA 
HETATM   21  H2  UNL     1      -6.159   6.239  67.797  1.00  0.00     0.000 HD 
HETATM   22  H1  UNL     1      -7.078   5.373  69.057  1.00  0.00     0.000 HD 
ENDBRANCH   9  18
ENDBRANCH   3   4
ENDBRANCH   2   3
BRANCH   2  23
HETATM   23  N   UNL     1      -9.615  11.469  68.971  1.00  0.00    -0.413 NA 
HETATM   24  H   UNL     1      -9.802  11.958  69.846  1.00  0.00     0.000 HD 
BRANCH  23  25
HETATM   25  C   UNL     1     -10.571  11.886  67.932  1.00  0.00    -0.201 C  
BRANCH  25  26
HETATM   26  C   UNL     1     -11.747  12.738  68.457  1.00  0.00    -0.333 C  
BRANCH  26  27
HETATM   27  O   UNL     1     -11.977  13.908  67.662  1.00  0.00    -0.366 OA 
BRANCH  27  28
HETATM   28  C   UNL     1     -11.144  14.978  67.872  1.00  0.00    -0.307 A  
HETATM   29  C   UNL     1     -10.645  16.964  69.167  1.00  0.00    -0.330 A  
HETATM   30  C   UNL     1     -10.084  15.319  67.014  1.00  0.00    -0.248 A  
HETATM   31  C   UNL     1     -11.416  15.820  68.963  1.00  0.00    -0.391 A  
HETATM   32  C   UNL     1      -9.601  17.295  68.299  1.00  0.00    -0.288 A  
HETATM   33  C   UNL     1      -9.326  16.467  67.218  1.00  0.00    -0.227 A  
BRANCH  31  34
HETATM   34  O   UNL     1     -12.475  15.706  69.826  1.00  0.00    -0.292 OA 
BRANCH  34  35
HETATM   35  C   UNL     1     -12.165  15.627  71.222  1.00  0.00    -0.415 C  
HETATM   36  C   UNL     1     -13.305  15.030  72.041  1.00  0.00    -0.379 C  
HETATM   37  F   UNL     1     -14.309  14.539  71.285  1.00  0.00    -0.451 F  
HETATM   38  F   UNL     1     -12.863  14.030  72.839  1.00  0.00    -0.468 F  
HETATM   39  F   UNL     1     -13.847  15.973  72.859  1.00  0.00    -0.621 F  
ENDBRANCH  34  35
ENDBRANCH  31  34
ENDBRANCH  27  28
ENDBRANCH  26  27
ENDBRANCH  25  26
ENDBRANCH  23  25
ENDBRANCH   2  23
TORSDOF 13
ENDMDL
MODEL      343
REMARK 921   NORMALIZED FREE ENERGY PREDICTED BY IDOCK:   -3.20 KCAL/MOL
REMARK 922        TOTAL FREE ENERGY PREDICTED BY IDOCK:   -8.79 KCAL/MOL
REMARK 923 INTER-LIGAND FREE ENERGY PREDICTED BY IDOCK:   -7.09 KCAL/MOL
REMARK 924 INTRA-LIGAND FREE ENERGY PREDICTED BY IDOCK:   -1.70 KCAL/MOL
REMARK 927      BINDING AFFINITY PREDICTED BY RF-SCORE:    0.00 PKD
ROOT
HETATM    1  C   UNL     1      -5.130  11.285  68.964  1.00  0.00    -0.040 C  
HETATM    2  C   UNL     1      -6.331  11.308  68.009  1.00  0.00    -0.053 C  
ENDROOT
BRANCH   2   3
HETATM    3  C   UNL     1      -7.650  11.664  68.731  1.00  0.00    -0.119 C  
BRANCH   3   4
HETATM    4  C   UNL     1      -8.008  13.120  68.643  1.00  0.00    -0.033 A  
HETATM    5  C   UNL     1      -7.049  14.092  68.951  1.00  0.00    -0.111 A  
HETATM    6  C   UNL     1     -10.562  16.966  67.839  1.00  0.00    -0.361 A  
HETATM    7  C   UNL     1      -9.280  13.529  68.270  1.00  0.00    -0.195 A  
HETATM    8  C   UNL     1      -9.540  14.891  68.190  1.00  0.00    -0.210 A  
HETATM    9  C   UNL     1      -7.310  15.480  68.841  1.00  0.00    -0.150 A  
HETATM   10  C   UNL     1      -8.592  15.902  68.472  1.00  0.00    -0.190 A  
HETATM   11  C   UNL     1     -10.859  15.471  67.802  1.00  0.00    -0.309 A  
HETATM   12  N   UNL     1      -9.183  17.143  68.310  1.00  0.00    -0.254 NA 
BRANCH  12  13
HETATM   13  C   UNL     1      -8.629  18.481  68.381  1.00  0.00    -0.331 C  
BRANCH  13  14
HETATM   14  C   UNL     1      -9.696  19.549  68.128  1.00  0.00    -0.483 C  
BRANCH  14  15
HETATM   15  C   UNL     1      -9.263  20.615  67.132  1.00  0.00    -0.292 C  
HETATM   16  O   UNL     1     -10.012  20.460  65.925  1.00  0.00    -0.620 OA 
HETATM   17  H   UNL     1      -9.742  21.126  65.303  1.00  0.00     0.000 HD 
ENDBRANCH  14  15
ENDBRANCH  13  14
ENDBRANCH  12  13
BRANCH   9  18
HETATM   18  C   UNL     1      -6.144  16.335  69.185  1.00  0.00    -0.154 C  
HETATM   19  N   UNL     1      -5.316  16.681  68.141  1.00  0.00    -0.113 N  
HETATM   20  O   UNL     1      -5.863  16.689  70.325  1.00  0.00    -0.202 OA 
HETATM   21  H2  UNL     1      -5.493  16.369  67.186  1.00  0.00     0.000 HD 
HETATM   22  H1  UNL     1      -4.516  17.268  68.377  1.00  0.00     0.000 HD 
ENDBRANCH   9  18
ENDBRANCH   3   4
ENDBRANCH   2   3
BRANCH   2  23
HETATM   23  N   UNL     1      -6.416   9.998  67.339  1.00  0.00    -0.067 NA 
HETATM   24  H   UNL     1      -6.610   9.262  68.016  1.00  0.00     0.000 HD 
BRANCH  23  25
HETATM   25  C   UNL     1      -7.386   9.952  66.233  1.00  0.00    -0.102 C  
BRANCH  25  26
HETATM   26  C   UNL     1      -8.144   8.613  66.110  1.00  0.00    -0.108 C  
BRANCH  26  27
HETATM   27  O   UNL     1      -9.564   8.770  66.232  1.00  0.00    -0.223 OA 
BRANCH  27  28
HETATM   28  C   UNL     1     -10.048   9.113  67.469  1.00  0.00    -0.228 A  
HETATM   29  C   UNL     1     -10.469   8.453  69.762  1.00  0.00    -0.220 A  
HETATM   30  C   UNL     1     -10.732  10.314  67.730  1.00  0.00    -0.324 A  
HETATM   31  C   UNL     1      -9.920   8.179  68.510  1.00  0.00    -0.190 A  
HETATM   32  C   UNL     1     -11.155   9.646  70.003  1.00  0.00    -0.293 A  
HETATM   33  C   UNL     1     -11.287  10.576  68.978  1.00  0.00    -0.319 A  
BRANCH  31  34
HETATM   34  O   UNL     1      -9.392   6.919  68.402  1.00  0.00    -0.131 OA 
BRANCH  34  35
HETATM   35  C   UNL     1     -10.132   5.974  67.619  1.00  0.00    -0.160 C  
HETATM   36  C   UNL     1      -9.246   5.201  66.647  1.00  0.00    -0.129 C  
HETATM   37  F   UNL     1      -7.928   5.427  66.826  1.00  0.00    -0.098 F  
HETATM   38  F   UNL     1      -9.454   3.867  66.752  1.00  0.00    -0.160 F  
HETATM   39  F   UNL     1      -9.539   5.541  65.363  1.00  0.00    -0.119 F  
ENDBRANCH  34  35
ENDBRANCH  31  34
ENDBRANCH  27  28
ENDBRANCH  26  27
ENDBRANCH  25  26
ENDBRANCH  23  25
ENDBRANCH   2  23
TORSDOF 13
ENDMDL
MODEL      344
REMARK 921   NORMALIZED FREE ENERGY PREDICTED BY IDOCK:   -3.18 KCAL/MOL
REMARK 922        TOTAL FREE ENERGY PREDICTED BY IDOCK:   -8.76 KCAL/MOL
REMARK 923 INTER-LIGAND FREE ENERGY PREDICTED BY IDOCK:   -7.50 KCAL/MOL
REMARK 924 INTRA-LIGAND FREE ENERGY PREDICTED BY IDOCK:   -1.26 KCAL/MOL
REMARK 927      BINDING AFFINITY PREDICTED BY RF-SCORE:    0.00 PKD
ROOT
HETATM    1  C   UNL     1     -12.581  14.190  69.136  1.00  0.00     0.219 C  
HETATM    2  C   UNL     1     -11.193  13.609  68.840  1.00  0.00    -0.270 C  
ENDROOT
BRANCH   2   3
HETATM    3  C   UNL     1     -11.107  12.099  69.156  1.00  0.00    -0.263 C  
BRANCH   3   4
HETATM    4  C   UNL     1     -10.454  11.295  68.067  1.00  0.00    -0.215 A  
HETATM    5  C   UNL     1      -9.620  10.222  68.399  1.00  0.00    -0.155 A  
HETATM    6  C   UNL     1      -9.336   9.861  63.748  1.00  0.00    -0.197 A  
HETATM    7  C   UNL     1     -10.653  11.600  66.728  1.00  0.00    -0.280 A  
HETATM    8  C   UNL     1     -10.035  10.806  65.771  1.00  0.00    -0.306 A  
HETATM    9  C   UNL     1      -9.015   9.398  67.418  1.00  0.00    -0.134 A  
HETATM   10  C   UNL     1      -9.204   9.702  66.066  1.00  0.00    -0.182 A  
HETATM   11  C   UNL     1     -10.162  11.019  64.299  1.00  0.00    -0.414 A  
HETATM   12  N   UNL     1      -8.742   9.146  64.886  1.00  0.00    -0.184 NA 
BRANCH  12  13
HETATM   13  C   UNL     1      -7.950   7.959  64.635  1.00  0.00    -0.143 C  
BRANCH  13  14
HETATM   14  C   UNL     1      -8.220   7.382  63.242  1.00  0.00     0.060 C  
BRANCH  14  15
HETATM   15  C   UNL     1      -7.052   6.584  62.680  1.00  0.00    -0.045 C  
HETATM   16  O   UNL     1      -7.281   5.193  62.913  1.00  0.00    -0.041 OA 
HETATM   17  H   UNL     1      -6.552   4.694  62.562  1.00  0.00     0.000 HD 
ENDBRANCH  14  15
ENDBRANCH  13  14
ENDBRANCH  12  13
BRANCH   9  18
HETATM   18  C   UNL     1      -8.194   8.298  67.989  1.00  0.00    -0.128 C  
HETATM   19  N   UNL     1      -6.931   8.146  67.461  1.00  0.00    -0.074 N  
HETATM   20  O   UNL     1      -8.594   7.510  68.838  1.00  0.00    -0.129 OA 
HETATM   21  H2  UNL     1      -6.580   8.754  66.721  1.00  0.00     0.000 HD 
HETATM   22  H1  UNL     1      -6.368   7.391  67.852  1.00  0.00     0.000 HD 
ENDBRANCH   9  18
ENDBRANCH   3   4
ENDBRANCH   2   3
BRANCH   2  23
HETATM   23  N   UNL     1     -10.195  14.381  69.603  1.00  0.00    -0.428 NA 
HETATM   24  H   UNL     1      -9.827  13.824  70.374  1.00  0.00     0.000 HD 
BRANCH  23  25
HETATM   25  C   UNL     1      -9.097  14.919  68.783  1.00  0.00    -0.189 C  
BRANCH  25  26
HETATM   26  C   UNL     1      -9.472  15.163  67.305  1.00  0.00    -0.210 C  
BRANCH  26  27
HETATM   27  O   UNL     1      -8.599  16.103  66.664  1.00  0.00    -0.218 OA 
BRANCH  27  28
HETATM   28  C   UNL     1      -9.089  17.368  66.457  1.00  0.00    -0.266 A  
HETATM   29  C   UNL     1      -8.728  19.758  66.612  1.00  0.00    -0.406 A  
HETATM   30  C   UNL     1     -10.411  17.633  66.058  1.00  0.00    -0.305 A  
HETATM   31  C   UNL     1      -8.245  18.456  66.732  1.00  0.00    -0.253 A  
HETATM   32  C   UNL     1     -10.047  20.005  66.226  1.00  0.00    -0.603 A  
HETATM   33  C   UNL     1     -10.890  18.934  65.951  1.00  0.00    -0.229 A  
BRANCH  31  34
HETATM   34  O   UNL     1      -6.974  18.382  67.240  1.00  0.00    -0.196 OA 
BRANCH  34  35
HETATM   35  C   UNL     1      -6.850  18.356  68.667  1.00  0.00    -0.264 C  
HETATM   36  C   UNL     1      -6.377  19.689  69.236  1.00  0.00    -0.313 C  
HETATM   37  F   UNL     1      -6.329  20.679  68.319  1.00  0.00    -0.299 F  
HETATM   38  F   UNL     1      -7.178  20.103  70.246  1.00  0.00    -0.259 F  
HETATM   39  F   UNL     1      -5.125  19.567  69.756  1.00  0.00    -0.184 F  
ENDBRANCH  34  35
ENDBRANCH  31  34
ENDBRANCH  27  28
ENDBRANCH  26  27
ENDBRANCH  25  26
ENDBRANCH  23  25
ENDBRANCH   2  23
TORSDOF 13
ENDMDL
MODEL      345
REMARK 921   NORMALIZED FREE ENERGY PREDICTED BY IDOCK:   -3.16 KCAL/MOL
REMARK 922        TOTAL FREE ENERGY PREDICTED BY IDOCK:   -8.73 KCAL/MOL
REMARK 923 INTER-LIGAND FREE ENERGY PREDICTED BY IDOCK:   -6.94 KCAL/MOL
REMARK 924 INTRA-LIGAND FREE ENERGY PREDICTED BY IDOCK:   -1.80 KCAL/MOL
REMARK 927      BINDING AFFINITY PREDICTED BY RF-SCORE:    0.00 PKD
ROOT
HETATM    1  C   UNL     1     -12.065  13.540  67.840  1.00  0.00    -0.304 C  
HETATM    2  C   UNL     1     -11.011  12.426  67.806  1.00  0.00    -0.228 C  
ENDROOT
BRANCH   2   3
HETATM    3  C   UNL     1     -11.640  11.017  67.903  1.00  0.00    -0.306 C  
BRANCH   3   4
HETATM    4  C   UNL     1     -10.777   9.935  67.319  1.00  0.00    -0.304 A  
HETATM    5  C   UNL     1     -10.597   8.736  68.018  1.00  0.00    -0.218 A  
HETATM    6  C   UNL     1      -8.022   7.698  64.258  1.00  0.00    -0.112 A  
HETATM    7  C   UNL     1     -10.142  10.100  66.096  1.00  0.00    -0.314 A  
HETATM    8  C   UNL     1      -9.374   9.053  65.604  1.00  0.00    -0.289 A  
HETATM    9  C   UNL     1      -9.835   7.660  67.498  1.00  0.00    -0.214 A  
HETATM   10  C   UNL     1      -9.185   7.820  66.270  1.00  0.00    -0.166 A  
HETATM   11  C   UNL     1      -8.637   9.093  64.306  1.00  0.00    -0.197 A  
HETATM   12  N   UNL     1      -8.355   7.011  65.513  1.00  0.00    -0.138 NA 
BRANCH  12  13
HETATM   13  C   UNL     1      -7.934   5.637  65.696  1.00  0.00    -0.111 C  
BRANCH  13  14
HETATM   14  C   UNL     1      -8.133   4.810  64.423  1.00  0.00    -0.110 C  
BRANCH  14  15
HETATM   15  C   UNL     1      -8.948   3.544  64.644  1.00  0.00    -0.127 C  
HETATM   16  O   UNL     1      -9.847   3.750  65.735  1.00  0.00    -0.315 OA 
HETATM   17  H   UNL     1     -10.357   2.960  65.872  1.00  0.00     0.000 HD 
ENDBRANCH  14  15
ENDBRANCH  13  14
ENDBRANCH  12  13
BRANCH   9  18
HETATM   18  C   UNL     1      -9.800   6.471  68.388  1.00  0.00    -0.137 C  
HETATM   19  N   UNL     1     -10.891   5.634  68.327  1.00  0.00    -0.162 N  
HETATM   20  O   UNL     1      -8.901   6.237  69.189  1.00  0.00    -0.128 OA 
HETATM   21  H2  UNL     1     -11.679   5.819  67.706  1.00  0.00     0.000 HD 
HETATM   22  H1  UNL     1     -10.867   4.817  68.939  1.00  0.00     0.000 HD 
ENDBRANCH   9  18
ENDBRANCH   3   4
ENDBRANCH   2   3
BRANCH   2  23
HETATM   23  N   UNL     1     -10.048  12.665  68.896  1.00  0.00    -0.425 NA 
HETATM   24  H   UNL     1     -10.183  11.990  69.648  1.00  0.00     0.000 HD 
BRANCH  23  25
HETATM   25  C   UNL     1      -8.641  12.680  68.461  1.00  0.00    -0.051 C  
BRANCH  25  26
HETATM   26  C   UNL     1      -8.444  12.991  66.962  1.00  0.00    -0.136 C  
BRANCH  26  27
HETATM   27  O   UNL     1      -8.155  14.374  66.720  1.00  0.00    -0.048 OA 
BRANCH  27  28
HETATM   28  C   UNL     1      -9.119  15.109  66.077  1.00  0.00    -0.161 A  
HETATM   29  C   UNL     1     -10.057  17.291  65.600  1.00  0.00    -0.069 A  
HETATM   30  C   UNL     1     -10.208  14.536  65.396  1.00  0.00    -0.415 A  
HETATM   31  C   UNL     1      -9.054  16.509  66.170  1.00  0.00    -0.306 A  
HETATM   32  C   UNL     1     -11.138  16.707  64.936  1.00  0.00    -0.137 A  
HETATM   33  C   UNL     1     -11.210  15.322  64.839  1.00  0.00    -0.422 A  
BRANCH  31  34
HETATM   34  O   UNL     1      -8.135  17.226  66.891  1.00  0.00    -0.202 OA 
BRANCH  34  35
HETATM   35  C   UNL     1      -8.408  17.409  68.285  1.00  0.00    -0.248 C  
HETATM   36  C   UNL     1      -7.412  16.675  69.177  1.00  0.00    -0.207 C  
HETATM   37  F   UNL     1      -6.376  16.140  68.498  1.00  0.00    -0.109 F  
HETATM   38  F   UNL     1      -6.903  17.499  70.123  1.00  0.00     0.077 F  
HETATM   39  F   UNL     1      -8.025  15.655  69.836  1.00  0.00    -0.195 F  
ENDBRANCH  34  35
ENDBRANCH  31  34
ENDBRANCH  27  28
ENDBRANCH  26  27
ENDBRANCH  25  26
ENDBRANCH  23  25
ENDBRANCH   2  23
TORSDOF 13
ENDMDL
MODEL      346
REMARK 921   NORMALIZED FREE ENERGY PREDICTED BY IDOCK:   -3.14 KCAL/MOL
REMARK 922        TOTAL FREE ENERGY PREDICTED BY IDOCK:   -8.69 KCAL/MOL
REMARK 923 INTER-LIGAND FREE ENERGY PREDICTED BY IDOCK:   -6.32 KCAL/MOL
REMARK 924 INTRA-LIGAND FREE ENERGY PREDICTED BY IDOCK:   -2.38 KCAL/MOL
REMARK 927      BINDING AFFINITY PREDICTED BY RF-SCORE:    0.00 PKD
ROOT
HETATM    1  C   UNL     1     -10.433   8.093  66.913  1.00  0.00    -0.379 C  
HETATM    2  C   UNL     1      -9.516   9.323  66.932  1.00  0.00    -0.161 C  
ENDROOT
BRANCH   2   3
HETATM    3  C   UNL     1      -8.118   9.006  67.509  1.00  0.00    -0.108 C  
BRANCH   3   4
HETATM    4  C   UNL     1      -8.149   8.034  68.654  1.00  0.00    -0.125 A  
HETATM    5  C   UNL     1      -8.633   8.442  69.901  1.00  0.00    -0.131 A  
HETATM    6  C   UNL     1      -7.666   4.002  70.993  1.00  0.00    -0.055 A  
HETATM    7  C   UNL     1      -7.695   6.730  68.505  1.00  0.00    -0.113 A  
HETATM    8  C   UNL     1      -7.768   5.876  69.597  1.00  0.00    -0.096 A  
HETATM    9  C   UNL     1      -8.732   7.558  71.005  1.00  0.00    -0.134 A  
HETATM   10  C   UNL     1      -8.271   6.245  70.866  1.00  0.00    -0.126 A  
HETATM   11  C   UNL     1      -7.318   4.453  69.578  1.00  0.00    -0.051 A  
HETATM   12  N   UNL     1      -8.185   5.164  71.726  1.00  0.00    -0.115 NA 
BRANCH  12  13
HETATM   13  C   UNL     1      -8.646   4.988  73.089  1.00  0.00    -0.110 C  
BRANCH  13  14
HETATM   14  C   UNL     1     -10.027   4.329  73.138  1.00  0.00    -0.191 C  
BRANCH  14  15
HETATM   15  C   UNL     1     -11.156   5.306  73.433  1.00  0.00    -0.303 C  
HETATM   16  O   UNL     1     -10.734   6.215  74.450  1.00  0.00    -0.343 OA 
HETATM   17  H   UNL     1     -11.439   6.826  74.634  1.00  0.00     0.000 HD 
ENDBRANCH  14  15
ENDBRANCH  13  14
ENDBRANCH  12  13
BRANCH   9  18
HETATM   18  C   UNL     1      -9.302   8.189  72.224  1.00  0.00    -0.224 C  
HETATM   19  N   UNL     1      -8.520   8.139  73.356  1.00  0.00    -0.228 N  
HETATM   20  O   UNL     1     -10.421   8.686  72.282  1.00  0.00    -0.330 OA 
HETATM   21  H2  UNL     1      -7.602   7.694  73.357  1.00  0.00     0.000 HD 
HETATM   22  H1  UNL     1      -8.911   8.571  74.193  1.00  0.00     0.000 HD 
ENDBRANCH   9  18
ENDBRANCH   3   4
ENDBRANCH   2   3
BRANCH   2  23
HETATM   23  N   UNL     1     -10.189  10.391  67.694  1.00  0.00    -0.190 NA 
HETATM   24  H   UNL     1      -9.505  10.958  68.194  1.00  0.00     0.000 HD 
BRANCH  23  25
HETATM   25  C   UNL     1     -11.072  11.243  66.881  1.00  0.00    -0.275 C  
BRANCH  25  26
HETATM   26  C   UNL     1     -11.739  12.394  67.665  1.00  0.00    -0.346 C  
BRANCH  26  27
HETATM   27  O   UNL     1     -10.848  13.010  68.604  1.00  0.00    -0.247 OA 
BRANCH  27  28
HETATM   28  C   UNL     1     -10.079  14.049  68.145  1.00  0.00    -0.244 A  
HETATM   29  C   UNL     1      -7.915  14.810  67.368  1.00  0.00    -0.220 A  
HETATM   30  C   UNL     1     -10.519  15.384  68.108  1.00  0.00    -0.247 A  
HETATM   31  C   UNL     1      -8.756  13.772  67.764  1.00  0.00    -0.182 A  
HETATM   32  C   UNL     1      -8.363  16.133  67.346  1.00  0.00    -0.191 A  
HETATM   33  C   UNL     1      -9.671  16.416  67.721  1.00  0.00    -0.235 A  
BRANCH  31  34
HETATM   34  O   UNL     1      -8.130  12.556  67.850  1.00  0.00    -0.139 OA 
BRANCH  34  35
HETATM   35  C   UNL     1      -6.756  12.564  68.255  1.00  0.00    -0.079 C  
HETATM   36  C   UNL     1      -6.520  11.777  69.539  1.00  0.00    -0.120 C  
HETATM   37  F   UNL     1      -7.605  11.088  69.954  1.00  0.00    -0.084 F  
HETATM   38  F   UNL     1      -5.504  10.895  69.394  1.00  0.00    -0.041 F  
HETATM   39  F   UNL     1      -6.169  12.614  70.553  1.00  0.00    -0.152 F  
ENDBRANCH  34  35
ENDBRANCH  31  34
ENDBRANCH  27  28
ENDBRANCH  26  27
ENDBRANCH  25  26
ENDBRANCH  23  25
ENDBRANCH   2  23
TORSDOF 13
ENDMDL
MODEL      347
REMARK 921   NORMALIZED FREE ENERGY PREDICTED BY IDOCK:   -3.09 KCAL/MOL
REMARK 922        TOTAL FREE ENERGY PREDICTED BY IDOCK:   -8.61 KCAL/MOL
REMARK 923 INTER-LIGAND FREE ENERGY PREDICTED BY IDOCK:   -6.88 KCAL/MOL
REMARK 924 INTRA-LIGAND FREE ENERGY PREDICTED BY IDOCK:   -1.72 KCAL/MOL
REMARK 927      BINDING AFFINITY PREDICTED BY RF-SCORE:    0.00 PKD
ROOT
HETATM    1  C   UNL     1      -8.768  12.165  66.543  1.00  0.00    -0.114 C  
HETATM    2  C   UNL     1      -9.112  11.817  67.997  1.00  0.00    -0.180 C  
ENDROOT
BRANCH   2   3
HETATM    3  C   UNL     1      -9.984  10.546  68.107  1.00  0.00    -0.172 C  
BRANCH   3   4
HETATM    4  C   UNL     1      -9.383   9.481  68.979  1.00  0.00    -0.155 A  
HETATM    5  C   UNL     1     -10.203   8.496  69.541  1.00  0.00    -0.206 A  
HETATM    6  C   UNL     1      -6.118   7.000  71.249  1.00  0.00    -0.037 A  
HETATM    7  C   UNL     1      -8.022   9.455  69.252  1.00  0.00    -0.093 A  
HETATM    8  C   UNL     1      -7.527   8.433  70.051  1.00  0.00    -0.063 A  
HETATM    9  C   UNL     1      -9.690   7.439  70.332  1.00  0.00    -0.175 A  
HETATM   10  C   UNL     1      -8.321   7.408  70.618  1.00  0.00    -0.127 A  
HETATM   11  C   UNL     1      -6.090   8.282  70.424  1.00  0.00    -0.032 A  
HETATM   12  N   UNL     1      -7.517   6.567  71.367  1.00  0.00    -0.087 NA 
BRANCH  12  13
HETATM   13  C   UNL     1      -7.815   5.330  72.061  1.00  0.00    -0.108 C  
BRANCH  13  14
HETATM   14  C   UNL     1      -7.138   5.275  73.434  1.00  0.00    -0.085 C  
BRANCH  14  15
HETATM   15  C   UNL     1      -7.740   6.240  74.445  1.00  0.00    -0.098 C  
HETATM   16  O   UNL     1      -8.865   6.895  73.856  1.00  0.00    -0.144 OA 
HETATM   17  H   UNL     1      -9.241   7.497  74.488  1.00  0.00     0.000 HD 
ENDBRANCH  14  15
ENDBRANCH  13  14
ENDBRANCH  12  13
BRANCH   9  18
HETATM   18  C   UNL     1     -10.730   6.486  70.801  1.00  0.00    -0.241 C  
HETATM   19  N   UNL     1     -11.153   6.643  72.102  1.00  0.00    -0.244 N  
HETATM   20  O   UNL     1     -11.173   5.564  70.127  1.00  0.00    -0.168 OA 
HETATM   21  H2  UNL     1     -10.775   7.371  72.708  1.00  0.00     0.000 HD 
HETATM   22  H1  UNL     1     -11.867   5.989  72.425  1.00  0.00     0.000 HD 
ENDBRANCH   9  18
ENDBRANCH   3   4
ENDBRANCH   2   3
BRANCH   2  23
HETATM   23  N   UNL     1      -9.773  12.984  68.609  1.00  0.00    -0.403 NA 
HETATM   24  H   UNL     1      -9.510  13.840  68.121  1.00  0.00     0.000 HD 
BRANCH  23  25
HETATM   25  C   UNL     1     -11.237  12.866  68.696  1.00  0.00    -0.281 C  
BRANCH  25  26
HETATM   26  C   UNL     1     -12.007  13.831  67.769  1.00  0.00    -0.356 C  
BRANCH  26  27
HETATM   27  O   UNL     1     -12.096  15.157  68.306  1.00  0.00    -0.226 OA 
BRANCH  27  28
HETATM   28  C   UNL     1     -12.243  15.271  69.665  1.00  0.00    -0.271 A  
HETATM   29  C   UNL     1     -11.183  15.547  71.826  1.00  0.00    -0.376 A  
HETATM   30  C   UNL     1     -13.467  15.091  70.332  1.00  0.00     0.055 A  
HETATM   31  C   UNL     1     -11.092  15.505  70.435  1.00  0.00    -0.337 A  
HETATM   32  C   UNL     1     -12.405  15.355  72.475  1.00  0.00    -0.475 A  
HETATM   33  C   UNL     1     -13.549  15.124  71.720  1.00  0.00    -0.553 A  
BRANCH  31  34
HETATM   34  O   UNL     1      -9.808  15.585  69.962  1.00  0.00    -0.283 OA 
BRANCH  34  35
HETATM   35  C   UNL     1      -9.458  16.775  69.244  1.00  0.00    -0.091 C  
HETATM   36  C   UNL     1      -8.149  16.628  68.475  1.00  0.00    -0.226 C  
HETATM   37  F   UNL     1      -7.662  15.369  68.478  1.00  0.00    -0.118 F  
HETATM   38  F   UNL     1      -8.294  17.011  67.185  1.00  0.00    -0.183 F  
HETATM   39  F   UNL     1      -7.189  17.428  69.014  1.00  0.00    -0.229 F  
ENDBRANCH  34  35
ENDBRANCH  31  34
ENDBRANCH  27  28
ENDBRANCH  26  27
ENDBRANCH  25  26
ENDBRANCH  23  25
ENDBRANCH   2  23
TORSDOF 13
ENDMDL
MODEL      348
REMARK 921   NORMALIZED FREE ENERGY PREDICTED BY IDOCK:   -3.05 KCAL/MOL
REMARK 922        TOTAL FREE ENERGY PREDICTED BY IDOCK:   -8.54 KCAL/MOL
REMARK 923 INTER-LIGAND FREE ENERGY PREDICTED BY IDOCK:   -7.26 KCAL/MOL
REMARK 924 INTRA-LIGAND FREE ENERGY PREDICTED BY IDOCK:   -1.28 KCAL/MOL
REMARK 927      BINDING AFFINITY PREDICTED BY RF-SCORE:    0.00 PKD
ROOT
HETATM    1  C   UNL     1     -12.178  12.876  68.222  1.00  0.00    -0.003 C  
HETATM    2  C   UNL     1     -10.734  13.379  68.336  1.00  0.00    -0.256 C  
ENDROOT
BRANCH   2   3
HETATM    3  C   UNL     1     -10.215  13.985  67.012  1.00  0.00    -0.261 C  
BRANCH   3   4
HETATM    4  C   UNL     1      -9.256  15.124  67.210  1.00  0.00    -0.208 A  
HETATM    5  C   UNL     1      -9.731  16.440  67.221  1.00  0.00    -0.239 A  
HETATM    6  C   UNL     1      -5.213  17.368  67.974  1.00  0.00    -0.125 A  
HETATM    7  C   UNL     1      -7.896  14.902  67.376  1.00  0.00    -0.224 A  
HETATM    8  C   UNL     1      -7.066  15.998  67.573  1.00  0.00    -0.199 A  
HETATM    9  C   UNL     1      -8.885  17.553  67.451  1.00  0.00    -0.230 A  
HETATM   10  C   UNL     1      -7.512  17.339  67.612  1.00  0.00    -0.174 A  
HETATM   11  C   UNL     1      -5.589  15.905  67.764  1.00  0.00    -0.161 A  
HETATM   12  N   UNL     1      -6.428  18.177  67.808  1.00  0.00    -0.186 NA 
BRANCH  12  13
HETATM   13  C   UNL     1      -6.354  19.610  68.016  1.00  0.00    -0.223 C  
BRANCH  13  14
HETATM   14  C   UNL     1      -6.794  20.000  69.429  1.00  0.00    -0.274 C  
BRANCH  14  15
HETATM   15  C   UNL     1      -5.740  20.784  70.198  1.00  0.00    -0.178 C  
HETATM   16  O   UNL     1      -6.222  21.049  71.516  1.00  0.00    -0.154 OA 
HETATM   17  H   UNL     1      -5.564  21.539  71.996  1.00  0.00     0.000 HD 
ENDBRANCH  14  15
ENDBRANCH  13  14
ENDBRANCH  12  13
BRANCH   9  18
HETATM   18  C   UNL     1      -9.600  18.856  67.452  1.00  0.00    -0.306 C  
HETATM   19  N   UNL     1     -10.441  19.086  68.518  1.00  0.00    -0.429 N  
HETATM   20  O   UNL     1      -9.523  19.683  66.551  1.00  0.00    -0.339 OA 
HETATM   21  H2  UNL     1     -10.565  18.402  69.264  1.00  0.00     0.000 HD 
HETATM   22  H1  UNL     1     -10.932  19.981  68.518  1.00  0.00     0.000 HD 
ENDBRANCH   9  18
ENDBRANCH   3   4
ENDBRANCH   2   3
BRANCH   2  23
HETATM   23  N   UNL     1      -9.887  12.260  68.789  1.00  0.00    -0.414 NA 
HETATM   24  H   UNL     1     -10.261  11.854  69.646  1.00  0.00     0.000 HD 
BRANCH  23  25
HETATM   25  C   UNL     1      -9.676  11.218  67.771  1.00  0.00    -0.173 C  
BRANCH  25  26
HETATM   26  C   UNL     1     -10.666  10.036  67.859  1.00  0.00    -0.272 C  
BRANCH  26  27
HETATM   27  O   UNL     1     -10.201   8.991  68.723  1.00  0.00    -0.197 OA 
BRANCH  27  28
HETATM   28  C   UNL     1     -11.081   8.524  69.667  1.00  0.00    -0.009 A  
HETATM   29  C   UNL     1     -12.160   6.617  70.699  1.00  0.00    -0.342 A  
HETATM   30  C   UNL     1     -11.904   9.360  70.442  1.00  0.00    -0.140 A  
HETATM   31  C   UNL     1     -11.219   7.134  69.810  1.00  0.00    -0.173 A  
HETATM   32  C   UNL     1     -12.978   7.460  71.455  1.00  0.00    -0.403 A  
HETATM   33  C   UNL     1     -12.847   8.837  71.320  1.00  0.00    -0.250 A  
BRANCH  31  34
HETATM   34  O   UNL     1     -10.588   6.180  69.055  1.00  0.00    -0.217 OA 
BRANCH  34  35
HETATM   35  C   UNL     1      -9.518   5.463  69.684  1.00  0.00    -0.144 C  
HETATM   36  C   UNL     1      -8.170   5.728  69.023  1.00  0.00    -0.101 C  
HETATM   37  F   UNL     1      -8.210   6.705  68.093  1.00  0.00    -0.110 F  
HETATM   38  F   UNL     1      -7.234   6.070  69.940  1.00  0.00    -0.064 F  
HETATM   39  F   UNL     1      -7.715   4.605  68.403  1.00  0.00    -0.076 F  
ENDBRANCH  34  35
ENDBRANCH  31  34
ENDBRANCH  27  28
ENDBRANCH  26  27
ENDBRANCH  25  26
ENDBRANCH  23  25
ENDBRANCH   2  23
TORSDOF 13
ENDMDL
MODEL      349
REMARK 921   NORMALIZED FREE ENERGY PREDICTED BY IDOCK:   -3.03 KCAL/MOL
REMARK 922        TOTAL FREE ENERGY PREDICTED BY IDOCK:   -8.51 KCAL/MOL
REMARK 923 INTER-LIGAND FREE ENERGY PREDICTED BY IDOCK:   -8.60 KCAL/MOL
REMARK 924 INTRA-LIGAND FREE ENERGY PREDICTED BY IDOCK:    0.09 KCAL/MOL
REMARK 927      BINDING AFFINITY PREDICTED BY RF-SCORE:    0.00 PKD
ROOT
HETATM    1  C   UNL     1     -11.891   7.858  70.128  1.00  0.00     0.254 C  
HETATM    2  C   UNL     1     -12.624   7.537  71.437  1.00  0.00    -0.351 C  
ENDROOT
BRANCH   2   3
HETATM    3  C   UNL     1     -12.994   8.810  72.231  1.00  0.00    -0.462 C  
BRANCH   3   4
HETATM    4  C   UNL     1     -12.735  10.083  71.478  1.00  0.00    -0.532 A  
HETATM    5  C   UNL     1     -12.290  10.029  70.152  1.00  0.00    -0.068 A  
HETATM    6  C   UNL     1     -12.490  14.678  70.589  1.00  0.00    -0.344 A  
HETATM    7  C   UNL     1     -12.917  11.324  72.073  1.00  0.00    -0.379 A  
HETATM    8  C   UNL     1     -12.677  12.462  71.316  1.00  0.00    -0.347 A  
HETATM    9  C   UNL     1     -12.074  11.194  69.374  1.00  0.00    -0.396 A  
HETATM   10  C   UNL     1     -12.249  12.448  69.968  1.00  0.00    -0.194 A  
HETATM   11  C   UNL     1     -12.833  13.856  71.827  1.00  0.00    -0.421 A  
HETATM   12  N   UNL     1     -12.091  13.749  69.523  1.00  0.00    -0.338 NA 
BRANCH  12  13
HETATM   13  C   UNL     1     -11.768  14.278  68.213  1.00  0.00    -0.342 C  
BRANCH  13  14
HETATM   14  C   UNL     1     -11.462  15.777  68.267  1.00  0.00    -0.338 C  
BRANCH  14  15
HETATM   15  C   UNL     1      -9.973  16.090  68.308  1.00  0.00    -0.220 C  
HETATM   16  O   UNL     1      -9.293  15.043  69.002  1.00  0.00    -0.201 OA 
HETATM   17  H   UNL     1      -8.363  15.239  69.027  1.00  0.00     0.000 HD 
ENDBRANCH  14  15
ENDBRANCH  13  14
ENDBRANCH  12  13
BRANCH   9  18
HETATM   18  C   UNL     1     -11.635  10.908  67.984  1.00  0.00    -0.215 C  
HETATM   19  N   UNL     1     -10.822   9.809  67.818  1.00  0.00    -0.397 N  
HETATM   20  O   UNL     1     -11.906  11.613  67.018  1.00  0.00    -0.591 OA 
HETATM   21  H2  UNL     1     -10.538   9.225  68.604  1.00  0.00     0.000 HD 
HETATM   22  H1  UNL     1     -10.520   9.613  66.863  1.00  0.00     0.000 HD 
ENDBRANCH   9  18
ENDBRANCH   3   4
ENDBRANCH   2   3
BRANCH   2  23
HETATM   23  N   UNL     1     -11.778   6.629  72.232  1.00  0.00    -0.371 NA 
HETATM   24  H   UNL     1     -11.123   6.132  71.629  1.00  0.00     0.000 HD 
BRANCH  23  25
HETATM   25  C   UNL     1     -11.064   7.288  73.338  1.00  0.00    -0.141 C  
BRANCH  25  26
HETATM   26  C   UNL     1      -9.594   7.640  73.024  1.00  0.00    -0.235 C  
BRANCH  26  27
HETATM   27  O   UNL     1      -9.096   6.948  71.871  1.00  0.00    -0.142 OA 
BRANCH  27  28
HETATM   28  C   UNL     1      -8.618   7.717  70.841  1.00  0.00    -0.128 A  
HETATM   29  C   UNL     1      -7.628   7.800  68.631  1.00  0.00    -0.105 A  
HETATM   30  C   UNL     1      -8.457   9.112  70.922  1.00  0.00    -0.251 A  
HETATM   31  C   UNL     1      -8.196   7.065  69.671  1.00  0.00    -0.131 A  
HETATM   32  C   UNL     1      -7.466   9.184  68.731  1.00  0.00    -0.076 A  
HETATM   33  C   UNL     1      -7.881   9.838  69.885  1.00  0.00    -0.168 A  
BRANCH  31  34
HETATM   34  O   UNL     1      -8.169   5.710  69.469  1.00  0.00    -0.100 OA 
BRANCH  34  35
HETATM   35  C   UNL     1      -9.430   5.064  69.253  1.00  0.00    -0.137 C  
HETATM   36  C   UNL     1      -9.808   4.999  67.777  1.00  0.00    -0.154 C  
HETATM   37  F   UNL     1      -8.820   5.404  66.951  1.00  0.00    -0.114 F  
HETATM   38  F   UNL     1     -10.158   3.743  67.416  1.00  0.00    -0.189 F  
HETATM   39  F   UNL     1     -10.885   5.792  67.527  1.00  0.00    -0.273 F  
ENDBRANCH  34  35
ENDBRANCH  31  34
ENDBRANCH  27  28
ENDBRANCH  26  27
ENDBRANCH  25  26
ENDBRANCH  23  25
ENDBRANCH   2  23
TORSDOF 13
ENDMDL
MODEL      350
REMARK 921   NORMALIZED FREE ENERGY PREDICTED BY IDOCK:   -3.01 KCAL/MOL
REMARK 922        TOTAL FREE ENERGY PREDICTED BY IDOCK:   -8.47 KCAL/MOL
REMARK 923 INTER-LIGAND FREE ENERGY PREDICTED BY IDOCK:   -5.09 KCAL/MOL
REMARK 924 INTRA-LIGAND FREE ENERGY PREDICTED BY IDOCK:   -3.38 KCAL/MOL
REMARK 927      BINDING AFFINITY PREDICTED BY RF-SCORE:    0.00 PKD
ROOT
HETATM    1  C   UNL     1      -6.067   2.909  66.540  1.00  0.00    -0.024 C  
HETATM    2  C   UNL     1      -7.460   3.473  66.847  1.00  0.00    -0.075 C  
ENDROOT
BRANCH   2   3
HETATM    3  C   UNL     1      -8.096   2.824  68.097  1.00  0.00    -0.070 C  
BRANCH   3   4
HETATM    4  C   UNL     1      -7.961   3.658  69.339  1.00  0.00    -0.060 A  
HETATM    5  C   UNL     1      -8.456   3.179  70.557  1.00  0.00    -0.099 A  
HETATM    6  C   UNL     1      -6.738   7.241  72.102  1.00  0.00    -0.055 A  
HETATM    7  C   UNL     1      -7.359   4.908  69.307  1.00  0.00    -0.056 A  
HETATM    8  C   UNL     1      -7.249   5.620  70.494  1.00  0.00    -0.074 A  
HETATM    9  C   UNL     1      -8.317   3.896  71.770  1.00  0.00    -0.087 A  
HETATM   10  C   UNL     1      -7.718   5.160  71.746  1.00  0.00    -0.108 A  
HETATM   11  C   UNL     1      -6.626   6.972  70.605  1.00  0.00    -0.052 A  
HETATM   12  N   UNL     1      -7.464   6.119  72.711  1.00  0.00    -0.093 NA 
BRANCH  12  13
HETATM   13  C   UNL     1      -7.655   6.102  74.148  1.00  0.00    -0.086 C  
BRANCH  13  14
HETATM   14  C   UNL     1      -8.892   6.902  74.563  1.00  0.00    -0.221 C  
BRANCH  14  15
HETATM   15  C   UNL     1     -10.195   6.131  74.403  1.00  0.00    -0.316 C  
HETATM   16  O   UNL     1     -10.750   6.411  73.117  1.00  0.00    -0.244 OA 
HETATM   17  H   UNL     1     -11.563   5.929  73.017  1.00  0.00     0.000 HD 
ENDBRANCH  14  15
ENDBRANCH  13  14
ENDBRANCH  12  13
BRANCH   9  18
HETATM   18  C   UNL     1      -8.886   3.192  72.948  1.00  0.00    -0.084 C  
HETATM   19  N   UNL     1     -10.260   3.117  73.005  1.00  0.00    -0.145 N  
HETATM   20  O   UNL     1      -8.216   2.739  73.869  1.00  0.00    -0.069 OA 
HETATM   21  H2  UNL     1     -10.852   3.522  72.280  1.00  0.00     0.000 HD 
HETATM   22  H1  UNL     1     -10.652   2.633  73.814  1.00  0.00     0.000 HD 
ENDBRANCH   9  18
ENDBRANCH   3   4
ENDBRANCH   2   3
BRANCH   2  23
HETATM   23  N   UNL     1      -8.306   3.294  65.653  1.00  0.00    -0.098 NA 
HETATM   24  H   UNL     1      -9.180   2.832  65.901  1.00  0.00     0.000 HD 
BRANCH  23  25
HETATM   25  C   UNL     1      -8.571   4.539  64.914  1.00  0.00    -0.135 C  
BRANCH  25  26
HETATM   26  C   UNL     1      -8.459   5.820  65.768  1.00  0.00    -0.143 C  
BRANCH  26  27
HETATM   27  O   UNL     1      -9.708   6.514  65.888  1.00  0.00     0.080 OA 
BRANCH  27  28
HETATM   28  C   UNL     1     -10.160   6.769  67.158  1.00  0.00    -0.190 A  
HETATM   29  C   UNL     1     -10.503   8.390  68.925  1.00  0.00    -0.208 A  
HETATM   30  C   UNL     1     -10.580   5.766  68.049  1.00  0.00    -0.295 A  
HETATM   31  C   UNL     1     -10.129   8.097  67.615  1.00  0.00    -0.207 A  
HETATM   32  C   UNL     1     -10.908   7.381  69.803  1.00  0.00    -0.246 A  
HETATM   33  C   UNL     1     -10.942   6.064  69.358  1.00  0.00    -0.455 A  
BRANCH  31  34
HETATM   34  O   UNL     1      -9.640   9.175  66.925  1.00  0.00    -0.155 OA 
BRANCH  34  35
HETATM   35  C   UNL     1      -9.099  10.249  67.704  1.00  0.00    -0.137 C  
HETATM   36  C   UNL     1      -9.812  11.573  67.447  1.00  0.00    -0.186 C  
HETATM   37  F   UNL     1     -10.911  11.450  66.674  1.00  0.00    -0.291 F  
HETATM   38  F   UNL     1     -10.188  12.159  68.608  1.00  0.00    -0.211 F  
HETATM   39  F   UNL     1      -8.979  12.447  66.819  1.00  0.00    -0.192 F  
ENDBRANCH  34  35
ENDBRANCH  31  34
ENDBRANCH  27  28
ENDBRANCH  26  27
ENDBRANCH  25  26
ENDBRANCH  23  25
ENDBRANCH   2  23
TORSDOF 13
ENDMDL
MODEL      351
REMARK 921   NORMALIZED FREE ENERGY PREDICTED BY IDOCK:   -2.99 KCAL/MOL
REMARK 922        TOTAL FREE ENERGY PREDICTED BY IDOCK:   -8.43 KCAL/MOL
REMARK 923 INTER-LIGAND FREE ENERGY PREDICTED BY IDOCK:   -7.94 KCAL/MOL
REMARK 924 INTRA-LIGAND FREE ENERGY PREDICTED BY IDOCK:   -0.49 KCAL/MOL
REMARK 927      BINDING AFFINITY PREDICTED BY RF-SCORE:    0.00 PKD
ROOT
HETATM    1  C   UNL     1      -8.232  11.865  66.646  1.00  0.00    -0.088 C  
HETATM    2  C   UNL     1      -7.834  12.257  68.074  1.00  0.00    -0.147 C  
ENDROOT
BRANCH   2   3
HETATM    3  C   UNL     1      -6.954  11.184  68.755  1.00  0.00    -0.088 C  
BRANCH   3   4
HETATM    4  C   UNL     1      -7.740  10.187  69.560  1.00  0.00    -0.155 A  
HETATM    5  C   UNL     1      -7.100   9.430  70.547  1.00  0.00    -0.113 A  
HETATM    6  C   UNL     1     -11.418   7.738  71.119  1.00  0.00    -0.274 A  
HETATM    7  C   UNL     1      -9.096   9.991  69.339  1.00  0.00    -0.228 A  
HETATM    8  C   UNL     1      -9.768   9.068  70.130  1.00  0.00    -0.213 A  
HETATM    9  C   UNL     1      -7.795   8.511  71.371  1.00  0.00    -0.153 A  
HETATM   10  C   UNL     1      -9.161   8.301  71.151  1.00  0.00    -0.162 A  
HETATM   11  C   UNL     1     -11.222   8.758  70.002  1.00  0.00    -0.113 A  
HETATM   12  N   UNL     1     -10.108   7.473  71.728  1.00  0.00    -0.175 NA 
BRANCH  12  13
HETATM   13  C   UNL     1     -10.027   6.574  72.862  1.00  0.00    -0.174 C  
BRANCH  13  14
HETATM   14  C   UNL     1     -10.324   5.127  72.458  1.00  0.00    -0.254 C  
BRANCH  14  15
HETATM   15  C   UNL     1     -11.478   4.507  73.232  1.00  0.00    -0.219 C  
HETATM   16  O   UNL     1     -10.955   3.730  74.310  1.00  0.00    -0.157 OA 
HETATM   17  H   UNL     1     -11.676   3.342  74.793  1.00  0.00     0.000 HD 
ENDBRANCH  14  15
ENDBRANCH  13  14
ENDBRANCH  12  13
BRANCH   9  18
HETATM   18  C   UNL     1      -6.930   7.837  72.374  1.00  0.00    -0.069 C  
HETATM   19  N   UNL     1      -6.316   8.657  73.294  1.00  0.00    -0.090 N  
HETATM   20  O   UNL     1      -6.701   6.633  72.387  1.00  0.00    -0.062 OA 
HETATM   21  H2  UNL     1      -6.448   9.668  73.287  1.00  0.00     0.000 HD 
HETATM   22  H1  UNL     1      -5.722   8.195  73.983  1.00  0.00     0.000 HD 
ENDBRANCH   9  18
ENDBRANCH   3   4
ENDBRANCH   2   3
BRANCH   2  23
HETATM   23  N   UNL     1      -9.063  12.519  68.844  1.00  0.00    -0.364 NA 
HETATM   24  H   UNL     1      -8.883  13.193  69.587  1.00  0.00     0.000 HD 
BRANCH  23  25
HETATM   25  C   UNL     1     -10.206  12.948  68.021  1.00  0.00    -0.229 C  
BRANCH  25  26
HETATM   26  C   UNL     1     -11.585  12.600  68.620  1.00  0.00    -0.316 C  
BRANCH  26  27
HETATM   27  O   UNL     1     -12.411  13.756  68.812  1.00  0.00    -0.284 OA 
BRANCH  27  28
HETATM   28  C   UNL     1     -12.373  14.351  70.047  1.00  0.00    -0.336 A  
HETATM   29  C   UNL     1     -11.774  16.288  71.373  1.00  0.00    -0.427 A  
HETATM   30  C   UNL     1     -12.703  13.685  71.241  1.00  0.00    -0.443 A  
HETATM   31  C   UNL     1     -11.906  15.673  70.129  1.00  0.00    -0.364 A  
HETATM   32  C   UNL     1     -12.096  15.610  72.551  1.00  0.00    -0.563 A  
HETATM   33  C   UNL     1     -12.560  14.301  72.479  1.00  0.00    -0.319 A  
BRANCH  31  34
HETATM   34  O   UNL     1     -11.431  16.426  69.087  1.00  0.00    -0.288 OA 
BRANCH  34  35
HETATM   35  C   UNL     1     -10.045  16.272  68.757  1.00  0.00    -0.243 C  
HETATM   36  C   UNL     1      -9.301  17.602  68.727  1.00  0.00    -0.228 C  
HETATM   37  F   UNL     1     -10.037  18.640  69.178  1.00  0.00    -0.399 F  
HETATM   38  F   UNL     1      -8.170  17.547  69.469  1.00  0.00     0.036 F  
HETATM   39  F   UNL     1      -8.920  17.906  67.457  1.00  0.00    -0.241 F  
ENDBRANCH  34  35
ENDBRANCH  31  34
ENDBRANCH  27  28
ENDBRANCH  26  27
ENDBRANCH  25  26
ENDBRANCH  23  25
ENDBRANCH   2  23
TORSDOF 13
ENDMDL
MODEL      352
REMARK 921   NORMALIZED FREE ENERGY PREDICTED BY IDOCK:   -2.99 KCAL/MOL
REMARK 922        TOTAL FREE ENERGY PREDICTED BY IDOCK:   -8.42 KCAL/MOL
REMARK 923 INTER-LIGAND FREE ENERGY PREDICTED BY IDOCK:   -5.43 KCAL/MOL
REMARK 924 INTRA-LIGAND FREE ENERGY PREDICTED BY IDOCK:   -2.99 KCAL/MOL
REMARK 927      BINDING AFFINITY PREDICTED BY RF-SCORE:    0.00 PKD
ROOT
HETATM    1  C   UNL     1      -6.032   2.314  67.182  1.00  0.00    -0.020 C  
HETATM    2  C   UNL     1      -7.302   3.094  66.816  1.00  0.00    -0.074 C  
ENDROOT
BRANCH   2   3
HETATM    3  C   UNL     1      -8.577   2.454  67.412  1.00  0.00    -0.122 C  
BRANCH   3   4
HETATM    4  C   UNL     1      -9.228   3.294  68.474  1.00  0.00    -0.233 A  
HETATM    5  C   UNL     1      -9.153   2.901  69.815  1.00  0.00    -0.196 A  
HETATM    6  C   UNL     1     -11.579   6.850  70.422  1.00  0.00    -0.335 A  
HETATM    7  C   UNL     1      -9.917   4.455  68.154  1.00  0.00    -0.068 A  
HETATM    8  C   UNL     1     -10.480   5.196  69.184  1.00  0.00    -0.170 A  
HETATM    9  C   UNL     1      -9.705   3.674  70.866  1.00  0.00    -0.229 A  
HETATM   10  C   UNL     1     -10.407   4.843  70.552  1.00  0.00    -0.172 A  
HETATM   11  C   UNL     1     -11.245   6.462  68.985  1.00  0.00    -0.402 A  
HETATM   12  N   UNL     1     -11.085   5.786  71.306  1.00  0.00    -0.238 NA 
BRANCH  12  13
HETATM   13  C   UNL     1     -11.226   5.939  72.740  1.00  0.00    -0.276 C  
BRANCH  13  14
HETATM   14  C   UNL     1     -10.914   7.370  73.188  1.00  0.00    -0.408 C  
BRANCH  14  15
HETATM   15  C   UNL     1      -9.447   7.594  73.526  1.00  0.00    -0.289 C  
HETATM   16  O   UNL     1      -8.698   6.437  73.150  1.00  0.00    -0.123 OA 
HETATM   17  H   UNL     1      -7.782   6.577  73.360  1.00  0.00     0.000 HD 
ENDBRANCH  14  15
ENDBRANCH  13  14
ENDBRANCH  12  13
BRANCH   9  18
HETATM   18  C   UNL     1      -9.485   3.090  72.214  1.00  0.00    -0.123 C  
HETATM   19  N   UNL     1      -8.365   3.523  72.888  1.00  0.00    -0.081 N  
HETATM   20  O   UNL     1     -10.199   2.229  72.716  1.00  0.00    -0.128 OA 
HETATM   21  H2  UNL     1      -7.723   4.205  72.484  1.00  0.00     0.000 HD 
HETATM   22  H1  UNL     1      -8.214   3.122  73.814  1.00  0.00     0.000 HD 
ENDBRANCH   9  18
ENDBRANCH   3   4
ENDBRANCH   2   3
BRANCH   2  23
HETATM   23  N   UNL     1      -7.379   3.191  65.348  1.00  0.00    -0.070 NA 
HETATM   24  H   UNL     1      -8.146   2.622  64.992  1.00  0.00     0.000 HD 
BRANCH  23  25
HETATM   25  C   UNL     1      -7.481   4.570  64.843  1.00  0.00    -0.073 C  
BRANCH  25  26
HETATM   26  C   UNL     1      -7.261   5.657  65.918  1.00  0.00    -0.072 C  
BRANCH  26  27
HETATM   27  O   UNL     1      -6.447   6.740  65.448  1.00  0.00    -0.044 OA 
BRANCH  27  28
HETATM   28  C   UNL     1      -7.100   7.852  64.979  1.00  0.00    -0.060 A  
HETATM   29  C   UNL     1      -8.222   9.938  65.488  1.00  0.00    -0.136 A  
HETATM   30  C   UNL     1      -7.468   8.027  63.634  1.00  0.00    -0.118 A  
HETATM   31  C   UNL     1      -7.486   8.831  65.909  1.00  0.00    -0.089 A  
HETATM   32  C   UNL     1      -8.589  10.092  64.149  1.00  0.00    -0.194 A  
HETATM   33  C   UNL     1      -8.211   9.128  63.223  1.00  0.00    -0.177 A  
BRANCH  31  34
HETATM   34  O   UNL     1      -7.316   8.764  67.267  1.00  0.00    -0.080 OA 
BRANCH  34  35
HETATM   35  C   UNL     1      -8.489   8.529  68.055  1.00  0.00    -0.131 C  
HETATM   36  C   UNL     1      -8.483   9.315  69.362  1.00  0.00    -0.137 C  
HETATM   37  F   UNL     1      -7.469  10.201  69.451  1.00  0.00    -0.073 F  
HETATM   38  F   UNL     1      -9.641   9.995  69.529  1.00  0.00    -0.185 F  
HETATM   39  F   UNL     1      -8.369   8.471  70.423  1.00  0.00    -0.103 F  
ENDBRANCH  34  35
ENDBRANCH  31  34
ENDBRANCH  27  28
ENDBRANCH  26  27
ENDBRANCH  25  26
ENDBRANCH  23  25
ENDBRANCH   2  23
TORSDOF 13
ENDMDL
MODEL      353
REMARK 921   NORMALIZED FREE ENERGY PREDICTED BY IDOCK:   -2.95 KCAL/MOL
REMARK 922        TOTAL FREE ENERGY PREDICTED BY IDOCK:   -8.36 KCAL/MOL
REMARK 923 INTER-LIGAND FREE ENERGY PREDICTED BY IDOCK:   -6.86 KCAL/MOL
REMARK 924 INTRA-LIGAND FREE ENERGY PREDICTED BY IDOCK:   -1.50 KCAL/MOL
REMARK 927      BINDING AFFINITY PREDICTED BY RF-SCORE:    0.00 PKD
ROOT
HETATM    1  C   UNL     1      -7.852   9.357  70.597  1.00  0.00    -0.178 C  
HETATM    2  C   UNL     1      -8.859   8.604  69.718  1.00  0.00    -0.137 C  
ENDROOT
BRANCH   2   3
HETATM    3  C   UNL     1     -10.153   9.414  69.480  1.00  0.00    -0.214 C  
BRANCH   3   4
HETATM    4  C   UNL     1      -9.905  10.807  68.977  1.00  0.00    -0.208 A  
HETATM    5  C   UNL     1     -10.933  11.755  69.015  1.00  0.00    -0.276 A  
HETATM    6  C   UNL     1      -7.595  14.482  67.210  1.00  0.00    -0.121 A  
HETATM    7  C   UNL     1      -8.670  11.179  68.463  1.00  0.00    -0.161 A  
HETATM    8  C   UNL     1      -8.500  12.488  68.032  1.00  0.00    -0.173 A  
HETATM    9  C   UNL     1     -10.747  13.097  68.600  1.00  0.00    -0.274 A  
HETATM   10  C   UNL     1      -9.508  13.479  68.074  1.00  0.00    -0.220 A  
HETATM   11  C   UNL     1      -7.230  13.023  67.459  1.00  0.00    -0.154 A  
HETATM   12  N   UNL     1      -9.011  14.662  67.555  1.00  0.00    -0.182 NA 
BRANCH  12  13
HETATM   13  C   UNL     1      -9.597  15.984  67.462  1.00  0.00    -0.222 C  
BRANCH  13  14
HETATM   14  C   UNL     1      -9.834  16.396  66.007  1.00  0.00    -0.362 C  
BRANCH  14  15
HETATM   15  C   UNL     1     -10.243  15.238  65.108  1.00  0.00    -0.339 C  
HETATM   16  O   UNL     1     -11.669  15.173  65.047  1.00  0.00    -0.324 OA 
HETATM   17  H   UNL     1     -11.924  14.450  64.486  1.00  0.00     0.000 HD 
ENDBRANCH  14  15
ENDBRANCH  13  14
ENDBRANCH  12  13
BRANCH   9  18
HETATM   18  C   UNL     1     -11.960  13.942  68.753  1.00  0.00    -0.358 C  
HETATM   19  N   UNL     1     -12.651  14.227  67.596  1.00  0.00    -0.375 N  
HETATM   20  O   UNL     1     -12.331  14.428  69.816  1.00  0.00    -0.323 OA 
HETATM   21  H2  UNL     1     -12.347  13.878  66.688  1.00  0.00     0.000 HD 
HETATM   22  H1  UNL     1     -13.484  14.807  67.701  1.00  0.00     0.000 HD 
ENDBRANCH   9  18
ENDBRANCH   3   4
ENDBRANCH   2   3
BRANCH   2  23
HETATM   23  N   UNL     1      -9.142   7.302  70.347  1.00  0.00    -0.155 NA 
HETATM   24  H   UNL     1     -10.138   7.207  70.540  1.00  0.00     0.000 HD 
BRANCH  23  25
HETATM   25  C   UNL     1      -8.653   6.145  69.578  1.00  0.00    -0.127 C  
BRANCH  25  26
HETATM   26  C   UNL     1      -9.135   6.109  68.111  1.00  0.00    -0.111 C  
BRANCH  26  27
HETATM   27  O   UNL     1      -8.051   6.006  67.178  1.00  0.00    -0.105 OA 
BRANCH  27  28
HETATM   28  C   UNL     1      -8.317   5.389  65.981  1.00  0.00    -0.120 A  
HETATM   29  C   UNL     1      -8.385   5.545  63.565  1.00  0.00    -0.076 A  
HETATM   30  C   UNL     1      -8.906   4.117  65.877  1.00  0.00    -0.121 A  
HETATM   31  C   UNL     1      -8.055   6.101  64.800  1.00  0.00    -0.132 A  
HETATM   32  C   UNL     1      -8.980   4.284  63.478  1.00  0.00    -0.134 A  
HETATM   33  C   UNL     1      -9.242   3.572  64.643  1.00  0.00    -0.139 A  
BRANCH  31  34
HETATM   34  O   UNL     1      -7.598   7.391  64.721  1.00  0.00    -0.088 OA 
BRANCH  34  35
HETATM   35  C   UNL     1      -8.514   8.426  65.099  1.00  0.00    -0.160 C  
HETATM   36  C   UNL     1      -8.545   9.574  64.097  1.00  0.00    -0.201 C  
HETATM   37  F   UNL     1      -7.841   9.325  62.972  1.00  0.00    -0.119 F  
HETATM   38  F   UNL     1      -9.814   9.871  63.732  1.00  0.00    -0.319 F  
HETATM   39  F   UNL     1      -8.023  10.703  64.650  1.00  0.00    -0.153 F  
ENDBRANCH  34  35
ENDBRANCH  31  34
ENDBRANCH  27  28
ENDBRANCH  26  27
ENDBRANCH  25  26
ENDBRANCH  23  25
ENDBRANCH   2  23
TORSDOF 13
ENDMDL
MODEL      354
REMARK 921   NORMALIZED FREE ENERGY PREDICTED BY IDOCK:   -2.91 KCAL/MOL
REMARK 922        TOTAL FREE ENERGY PREDICTED BY IDOCK:   -8.28 KCAL/MOL
REMARK 923 INTER-LIGAND FREE ENERGY PREDICTED BY IDOCK:   -7.07 KCAL/MOL
REMARK 924 INTRA-LIGAND FREE ENERGY PREDICTED BY IDOCK:   -1.21 KCAL/MOL
REMARK 927      BINDING AFFINITY PREDICTED BY RF-SCORE:    0.00 PKD
ROOT
HETATM    1  C   UNL     1     -11.822  13.231  68.326  1.00  0.00    -0.389 C  
HETATM    2  C   UNL     1     -10.324  13.546  68.439  1.00  0.00    -0.248 C  
ENDROOT
BRANCH   2   3
HETATM    3  C   UNL     1      -9.760  14.194  67.154  1.00  0.00    -0.248 C  
BRANCH   3   4
HETATM    4  C   UNL     1      -8.952  15.433  67.414  1.00  0.00    -0.202 A  
HETATM    5  C   UNL     1      -9.589  16.600  67.851  1.00  0.00    -0.234 A  
HETATM    6  C   UNL     1      -5.205  18.219  67.809  1.00  0.00    -0.155 A  
HETATM    7  C   UNL     1      -7.578  15.452  67.219  1.00  0.00    -0.246 A  
HETATM    8  C   UNL     1      -6.887  16.625  67.495  1.00  0.00    -0.177 A  
HETATM    9  C   UNL     1      -8.876  17.786  68.158  1.00  0.00    -0.267 A  
HETATM   10  C   UNL     1      -7.492  17.816  67.959  1.00  0.00    -0.226 A  
HETATM   11  C   UNL     1      -5.412  16.786  67.332  1.00  0.00    -0.174 A  
HETATM   12  N   UNL     1      -6.522  18.792  68.115  1.00  0.00    -0.213 NA 
BRANCH  12  13
HETATM   13  C   UNL     1      -6.599  20.138  68.648  1.00  0.00    -0.299 C  
BRANCH  13  14
HETATM   14  C   UNL     1      -6.682  20.137  70.176  1.00  0.00    -0.136 C  
BRANCH  14  15
HETATM   15  C   UNL     1      -5.330  19.970  70.856  1.00  0.00    -0.262 C  
HETATM   16  O   UNL     1      -5.474  19.096  71.977  1.00  0.00    -0.504 OA 
HETATM   17  H   UNL     1      -4.631  18.991  72.401  1.00  0.00     0.000 HD 
ENDBRANCH  14  15
ENDBRANCH  13  14
ENDBRANCH  12  13
BRANCH   9  18
HETATM   18  C   UNL     1      -9.742  18.895  68.634  1.00  0.00    -0.400 C  
HETATM   19  N   UNL     1      -9.869  19.973  67.787  1.00  0.00    -0.391 N  
HETATM   20  O   UNL     1     -10.286  18.921  69.733  1.00  0.00     0.181 OA 
HETATM   21  H2  UNL     1      -9.396  20.007  66.884  1.00  0.00     0.000 HD 
HETATM   22  H1  UNL     1     -10.464  20.735  68.114  1.00  0.00     0.000 HD 
ENDBRANCH   9  18
ENDBRANCH   3   4
ENDBRANCH   2   3
BRANCH   2  23
HETATM   23  N   UNL     1      -9.613  12.300  68.776  1.00  0.00    -0.406 NA 
HETATM   24  H   UNL     1     -10.005  11.881  69.618  1.00  0.00     0.000 HD 
BRANCH  23  25
HETATM   25  C   UNL     1      -9.572  11.317  67.680  1.00  0.00    -0.171 C  
BRANCH  25  26
HETATM   26  C   UNL     1     -10.543  10.130  67.857  1.00  0.00    -0.249 C  
BRANCH  26  27
HETATM   27  O   UNL     1     -10.309   9.081  66.908  1.00  0.00    -0.256 OA 
BRANCH  27  28
HETATM   28  C   UNL     1      -9.993   7.845  67.411  1.00  0.00    -0.198 A  
HETATM   29  C   UNL     1      -8.286   6.179  67.838  1.00  0.00    -0.117 A  
HETATM   30  C   UNL     1     -10.953   6.918  67.856  1.00  0.00    -0.260 A  
HETATM   31  C   UNL     1      -8.643   7.457  67.411  1.00  0.00    -0.118 A  
HETATM   32  C   UNL     1      -9.252   5.266  68.267  1.00  0.00    -0.132 A  
HETATM   33  C   UNL     1     -10.591   5.641  68.271  1.00  0.00    -0.253 A  
BRANCH  31  34
HETATM   34  O   UNL     1      -7.597   8.184  66.906  1.00  0.00    -0.092 OA 
BRANCH  34  35
HETATM   35  C   UNL     1      -6.352   8.100  67.611  1.00  0.00    -0.053 C  
HETATM   36  C   UNL     1      -6.193   9.207  68.648  1.00  0.00    -0.045 C  
HETATM   37  F   UNL     1      -7.309   9.945  68.823  1.00  0.00    -0.071 F  
HETATM   38  F   UNL     1      -5.840   8.701  69.853  1.00  0.00    -0.028 F  
HETATM   39  F   UNL     1      -5.203  10.065  68.279  1.00  0.00    -0.037 F  
ENDBRANCH  34  35
ENDBRANCH  31  34
ENDBRANCH  27  28
ENDBRANCH  26  27
ENDBRANCH  25  26
ENDBRANCH  23  25
ENDBRANCH   2  23
TORSDOF 13
ENDMDL
MODEL      355
REMARK 921   NORMALIZED FREE ENERGY PREDICTED BY IDOCK:   -2.86 KCAL/MOL
REMARK 922        TOTAL FREE ENERGY PREDICTED BY IDOCK:   -8.20 KCAL/MOL
REMARK 923 INTER-LIGAND FREE ENERGY PREDICTED BY IDOCK:   -7.26 KCAL/MOL
REMARK 924 INTRA-LIGAND FREE ENERGY PREDICTED BY IDOCK:   -0.95 KCAL/MOL
REMARK 927      BINDING AFFINITY PREDICTED BY RF-SCORE:    0.00 PKD
ROOT
HETATM    1  C   UNL     1     -12.391  12.045  68.495  1.00  0.00     0.379 C  
HETATM    2  C   UNL     1     -10.915  12.434  68.342  1.00  0.00    -0.241 C  
ENDROOT
BRANCH   2   3
HETATM    3  C   UNL     1      -9.966  11.423  69.025  1.00  0.00    -0.087 C  
BRANCH   3   4
HETATM    4  C   UNL     1      -9.865  10.112  68.299  1.00  0.00    -0.162 A  
HETATM    5  C   UNL     1      -9.124  10.027  67.115  1.00  0.00    -0.154 A  
HETATM    6  C   UNL     1     -10.455   5.555  67.378  1.00  0.00    -0.219 A  
HETATM    7  C   UNL     1     -10.502   8.973  68.774  1.00  0.00    -0.230 A  
HETATM    8  C   UNL     1     -10.353   7.788  68.065  1.00  0.00    -0.263 A  
HETATM    9  C   UNL     1      -8.951   8.809  66.411  1.00  0.00    -0.194 A  
HETATM   10  C   UNL     1      -9.596   7.659  66.878  1.00  0.00    -0.193 A  
HETATM   11  C   UNL     1     -10.980   6.493  68.460  1.00  0.00    -0.360 A  
HETATM   12  N   UNL     1      -9.671   6.353  66.426  1.00  0.00    -0.132 NA 
BRANCH  12  13
HETATM   13  C   UNL     1      -9.009   5.684  65.324  1.00  0.00    -0.028 C  
BRANCH  13  14
HETATM   14  C   UNL     1      -8.315   4.397  65.778  1.00  0.00    -0.113 C  
BRANCH  14  15
HETATM   15  C   UNL     1      -8.678   3.183  64.935  1.00  0.00    -0.108 C  
HETATM   16  O   UNL     1      -8.442   3.481  63.558  1.00  0.00    -0.089 OA 
HETATM   17  H   UNL     1      -8.668   2.723  63.032  1.00  0.00     0.000 HD 
ENDBRANCH  14  15
ENDBRANCH  13  14
ENDBRANCH  12  13
BRANCH   9  18
HETATM   18  C   UNL     1      -8.103   8.938  65.198  1.00  0.00    -0.133 C  
HETATM   19  N   UNL     1      -6.808   9.359  65.405  1.00  0.00    -0.077 N  
HETATM   20  O   UNL     1      -8.503   8.747  64.055  1.00  0.00    -0.172 OA 
HETATM   21  H2  UNL     1      -6.453   9.571  66.337  1.00  0.00     0.000 HD 
HETATM   22  H1  UNL     1      -6.226   9.447  64.572  1.00  0.00     0.000 HD 
ENDBRANCH   9  18
ENDBRANCH   3   4
ENDBRANCH   2   3
BRANCH   2  23
HETATM   23  N   UNL     1     -10.735  13.794  68.880  1.00  0.00    -0.300 NA 
HETATM   24  H   UNL     1     -11.098  13.854  69.831  1.00  0.00     0.000 HD 
BRANCH  23  25
HETATM   25  C   UNL     1      -9.348  14.283  68.823  1.00  0.00    -0.119 C  
BRANCH  25  26
HETATM   26  C   UNL     1      -8.645  14.041  67.470  1.00  0.00    -0.192 C  
BRANCH  26  27
HETATM   27  O   UNL     1      -7.934  15.195  67.004  1.00  0.00    -0.206 OA 
BRANCH  27  28
HETATM   28  C   UNL     1      -8.662  16.344  66.822  1.00  0.00    -0.226 A  
HETATM   29  C   UNL     1     -10.513  17.445  65.714  1.00  0.00    -0.221 A  
HETATM   30  C   UNL     1      -8.295  17.589  67.362  1.00  0.00    -0.220 A  
HETATM   31  C   UNL     1      -9.792  16.285  65.991  1.00  0.00    -0.343 A  
HETATM   32  C   UNL     1     -10.130  18.677  66.249  1.00  0.00    -0.431 A  
HETATM   33  C   UNL     1      -9.013  18.745  67.074  1.00  0.00    -0.299 A  
BRANCH  31  34
HETATM   34  O   UNL     1     -10.221  15.187  65.292  1.00  0.00    -0.358 OA 
BRANCH  34  35
HETATM   35  C   UNL     1     -11.627  15.098  65.028  1.00  0.00    -0.294 C  
HETATM   36  C   UNL     1     -12.169  13.686  65.221  1.00  0.00    -0.439 C  
HETATM   37  F   UNL     1     -11.272  12.834  65.760  1.00  0.00    -0.303 F  
HETATM   38  F   UNL     1     -13.265  13.687  66.015  1.00  0.00    -0.328 F  
HETATM   39  F   UNL     1     -12.552  13.156  64.027  1.00  0.00    -0.403 F  
ENDBRANCH  34  35
ENDBRANCH  31  34
ENDBRANCH  27  28
ENDBRANCH  26  27
ENDBRANCH  25  26
ENDBRANCH  23  25
ENDBRANCH   2  23
TORSDOF 13
ENDMDL
MODEL      356
REMARK 921   NORMALIZED FREE ENERGY PREDICTED BY IDOCK:   -2.85 KCAL/MOL
REMARK 922        TOTAL FREE ENERGY PREDICTED BY IDOCK:   -8.19 KCAL/MOL
REMARK 923 INTER-LIGAND FREE ENERGY PREDICTED BY IDOCK:   -6.67 KCAL/MOL
REMARK 924 INTRA-LIGAND FREE ENERGY PREDICTED BY IDOCK:   -1.52 KCAL/MOL
REMARK 927      BINDING AFFINITY PREDICTED BY RF-SCORE:    0.00 PKD
ROOT
HETATM    1  C   UNL     1     -12.361  10.257  70.133  1.00  0.00    -0.213 C  
HETATM    2  C   UNL     1     -10.843  10.434  70.002  1.00  0.00    -0.289 C  
ENDROOT
BRANCH   2   3
HETATM    3  C   UNL     1     -10.428  10.938  68.601  1.00  0.00    -0.216 C  
BRANCH   3   4
HETATM    4  C   UNL     1     -10.116  12.407  68.561  1.00  0.00    -0.190 A  
HETATM    5  C   UNL     1      -8.785  12.835  68.505  1.00  0.00    -0.045 A  
HETATM    6  C   UNL     1     -10.829  17.037  68.420  1.00  0.00    -0.333 A  
HETATM    7  C   UNL     1     -11.125  13.359  68.588  1.00  0.00    -0.295 A  
HETATM    8  C   UNL     1     -10.770  14.701  68.530  1.00  0.00    -0.248 A  
HETATM    9  C   UNL     1      -8.429  14.203  68.417  1.00  0.00    -0.170 A  
HETATM   10  C   UNL     1      -9.439  15.171  68.451  1.00  0.00    -0.208 A  
HETATM   11  C   UNL     1     -11.749  15.827  68.550  1.00  0.00    -0.328 A  
HETATM   12  N   UNL     1      -9.442  16.554  68.425  1.00  0.00    -0.217 NA 
BRANCH  12  13
HETATM   13  C   UNL     1      -8.364  17.508  68.254  1.00  0.00    -0.265 C  
BRANCH  13  14
HETATM   14  C   UNL     1      -8.162  17.876  66.782  1.00  0.00    -0.273 C  
BRANCH  14  15
HETATM   15  C   UNL     1      -6.708  17.823  66.337  1.00  0.00    -0.246 C  
HETATM   16  O   UNL     1      -6.593  18.405  65.038  1.00  0.00    -0.467 OA 
HETATM   17  H   UNL     1      -5.685  18.371  64.760  1.00  0.00     0.000 HD 
ENDBRANCH  14  15
ENDBRANCH  13  14
ENDBRANCH  12  13
BRANCH   9  18
HETATM   18  C   UNL     1      -6.963  14.434  68.336  1.00  0.00    -0.109 C  
HETATM   19  N   UNL     1      -6.290  14.484  69.536  1.00  0.00    -0.118 N  
HETATM   20  O   UNL     1      -6.354  14.631  67.291  1.00  0.00    -0.303 OA 
HETATM   21  H2  UNL     1      -6.769  14.369  70.428  1.00  0.00     0.000 HD 
HETATM   22  H1  UNL     1      -5.283  14.642  69.481  1.00  0.00     0.000 HD 
ENDBRANCH   9  18
ENDBRANCH   3   4
ENDBRANCH   2   3
BRANCH   2  23
HETATM   23  N   UNL     1     -10.196   9.151  70.331  1.00  0.00    -0.206 NA 
HETATM   24  H   UNL     1     -10.439   8.441  69.641  1.00  0.00     0.000 HD 
BRANCH  23  25
HETATM   25  C   UNL     1      -8.735   9.239  70.490  1.00  0.00    -0.236 C  
BRANCH  25  26
HETATM   26  C   UNL     1      -7.980   7.938  70.145  1.00  0.00    -0.107 C  
BRANCH  26  27
HETATM   27  O   UNL     1      -7.896   7.707  68.732  1.00  0.00    -0.115 OA 
BRANCH  27  28
HETATM   28  C   UNL     1      -8.851   6.894  68.176  1.00  0.00    -0.125 A  
HETATM   29  C   UNL     1      -9.627   4.641  67.744  1.00  0.00    -0.203 A  
HETATM   30  C   UNL     1      -9.902   7.368  67.371  1.00  0.00    -0.219 A  
HETATM   31  C   UNL     1      -8.726   5.508  68.359  1.00  0.00    -0.105 A  
HETATM   32  C   UNL     1     -10.660   5.126  66.938  1.00  0.00    -0.234 A  
HETATM   33  C   UNL     1     -10.792   6.497  66.752  1.00  0.00    -0.345 A  
BRANCH  31  34
HETATM   34  O   UNL     1      -7.701   4.870  69.009  1.00  0.00    -0.071 OA 
BRANCH  34  35
HETATM   35  C   UNL     1      -7.603   3.452  68.826  1.00  0.00    -0.052 C  
HETATM   36  C   UNL     1      -6.551   3.068  67.791  1.00  0.00    -0.037 C  
HETATM   37  F   UNL     1      -5.803   4.111  67.373  1.00  0.00    -0.020 F  
HETATM   38  F   UNL     1      -5.710   2.126  68.275  1.00  0.00    -0.016 F  
HETATM   39  F   UNL     1      -7.143   2.535  66.687  1.00  0.00    -0.045 F  
ENDBRANCH  34  35
ENDBRANCH  31  34
ENDBRANCH  27  28
ENDBRANCH  26  27
ENDBRANCH  25  26
ENDBRANCH  23  25
ENDBRANCH   2  23
TORSDOF 13
ENDMDL
MODEL      357
REMARK 921   NORMALIZED FREE ENERGY PREDICTED BY IDOCK:   -2.65 KCAL/MOL
REMARK 922        TOTAL FREE ENERGY PREDICTED BY IDOCK:   -7.82 KCAL/MOL
REMARK 923 INTER-LIGAND FREE ENERGY PREDICTED BY IDOCK:   -6.26 KCAL/MOL
REMARK 924 INTRA-LIGAND FREE ENERGY PREDICTED BY IDOCK:   -1.56 KCAL/MOL
REMARK 927      BINDING AFFINITY PREDICTED BY RF-SCORE:    0.00 PKD
ROOT
HETATM    1  C   UNL     1      -9.743   4.036  68.379  1.00  0.00    -0.135 C  
HETATM    2  C   UNL     1      -9.327   5.510  68.282  1.00  0.00    -0.111 C  
ENDROOT
BRANCH   2   3
HETATM    3  C   UNL     1      -7.974   5.693  67.558  1.00  0.00    -0.102 C  
BRANCH   3   4
HETATM    4  C   UNL     1      -7.597   7.132  67.348  1.00  0.00    -0.109 A  
HETATM    5  C   UNL     1      -8.297   8.140  68.020  1.00  0.00    -0.129 A  
HETATM    6  C   UNL     1      -5.256  10.861  65.741  1.00  0.00    -0.133 A  
HETATM    7  C   UNL     1      -6.569   7.490  66.488  1.00  0.00    -0.053 A  
HETATM    8  C   UNL     1      -6.258   8.837  66.353  1.00  0.00    -0.061 A  
HETATM    9  C   UNL     1      -7.959   9.511  67.900  1.00  0.00    -0.098 A  
HETATM   10  C   UNL     1      -6.928   9.882  67.031  1.00  0.00    -0.088 A  
HETATM   11  C   UNL     1      -5.179   9.363  65.466  1.00  0.00    -0.036 A  
HETATM   12  N   UNL     1      -6.381  11.097  66.656  1.00  0.00    -0.122 NA 
BRANCH  12  13
HETATM   13  C   UNL     1      -6.636  12.444  67.125  1.00  0.00    -0.089 C  
BRANCH  13  14
HETATM   14  C   UNL     1      -5.936  12.722  68.458  1.00  0.00    -0.062 C  
BRANCH  14  15
HETATM   15  C   UNL     1      -6.630  13.784  69.298  1.00  0.00    -0.113 C  
HETATM   16  O   UNL     1      -6.551  13.417  70.676  1.00  0.00    -0.386 OA 
HETATM   17  H   UNL     1      -6.985  14.081  71.200  1.00  0.00     0.000 HD 
ENDBRANCH  14  15
ENDBRANCH  13  14
ENDBRANCH  12  13
BRANCH   9  18
HETATM   18  C   UNL     1      -8.810  10.409  68.724  1.00  0.00    -0.157 C  
HETATM   19  N   UNL     1      -8.552  10.417  70.076  1.00  0.00    -0.322 N  
HETATM   20  O   UNL     1      -9.736  11.078  68.279  1.00  0.00    -0.164 OA 
HETATM   21  H2  UNL     1      -7.820   9.841  70.489  1.00  0.00     0.000 HD 
HETATM   22  H1  UNL     1      -9.137  11.034  70.642  1.00  0.00     0.000 HD 
ENDBRANCH   9  18
ENDBRANCH   3   4
ENDBRANCH   2   3
BRANCH   2  23
HETATM   23  N   UNL     1      -9.294   6.073  69.644  1.00  0.00    -0.143 NA 
HETATM   24  H   UNL     1      -9.811   6.951  69.680  1.00  0.00     0.000 HD 
BRANCH  23  25
HETATM   25  C   UNL     1      -9.772   5.149  70.686  1.00  0.00    -0.192 C  
BRANCH  25  26
HETATM   26  C   UNL     1     -11.286   5.245  70.973  1.00  0.00     0.333 C  
BRANCH  26  27
HETATM   27  O   UNL     1     -11.583   6.096  72.088  1.00  0.00    -0.299 OA 
BRANCH  27  28
HETATM   28  C   UNL     1     -12.097   7.336  71.805  1.00  0.00    -0.319 A  
HETATM   29  C   UNL     1     -11.690   9.704  71.500  1.00  0.00    -0.472 A  
HETATM   30  C   UNL     1     -13.474   7.597  71.685  1.00  0.00    -0.415 A  
HETATM   31  C   UNL     1     -11.203   8.414  71.706  1.00  0.00    -0.293 A  
HETATM   32  C   UNL     1     -13.062   9.949  71.394  1.00  0.00    -0.500 A  
HETATM   33  C   UNL     1     -13.953   8.888  71.490  1.00  0.00    -0.365 A  
BRANCH  31  34
HETATM   34  O   UNL     1      -9.850   8.361  71.914  1.00  0.00    -0.205 OA 
BRANCH  34  35
HETATM   35  C   UNL     1      -9.412   7.949  73.214  1.00  0.00    -0.285 C  
HETATM   36  C   UNL     1      -7.905   8.095  73.396  1.00  0.00    -0.174 C  
HETATM   37  F   UNL     1      -7.299   8.735  72.374  1.00  0.00    -0.127 F  
HETATM   38  F   UNL     1      -7.612   8.767  74.534  1.00  0.00    -0.257 F  
HETATM   39  F   UNL     1      -7.318   6.871  73.503  1.00  0.00    -0.081 F  
ENDBRANCH  34  35
ENDBRANCH  31  34
ENDBRANCH  27  28
ENDBRANCH  26  27
ENDBRANCH  25  26
ENDBRANCH  23  25
ENDBRANCH   2  23
TORSDOF 13
ENDMDL
MODEL      358
REMARK 921   NORMALIZED FREE ENERGY PREDICTED BY IDOCK:   -2.61 KCAL/MOL
REMARK 922        TOTAL FREE ENERGY PREDICTED BY IDOCK:   -7.77 KCAL/MOL
REMARK 923 INTER-LIGAND FREE ENERGY PREDICTED BY IDOCK:   -7.50 KCAL/MOL
REMARK 924 INTRA-LIGAND FREE ENERGY PREDICTED BY IDOCK:   -0.27 KCAL/MOL
REMARK 927      BINDING AFFINITY PREDICTED BY RF-SCORE:    0.00 PKD
ROOT
HETATM    1  C   UNL     1      -6.954  14.290  70.438  1.00  0.00     0.317 C  
HETATM    2  C   UNL     1      -5.862  13.644  69.575  1.00  0.00    -0.102 C  
ENDROOT
BRANCH   2   3
HETATM    3  C   UNL     1      -5.303  14.614  68.510  1.00  0.00    -0.103 C  
BRANCH   3   4
HETATM    4  C   UNL     1      -6.132  15.855  68.335  1.00  0.00    -0.105 A  
HETATM    5  C   UNL     1      -7.528  15.762  68.315  1.00  0.00    -0.117 A  
HETATM    6  C   UNL     1      -7.171  20.395  67.818  1.00  0.00    -0.299 A  
HETATM    7  C   UNL     1      -5.541  17.101  68.183  1.00  0.00    -0.120 A  
HETATM    8  C   UNL     1      -6.365  18.211  68.045  1.00  0.00    -0.181 A  
HETATM    9  C   UNL     1      -8.365  16.900  68.202  1.00  0.00    -0.212 A  
HETATM   10  C   UNL     1      -7.778  18.159  68.041  1.00  0.00    -0.255 A  
HETATM   11  C   UNL     1      -5.867  19.607  67.874  1.00  0.00    -0.222 A  
HETATM   12  N   UNL     1      -8.283  19.436  67.868  1.00  0.00    -0.298 NA 
BRANCH  12  13
HETATM   13  C   UNL     1      -9.644  19.936  67.888  1.00  0.00    -0.375 C  
BRANCH  13  14
HETATM   14  C   UNL     1     -10.077  20.453  66.514  1.00  0.00    -0.419 C  
BRANCH  14  15
HETATM   15  C   UNL     1     -10.909  19.452  65.724  1.00  0.00    -0.280 C  
HETATM   16  O   UNL     1     -10.157  18.250  65.553  1.00  0.00    -0.465 OA 
HETATM   17  H   UNL     1     -10.677  17.625  65.061  1.00  0.00     0.000 HD 
ENDBRANCH  14  15
ENDBRANCH  13  14
ENDBRANCH  12  13
BRANCH   9  18
HETATM   18  C   UNL     1      -9.815  16.578  68.233  1.00  0.00    -0.243 C  
HETATM   19  N   UNL     1     -10.549  17.182  69.229  1.00  0.00    -0.340 N  
HETATM   20  O   UNL     1     -10.361  15.785  67.473  1.00  0.00    -0.267 OA 
HETATM   21  H2  UNL     1     -10.122  17.812  69.907  1.00  0.00     0.000 HD 
HETATM   22  H1  UNL     1     -11.545  16.961  69.251  1.00  0.00     0.000 HD 
ENDBRANCH   9  18
ENDBRANCH   3   4
ENDBRANCH   2   3
BRANCH   2  23
HETATM   23  N   UNL     1      -6.418  12.425  68.960  1.00  0.00    -0.090 NA 
HETATM   24  H   UNL     1      -6.853  11.834  69.668  1.00  0.00     0.000 HD 
BRANCH  23  25
HETATM   25  C   UNL     1      -7.354  12.684  67.854  1.00  0.00    -0.116 C  
BRANCH  25  26
HETATM   26  C   UNL     1      -7.867  11.412  67.146  1.00  0.00    -0.156 C  
BRANCH  26  27
HETATM   27  O   UNL     1      -9.298  11.343  67.105  1.00  0.00    -0.169 OA 
BRANCH  27  28
HETATM   28  C   UNL     1      -9.901  11.613  65.902  1.00  0.00    -0.233 A  
HETATM   29  C   UNL     1     -10.378  10.892  63.639  1.00  0.00    -0.364 A  
HETATM   30  C   UNL     1     -10.497  12.849  65.592  1.00  0.00    -0.292 A  
HETATM   31  C   UNL     1      -9.850  10.629  64.902  1.00  0.00    -0.302 A  
HETATM   32  C   UNL     1     -10.958  12.128  63.343  1.00  0.00    -0.480 A  
HETATM   33  C   UNL     1     -11.012  13.109  64.327  1.00  0.00    -0.428 A  
BRANCH  31  34
HETATM   34  O   UNL     1      -9.207   9.421  64.992  1.00  0.00    -0.241 OA 
BRANCH  34  35
HETATM   35  C   UNL     1      -8.159   9.175  64.047  1.00  0.00    -0.151 C  
HETATM   36  C   UNL     1      -7.736   7.711  64.012  1.00  0.00    -0.126 C  
HETATM   37  F   UNL     1      -8.532   6.904  64.744  1.00  0.00    -0.119 F  
HETATM   38  F   UNL     1      -7.720   7.236  62.745  1.00  0.00    -0.098 F  
HETATM   39  F   UNL     1      -6.472   7.569  64.498  1.00  0.00    -0.042 F  
ENDBRANCH  34  35
ENDBRANCH  31  34
ENDBRANCH  27  28
ENDBRANCH  26  27
ENDBRANCH  25  26
ENDBRANCH  23  25
ENDBRANCH   2  23
TORSDOF 13
ENDMDL
MODEL      359
REMARK 921   NORMALIZED FREE ENERGY PREDICTED BY IDOCK:   -2.43 KCAL/MOL
REMARK 922        TOTAL FREE ENERGY PREDICTED BY IDOCK:   -7.45 KCAL/MOL
REMARK 923 INTER-LIGAND FREE ENERGY PREDICTED BY IDOCK:   -6.58 KCAL/MOL
REMARK 924 INTRA-LIGAND FREE ENERGY PREDICTED BY IDOCK:   -0.86 KCAL/MOL
REMARK 927      BINDING AFFINITY PREDICTED BY RF-SCORE:    0.00 PKD
ROOT
HETATM    1  C   UNL     1     -12.801  10.664  70.404  1.00  0.00    -0.277 C  
HETATM    2  C   UNL     1     -11.277  10.792  70.284  1.00  0.00    -0.245 C  
ENDROOT
BRANCH   2   3
HETATM    3  C   UNL     1     -10.822  11.085  68.837  1.00  0.00    -0.262 C  
BRANCH   3   4
HETATM    4  C   UNL     1     -10.336  12.491  68.634  1.00  0.00    -0.193 A  
HETATM    5  C   UNL     1      -8.969  12.736  68.458  1.00  0.00    -0.046 A  
HETATM    6  C   UNL     1     -10.481  17.143  68.082  1.00  0.00    -0.366 A  
HETATM    7  C   UNL     1     -11.215  13.565  68.627  1.00  0.00    -0.311 A  
HETATM    8  C   UNL     1     -10.703  14.838  68.416  1.00  0.00    -0.243 A  
HETATM    9  C   UNL     1      -8.455  14.034  68.215  1.00  0.00    -0.171 A  
HETATM   10  C   UNL     1      -9.333  15.123  68.213  1.00  0.00    -0.193 A  
HETATM   11  C   UNL     1     -11.531  16.079  68.384  1.00  0.00    -0.331 A  
HETATM   12  N   UNL     1      -9.167  16.487  68.052  1.00  0.00    -0.211 NA 
BRANCH  12  13
HETATM   13  C   UNL     1      -7.995  17.275  67.725  1.00  0.00    -0.190 C  
BRANCH  13  14
HETATM   14  C   UNL     1      -8.013  17.738  66.266  1.00  0.00    -0.283 C  
BRANCH  14  15
HETATM   15  C   UNL     1      -7.620  19.198  66.088  1.00  0.00    -0.280 C  
HETATM   16  O   UNL     1      -6.206  19.282  65.901  1.00  0.00    -0.180 OA 
HETATM   17  H   UNL     1      -5.961  20.194  65.790  1.00  0.00     0.000 HD 
ENDBRANCH  14  15
ENDBRANCH  13  14
ENDBRANCH  12  13
BRANCH   9  18
HETATM   18  C   UNL     1      -6.981  14.065  68.026  1.00  0.00    -0.145 C  
HETATM   19  N   UNL     1      -6.269  14.824  68.927  1.00  0.00    -0.084 N  
HETATM   20  O   UNL     1      -6.394  13.511  67.103  1.00  0.00    -0.228 OA 
HETATM   21  H2  UNL     1      -6.727  15.335  69.681  1.00  0.00     0.000 HD 
HETATM   22  H1  UNL     1      -5.257  14.845  68.797  1.00  0.00     0.000 HD 
ENDBRANCH   9  18
ENDBRANCH   3   4
ENDBRANCH   2   3
BRANCH   2  23
HETATM   23  N   UNL     1     -10.666   9.556  70.806  1.00  0.00    -0.296 NA 
HETATM   24  H   UNL     1     -10.975   8.749  70.265  1.00  0.00     0.000 HD 
BRANCH  23  25
HETATM   25  C   UNL     1      -9.196   9.598  70.878  1.00  0.00     0.118 C  
BRANCH  25  26
HETATM   26  C   UNL     1      -8.528   8.212  71.006  1.00  0.00    -0.132 C  
BRANCH  26  27
HETATM   27  O   UNL     1      -7.986   7.745  69.764  1.00  0.00    -0.110 OA 
BRANCH  27  28
HETATM   28  C   UNL     1      -8.851   7.120  68.902  1.00  0.00    -0.130 A  
HETATM   29  C   UNL     1     -10.797   5.706  68.617  1.00  0.00    -0.190 A  
HETATM   30  C   UNL     1      -8.665   7.079  67.509  1.00  0.00    -0.120 A  
HETATM   31  C   UNL     1      -9.939   6.422  69.450  1.00  0.00    -0.158 A  
HETATM   32  C   UNL     1     -10.593   5.666  67.235  1.00  0.00    -0.328 A  
HETATM   33  C   UNL     1      -9.519   6.355  66.684  1.00  0.00    -0.191 A  
BRANCH  31  34
HETATM   34  O   UNL     1     -10.201   6.258  70.786  1.00  0.00    -0.186 OA 
BRANCH  34  35
HETATM   35  C   UNL     1     -10.743   4.994  71.187  1.00  0.00    -0.002 C  
HETATM   36  C   UNL     1      -9.691   4.077  71.802  1.00  0.00    -0.171 C  
HETATM   37  F   UNL     1      -8.502   4.682  72.005  1.00  0.00    -0.108 F  
HETATM   38  F   UNL     1     -10.109   3.580  72.990  1.00  0.00    -0.162 F  
HETATM   39  F   UNL     1      -9.461   3.008  70.992  1.00  0.00    -0.181 F  
ENDBRANCH  34  35
ENDBRANCH  31  34
ENDBRANCH  27  28
ENDBRANCH  26  27
ENDBRANCH  25  26
ENDBRANCH  23  25
ENDBRANCH   2  23
TORSDOF 13
ENDMDL
MODEL      360
REMARK 921   NORMALIZED FREE ENERGY PREDICTED BY IDOCK:   -2.42 KCAL/MOL
REMARK 922        TOTAL FREE ENERGY PREDICTED BY IDOCK:   -7.43 KCAL/MOL
REMARK 923 INTER-LIGAND FREE ENERGY PREDICTED BY IDOCK:   -7.55 KCAL/MOL
REMARK 924 INTRA-LIGAND FREE ENERGY PREDICTED BY IDOCK:    0.13 KCAL/MOL
REMARK 927      BINDING AFFINITY PREDICTED BY RF-SCORE:    0.00 PKD
ROOT
HETATM    1  C   UNL     1      -6.221  14.181  71.208  1.00  0.00     0.078 C  
HETATM    2  C   UNL     1      -6.019  13.437  69.882  1.00  0.00    -0.133 C  
ENDROOT
BRANCH   2   3
HETATM    3  C   UNL     1      -5.128  14.225  68.895  1.00  0.00    -0.084 C  
BRANCH   3   4
HETATM    4  C   UNL     1      -5.598  15.631  68.655  1.00  0.00    -0.099 A  
HETATM    5  C   UNL     1      -6.469  15.902  67.594  1.00  0.00    -0.192 A  
HETATM    6  C   UNL     1      -6.137  20.242  69.298  1.00  0.00    -0.336 A  
HETATM    7  C   UNL     1      -5.178  16.679  69.462  1.00  0.00    -0.137 A  
HETATM    8  C   UNL     1      -5.665  17.953  69.198  1.00  0.00    -0.206 A  
HETATM    9  C   UNL     1      -6.985  17.199  67.346  1.00  0.00    -0.181 A  
HETATM   10  C   UNL     1      -6.562  18.262  68.150  1.00  0.00    -0.205 A  
HETATM   11  C   UNL     1      -5.299  19.168  69.983  1.00  0.00    -0.229 A  
HETATM   12  N   UNL     1      -6.829  19.621  68.160  1.00  0.00    -0.270 NA 
BRANCH  12  13
HETATM   13  C   UNL     1      -7.743  20.420  67.370  1.00  0.00    -0.328 C  
BRANCH  13  14
HETATM   14  C   UNL     1      -9.139  20.468  67.997  1.00  0.00    -0.071 C  
BRANCH  14  15
HETATM   15  C   UNL     1     -10.238  19.969  67.069  1.00  0.00    -0.451 C  
HETATM   16  O   UNL     1      -9.998  20.463  65.750  1.00  0.00    -0.615 OA 
HETATM   17  H   UNL     1     -10.683  20.151  65.171  1.00  0.00     0.000 HD 
ENDBRANCH  14  15
ENDBRANCH  13  14
ENDBRANCH  12  13
BRANCH   9  18
HETATM   18  C   UNL     1      -7.917  17.258  66.190  1.00  0.00    -0.257 C  
HETATM   19  N   UNL     1      -8.433  16.054  65.764  1.00  0.00     0.015 N  
HETATM   20  O   UNL     1      -8.194  18.285  65.582  1.00  0.00    -0.440 OA 
HETATM   21  H2  UNL     1      -8.190  15.173  66.217  1.00  0.00     0.000 HD 
HETATM   22  H1  UNL     1      -9.072  16.095  64.970  1.00  0.00     0.000 HD 
ENDBRANCH   9  18
ENDBRANCH   3   4
ENDBRANCH   2   3
BRANCH   2  23
HETATM   23  N   UNL     1      -7.344  13.149  69.305  1.00  0.00    -0.312 NA 
HETATM   24  H   UNL     1      -7.768  12.345  69.768  1.00  0.00     0.000 HD 
BRANCH  23  25
HETATM   25  C   UNL     1      -8.265  14.297  69.314  1.00  0.00     0.193 C  
BRANCH  25  26
HETATM   26  C   UNL     1      -9.626  14.023  68.639  1.00  0.00    -0.159 C  
BRANCH  26  27
HETATM   27  O   UNL     1      -9.792  12.648  68.270  1.00  0.00    -0.223 OA 
BRANCH  27  28
HETATM   28  C   UNL     1     -10.233  12.393  66.996  1.00  0.00    -0.220 A  
HETATM   29  C   UNL     1     -10.510  10.786  65.205  1.00  0.00    -0.299 A  
HETATM   30  C   UNL     1     -10.694  13.391  66.120  1.00  0.00    -0.288 A  
HETATM   31  C   UNL     1     -10.148  11.075  66.520  1.00  0.00    -0.226 A  
HETATM   32  C   UNL     1     -10.956  11.790  64.342  1.00  0.00    -0.397 A  
HETATM   33  C   UNL     1     -11.044  13.098  64.806  1.00  0.00    -0.351 A  
BRANCH  31  34
HETATM   34  O   UNL     1      -9.615  10.007  67.194  1.00  0.00    -0.158 OA 
BRANCH  34  35
HETATM   35  C   UNL     1     -10.457   9.368  68.162  1.00  0.00    -0.220 C  
HETATM   36  C   UNL     1     -10.042   7.927  68.437  1.00  0.00    -0.194 C  
HETATM   37  F   UNL     1      -8.874   7.584  67.854  1.00  0.00    -0.125 F  
HETATM   38  F   UNL     1      -9.922   7.698  69.766  1.00  0.00    -0.177 F  
HETATM   39  F   UNL     1     -10.987   7.063  67.976  1.00  0.00    -0.256 F  
ENDBRANCH  34  35
ENDBRANCH  31  34
ENDBRANCH  27  28
ENDBRANCH  26  27
ENDBRANCH  25  26
ENDBRANCH  23  25
ENDBRANCH   2  23
TORSDOF 13
ENDMDL
MODEL      361
REMARK 921   NORMALIZED FREE ENERGY PREDICTED BY IDOCK:   -2.42 KCAL/MOL
REMARK 922        TOTAL FREE ENERGY PREDICTED BY IDOCK:   -7.42 KCAL/MOL
REMARK 923 INTER-LIGAND FREE ENERGY PREDICTED BY IDOCK:   -6.62 KCAL/MOL
REMARK 924 INTRA-LIGAND FREE ENERGY PREDICTED BY IDOCK:   -0.80 KCAL/MOL
REMARK 927      BINDING AFFINITY PREDICTED BY RF-SCORE:    0.00 PKD
ROOT
HETATM    1  C   UNL     1     -12.691  14.047  69.178  1.00  0.00     0.523 C  
HETATM    2  C   UNL     1     -11.250  13.520  69.191  1.00  0.00    -0.260 C  
ENDROOT
BRANCH   2   3
HETATM    3  C   UNL     1     -11.174  12.025  69.576  1.00  0.00    -0.220 C  
BRANCH   3   4
HETATM    4  C   UNL     1     -10.316  11.211  68.651  1.00  0.00    -0.219 A  
HETATM    5  C   UNL     1      -9.163  10.586  69.140  1.00  0.00    -0.183 A  
HETATM    6  C   UNL     1      -8.882   9.112  64.714  1.00  0.00    -0.158 A  
HETATM    7  C   UNL     1     -10.636  11.069  67.308  1.00  0.00    -0.287 A  
HETATM    8  C   UNL     1      -9.811  10.288  66.510  1.00  0.00    -0.265 A  
HETATM    9  C   UNL     1      -8.340   9.766  68.328  1.00  0.00    -0.106 A  
HETATM   10  C   UNL     1      -8.651   9.624  66.972  1.00  0.00    -0.128 A  
HETATM   11  C   UNL     1     -10.035  10.050  65.054  1.00  0.00    -0.320 A  
HETATM   12  N   UNL     1      -8.057   8.950  65.918  1.00  0.00    -0.106 NA 
BRANCH  12  13
HETATM   13  C   UNL     1      -6.919   8.054  65.878  1.00  0.00    -0.057 C  
BRANCH  13  14
HETATM   14  C   UNL     1      -7.164   6.871  64.937  1.00  0.00    -0.078 C  
BRANCH  14  15
HETATM   15  C   UNL     1      -7.899   5.713  65.597  1.00  0.00    -0.099 C  
HETATM   16  O   UNL     1      -9.251   6.099  65.851  1.00  0.00    -0.276 OA 
HETATM   17  H   UNL     1      -9.709   5.376  66.263  1.00  0.00     0.000 HD 
ENDBRANCH  14  15
ENDBRANCH  13  14
ENDBRANCH  12  13
BRANCH   9  18
HETATM   18  C   UNL     1      -7.186   9.176  69.055  1.00  0.00    -0.072 C  
HETATM   19  N   UNL     1      -7.493   8.342  70.107  1.00  0.00    -0.061 N  
HETATM   20  O   UNL     1      -6.013   9.431  68.807  1.00  0.00    -0.043 OA 
HETATM   21  H2  UNL     1      -8.458   8.142  70.372  1.00  0.00     0.000 HD 
HETATM   22  H1  UNL     1      -6.701   7.937  70.606  1.00  0.00     0.000 HD 
ENDBRANCH   9  18
ENDBRANCH   3   4
ENDBRANCH   2   3
BRANCH   2  23
HETATM   23  N   UNL     1     -10.458  14.357  70.110  1.00  0.00    -0.269 NA 
HETATM   24  H   UNL     1     -10.144  13.810  70.910  1.00  0.00     0.000 HD 
BRANCH  23  25
HETATM   25  C   UNL     1      -9.321  15.039  69.470  1.00  0.00    -0.062 C  
BRANCH  25  26
HETATM   26  C   UNL     1      -9.537  15.366  67.976  1.00  0.00    -0.206 C  
BRANCH  26  27
HETATM   27  O   UNL     1      -8.713  16.449  67.525  1.00  0.00    -0.176 OA 
BRANCH  27  28
HETATM   28  C   UNL     1      -9.308  17.680  67.412  1.00  0.00    -0.247 A  
HETATM   29  C   UNL     1      -9.296  19.878  66.393  1.00  0.00    -0.493 A  
HETATM   30  C   UNL     1     -10.370  18.107  68.228  1.00  0.00    -0.377 A  
HETATM   31  C   UNL     1      -8.774  18.588  66.483  1.00  0.00    -0.286 A  
HETATM   32  C   UNL     1     -10.345  20.290  67.217  1.00  0.00    -0.420 A  
HETATM   33  C   UNL     1     -10.879  19.398  68.139  1.00  0.00    -0.097 A  
BRANCH  31  34
HETATM   34  O   UNL     1      -7.670  18.382  65.697  1.00  0.00    -0.518 OA 
BRANCH  34  35
HETATM   35  C   UNL     1      -6.445  18.981  66.135  1.00  0.00    -0.207 C  
HETATM   36  C   UNL     1      -6.224  20.365  65.534  1.00  0.00    -0.234 C  
HETATM   37  F   UNL     1      -7.289  20.829  64.849  1.00  0.00    -0.169 F  
HETATM   38  F   UNL     1      -5.923  21.272  66.493  1.00  0.00    -0.260 F  
HETATM   39  F   UNL     1      -5.172  20.346  64.671  1.00  0.00    -0.179 F  
ENDBRANCH  34  35
ENDBRANCH  31  34
ENDBRANCH  27  28
ENDBRANCH  26  27
ENDBRANCH  25  26
ENDBRANCH  23  25
ENDBRANCH   2  23
TORSDOF 13
ENDMDL
MODEL      362
REMARK 921   NORMALIZED FREE ENERGY PREDICTED BY IDOCK:   -2.41 KCAL/MOL
REMARK 922        TOTAL FREE ENERGY PREDICTED BY IDOCK:   -7.42 KCAL/MOL
REMARK 923 INTER-LIGAND FREE ENERGY PREDICTED BY IDOCK:   -5.77 KCAL/MOL
REMARK 924 INTRA-LIGAND FREE ENERGY PREDICTED BY IDOCK:   -1.65 KCAL/MOL
REMARK 927      BINDING AFFINITY PREDICTED BY RF-SCORE:    0.00 PKD
ROOT
HETATM    1  C   UNL     1      -7.781  13.663  69.173  1.00  0.00     0.182 C  
HETATM    2  C   UNL     1      -6.589  12.839  68.671  1.00  0.00    -0.084 C  
ENDROOT
BRANCH   2   3
HETATM    3  C   UNL     1      -6.108  11.804  69.713  1.00  0.00    -0.136 C  
BRANCH   3   4
HETATM    4  C   UNL     1      -6.796  10.473  69.597  1.00  0.00    -0.117 A  
HETATM    5  C   UNL     1      -6.736   9.564  70.658  1.00  0.00    -0.110 A  
HETATM    6  C   UNL     1      -9.382   7.022  67.764  1.00  0.00    -0.125 A  
HETATM    7  C   UNL     1      -7.488  10.117  68.448  1.00  0.00    -0.086 A  
HETATM    8  C   UNL     1      -8.118   8.880  68.411  1.00  0.00    -0.109 A  
HETATM    9  C   UNL     1      -7.403   8.314  70.627  1.00  0.00    -0.057 A  
HETATM   10  C   UNL     1      -8.098   7.944  69.471  1.00  0.00    -0.121 A  
HETATM   11  C   UNL     1      -8.895   8.370  67.244  1.00  0.00    -0.137 A  
HETATM   12  N   UNL     1      -8.807   6.815  69.099  1.00  0.00    -0.134 NA 
BRANCH  12  13
HETATM   13  C   UNL     1      -9.164   5.623  69.843  1.00  0.00    -0.146 C  
BRANCH  13  14
HETATM   14  C   UNL     1      -9.414   4.431  68.916  1.00  0.00    -0.232 C  
BRANCH  14  15
HETATM   15  C   UNL     1      -8.188   3.551  68.716  1.00  0.00    -0.068 C  
HETATM   16  O   UNL     1      -7.100   4.359  68.265  1.00  0.00    -0.058 OA 
HETATM   17  H   UNL     1      -6.335   3.810  68.140  1.00  0.00     0.000 HD 
ENDBRANCH  14  15
ENDBRANCH  13  14
ENDBRANCH  12  13
BRANCH   9  18
HETATM   18  C   UNL     1      -7.233   7.517  71.870  1.00  0.00    -0.064 C  
HETATM   19  N   UNL     1      -6.087   6.759  71.953  1.00  0.00    -0.038 N  
HETATM   20  O   UNL     1      -8.063   7.461  72.771  1.00  0.00    -0.099 OA 
HETATM   21  H2  UNL     1      -5.395   6.745  71.204  1.00  0.00     0.000 HD 
HETATM   22  H1  UNL     1      -5.970   6.211  72.806  1.00  0.00     0.000 HD 
ENDBRANCH   9  18
ENDBRANCH   3   4
ENDBRANCH   2   3
BRANCH   2  23
HETATM   23  N   UNL     1      -5.509  13.768  68.292  1.00  0.00    -0.101 NA 
HETATM   24  H   UNL     1      -5.251  13.636  67.315  1.00  0.00     0.000 HD 
BRANCH  23  25
HETATM   25  C   UNL     1      -5.814  15.183  68.560  1.00  0.00    -0.095 C  
BRANCH  25  26
HETATM   26  C   UNL     1      -6.128  16.014  67.297  1.00  0.00    -0.097 C  
BRANCH  26  27
HETATM   27  O   UNL     1      -7.387  15.664  66.706  1.00  0.00    -0.153 OA 
BRANCH  27  28
HETATM   28  C   UNL     1      -8.314  16.666  66.575  1.00  0.00    -0.287 A  
HETATM   29  C   UNL     1     -10.650  17.292  66.439  1.00  0.00    -0.179 A  
HETATM   30  C   UNL     1      -7.980  18.003  66.298  1.00  0.00    -0.276 A  
HETATM   31  C   UNL     1      -9.673  16.320  66.647  1.00  0.00    -0.250 A  
HETATM   32  C   UNL     1     -10.302  18.615  66.154  1.00  0.00    -0.481 A  
HETATM   33  C   UNL     1      -8.959  18.966  66.081  1.00  0.00    -0.169 A  
BRANCH  31  34
HETATM   34  O   UNL     1     -10.176  15.053  66.790  1.00  0.00    -0.252 OA 
BRANCH  34  35
HETATM   35  C   UNL     1     -11.275  14.695  65.943  1.00  0.00    -0.336 C  
HETATM   36  C   UNL     1     -11.087  13.332  65.286  1.00  0.00    -0.288 C  
HETATM   37  F   UNL     1     -10.016  12.654  65.751  1.00  0.00    -0.252 F  
HETATM   38  F   UNL     1     -12.177  12.549  65.460  1.00  0.00    -0.450 F  
HETATM   39  F   UNL     1     -10.917  13.471  63.943  1.00  0.00    -0.359 F  
ENDBRANCH  34  35
ENDBRANCH  31  34
ENDBRANCH  27  28
ENDBRANCH  26  27
ENDBRANCH  25  26
ENDBRANCH  23  25
ENDBRANCH   2  23
TORSDOF 13
ENDMDL
MODEL      363
REMARK 921   NORMALIZED FREE ENERGY PREDICTED BY IDOCK:   -2.36 KCAL/MOL
REMARK 922        TOTAL FREE ENERGY PREDICTED BY IDOCK:   -7.32 KCAL/MOL
REMARK 923 INTER-LIGAND FREE ENERGY PREDICTED BY IDOCK:   -6.43 KCAL/MOL
REMARK 924 INTRA-LIGAND FREE ENERGY PREDICTED BY IDOCK:   -0.89 KCAL/MOL
REMARK 927      BINDING AFFINITY PREDICTED BY RF-SCORE:    0.00 PKD
ROOT
HETATM    1  C   UNL     1     -11.785  10.788  68.378  1.00  0.00    -0.232 C  
HETATM    2  C   UNL     1     -10.604  10.646  67.410  1.00  0.00    -0.256 C  
ENDROOT
BRANCH   2   3
HETATM    3  C   UNL     1     -10.632  11.708  66.288  1.00  0.00    -0.301 C  
BRANCH   3   4
HETATM    4  C   UNL     1     -10.124  13.053  66.724  1.00  0.00    -0.247 A  
HETATM    5  C   UNL     1      -8.841  13.170  67.269  1.00  0.00    -0.208 A  
HETATM    6  C   UNL     1     -10.048  17.681  67.459  1.00  0.00    -0.337 A  
HETATM    7  C   UNL     1     -10.909  14.193  66.607  1.00  0.00    -0.299 A  
HETATM    8  C   UNL     1     -10.373  15.408  67.011  1.00  0.00    -0.280 A  
HETATM    9  C   UNL     1      -8.289  14.417  67.655  1.00  0.00    -0.186 A  
HETATM   10  C   UNL     1      -9.074  15.569  67.546  1.00  0.00    -0.193 A  
HETATM   11  C   UNL     1     -11.102  16.709  66.941  1.00  0.00     0.187 A  
HETATM   12  N   UNL     1      -8.869  16.902  67.858  1.00  0.00    -0.214 NA 
BRANCH  12  13
HETATM   13  C   UNL     1      -7.691  17.600  68.336  1.00  0.00    -0.269 C  
BRANCH  13  14
HETATM   14  C   UNL     1      -8.061  18.866  69.113  1.00  0.00    -0.102 C  
BRANCH  14  15
HETATM   15  C   UNL     1      -6.855  19.612  69.666  1.00  0.00    -0.273 C  
HETATM   16  O   UNL     1      -5.662  18.933  69.269  1.00  0.00    -0.206 OA 
HETATM   17  H   UNL     1      -4.909  19.399  69.614  1.00  0.00     0.000 HD 
ENDBRANCH  14  15
ENDBRANCH  13  14
ENDBRANCH  12  13
BRANCH   9  18
HETATM   18  C   UNL     1      -6.902  14.317  68.180  1.00  0.00    -0.124 C  
HETATM   19  N   UNL     1      -6.001  15.236  67.691  1.00  0.00    -0.129 N  
HETATM   20  O   UNL     1      -6.522  13.451  68.959  1.00  0.00    -0.093 OA 
HETATM   21  H2  UNL     1      -6.270  15.944  67.008  1.00  0.00     0.000 HD 
HETATM   22  H1  UNL     1      -5.049  15.168  68.051  1.00  0.00     0.000 HD 
ENDBRANCH   9  18
ENDBRANCH   3   4
ENDBRANCH   2   3
BRANCH   2  23
HETATM   23  N   UNL     1     -10.616   9.278  66.861  1.00  0.00    -0.211 NA 
HETATM   24  H   UNL     1     -10.626   9.301  65.842  1.00  0.00     0.000 HD 
BRANCH  23  25
HETATM   25  C   UNL     1      -9.518   8.427  67.348  1.00  0.00    -0.147 C  
BRANCH  25  26
HETATM   26  C   UNL     1      -9.666   7.980  68.819  1.00  0.00    -0.156 C  
BRANCH  26  27
HETATM   27  O   UNL     1     -10.576   6.883  68.972  1.00  0.00    -0.199 OA 
BRANCH  27  28
HETATM   28  C   UNL     1     -10.898   6.514  70.253  1.00  0.00    -0.279 A  
HETATM   29  C   UNL     1     -10.334   5.207  72.214  1.00  0.00    -0.267 A  
HETATM   30  C   UNL     1     -12.101   6.871  70.886  1.00  0.00    -0.424 A  
HETATM   31  C   UNL     1     -10.009   5.671  70.940  1.00  0.00    -0.194 A  
HETATM   32  C   UNL     1     -11.539   5.562  72.825  1.00  0.00    -0.298 A  
HETATM   33  C   UNL     1     -12.425   6.396  72.152  1.00  0.00    -0.173 A  
BRANCH  31  34
HETATM   34  O   UNL     1      -8.855   5.132  70.433  1.00  0.00    -0.120 OA 
BRANCH  34  35
HETATM   35  C   UNL     1      -7.838   4.777  71.378  1.00  0.00    -0.096 C  
HETATM   36  C   UNL     1      -6.731   3.933  70.755  1.00  0.00    -0.032 C  
HETATM   37  F   UNL     1      -6.829   3.824  69.414  1.00  0.00    -0.038 F  
HETATM   38  F   UNL     1      -5.509   4.441  71.039  1.00  0.00    -0.006 F  
HETATM   39  F   UNL     1      -6.756   2.669  71.260  1.00  0.00    -0.027 F  
ENDBRANCH  34  35
ENDBRANCH  31  34
ENDBRANCH  27  28
ENDBRANCH  26  27
ENDBRANCH  25  26
ENDBRANCH  23  25
ENDBRANCH   2  23
TORSDOF 13
ENDMDL
MODEL      364
REMARK 921   NORMALIZED FREE ENERGY PREDICTED BY IDOCK:   -2.36 KCAL/MOL
REMARK 922        TOTAL FREE ENERGY PREDICTED BY IDOCK:   -7.31 KCAL/MOL
REMARK 923 INTER-LIGAND FREE ENERGY PREDICTED BY IDOCK:   -5.95 KCAL/MOL
REMARK 924 INTRA-LIGAND FREE ENERGY PREDICTED BY IDOCK:   -1.36 KCAL/MOL
REMARK 927      BINDING AFFINITY PREDICTED BY RF-SCORE:    0.00 PKD
ROOT
HETATM    1  C   UNL     1      -5.301  11.402  67.211  1.00  0.00    -0.064 C  
HETATM    2  C   UNL     1      -6.757  11.078  66.855  1.00  0.00    -0.120 C  
ENDROOT
BRANCH   2   3
HETATM    3  C   UNL     1      -7.746  11.528  67.954  1.00  0.00    -0.120 C  
BRANCH   3   4
HETATM    4  C   UNL     1      -7.936  13.016  68.017  1.00  0.00    -0.155 A  
HETATM    5  C   UNL     1      -9.086  13.595  67.471  1.00  0.00    -0.213 A  
HETATM    6  C   UNL     1      -7.073  17.504  69.055  1.00  0.00    -0.234 A  
HETATM    7  C   UNL     1      -6.984  13.840  68.602  1.00  0.00    -0.102 A  
HETATM    8  C   UNL     1      -7.229  15.207  68.645  1.00  0.00    -0.118 A  
HETATM    9  C   UNL     1      -9.345  14.987  67.542  1.00  0.00    -0.195 A  
HETATM   10  C   UNL     1      -8.388  15.826  68.123  1.00  0.00    -0.160 A  
HETATM   11  C   UNL     1      -6.295  16.206  69.242  1.00  0.00    -0.174 A  
HETATM   12  N   UNL     1      -8.304  17.194  68.317  1.00  0.00    -0.224 NA 
BRANCH  12  13
HETATM   13  C   UNL     1      -9.257  18.255  68.057  1.00  0.00    -0.290 C  
BRANCH  13  14
HETATM   14  C   UNL     1      -8.569  19.515  67.525  1.00  0.00    -0.348 C  
BRANCH  14  15
HETATM   15  C   UNL     1      -8.305  19.474  66.027  1.00  0.00    -0.249 C  
HETATM   16  O   UNL     1      -7.023  18.890  65.792  1.00  0.00    -0.260 OA 
HETATM   17  H   UNL     1      -6.858  18.864  64.857  1.00  0.00     0.000 HD 
ENDBRANCH  14  15
ENDBRANCH  13  14
ENDBRANCH  12  13
BRANCH   9  18
HETATM   18  C   UNL     1     -10.638  15.385  66.927  1.00  0.00    -0.309 C  
HETATM   19  N   UNL     1     -10.572  15.888  65.647  1.00  0.00    -0.366 N  
HETATM   20  O   UNL     1     -11.718  15.341  67.506  1.00  0.00    -0.291 OA 
HETATM   21  H2  UNL     1      -9.686  15.981  65.150  1.00  0.00     0.000 HD 
HETATM   22  H1  UNL     1     -11.460  16.161  65.225  1.00  0.00     0.000 HD 
ENDBRANCH   9  18
ENDBRANCH   3   4
ENDBRANCH   2   3
BRANCH   2  23
HETATM   23  N   UNL     1      -6.860   9.632  66.591  1.00  0.00    -0.083 NA 
HETATM   24  H   UNL     1      -5.973   9.169  66.790  1.00  0.00     0.000 HD 
BRANCH  23  25
HETATM   25  C   UNL     1      -7.962   8.968  67.306  1.00  0.00    -0.099 C  
BRANCH  25  26
HETATM   26  C   UNL     1      -7.505   7.910  68.333  1.00  0.00    -0.100 C  
BRANCH  26  27
HETATM   27  O   UNL     1      -8.274   6.702  68.259  1.00  0.00    -0.113 OA 
BRANCH  27  28
HETATM   28  C   UNL     1      -9.305   6.564  69.153  1.00  0.00    -0.133 A  
HETATM   29  C   UNL     1     -10.040   5.816  71.337  1.00  0.00    -0.249 A  
HETATM   30  C   UNL     1     -10.648   6.836  68.838  1.00  0.00    -0.257 A  
HETATM   31  C   UNL     1      -9.011   6.050  70.426  1.00  0.00    -0.149 A  
HETATM   32  C   UNL     1     -11.370   6.082  71.005  1.00  0.00    -0.299 A  
HETATM   33  C   UNL     1     -11.671   6.592  69.748  1.00  0.00    -0.293 A  
BRANCH  31  34
HETATM   34  O   UNL     1      -7.782   5.621  70.857  1.00  0.00    -0.091 OA 
BRANCH  34  35
HETATM   35  C   UNL     1      -7.409   4.281  70.513  1.00  0.00    -0.048 C  
HETATM   36  C   UNL     1      -5.969   4.184  70.019  1.00  0.00    -0.018 C  
HETATM   37  F   UNL     1      -5.275   5.333  70.159  1.00  0.00    -0.003 F  
HETATM   38  F   UNL     1      -5.292   3.212  70.673  1.00  0.00    -0.006 F  
HETATM   39  F   UNL     1      -5.940   3.860  68.698  1.00  0.00    -0.020 F  
ENDBRANCH  34  35
ENDBRANCH  31  34
ENDBRANCH  27  28
ENDBRANCH  26  27
ENDBRANCH  25  26
ENDBRANCH  23  25
ENDBRANCH   2  23
TORSDOF 13
ENDMDL
MODEL      365
REMARK 921   NORMALIZED FREE ENERGY PREDICTED BY IDOCK:   -2.31 KCAL/MOL
REMARK 922        TOTAL FREE ENERGY PREDICTED BY IDOCK:   -7.24 KCAL/MOL
REMARK 923 INTER-LIGAND FREE ENERGY PREDICTED BY IDOCK:   -5.99 KCAL/MOL
REMARK 924 INTRA-LIGAND FREE ENERGY PREDICTED BY IDOCK:   -1.25 KCAL/MOL
REMARK 927      BINDING AFFINITY PREDICTED BY RF-SCORE:    0.00 PKD
ROOT
HETATM    1  C   UNL     1      -7.553   7.869  64.743  1.00  0.00    -0.110 C  
HETATM    2  C   UNL     1      -6.843   9.074  65.373  1.00  0.00    -0.073 C  
ENDROOT
BRANCH   2   3
HETATM    3  C   UNL     1      -5.622   8.658  66.225  1.00  0.00    -0.039 C  
BRANCH   3   4
HETATM    4  C   UNL     1      -5.984   8.207  67.611  1.00  0.00    -0.047 A  
HETATM    5  C   UNL     1      -5.879   9.099  68.683  1.00  0.00    -0.041 A  
HETATM    6  C   UNL     1      -7.483   5.407  71.057  1.00  0.00    -0.088 A  
HETATM    7  C   UNL     1      -6.415   6.911  67.858  1.00  0.00    -0.050 A  
HETATM    8  C   UNL     1      -6.752   6.562  69.159  1.00  0.00    -0.049 A  
HETATM    9  C   UNL     1      -6.251   8.748  70.004  1.00  0.00    -0.037 A  
HETATM   10  C   UNL     1      -6.680   7.442  70.264  1.00  0.00    -0.047 A  
HETATM   11  C   UNL     1      -7.229   5.208  69.567  1.00  0.00    -0.057 A  
HETATM   12  N   UNL     1      -7.070   6.771  71.410  1.00  0.00    -0.074 NA 
BRANCH  12  13
HETATM   13  C   UNL     1      -7.264   7.236  72.769  1.00  0.00    -0.072 C  
BRANCH  13  14
HETATM   14  C   UNL     1      -8.738   7.530  73.062  1.00  0.00    -0.195 C  
BRANCH  14  15
HETATM   15  C   UNL     1      -9.464   8.200  71.904  1.00  0.00    -0.197 C  
HETATM   16  O   UNL     1     -10.643   8.838  72.397  1.00  0.00    -0.307 OA 
HETATM   17  H   UNL     1     -11.096   9.256  71.674  1.00  0.00     0.000 HD 
ENDBRANCH  14  15
ENDBRANCH  13  14
ENDBRANCH  12  13
BRANCH   9  18
HETATM   18  C   UNL     1      -6.091   9.855  70.983  1.00  0.00    -0.055 C  
HETATM   19  N   UNL     1      -5.329   9.575  72.095  1.00  0.00    -0.076 N  
HETATM   20  O   UNL     1      -6.632  10.950  70.879  1.00  0.00    -0.242 OA 
HETATM   21  H2  UNL     1      -4.900   8.661  72.239  1.00  0.00     0.000 HD 
HETATM   22  H1  UNL     1      -5.219  10.335  72.768  1.00  0.00     0.000 HD 
ENDBRANCH   9  18
ENDBRANCH   3   4
ENDBRANCH   2   3
BRANCH   2  23
HETATM   23  N   UNL     1      -7.827   9.829  66.169  1.00  0.00    -0.105 NA 
HETATM   24  H   UNL     1      -7.573  10.815  66.209  1.00  0.00     0.000 HD 
BRANCH  23  25
HETATM   25  C   UNL     1      -9.217   9.670  65.711  1.00  0.00    -0.210 C  
BRANCH  25  26
HETATM   26  C   UNL     1     -10.278  10.140  66.730  1.00  0.00    -0.228 C  
BRANCH  26  27
HETATM   27  O   UNL     1      -9.721  10.959  67.767  1.00  0.00    -0.164 OA 
BRANCH  27  28
HETATM   28  C   UNL     1     -10.585  11.424  68.726  1.00  0.00    -0.204 A  
HETATM   29  C   UNL     1     -11.826  13.296  69.634  1.00  0.00    -0.391 A  
HETATM   30  C   UNL     1     -11.004  10.661  69.830  1.00  0.00    -0.340 A  
HETATM   31  C   UNL     1     -11.012  12.759  68.637  1.00  0.00    -0.260 A  
HETATM   32  C   UNL     1     -12.225  12.528  70.731  1.00  0.00    -0.332 A  
HETATM   33  C   UNL     1     -11.807  11.206  70.826  1.00  0.00    -0.325 A  
BRANCH  31  34
HETATM   34  O   UNL     1     -10.608  13.673  67.700  1.00  0.00    -0.239 OA 
BRANCH  34  35
HETATM   35  C   UNL     1     -11.314  13.675  66.453  1.00  0.00    -0.316 C  
HETATM   36  C   UNL     1     -10.375  13.717  65.252  1.00  0.00    -0.348 C  
HETATM   37  F   UNL     1      -9.074  13.575  65.581  1.00  0.00     0.047 F  
HETATM   38  F   UNL     1     -10.682  12.749  64.357  1.00  0.00    -0.303 F  
HETATM   39  F   UNL     1     -10.493  14.904  64.598  1.00  0.00    -0.421 F  
ENDBRANCH  34  35
ENDBRANCH  31  34
ENDBRANCH  27  28
ENDBRANCH  26  27
ENDBRANCH  25  26
ENDBRANCH  23  25
ENDBRANCH   2  23
TORSDOF 13
ENDMDL
MODEL      366
REMARK 921   NORMALIZED FREE ENERGY PREDICTED BY IDOCK:   -2.16 KCAL/MOL
REMARK 922        TOTAL FREE ENERGY PREDICTED BY IDOCK:   -6.96 KCAL/MOL
REMARK 923 INTER-LIGAND FREE ENERGY PREDICTED BY IDOCK:   -6.93 KCAL/MOL
REMARK 924 INTRA-LIGAND FREE ENERGY PREDICTED BY IDOCK:   -0.03 KCAL/MOL
REMARK 927      BINDING AFFINITY PREDICTED BY RF-SCORE:    0.00 PKD
ROOT
HETATM    1  C   UNL     1      -7.713  13.417  69.270  1.00  0.00     0.385 C  
HETATM    2  C   UNL     1      -7.456  12.027  68.674  1.00  0.00    -0.113 C  
ENDROOT
BRANCH   2   3
HETATM    3  C   UNL     1      -7.160  12.082  67.158  1.00  0.00    -0.130 C  
BRANCH   3   4
HETATM    4  C   UNL     1      -6.928  10.731  66.543  1.00  0.00    -0.130 A  
HETATM    5  C   UNL     1      -7.432  10.451  65.268  1.00  0.00    -0.113 A  
HETATM    6  C   UNL     1      -5.354   6.343  66.071  1.00  0.00    -0.014 A  
HETATM    7  C   UNL     1      -6.228   9.742  67.219  1.00  0.00    -0.067 A  
HETATM    8  C   UNL     1      -6.033   8.521  66.587  1.00  0.00    -0.053 A  
HETATM    9  C   UNL     1      -7.206   9.214  64.616  1.00  0.00    -0.098 A  
HETATM   10  C   UNL     1      -6.507   8.208  65.293  1.00  0.00    -0.052 A  
HETATM   11  C   UNL     1      -5.300   7.371  67.195  1.00  0.00    -0.029 A  
HETATM   12  N   UNL     1      -6.154   6.908  64.976  1.00  0.00    -0.036 NA 
BRANCH  12  13
HETATM   13  C   UNL     1      -6.311   6.146  63.753  1.00  0.00    -0.029 C  
BRANCH  13  14
HETATM   14  C   UNL     1      -5.314   4.988  63.676  1.00  0.00    -0.010 C  
BRANCH  14  15
HETATM   15  C   UNL     1      -5.966   3.644  63.383  1.00  0.00    -0.014 C  
HETATM   16  O   UNL     1      -6.934   3.363  64.396  1.00  0.00    -0.050 OA 
HETATM   17  H   UNL     1      -7.341   2.524  64.213  1.00  0.00     0.000 HD 
ENDBRANCH  14  15
ENDBRANCH  13  14
ENDBRANCH  12  13
BRANCH   9  18
HETATM   18  C   UNL     1      -7.802   9.139  63.257  1.00  0.00    -0.130 C  
HETATM   19  N   UNL     1      -8.491   7.984  62.960  1.00  0.00    -0.403 N  
HETATM   20  O   UNL     1      -7.667  10.002  62.397  1.00  0.00    -0.117 OA 
HETATM   21  H2  UNL     1      -8.586   7.224  63.633  1.00  0.00     0.000 HD 
HETATM   22  H1  UNL     1      -8.900   7.932  62.026  1.00  0.00     0.000 HD 
ENDBRANCH   9  18
ENDBRANCH   3   4
ENDBRANCH   2   3
BRANCH   2  23
HETATM   23  N   UNL     1      -8.620  11.173  68.969  1.00  0.00    -0.352 NA 
HETATM   24  H   UNL     1      -8.787  11.131  69.974  1.00  0.00     0.000 HD 
BRANCH  23  25
HETATM   25  C   UNL     1      -9.847  11.565  68.256  1.00  0.00    -0.203 C  
BRANCH  25  26
HETATM   26  C   UNL     1     -11.077  11.755  69.170  1.00  0.00    -0.238 C  
BRANCH  26  27
HETATM   27  O   UNL     1     -11.575  13.099  69.150  1.00  0.00    -0.278 OA 
BRANCH  27  28
HETATM   28  C   UNL     1     -12.113  13.581  70.317  1.00  0.00    -0.355 A  
HETATM   29  C   UNL     1     -13.462  13.155  72.283  1.00  0.00    -0.665 A  
HETATM   30  C   UNL     1     -12.049  14.932  70.702  1.00  0.00    -0.366 A  
HETATM   31  C   UNL     1     -12.831  12.690  71.130  1.00  0.00    -0.220 A  
HETATM   32  C   UNL     1     -13.399  14.502  72.647  1.00  0.00    -0.588 A  
HETATM   33  C   UNL     1     -12.690  15.391  71.848  1.00  0.00    -0.462 A  
BRANCH  31  34
HETATM   34  O   UNL     1     -13.093  11.374  70.849  1.00  0.00    -0.189 OA 
BRANCH  34  35
HETATM   35  C   UNL     1     -12.647  10.407  71.807  1.00  0.00    -0.367 C  
HETATM   36  C   UNL     1     -13.468   9.122  71.765  1.00  0.00    -0.416 C  
HETATM   37  F   UNL     1     -14.336   9.073  70.733  1.00  0.00    -0.270 F  
HETATM   38  F   UNL     1     -12.668   8.033  71.683  1.00  0.00    -0.296 F  
HETATM   39  F   UNL     1     -14.197   8.986  72.906  1.00  0.00    -0.470 F  
ENDBRANCH  34  35
ENDBRANCH  31  34
ENDBRANCH  27  28
ENDBRANCH  26  27
ENDBRANCH  25  26
ENDBRANCH  23  25
ENDBRANCH   2  23
TORSDOF 13
ENDMDL
MODEL      367
REMARK 921   NORMALIZED FREE ENERGY PREDICTED BY IDOCK:   -1.75 KCAL/MOL
REMARK 922        TOTAL FREE ENERGY PREDICTED BY IDOCK:   -6.25 KCAL/MOL
REMARK 923 INTER-LIGAND FREE ENERGY PREDICTED BY IDOCK:   -5.38 KCAL/MOL
REMARK 924 INTRA-LIGAND FREE ENERGY PREDICTED BY IDOCK:   -0.87 KCAL/MOL
REMARK 927      BINDING AFFINITY PREDICTED BY RF-SCORE:    0.00 PKD
ROOT
HETATM    1  C   UNL     1     -11.830  10.764  68.335  1.00  0.00    -0.126 C  
HETATM    2  C   UNL     1     -10.693  10.642  67.313  1.00  0.00    -0.285 C  
ENDROOT
BRANCH   2   3
HETATM    3  C   UNL     1     -10.772  11.723  66.212  1.00  0.00    -0.312 C  
BRANCH   3   4
HETATM    4  C   UNL     1     -10.270  13.068  66.655  1.00  0.00    -0.257 A  
HETATM    5  C   UNL     1      -8.955  13.204  67.112  1.00  0.00    -0.228 A  
HETATM    6  C   UNL     1     -10.261  17.671  67.536  1.00  0.00    -0.348 A  
HETATM    7  C   UNL     1     -11.090  14.187  66.632  1.00  0.00    -0.314 A  
HETATM    8  C   UNL     1     -10.559  15.405  67.037  1.00  0.00    -0.309 A  
HETATM    9  C   UNL     1      -8.409  14.453  67.497  1.00  0.00    -0.198 A  
HETATM   10  C   UNL     1      -9.230  15.586  67.484  1.00  0.00    -0.198 A  
HETATM   11  C   UNL     1     -11.325  16.685  67.062  1.00  0.00     0.464 A  
HETATM   12  N   UNL     1      -9.037  16.913  67.824  1.00  0.00    -0.227 NA 
BRANCH  12  13
HETATM   13  C   UNL     1      -7.847  17.629  68.239  1.00  0.00    -0.256 C  
BRANCH  13  14
HETATM   14  C   UNL     1      -8.192  18.860  69.081  1.00  0.00    -0.081 C  
BRANCH  14  15
HETATM   15  C   UNL     1      -6.970  19.626  69.567  1.00  0.00    -0.279 C  
HETATM   16  O   UNL     1      -5.791  18.995  69.062  1.00  0.00    -0.208 OA 
HETATM   17  H   UNL     1      -5.028  19.473  69.365  1.00  0.00     0.000 HD 
ENDBRANCH  14  15
ENDBRANCH  13  14
ENDBRANCH  12  13
BRANCH   9  18
HETATM   18  C   UNL     1      -6.985  14.377  67.919  1.00  0.00    -0.163 C  
HETATM   19  N   UNL     1      -6.144  15.330  67.390  1.00  0.00    -0.028 N  
HETATM   20  O   UNL     1      -6.529  13.502  68.647  1.00  0.00    -0.081 OA 
HETATM   21  H2  UNL     1      -6.478  16.046  66.746  1.00  0.00     0.000 HD 
HETATM   22  H1  UNL     1      -5.167  15.277  67.679  1.00  0.00     0.000 HD 
ENDBRANCH   9  18
ENDBRANCH   3   4
ENDBRANCH   2   3
BRANCH   2  23
HETATM   23  N   UNL     1     -10.725   9.283  66.743  1.00  0.00    -0.125 NA 
HETATM   24  H   UNL     1     -10.655   9.321  65.726  1.00  0.00     0.000 HD 
BRANCH  23  25
HETATM   25  C   UNL     1      -9.709   8.374  67.299  1.00  0.00    -0.184 C  
BRANCH  25  26
HETATM   26  C   UNL     1      -8.339   9.037  67.555  1.00  0.00    -0.116 C  
BRANCH  26  27
HETATM   27  O   UNL     1      -8.303   9.772  68.786  1.00  0.00    -0.106 OA 
BRANCH  27  28
HETATM   28  C   UNL     1      -7.569   9.233  69.812  1.00  0.00    -0.082 A  
HETATM   29  C   UNL     1      -7.474   7.685  71.673  1.00  0.00    -0.076 A  
HETATM   30  C   UNL     1      -6.301   9.706  70.192  1.00  0.00    -0.069 A  
HETATM   31  C   UNL     1      -8.151   8.205  70.571  1.00  0.00    -0.104 A  
HETATM   32  C   UNL     1      -6.219   8.172  72.044  1.00  0.00    -0.049 A  
HETATM   33  C   UNL     1      -5.635   9.190  71.298  1.00  0.00    -0.051 A  
BRANCH  31  34
HETATM   34  O   UNL     1      -9.420   7.708  70.416  1.00  0.00    -0.164 OA 
BRANCH  34  35
HETATM   35  C   UNL     1      -9.647   6.366  70.864  1.00  0.00    -0.175 C  
HETATM   36  C   UNL     1     -11.129   6.011  70.915  1.00  0.00    -0.284 C  
HETATM   37  F   UNL     1     -11.927   6.956  70.374  1.00  0.00    -0.373 F  
HETATM   38  F   UNL     1     -11.375   4.846  70.271  1.00  0.00     0.328 F  
HETATM   39  F   UNL     1     -11.533   5.838  72.202  1.00  0.00    -0.312 F  
ENDBRANCH  34  35
ENDBRANCH  31  34
ENDBRANCH  27  28
ENDBRANCH  26  27
ENDBRANCH  25  26
ENDBRANCH  23  25
ENDBRANCH   2  23
TORSDOF 13
ENDMDL
MODEL      368
REMARK 921   NORMALIZED FREE ENERGY PREDICTED BY IDOCK:   -1.57 KCAL/MOL
REMARK 922        TOTAL FREE ENERGY PREDICTED BY IDOCK:   -5.94 KCAL/MOL
REMARK 923 INTER-LIGAND FREE ENERGY PREDICTED BY IDOCK:   -5.00 KCAL/MOL
REMARK 924 INTRA-LIGAND FREE ENERGY PREDICTED BY IDOCK:   -0.94 KCAL/MOL
REMARK 927      BINDING AFFINITY PREDICTED BY RF-SCORE:    0.00 PKD
ROOT
HETATM    1  C   UNL     1      -9.730   4.053  68.397  1.00  0.00    -0.135 C  
HETATM    2  C   UNL     1      -9.314   5.529  68.365  1.00  0.00    -0.111 C  
ENDROOT
BRANCH   2   3
HETATM    3  C   UNL     1      -7.948   5.741  67.674  1.00  0.00    -0.102 C  
BRANCH   3   4
HETATM    4  C   UNL     1      -7.529   7.182  67.604  1.00  0.00    -0.101 A  
HETATM    5  C   UNL     1      -7.952   7.979  66.534  1.00  0.00    -0.102 A  
HETATM    6  C   UNL     1      -5.526  11.231  68.854  1.00  0.00    -0.039 A  
HETATM    7  C   UNL     1      -6.717   7.746  68.578  1.00  0.00    -0.058 A  
HETATM    8  C   UNL     1      -6.382   9.088  68.464  1.00  0.00    -0.054 A  
HETATM    9  C   UNL     1      -7.631   9.355  66.437  1.00  0.00    -0.097 A  
HETATM   10  C   UNL     1      -6.808   9.930  67.411  1.00  0.00    -0.082 A  
HETATM   11  C   UNL     1      -5.520   9.822  69.437  1.00  0.00    -0.034 A  
HETATM   12  N   UNL     1      -6.282  11.197  67.595  1.00  0.00    -0.051 NA 
BRANCH  12  13
HETATM   13  C   UNL     1      -6.488  12.432  66.864  1.00  0.00     0.164 C  
BRANCH  13  14
HETATM   14  C   UNL     1      -7.807  13.106  67.252  1.00  0.00    -0.125 C  
BRANCH  14  15
HETATM   15  C   UNL     1      -8.739  12.200  68.045  1.00  0.00    -0.180 C  
HETATM   16  O   UNL     1     -10.076  12.692  67.932  1.00  0.00    -0.210 OA 
HETATM   17  H   UNL     1     -10.658  12.126  68.427  1.00  0.00     0.000 HD 
ENDBRANCH  14  15
ENDBRANCH  13  14
ENDBRANCH  12  13
BRANCH   9  18
HETATM   18  C   UNL     1      -8.208  10.019  65.239  1.00  0.00    -0.148 C  
HETATM   19  N   UNL     1      -9.498  10.484  65.364  1.00  0.00    -0.205 N  
HETATM   20  O   UNL     1      -7.630  10.119  64.162  1.00  0.00    -0.143 OA 
HETATM   21  H2  UNL     1     -10.027  10.378  66.230  1.00  0.00     0.000 HD 
HETATM   22  H1  UNL     1      -9.894  10.939  64.542  1.00  0.00     0.000 HD 
ENDBRANCH   9  18
ENDBRANCH   3   4
ENDBRANCH   2   3
BRANCH   2  23
HETATM   23  N   UNL     1      -9.307   6.039  69.748  1.00  0.00    -0.148 NA 
HETATM   24  H   UNL     1      -9.818   6.919  69.807  1.00  0.00     0.000 HD 
BRANCH  23  25
HETATM   25  C   UNL     1      -9.811   5.079  70.744  1.00  0.00    -0.208 C  
BRANCH  25  26
HETATM   26  C   UNL     1     -11.328   5.183  71.012  1.00  0.00     0.749 C  
BRANCH  26  27
HETATM   27  O   UNL     1     -11.633   6.028  72.129  1.00  0.00    -0.300 OA 
BRANCH  27  28
HETATM   28  C   UNL     1     -12.172   7.258  71.851  1.00  0.00    -0.313 A  
HETATM   29  C   UNL     1     -11.814   9.637  71.561  1.00  0.00    -0.483 A  
HETATM   30  C   UNL     1     -13.553   7.491  71.725  1.00  0.00    -0.397 A  
HETATM   31  C   UNL     1     -11.301   8.356  71.762  1.00  0.00    -0.300 A  
HETATM   32  C   UNL     1     -13.189   9.853  71.448  1.00  0.00    -0.487 A  
HETATM   33  C   UNL     1     -14.059   8.772  71.534  1.00  0.00    -0.383 A  
BRANCH  31  34
HETATM   34  O   UNL     1      -9.948   8.330  71.976  1.00  0.00    -0.208 OA 
BRANCH  34  35
HETATM   35  C   UNL     1      -9.508   7.940  73.283  1.00  0.00    -0.285 C  
HETATM   36  C   UNL     1      -8.307   7.001  73.240  1.00  0.00    -0.119 C  
HETATM   37  F   UNL     1      -7.785   6.853  72.004  1.00  0.00    -0.090 F  
HETATM   38  F   UNL     1      -7.317   7.435  74.055  1.00  0.00    -0.098 F  
HETATM   39  F   UNL     1      -8.656   5.761  73.676  1.00  0.00    -0.119 F  
ENDBRANCH  34  35
ENDBRANCH  31  34
ENDBRANCH  27  28
ENDBRANCH  26  27
ENDBRANCH  25  26
ENDBRANCH  23  25
ENDBRANCH   2  23
TORSDOF 13
ENDMDL
MODEL      369
REMARK 921   NORMALIZED FREE ENERGY PREDICTED BY IDOCK:   -1.52 KCAL/MOL
REMARK 922        TOTAL FREE ENERGY PREDICTED BY IDOCK:   -5.84 KCAL/MOL
REMARK 923 INTER-LIGAND FREE ENERGY PREDICTED BY IDOCK:   -5.74 KCAL/MOL
REMARK 924 INTRA-LIGAND FREE ENERGY PREDICTED BY IDOCK:   -0.11 KCAL/MOL
REMARK 927      BINDING AFFINITY PREDICTED BY RF-SCORE:    0.00 PKD
ROOT
HETATM    1  C   UNL     1      -9.568  10.945  65.864  1.00  0.00    -0.257 C  
HETATM    2  C   UNL     1      -8.076  11.299  65.822  1.00  0.00     0.111 C  
ENDROOT
BRANCH   2   3
HETATM    3  C   UNL     1      -7.199  10.240  66.527  1.00  0.00    -0.109 C  
BRANCH   3   4
HETATM    4  C   UNL     1      -7.838   9.653  67.753  1.00  0.00    -0.094 A  
HETATM    5  C   UNL     1      -7.162   8.675  68.490  1.00  0.00    -0.081 A  
HETATM    6  C   UNL     1     -10.998   8.961  71.144  1.00  0.00    -0.286 A  
HETATM    7  C   UNL     1      -9.099  10.055  68.172  1.00  0.00    -0.121 A  
HETATM    8  C   UNL     1      -9.625   9.487  69.325  1.00  0.00    -0.179 A  
HETATM    9  C   UNL     1      -7.691   8.119  69.681  1.00  0.00    -0.101 A  
HETATM   10  C   UNL     1      -8.964   8.513  70.107  1.00  0.00    -0.147 A  
HETATM   11  C   UNL     1     -10.965   9.826  69.888  1.00  0.00    -0.299 A  
HETATM   12  N   UNL     1      -9.772   8.152  71.171  1.00  0.00    -0.159 NA 
BRANCH  12  13
HETATM   13  C   UNL     1      -9.530   7.279  72.302  1.00  0.00    -0.142 C  
BRANCH  13  14
HETATM   14  C   UNL     1     -10.647   6.246  72.468  1.00  0.00    -0.239 C  
BRANCH  14  15
HETATM   15  C   UNL     1     -10.867   5.386  71.232  1.00  0.00    -0.131 C  
HETATM   16  O   UNL     1      -9.599   5.032  70.676  1.00  0.00    -0.161 OA 
HETATM   17  H   UNL     1      -9.737   4.495  69.904  1.00  0.00     0.000 HD 
ENDBRANCH  14  15
ENDBRANCH  13  14
ENDBRANCH  12  13
BRANCH   9  18
HETATM   18  C   UNL     1      -6.795   7.120  70.321  1.00  0.00    -0.056 C  
HETATM   19  N   UNL     1      -7.121   5.797  70.122  1.00  0.00    -0.065 N  
HETATM   20  O   UNL     1      -5.846   7.408  71.041  1.00  0.00    -0.034 OA 
HETATM   21  H2  UNL     1      -7.930   5.519  69.567  1.00  0.00     0.000 HD 
HETATM   22  H1  UNL     1      -6.507   5.111  70.561  1.00  0.00     0.000 HD 
ENDBRANCH   9  18
ENDBRANCH   3   4
ENDBRANCH   2   3
BRANCH   2  23
HETATM   23  N   UNL     1      -7.898  12.635  66.419  1.00  0.00    -0.061 NA 
HETATM   24  H   UNL     1      -7.329  13.225  65.813  1.00  0.00     0.000 HD 
BRANCH  23  25
HETATM   25  C   UNL     1      -9.160  13.311  66.763  1.00  0.00    -0.210 C  
BRANCH  25  26
HETATM   26  C   UNL     1      -9.184  14.818  66.428  1.00  0.00    -0.269 C  
BRANCH  26  27
HETATM   27  O   UNL     1      -7.874  15.349  66.185  1.00  0.00     0.397 OA 
BRANCH  27  28
HETATM   28  C   UNL     1      -7.490  16.429  66.937  1.00  0.00    -0.234 A  
HETATM   29  C   UNL     1      -7.664  18.811  67.345  1.00  0.00    -0.240 A  
HETATM   30  C   UNL     1      -6.482  16.375  67.916  1.00  0.00    -0.150 A  
HETATM   31  C   UNL     1      -8.083  17.671  66.660  1.00  0.00    -0.254 A  
HETATM   32  C   UNL     1      -6.654  18.743  68.307  1.00  0.00    -0.240 A  
HETATM   33  C   UNL     1      -6.061  17.517  68.588  1.00  0.00    -0.174 A  
BRANCH  31  34
HETATM   34  O   UNL     1      -8.990  17.927  65.664  1.00  0.00    -0.331 OA 
BRANCH  34  35
HETATM   35  C   UNL     1     -10.296  18.350  66.072  1.00  0.00    -0.375 C  
HETATM   36  C   UNL     1     -10.496  19.854  65.921  1.00  0.00    -0.461 C  
HETATM   37  F   UNL     1      -9.481  20.470  65.279  1.00  0.00    -0.114 F  
HETATM   38  F   UNL     1     -11.637  20.130  65.245  1.00  0.00     0.013 F  
HETATM   39  F   UNL     1     -10.613  20.445  67.141  1.00  0.00    -0.483 F  
ENDBRANCH  34  35
ENDBRANCH  31  34
ENDBRANCH  27  28
ENDBRANCH  26  27
ENDBRANCH  25  26
ENDBRANCH  23  25
ENDBRANCH   2  23
TORSDOF 13
ENDMDL
MODEL      370
REMARK 921   NORMALIZED FREE ENERGY PREDICTED BY IDOCK:   -1.49 KCAL/MOL
REMARK 922        TOTAL FREE ENERGY PREDICTED BY IDOCK:   -5.79 KCAL/MOL
REMARK 923 INTER-LIGAND FREE ENERGY PREDICTED BY IDOCK:   -6.12 KCAL/MOL
REMARK 924 INTRA-LIGAND FREE ENERGY PREDICTED BY IDOCK:    0.33 KCAL/MOL
REMARK 927      BINDING AFFINITY PREDICTED BY RF-SCORE:    0.00 PKD
ROOT
HETATM    1  C   UNL     1      -6.414   9.082  67.503  1.00  0.00    -0.064 C  
HETATM    2  C   UNL     1      -6.298   9.973  68.747  1.00  0.00    -0.041 C  
ENDROOT
BRANCH   2   3
HETATM    3  C   UNL     1      -5.588   9.258  69.919  1.00  0.00    -0.032 C  
BRANCH   3   4
HETATM    4  C   UNL     1      -6.206   7.937  70.278  1.00  0.00    -0.033 A  
HETATM    5  C   UNL     1      -6.240   7.525  71.615  1.00  0.00    -0.036 A  
HETATM    6  C   UNL     1      -8.425   3.844  69.739  1.00  0.00    -0.060 A  
HETATM    7  C   UNL     1      -6.743   7.103  69.307  1.00  0.00    -0.049 A  
HETATM    8  C   UNL     1      -7.317   5.904  69.708  1.00  0.00    -0.075 A  
HETATM    9  C   UNL     1      -6.852   6.314  72.023  1.00  0.00    -0.072 A  
HETATM   10  C   UNL     1      -7.389   5.464  71.050  1.00  0.00    -0.083 A  
HETATM   11  C   UNL     1      -7.929   4.915  68.773  1.00  0.00    -0.080 A  
HETATM   12  N   UNL     1      -8.006   4.226  71.094  1.00  0.00    -0.071 NA 
BRANCH  12  13
HETATM   13  C   UNL     1      -8.405   3.397  72.214  1.00  0.00    -0.079 C  
BRANCH  13  14
HETATM   14  C   UNL     1      -9.745   2.704  71.956  1.00  0.00    -0.216 C  
BRANCH  14  15
HETATM   15  C   UNL     1     -10.840   3.121  72.927  1.00  0.00    -0.024 C  
HETATM   16  O   UNL     1     -10.244   3.740  74.068  1.00  0.00    -0.134 OA 
HETATM   17  H   UNL     1     -10.928   4.000  74.674  1.00  0.00     0.000 HD 
ENDBRANCH  14  15
ENDBRANCH  13  14
ENDBRANCH  12  13
BRANCH   9  18
HETATM   18  C   UNL     1      -6.802   6.085  73.490  1.00  0.00    -0.080 C  
HETATM   19  N   UNL     1      -5.551   6.102  74.065  1.00  0.00    -0.051 N  
HETATM   20  O   UNL     1      -7.783   5.835  74.182  1.00  0.00    -0.095 OA 
HETATM   21  H2  UNL     1      -4.707   6.261  73.515  1.00  0.00     0.000 HD 
HETATM   22  H1  UNL     1      -5.516   5.945  75.073  1.00  0.00     0.000 HD 
ENDBRANCH   9  18
ENDBRANCH   3   4
ENDBRANCH   2   3
BRANCH   2  23
HETATM   23  N   UNL     1      -7.651  10.420  69.125  1.00  0.00    -0.105 NA 
HETATM   24  H   UNL     1      -7.677  11.435  69.223  1.00  0.00     0.000 HD 
BRANCH  23  25
HETATM   25  C   UNL     1      -8.711   9.961  68.213  1.00  0.00    -0.119 C  
BRANCH  25  26
HETATM   26  C   UNL     1     -10.109   9.868  68.863  1.00  0.00    -0.184 C  
BRANCH  26  27
HETATM   27  O   UNL     1     -10.899  11.044  68.642  1.00  0.00    -0.186 OA 
BRANCH  27  28
HETATM   28  C   UNL     1     -11.715  11.448  69.667  1.00  0.00    -0.345 A  
HETATM   29  C   UNL     1     -12.705  13.284  70.899  1.00  0.00    -0.332 A  
HETATM   30  C   UNL     1     -12.268  10.567  70.613  1.00  0.00    -0.446 A  
HETATM   31  C   UNL     1     -11.947  12.824  69.823  1.00  0.00    -0.292 A  
HETATM   32  C   UNL     1     -13.239  12.397  71.837  1.00  0.00    -0.486 A  
HETATM   33  C   UNL     1     -13.014  11.034  71.690  1.00  0.00    -0.561 A  
BRANCH  31  34
HETATM   34  O   UNL     1     -11.393  13.825  69.068  1.00  0.00    -0.258 OA 
BRANCH  34  35
HETATM   35  C   UNL     1     -10.335  13.452  68.177  1.00  0.00    -0.247 C  
HETATM   36  C   UNL     1     -10.624  13.841  66.731  1.00  0.00    -0.273 C  
HETATM   37  F   UNL     1     -11.729  14.605  66.591  1.00  0.00    -0.353 F  
HETATM   38  F   UNL     1      -9.585  14.517  66.189  1.00  0.00    -0.281 F  
HETATM   39  F   UNL     1     -10.809  12.730  65.967  1.00  0.00    -0.278 F  
ENDBRANCH  34  35
ENDBRANCH  31  34
ENDBRANCH  27  28
ENDBRANCH  26  27
ENDBRANCH  25  26
ENDBRANCH  23  25
ENDBRANCH   2  23
TORSDOF 13
ENDMDL
MODEL      371
REMARK 921   NORMALIZED FREE ENERGY PREDICTED BY IDOCK:   -1.39 KCAL/MOL
REMARK 922        TOTAL FREE ENERGY PREDICTED BY IDOCK:   -5.61 KCAL/MOL
REMARK 923 INTER-LIGAND FREE ENERGY PREDICTED BY IDOCK:   -5.42 KCAL/MOL
REMARK 924 INTRA-LIGAND FREE ENERGY PREDICTED BY IDOCK:   -0.18 KCAL/MOL
REMARK 927      BINDING AFFINITY PREDICTED BY RF-SCORE:    0.00 PKD
ROOT
HETATM    1  C   UNL     1      -7.497   8.444  64.814  1.00  0.00    -0.096 C  
HETATM    2  C   UNL     1      -6.986   9.776  65.377  1.00  0.00    -0.105 C  
ENDROOT
BRANCH   2   3
HETATM    3  C   UNL     1      -5.641   9.623  66.122  1.00  0.00    -0.052 C  
BRANCH   3   4
HETATM    4  C   UNL     1      -5.736   8.785  67.365  1.00  0.00    -0.039 A  
HETATM    5  C   UNL     1      -5.927   9.401  68.607  1.00  0.00    -0.044 A  
HETATM    6  C   UNL     1      -5.890   4.964  70.074  1.00  0.00    -0.017 A  
HETATM    7  C   UNL     1      -5.630   7.402  67.313  1.00  0.00    -0.030 A  
HETATM    8  C   UNL     1      -5.745   6.685  68.496  1.00  0.00    -0.017 A  
HETATM    9  C   UNL     1      -6.073   8.663  69.808  1.00  0.00    -0.035 A  
HETATM   10  C   UNL     1      -5.960   7.269  69.765  1.00  0.00    -0.024 A  
HETATM   11  C   UNL     1      -5.652   5.198  68.586  1.00  0.00    -0.015 A  
HETATM   12  N   UNL     1      -6.010   6.274  70.726  1.00  0.00    -0.029 NA 
BRANCH  12  13
HETATM   13  C   UNL     1      -6.300   6.331  72.145  1.00  0.00    -0.050 C  
BRANCH  13  14
HETATM   14  C   UNL     1      -7.731   5.879  72.449  1.00  0.00    -0.102 C  
BRANCH  14  15
HETATM   15  C   UNL     1      -8.665   5.982  71.252  1.00  0.00    -0.136 C  
HETATM   16  O   UNL     1     -10.018   5.965  71.711  1.00  0.00    -0.163 OA 
HETATM   17  H   UNL     1     -10.601   6.030  70.963  1.00  0.00     0.000 HD 
ENDBRANCH  14  15
ENDBRANCH  13  14
ENDBRANCH  12  13
BRANCH   9  18
HETATM   18  C   UNL     1      -6.297   9.513  71.006  1.00  0.00    -0.077 C  
HETATM   19  N   UNL     1      -6.201   8.880  72.225  1.00  0.00    -0.064 N  
HETATM   20  O   UNL     1      -6.609  10.697  70.961  1.00  0.00    -0.289 OA 
HETATM   21  H2  UNL     1      -5.988   7.886  72.301  1.00  0.00     0.000 HD 
HETATM   22  H1  UNL     1      -6.356   9.463  73.048  1.00  0.00     0.000 HD 
ENDBRANCH   9  18
ENDBRANCH   3   4
ENDBRANCH   2   3
BRANCH   2  23
HETATM   23  N   UNL     1      -8.029  10.341  66.252  1.00  0.00    -0.119 NA 
HETATM   24  H   UNL     1      -7.773  11.280  66.554  1.00  0.00     0.000 HD 
BRANCH  23  25
HETATM   25  C   UNL     1      -9.376  10.338  65.659  1.00  0.00    -0.192 C  
BRANCH  25  26
HETATM   26  C   UNL     1     -10.524  10.378  66.691  1.00  0.00    -0.215 C  
BRANCH  26  27
HETATM   27  O   UNL     1     -10.083  10.801  67.989  1.00  0.00    -0.169 OA 
BRANCH  27  28
HETATM   28  C   UNL     1     -10.957  10.626  69.031  1.00  0.00    -0.248 A  
HETATM   29  C   UNL     1     -12.372  11.644  70.714  1.00  0.00    -0.454 A  
HETATM   30  C   UNL     1     -11.240   9.375  69.606  1.00  0.00    -0.100 A  
HETATM   31  C   UNL     1     -11.541  11.769  69.602  1.00  0.00    -0.323 A  
HETATM   32  C   UNL     1     -12.635  10.395  71.281  1.00  0.00    -0.525 A  
HETATM   33  C   UNL     1     -12.062   9.258  70.722  1.00  0.00    -0.231 A  
BRANCH  31  34
HETATM   34  O   UNL     1     -11.284  13.067  69.246  1.00  0.00    -0.250 OA 
BRANCH  34  35
HETATM   35  C   UNL     1     -11.232  14.029  70.307  1.00  0.00     0.119 C  
HETATM   36  C   UNL     1     -11.509  15.449  69.822  1.00  0.00    -0.324 C  
HETATM   37  F   UNL     1     -11.913  15.508  68.536  1.00  0.00    -0.356 F  
HETATM   38  F   UNL     1     -12.457  16.048  70.579  1.00  0.00    -0.401 F  
HETATM   39  F   UNL     1     -10.388  16.213  69.923  1.00  0.00    -0.257 F  
ENDBRANCH  34  35
ENDBRANCH  31  34
ENDBRANCH  27  28
ENDBRANCH  26  27
ENDBRANCH  25  26
ENDBRANCH  23  25
ENDBRANCH   2  23
TORSDOF 13
ENDMDL
MODEL      372
REMARK 921   NORMALIZED FREE ENERGY PREDICTED BY IDOCK:   -1.31 KCAL/MOL
REMARK 922        TOTAL FREE ENERGY PREDICTED BY IDOCK:   -5.47 KCAL/MOL
REMARK 923 INTER-LIGAND FREE ENERGY PREDICTED BY IDOCK:   -5.47 KCAL/MOL
REMARK 924 INTRA-LIGAND FREE ENERGY PREDICTED BY IDOCK:    0.00 KCAL/MOL
REMARK 927      BINDING AFFINITY PREDICTED BY RF-SCORE:    0.00 PKD
ROOT
HETATM    1  C   UNL     1     -12.714  13.992  69.217  1.00  0.00     0.424 C  
HETATM    2  C   UNL     1     -11.261  13.503  69.249  1.00  0.00    -0.231 C  
ENDROOT
BRANCH   2   3
HETATM    3  C   UNL     1     -11.151  12.010  69.634  1.00  0.00    -0.074 C  
BRANCH   3   4
HETATM    4  C   UNL     1     -10.020  11.296  68.949  1.00  0.00    -0.169 A  
HETATM    5  C   UNL     1     -10.293  10.360  67.946  1.00  0.00    -0.227 A  
HETATM    6  C   UNL     1      -5.628  10.097  67.838  1.00  0.00    -0.038 A  
HETATM    7  C   UNL     1      -8.698  11.539  69.298  1.00  0.00     0.411 A  
HETATM    8  C   UNL     1      -7.699  10.860  68.613  1.00  0.00    -0.122 A  
HETATM    9  C   UNL     1      -9.268   9.690  67.231  1.00  0.00    -0.154 A  
HETATM   10  C   UNL     1      -7.934   9.924  67.580  1.00  0.00    -0.109 A  
HETATM   11  C   UNL     1      -6.240  11.023  68.883  1.00  0.00    -0.042 A  
HETATM   12  N   UNL     1      -6.724   9.425  67.129  1.00  0.00    -0.075 NA 
BRANCH  12  13
HETATM   13  C   UNL     1      -6.410   8.526  66.036  1.00  0.00    -0.053 C  
BRANCH  13  14
HETATM   14  C   UNL     1      -6.339   7.070  66.504  1.00  0.00    -0.050 C  
BRANCH  14  15
HETATM   15  C   UNL     1      -6.164   6.075  65.365  1.00  0.00    -0.037 C  
HETATM   16  O   UNL     1      -7.416   5.899  64.700  1.00  0.00    -0.069 OA 
HETATM   17  H   UNL     1      -7.307   5.278  63.989  1.00  0.00     0.000 HD 
ENDBRANCH  14  15
ENDBRANCH  13  14
ENDBRANCH  12  13
BRANCH   9  18
HETATM   18  C   UNL     1      -9.778   8.762  66.189  1.00  0.00    -0.250 C  
HETATM   19  N   UNL     1      -9.866   7.436  66.547  1.00  0.00    -0.382 N  
HETATM   20  O   UNL     1     -10.062   9.101  65.045  1.00  0.00     0.405 OA 
HETATM   21  H2  UNL     1      -9.596   7.109  67.475  1.00  0.00     0.000 HD 
HETATM   22  H1  UNL     1     -10.216   6.798  65.831  1.00  0.00     0.000 HD 
ENDBRANCH   9  18
ENDBRANCH   3   4
ENDBRANCH   2   3
BRANCH   2  23
HETATM   23  N   UNL     1     -10.502  14.359  70.178  1.00  0.00    -0.269 NA 
HETATM   24  H   UNL     1     -10.189  13.821  70.985  1.00  0.00     0.000 HD 
BRANCH  23  25
HETATM   25  C   UNL     1      -9.370  15.064  69.555  1.00  0.00    -0.062 C  
BRANCH  25  26
HETATM   26  C   UNL     1      -9.509  15.265  68.030  1.00  0.00    -0.198 C  
BRANCH  26  27
HETATM   27  O   UNL     1      -8.627  16.276  67.525  1.00  0.00    -0.173 OA 
BRANCH  27  28
HETATM   28  C   UNL     1      -9.165  17.519  67.305  1.00  0.00    -0.240 A  
HETATM   29  C   UNL     1      -9.055  19.618  66.101  1.00  0.00    -0.380 A  
HETATM   30  C   UNL     1     -10.205  18.063  68.080  1.00  0.00    -0.390 A  
HETATM   31  C   UNL     1      -8.593  18.318  66.303  1.00  0.00    -0.184 A  
HETATM   32  C   UNL     1     -10.082  20.148  66.885  1.00  0.00    -0.592 A  
HETATM   33  C   UNL     1     -10.654  19.364  67.880  1.00  0.00    -0.501 A  
BRANCH  31  34
HETATM   34  O   UNL     1      -7.501  17.995  65.539  1.00  0.00    -0.538 OA 
BRANCH  34  35
HETATM   35  C   UNL     1      -6.253  18.593  65.910  1.00  0.00    -0.216 C  
HETATM   36  C   UNL     1      -6.130  20.034  65.425  1.00  0.00    -0.214 C  
HETATM   37  F   UNL     1      -7.271  20.522  64.895  1.00  0.00    -0.309 F  
HETATM   38  F   UNL     1      -5.758  20.858  66.432  1.00  0.00    -0.198 F  
HETATM   39  F   UNL     1      -5.171  20.132  64.465  1.00  0.00    -0.164 F  
ENDBRANCH  34  35
ENDBRANCH  31  34
ENDBRANCH  27  28
ENDBRANCH  26  27
ENDBRANCH  25  26
ENDBRANCH  23  25
ENDBRANCH   2  23
TORSDOF 13
ENDMDL
MODEL      373
REMARK 921   NORMALIZED FREE ENERGY PREDICTED BY IDOCK:   -1.14 KCAL/MOL
REMARK 922        TOTAL FREE ENERGY PREDICTED BY IDOCK:   -5.17 KCAL/MOL
REMARK 923 INTER-LIGAND FREE ENERGY PREDICTED BY IDOCK:   -5.09 KCAL/MOL
REMARK 924 INTRA-LIGAND FREE ENERGY PREDICTED BY IDOCK:   -0.08 KCAL/MOL
REMARK 927      BINDING AFFINITY PREDICTED BY RF-SCORE:    0.00 PKD
ROOT
HETATM    1  C   UNL     1      -8.005  15.170  67.997  1.00  0.00    -0.136 C  
HETATM    2  C   UNL     1      -6.623  14.522  68.141  1.00  0.00    -0.136 C  
ENDROOT
BRANCH   2   3
HETATM    3  C   UNL     1      -6.612  13.384  69.187  1.00  0.00    -0.106 C  
BRANCH   3   4
HETATM    4  C   UNL     1      -6.916  12.033  68.605  1.00  0.00    -0.096 A  
HETATM    5  C   UNL     1      -7.080  10.931  69.452  1.00  0.00    -0.131 A  
HETATM    6  C   UNL     1      -7.843   8.754  65.388  1.00  0.00    -0.100 A  
HETATM    7  C   UNL     1      -7.029  11.847  67.234  1.00  0.00    -0.145 A  
HETATM    8  C   UNL     1      -7.330  10.576  66.762  1.00  0.00    -0.114 A  
HETATM    9  C   UNL     1      -7.415   9.642  68.967  1.00  0.00    -0.075 A  
HETATM   10  C   UNL     1      -7.524   9.444  67.587  1.00  0.00    -0.087 A  
HETATM   11  C   UNL     1      -7.481  10.233  65.317  1.00  0.00    -0.141 A  
HETATM   12  N   UNL     1      -7.791   8.340  66.796  1.00  0.00    -0.094 NA 
BRANCH  12  13
HETATM   13  C   UNL     1      -8.153   6.980  67.144  1.00  0.00    -0.118 C  
BRANCH  13  14
HETATM   14  C   UNL     1      -9.650   6.851  67.436  1.00  0.00    -0.163 C  
BRANCH  14  15
HETATM   15  C   UNL     1     -10.385   5.955  66.449  1.00  0.00    -0.111 C  
HETATM   16  O   UNL     1      -9.941   4.608  66.619  1.00  0.00    -0.200 OA 
HETATM   17  H   UNL     1     -10.400   4.049  66.003  1.00  0.00     0.000 HD 
ENDBRANCH  14  15
ENDBRANCH  13  14
ENDBRANCH  12  13
BRANCH   9  18
HETATM   18  C   UNL     1      -7.572   8.625  70.039  1.00  0.00    -0.068 C  
HETATM   19  N   UNL     1      -6.409   8.069  70.524  1.00  0.00    -0.036 N  
HETATM   20  O   UNL     1      -8.654   8.230  70.459  1.00  0.00    -0.124 OA 
HETATM   21  H2  UNL     1      -5.493   8.340  70.167  1.00  0.00     0.000 HD 
HETATM   22  H1  UNL     1      -6.517   7.370  71.260  1.00  0.00     0.000 HD 
ENDBRANCH   9  18
ENDBRANCH   3   4
ENDBRANCH   2   3
BRANCH   2  23
HETATM   23  N   UNL     1      -5.649  15.576  68.477  1.00  0.00    -0.096 NA 
HETATM   24  H   UNL     1      -5.517  16.206  67.686  1.00  0.00     0.000 HD 
BRANCH  23  25
HETATM   25  C   UNL     1      -5.983  16.336  69.693  1.00  0.00    -0.176 C  
BRANCH  25  26
HETATM   26  C   UNL     1      -6.673  17.691  69.424  1.00  0.00    -0.176 C  
BRANCH  26  27
HETATM   27  O   UNL     1      -8.046  17.544  69.041  1.00  0.00    -0.204 OA 
BRANCH  27  28
HETATM   28  C   UNL     1      -8.642  18.619  68.432  1.00  0.00    -0.337 A  
HETATM   29  C   UNL     1      -8.760  20.076  66.500  1.00  0.00    -0.384 A  
HETATM   30  C   UNL     1      -9.574  19.456  69.071  1.00  0.00    -0.432 A  
HETATM   31  C   UNL     1      -8.240  18.944  67.126  1.00  0.00    -0.269 A  
HETATM   32  C   UNL     1      -9.677  20.904  67.152  1.00  0.00    -0.331 A  
HETATM   33  C   UNL     1     -10.081  20.589  68.445  1.00  0.00    -0.085 A  
BRANCH  31  34
HETATM   34  O   UNL     1      -7.262  18.312  66.403  1.00  0.00    -0.213 OA 
BRANCH  34  35
HETATM   35  C   UNL     1      -7.124  18.697  65.030  1.00  0.00     0.703 C  
HETATM   36  C   UNL     1      -5.936  19.625  64.800  1.00  0.00    -0.257 C  
HETATM   37  F   UNL     1      -5.150  19.771  65.887  1.00  0.00    -0.156 F  
HETATM   38  F   UNL     1      -5.158  19.182  63.785  1.00  0.00    -0.187 F  
HETATM   39  F   UNL     1      -6.365  20.868  64.449  1.00  0.00    -0.311 F  
ENDBRANCH  34  35
ENDBRANCH  31  34
ENDBRANCH  27  28
ENDBRANCH  26  27
ENDBRANCH  25  26
ENDBRANCH  23  25
ENDBRANCH   2  23
TORSDOF 13
ENDMDL
MODEL      374
REMARK 921   NORMALIZED FREE ENERGY PREDICTED BY IDOCK:   -1.04 KCAL/MOL
REMARK 922        TOTAL FREE ENERGY PREDICTED BY IDOCK:   -4.99 KCAL/MOL
REMARK 923 INTER-LIGAND FREE ENERGY PREDICTED BY IDOCK:   -5.66 KCAL/MOL
REMARK 924 INTRA-LIGAND FREE ENERGY PREDICTED BY IDOCK:    0.67 KCAL/MOL
REMARK 927      BINDING AFFINITY PREDICTED BY RF-SCORE:    0.00 PKD
ROOT
HETATM    1  C   UNL     1      -6.616  10.134  70.442  1.00  0.00    -0.132 C  
HETATM    2  C   UNL     1      -7.433   8.987  69.834  1.00  0.00    -0.065 C  
ENDROOT
BRANCH   2   3
HETATM    3  C   UNL     1      -8.953   9.270  69.855  1.00  0.00    -0.194 C  
BRANCH   3   4
HETATM    4  C   UNL     1      -9.321  10.606  69.275  1.00  0.00    -0.136 A  
HETATM    5  C   UNL     1      -8.323  11.440  68.759  1.00  0.00    -0.096 A  
HETATM    6  C   UNL     1     -12.001  14.176  67.848  1.00  0.00    -0.343 A  
HETATM    7  C   UNL     1     -10.639  11.040  69.245  1.00  0.00    -0.236 A  
HETATM    8  C   UNL     1     -10.915  12.277  68.677  1.00  0.00    -0.276 A  
HETATM    9  C   UNL     1      -8.613  12.689  68.155  1.00  0.00    -0.188 A  
HETATM   10  C   UNL     1      -9.937  13.138  68.127  1.00  0.00    -0.234 A  
HETATM   11  C   UNL     1     -12.282  12.867  68.578  1.00  0.00    -0.003 A  
HETATM   12  N   UNL     1     -10.548  14.290  67.664  1.00  0.00    -0.252 NA 
BRANCH  12  13
HETATM   13  C   UNL     1     -10.018  15.427  66.938  1.00  0.00    -0.243 C  
BRANCH  13  14
HETATM   14  C   UNL     1      -9.834  16.644  67.850  1.00  0.00    -0.248 C  
BRANCH  14  15
HETATM   15  C   UNL     1      -9.504  17.923  67.094  1.00  0.00    -0.263 C  
HETATM   16  O   UNL     1     -10.503  18.905  67.376  1.00  0.00    -0.399 OA 
HETATM   17  H   UNL     1     -10.297  19.703  66.904  1.00  0.00     0.000 HD 
ENDBRANCH  14  15
ENDBRANCH  13  14
ENDBRANCH  12  13
BRANCH   9  18
HETATM   18  C   UNL     1      -7.409  13.398  67.647  1.00  0.00    -0.168 C  
HETATM   19  N   UNL     1      -6.553  12.655  66.864  1.00  0.00    -0.267 N  
HETATM   20  O   UNL     1      -7.124  14.556  67.927  1.00  0.00    -0.122 OA 
HETATM   21  H2  UNL     1      -6.735  11.676  66.646  1.00  0.00     0.000 HD 
HETATM   22  H1  UNL     1      -5.727  13.142  66.515  1.00  0.00     0.000 HD 
ENDBRANCH   9  18
ENDBRANCH   3   4
ENDBRANCH   2   3
BRANCH   2  23
HETATM   23  N   UNL     1      -7.103   7.746  70.557  1.00  0.00    -0.046 NA 
HETATM   24  H   UNL     1      -7.532   7.747  71.482  1.00  0.00     0.000 HD 
BRANCH  23  25
HETATM   25  C   UNL     1      -7.448   6.516  69.827  1.00  0.00    -0.088 C  
BRANCH  25  26
HETATM   26  C   UNL     1      -8.316   6.746  68.572  1.00  0.00    -0.120 C  
BRANCH  26  27
HETATM   27  O   UNL     1      -7.597   6.511  67.354  1.00  0.00    -0.096 OA 
BRANCH  27  28
HETATM   28  C   UNL     1      -8.091   5.545  66.515  1.00  0.00    -0.105 A  
HETATM   29  C   UNL     1      -9.084   5.000  64.373  1.00  0.00     0.018 A  
HETATM   30  C   UNL     1      -8.278   4.205  66.899  1.00  0.00    -0.101 A  
HETATM   31  C   UNL     1      -8.501   5.933  65.229  1.00  0.00    -0.144 A  
HETATM   32  C   UNL     1      -9.273   3.674  64.773  1.00  0.00    -0.145 A  
HETATM   33  C   UNL     1      -8.869   3.281  66.043  1.00  0.00    -0.138 A  
BRANCH  31  34
HETATM   34  O   UNL     1      -8.502   7.212  64.736  1.00  0.00    -0.030 OA 
BRANCH  34  35
HETATM   35  C   UNL     1      -8.281   8.268  65.679  1.00  0.00    -0.134 C  
HETATM   36  C   UNL     1      -8.478   9.650  65.064  1.00  0.00    -0.150 C  
HETATM   37  F   UNL     1      -8.982   9.615  63.812  1.00  0.00    -0.208 F  
HETATM   38  F   UNL     1      -9.306  10.409  65.820  1.00  0.00    -0.179 F  
HETATM   39  F   UNL     1      -7.292  10.314  64.997  1.00  0.00    -0.130 F  
ENDBRANCH  34  35
ENDBRANCH  31  34
ENDBRANCH  27  28
ENDBRANCH  26  27
ENDBRANCH  25  26
ENDBRANCH  23  25
ENDBRANCH   2  23
TORSDOF 13
ENDMDL
MODEL      375
REMARK 921   NORMALIZED FREE ENERGY PREDICTED BY IDOCK:   -0.93 KCAL/MOL
REMARK 922        TOTAL FREE ENERGY PREDICTED BY IDOCK:   -4.81 KCAL/MOL
REMARK 923 INTER-LIGAND FREE ENERGY PREDICTED BY IDOCK:   -5.54 KCAL/MOL
REMARK 924 INTRA-LIGAND FREE ENERGY PREDICTED BY IDOCK:    0.73 KCAL/MOL
REMARK 927      BINDING AFFINITY PREDICTED BY RF-SCORE:    0.00 PKD
ROOT
HETATM    1  C   UNL     1      -8.647  12.664  66.562  1.00  0.00     0.051 C  
HETATM    2  C   UNL     1      -7.195  13.041  66.883  1.00  0.00     0.445 C  
ENDROOT
BRANCH   2   3
HETATM    3  C   UNL     1      -6.487  11.974  67.749  1.00  0.00    -0.087 C  
BRANCH   3   4
HETATM    4  C   UNL     1      -7.424  10.948  68.319  1.00  0.00    -0.093 A  
HETATM    5  C   UNL     1      -8.772  11.267  68.512  1.00  0.00    -0.156 A  
HETATM    6  C   UNL     1      -8.924   6.843  70.011  1.00  0.00    -0.142 A  
HETATM    7  C   UNL     1      -6.978   9.682  68.671  1.00  0.00    -0.064 A  
HETATM    8  C   UNL     1      -7.899   8.773  69.176  1.00  0.00    -0.098 A  
HETATM    9  C   UNL     1      -9.714  10.328  69.001  1.00  0.00    -0.213 A  
HETATM   10  C   UNL     1      -9.273   9.052  69.365  1.00  0.00    -0.150 A  
HETATM   11  C   UNL     1      -7.560   7.381  69.594  1.00  0.00    -0.095 A  
HETATM   12  N   UNL     1      -9.898   7.937  69.897  1.00  0.00    -0.180 NA 
BRANCH  12  13
HETATM   13  C   UNL     1     -11.294   7.671  70.183  1.00  0.00    -0.132 C  
BRANCH  13  14
HETATM   14  C   UNL     1     -11.463   6.874  71.479  1.00  0.00    -0.315 C  
BRANCH  14  15
HETATM   15  C   UNL     1     -11.843   7.735  72.675  1.00  0.00    -0.262 C  
HETATM   16  O   UNL     1     -12.136   9.059  72.224  1.00  0.00    -0.346 OA 
HETATM   17  H   UNL     1     -12.373   9.597  72.971  1.00  0.00     0.000 HD 
ENDBRANCH  14  15
ENDBRANCH  13  14
ENDBRANCH  12  13
BRANCH   9  18
HETATM   18  C   UNL     1     -11.096  10.866  69.099  1.00  0.00    -0.245 C  
HETATM   19  N   UNL     1     -11.428  11.471  70.291  1.00  0.00    -0.515 N  
HETATM   20  O   UNL     1     -11.944  10.750  68.221  1.00  0.00    -0.520 OA 
HETATM   21  H2  UNL     1     -10.763  11.547  71.060  1.00  0.00     0.000 HD 
HETATM   22  H1  UNL     1     -12.377  11.841  70.359  1.00  0.00     0.000 HD 
ENDBRANCH   9  18
ENDBRANCH   3   4
ENDBRANCH   2   3
BRANCH   2  23
HETATM   23  N   UNL     1      -7.192  14.361  67.538  1.00  0.00    -0.185 NA 
HETATM   24  H   UNL     1      -6.251  14.754  67.547  1.00  0.00     0.000 HD 
BRANCH  23  25
HETATM   25  C   UNL     1      -8.148  15.320  66.960  1.00  0.00    -0.218 C  
BRANCH  25  26
HETATM   26  C   UNL     1      -7.495  16.592  66.377  1.00  0.00    -0.225 C  
BRANCH  26  27
HETATM   27  O   UNL     1      -6.185  16.832  66.908  1.00  0.00    -0.173 OA 
BRANCH  27  28
HETATM   28  C   UNL     1      -6.112  17.419  68.146  1.00  0.00    -0.158 A  
HETATM   29  C   UNL     1      -6.802  19.229  69.601  1.00  0.00    -0.209 A  
HETATM   30  C   UNL     1      -5.234  16.992  69.158  1.00  0.00    -0.133 A  
HETATM   31  C   UNL     1      -6.904  18.554  68.386  1.00  0.00    -0.252 A  
HETATM   32  C   UNL     1      -5.917  18.799  70.593  1.00  0.00     0.037 A  
HETATM   33  C   UNL     1      -5.130  17.677  70.364  1.00  0.00    -0.243 A  
BRANCH  31  34
HETATM   34  O   UNL     1      -7.722  19.173  67.476  1.00  0.00    -0.235 OA 
BRANCH  34  35
HETATM   35  C   UNL     1      -9.133  18.996  67.650  1.00  0.00    -0.291 C  
HETATM   36  C   UNL     1      -9.794  20.197  68.318  1.00  0.00    -0.288 C  
HETATM   37  F   UNL     1      -8.968  21.254  68.462  1.00  0.00     0.743 F  
HETATM   38  F   UNL     1     -10.876  20.612  67.618  1.00  0.00    -0.114 F  
HETATM   39  F   UNL     1     -10.237  19.866  69.561  1.00  0.00    -0.480 F  
ENDBRANCH  34  35
ENDBRANCH  31  34
ENDBRANCH  27  28
ENDBRANCH  26  27
ENDBRANCH  25  26
ENDBRANCH  23  25
ENDBRANCH   2  23
TORSDOF 13
ENDMDL
MODEL      376
REMARK 921   NORMALIZED FREE ENERGY PREDICTED BY IDOCK:   -0.79 KCAL/MOL
REMARK 922        TOTAL FREE ENERGY PREDICTED BY IDOCK:   -4.56 KCAL/MOL
REMARK 923 INTER-LIGAND FREE ENERGY PREDICTED BY IDOCK:   -4.34 KCAL/MOL
REMARK 924 INTRA-LIGAND FREE ENERGY PREDICTED BY IDOCK:   -0.22 KCAL/MOL
REMARK 927      BINDING AFFINITY PREDICTED BY RF-SCORE:    0.00 PKD
ROOT
HETATM    1  C   UNL     1      -7.540  14.968  70.916  1.00  0.00     1.629 C  
HETATM    2  C   UNL     1      -6.237  14.284  70.482  1.00  0.00    -0.157 C  
ENDROOT
BRANCH   2   3
HETATM    3  C   UNL     1      -5.431  15.136  69.475  1.00  0.00    -0.094 C  
BRANCH   3   4
HETATM    4  C   UNL     1      -6.291  16.013  68.610  1.00  0.00    -0.116 A  
HETATM    5  C   UNL     1      -6.037  17.387  68.542  1.00  0.00    -0.167 A  
HETATM    6  C   UNL     1      -9.644  17.238  65.573  1.00  0.00     0.455 A  
HETATM    7  C   UNL     1      -7.347  15.490  67.877  1.00  0.00    -0.155 A  
HETATM    8  C   UNL     1      -8.092  16.351  67.083  1.00  0.00    -0.212 A  
HETATM    9  C   UNL     1      -6.781  18.257  67.707  1.00  0.00    -0.206 A  
HETATM   10  C   UNL     1      -7.852  17.740  66.971  1.00  0.00    -0.213 A  
HETATM   11  C   UNL     1      -9.251  15.926  66.244  1.00  0.00    -0.372 A  
HETATM   12  N   UNL     1      -8.783  18.299  66.112  1.00  0.00    -0.492 NA 
BRANCH  12  13
HETATM   13  C   UNL     1      -8.915  19.646  65.592  1.00  0.00     0.299 C  
BRANCH  13  14
HETATM   14  C   UNL     1     -10.197  20.320  66.086  1.00  0.00    -0.417 C  
BRANCH  14  15
HETATM   15  C   UNL     1     -10.113  20.799  67.528  1.00  0.00    -0.091 C  
HETATM   16  O   UNL     1      -9.977  19.669  68.391  1.00  0.00    -0.392 OA 
HETATM   17  H   UNL     1      -9.924  19.968  69.291  1.00  0.00     0.000 HD 
ENDBRANCH  14  15
ENDBRANCH  13  14
ENDBRANCH  12  13
BRANCH   9  18
HETATM   18  C   UNL     1      -6.324  19.671  67.763  1.00  0.00    -0.210 C  
HETATM   19  N   UNL     1      -5.178  19.966  67.058  1.00  0.00    -0.160 N  
HETATM   20  O   UNL     1      -6.869  20.544  68.428  1.00  0.00    -0.262 OA 
HETATM   21  H2  UNL     1      -4.673  19.256  66.529  1.00  0.00     0.000 HD 
HETATM   22  H1  UNL     1      -4.865  20.937  67.097  1.00  0.00     0.000 HD 
ENDBRANCH   9  18
ENDBRANCH   3   4
ENDBRANCH   2   3
BRANCH   2  23
HETATM   23  N   UNL     1      -6.571  12.960  69.927  1.00  0.00    -0.354 NA 
HETATM   24  H   UNL     1      -7.205  12.461  70.551  1.00  0.00     0.000 HD 
BRANCH  23  25
HETATM   25  C   UNL     1      -7.117  13.002  68.561  1.00  0.00    -0.105 C  
BRANCH  25  26
HETATM   26  C   UNL     1      -7.232  11.621  67.881  1.00  0.00    -0.083 C  
BRANCH  26  27
HETATM   27  O   UNL     1      -8.587  11.157  67.804  1.00  0.00    -0.127 OA 
BRANCH  27  28
HETATM   28  C   UNL     1      -9.204  11.237  66.582  1.00  0.00    -0.180 A  
HETATM   29  C   UNL     1      -9.709  10.173  64.465  1.00  0.00    -0.361 A  
HETATM   30  C   UNL     1      -9.807  12.409  66.092  1.00  0.00    -0.263 A  
HETATM   31  C   UNL     1      -9.164  10.109  65.746  1.00  0.00    -0.178 A  
HETATM   32  C   UNL     1     -10.294  11.349  63.988  1.00  0.00    -0.418 A  
HETATM   33  C   UNL     1     -10.339  12.470  64.808  1.00  0.00    -0.331 A  
BRANCH  31  34
HETATM   34  O   UNL     1      -8.519   8.930  66.015  1.00  0.00    -0.118 OA 
BRANCH  34  35
HETATM   35  C   UNL     1      -7.714   8.381  64.964  1.00  0.00    -0.104 C  
HETATM   36  C   UNL     1      -8.009   6.906  64.712  1.00  0.00    -0.119 C  
HETATM   37  F   UNL     1      -9.077   6.447  65.399  1.00  0.00    -0.105 F  
HETATM   38  F   UNL     1      -8.233   6.669  63.398  1.00  0.00    -0.114 F  
HETATM   39  F   UNL     1      -6.944   6.140  65.072  1.00  0.00    -0.049 F  
ENDBRANCH  34  35
ENDBRANCH  31  34
ENDBRANCH  27  28
ENDBRANCH  26  27
ENDBRANCH  25  26
ENDBRANCH  23  25
ENDBRANCH   2  23
TORSDOF 13
ENDMDL
MODEL      377
REMARK 921   NORMALIZED FREE ENERGY PREDICTED BY IDOCK:   -0.64 KCAL/MOL
REMARK 922        TOTAL FREE ENERGY PREDICTED BY IDOCK:   -4.30 KCAL/MOL
REMARK 923 INTER-LIGAND FREE ENERGY PREDICTED BY IDOCK:   -7.03 KCAL/MOL
REMARK 924 INTRA-LIGAND FREE ENERGY PREDICTED BY IDOCK:    2.74 KCAL/MOL
REMARK 927      BINDING AFFINITY PREDICTED BY RF-SCORE:    0.00 PKD
ROOT
HETATM    1  C   UNL     1     -10.193  11.814  65.032  1.00  0.00    -0.314 C  
HETATM    2  C   UNL     1     -11.463  12.009  65.870  1.00  0.00    -0.333 C  
ENDROOT
BRANCH   2   3
HETATM    3  C   UNL     1     -11.547  13.422  66.491  1.00  0.00    -0.394 C  
BRANCH   3   4
HETATM    4  C   UNL     1     -10.204  14.038  66.761  1.00  0.00    -0.264 A  
HETATM    5  C   UNL     1      -9.205  13.285  67.387  1.00  0.00    -0.216 A  
HETATM    6  C   UNL     1      -6.775  17.233  66.796  1.00  0.00    -0.214 A  
HETATM    7  C   UNL     1      -9.930  15.353  66.409  1.00  0.00    -0.295 A  
HETATM    8  C   UNL     1      -8.663  15.856  66.670  1.00  0.00    -0.324 A  
HETATM    9  C   UNL     1      -7.904  13.794  67.624  1.00  0.00    -0.185 A  
HETATM   10  C   UNL     1      -7.621  15.120  67.280  1.00  0.00    -0.203 A  
HETATM   11  C   UNL     1      -8.232  17.248  66.345  1.00  0.00    -0.317 A  
HETATM   12  N   UNL     1      -6.502  15.924  67.404  1.00  0.00    -0.175 NA 
BRANCH  12  13
HETATM   13  C   UNL     1      -5.160  15.628  67.866  1.00  0.00    -0.125 C  
BRANCH  13  14
HETATM   14  C   UNL     1      -5.143  15.257  69.352  1.00  0.00    -0.092 C  
BRANCH  14  15
HETATM   15  C   UNL     1      -6.007  16.167  70.214  1.00  0.00    -0.072 C  
HETATM   16  O   UNL     1      -5.634  17.526  69.980  1.00  0.00    -0.225 OA 
HETATM   17  H   UNL     1      -6.174  18.094  70.518  1.00  0.00     0.000 HD 
ENDBRANCH  14  15
ENDBRANCH  13  14
ENDBRANCH  12  13
BRANCH   9  18
HETATM   18  C   UNL     1      -6.991  12.816  68.271  1.00  0.00    -0.097 C  
HETATM   19  N   UNL     1      -6.038  12.245  67.457  1.00  0.00    -0.124 N  
HETATM   20  O   UNL     1      -7.077  12.464  69.442  1.00  0.00     0.003 OA 
HETATM   21  H2  UNL     1      -5.964  12.480  66.468  1.00  0.00     0.000 HD 
HETATM   22  H1  UNL     1      -5.411  11.574  67.901  1.00  0.00     0.000 HD 
ENDBRANCH   9  18
ENDBRANCH   3   4
ENDBRANCH   2   3
BRANCH   2  23
HETATM   23  N   UNL     1     -11.504  10.959  66.903  1.00  0.00    -0.296 NA 
HETATM   24  H   UNL     1     -10.578  10.553  67.036  1.00  0.00     0.000 HD 
BRANCH  23  25
HETATM   25  C   UNL     1     -12.063  11.404  68.190  1.00  0.00     0.041 C  
BRANCH  25  26
HETATM   26  C   UNL     1     -12.313  12.925  68.280  1.00  0.00     0.267 C  
BRANCH  26  27
HETATM   27  O   UNL     1     -11.724  13.512  69.447  1.00  0.00    -0.286 OA 
BRANCH  27  28
HETATM   28  C   UNL     1     -12.554  13.744  70.515  1.00  0.00    -0.291 A  
HETATM   29  C   UNL     1     -13.697  15.360  71.911  1.00  0.00    -0.603 A  
HETATM   30  C   UNL     1     -12.994  12.735  71.390  1.00  0.00    -0.359 A  
HETATM   31  C   UNL     1     -12.921  15.071  70.789  1.00  0.00    -0.389 A  
HETATM   32  C   UNL     1     -14.117  14.348  72.778  1.00  0.00    -0.064 A  
HETATM   33  C   UNL     1     -13.759  13.032  72.513  1.00  0.00    -0.501 A  
BRANCH  31  34
HETATM   34  O   UNL     1     -12.488  16.183  70.115  1.00  0.00    -0.167 OA 
BRANCH  34  35
HETATM   35  C   UNL     1     -11.284  16.798  70.590  1.00  0.00     0.278 C  
HETATM   36  C   UNL     1     -10.467  17.427  69.466  1.00  0.00     0.029 C  
HETATM   37  F   UNL     1     -11.106  17.435  68.277  1.00  0.00    -0.349 F  
HETATM   38  F   UNL     1     -10.131  18.704  69.761  1.00  0.00    -0.118 F  
HETATM   39  F   UNL     1      -9.302  16.747  69.287  1.00  0.00    -0.260 F  
ENDBRANCH  34  35
ENDBRANCH  31  34
ENDBRANCH  27  28
ENDBRANCH  26  27
ENDBRANCH  25  26
ENDBRANCH  23  25
ENDBRANCH   2  23
TORSDOF 13
ENDMDL
MODEL      378
REMARK 921   NORMALIZED FREE ENERGY PREDICTED BY IDOCK:   -0.58 KCAL/MOL
REMARK 922        TOTAL FREE ENERGY PREDICTED BY IDOCK:   -4.19 KCAL/MOL
REMARK 923 INTER-LIGAND FREE ENERGY PREDICTED BY IDOCK:   -4.85 KCAL/MOL
REMARK 924 INTRA-LIGAND FREE ENERGY PREDICTED BY IDOCK:    0.67 KCAL/MOL
REMARK 927      BINDING AFFINITY PREDICTED BY RF-SCORE:    0.00 PKD
ROOT
HETATM    1  C   UNL     1      -6.272  15.993  70.004  1.00  0.00    -0.117 C  
HETATM    2  C   UNL     1      -5.510  15.827  68.683  1.00  0.00    -0.102 C  
ENDROOT
BRANCH   2   3
HETATM    3  C   UNL     1      -6.324  16.323  67.467  1.00  0.00    -0.189 C  
BRANCH   3   4
HETATM    4  C   UNL     1      -7.764  15.897  67.497  1.00  0.00    -0.183 A  
HETATM    5  C   UNL     1      -8.443  15.656  66.297  1.00  0.00    -0.187 A  
HETATM    6  C   UNL     1     -11.929  14.643  69.241  1.00  0.00    -0.302 A  
HETATM    7  C   UNL     1      -8.447  15.745  68.695  1.00  0.00    -0.193 A  
HETATM    8  C   UNL     1      -9.772  15.331  68.654  1.00  0.00    -0.212 A  
HETATM    9  C   UNL     1      -9.787  15.206  66.261  1.00  0.00    -0.317 A  
HETATM   10  C   UNL     1     -10.485  15.056  67.464  1.00  0.00    -0.256 A  
HETATM   11  C   UNL     1     -10.623  15.126  69.863  1.00  0.00    -0.253 A  
HETATM   12  N   UNL     1     -11.780  14.684  67.781  1.00  0.00    -0.360 NA 
BRANCH  12  13
HETATM   13  C   UNL     1     -12.869  14.216  66.948  1.00  0.00     0.678 C  
BRANCH  13  14
HETATM   14  C   UNL     1     -12.516  12.905  66.240  1.00  0.00    -0.007 C  
BRANCH  14  15
HETATM   15  C   UNL     1     -11.610  11.998  67.060  1.00  0.00    -0.317 C  
HETATM   16  O   UNL     1     -12.353  11.462  68.156  1.00  0.00    -0.502 OA 
HETATM   17  H   UNL     1     -11.787  10.895  68.668  1.00  0.00     0.000 HD 
ENDBRANCH  14  15
ENDBRANCH  13  14
ENDBRANCH  12  13
BRANCH   9  18
HETATM   18  C   UNL     1     -10.303  14.982  64.886  1.00  0.00    -0.282 C  
HETATM   19  N   UNL     1     -10.077  13.734  64.348  1.00  0.00    -0.634 N  
HETATM   20  O   UNL     1     -10.853  15.843  64.208  1.00  0.00    -0.359 OA 
HETATM   21  H2  UNL     1      -9.584  13.007  64.865  1.00  0.00     0.000 HD 
HETATM   22  H1  UNL     1     -10.432  13.581  63.404  1.00  0.00     0.000 HD 
ENDBRANCH   9  18
ENDBRANCH   3   4
ENDBRANCH   2   3
BRANCH   2  23
HETATM   23  N   UNL     1      -5.132  14.409  68.541  1.00  0.00    -0.094 NA 
HETATM   24  H   UNL     1      -5.078  13.960  69.455  1.00  0.00     0.000 HD 
BRANCH  23  25
HETATM   25  C   UNL     1      -6.008  13.642  67.640  1.00  0.00    -0.075 C  
BRANCH  25  26
HETATM   26  C   UNL     1      -5.299  12.489  66.897  1.00  0.00     0.278 C  
BRANCH  26  27
HETATM   27  O   UNL     1      -5.670  11.199  67.401  1.00  0.00    -0.045 OA 
BRANCH  27  28
HETATM   28  C   UNL     1      -6.364  10.374  66.553  1.00  0.00    -0.083 A  
HETATM   29  C   UNL     1      -7.076   8.125  66.006  1.00  0.00    -0.061 A  
HETATM   30  C   UNL     1      -6.927  10.806  65.338  1.00  0.00     0.070 A  
HETATM   31  C   UNL     1      -6.450   9.012  66.880  1.00  0.00    -0.064 A  
HETATM   32  C   UNL     1      -7.621   8.566  64.798  1.00  0.00    -0.100 A  
HETATM   33  C   UNL     1      -7.541   9.913  64.466  1.00  0.00    -0.139 A  
BRANCH  31  34
HETATM   34  O   UNL     1      -5.860   8.403  67.957  1.00  0.00    -0.040 OA 
BRANCH  34  35
HETATM   35  C   UNL     1      -6.492   8.587  69.230  1.00  0.00    -0.042 C  
HETATM   36  C   UNL     1      -7.427   7.438  69.589  1.00  0.00    -0.093 C  
HETATM   37  F   UNL     1      -7.355   6.398  68.732  1.00  0.00    -0.076 F  
HETATM   38  F   UNL     1      -7.169   6.967  70.831  1.00  0.00    -0.066 F  
HETATM   39  F   UNL     1      -8.720   7.861  69.593  1.00  0.00    -0.129 F  
ENDBRANCH  34  35
ENDBRANCH  31  34
ENDBRANCH  27  28
ENDBRANCH  26  27
ENDBRANCH  25  26
ENDBRANCH  23  25
ENDBRANCH   2  23
TORSDOF 13
ENDMDL
MODEL      379
REMARK 921   NORMALIZED FREE ENERGY PREDICTED BY IDOCK:   -0.32 KCAL/MOL
REMARK 922        TOTAL FREE ENERGY PREDICTED BY IDOCK:   -3.73 KCAL/MOL
REMARK 923 INTER-LIGAND FREE ENERGY PREDICTED BY IDOCK:   -4.66 KCAL/MOL
REMARK 924 INTRA-LIGAND FREE ENERGY PREDICTED BY IDOCK:    0.94 KCAL/MOL
REMARK 927      BINDING AFFINITY PREDICTED BY RF-SCORE:    0.00 PKD
ROOT
HETATM    1  C   UNL     1      -6.282   9.350  70.293  1.00  0.00    -0.056 C  
HETATM    2  C   UNL     1      -7.295   8.679  69.357  1.00  0.00    -0.072 C  
ENDROOT
BRANCH   2   3
HETATM    3  C   UNL     1      -8.606   9.488  69.232  1.00  0.00    -0.149 C  
BRANCH   3   4
HETATM    4  C   UNL     1      -8.385  10.948  68.952  1.00  0.00    -0.139 A  
HETATM    5  C   UNL     1      -9.368  11.684  68.281  1.00  0.00    -0.191 A  
HETATM    6  C   UNL     1      -6.292  15.140  68.939  1.00  0.00    -0.090 A  
HETATM    7  C   UNL     1      -7.215  11.587  69.337  1.00  0.00     0.001 A  
HETATM    8  C   UNL     1      -7.082  12.942  69.065  1.00  0.00    -0.024 A  
HETATM    9  C   UNL     1      -9.239  13.073  68.031  1.00  0.00    -0.212 A  
HETATM   10  C   UNL     1      -8.061  13.724  68.410  1.00  0.00    -0.148 A  
HETATM   11  C   UNL     1      -5.881  13.753  69.423  1.00  0.00    -0.095 A  
HETATM   12  N   UNL     1      -7.602  15.024  68.286  1.00  0.00    -0.106 NA 
BRANCH  12  13
HETATM   13  C   UNL     1      -8.248  16.221  67.785  1.00  0.00    -0.149 C  
BRANCH  13  14
HETATM   14  C   UNL     1      -7.585  16.726  66.501  1.00  0.00    -0.334 C  
BRANCH  14  15
HETATM   15  C   UNL     1      -7.894  18.184  66.192  1.00  0.00    -0.204 C  
HETATM   16  O   UNL     1      -7.359  19.006  67.231  1.00  0.00    -0.222 OA 
HETATM   17  H   UNL     1      -7.552  19.917  67.038  1.00  0.00     0.000 HD 
ENDBRANCH  14  15
ENDBRANCH  13  14
ENDBRANCH  12  13
BRANCH   9  18
HETATM   18  C   UNL     1     -10.411  13.664  67.334  1.00  0.00    -0.251 C  
HETATM   19  N   UNL     1     -11.637  13.461  67.929  1.00  0.00    -0.317 N  
HETATM   20  O   UNL     1     -10.349  14.256  66.262  1.00  0.00    -0.280 OA 
HETATM   21  H2  UNL     1     -11.734  12.935  68.797  1.00  0.00     0.000 HD 
HETATM   22  H1  UNL     1     -12.442  13.866  67.450  1.00  0.00     0.000 HD 
ENDBRANCH   9  18
ENDBRANCH   3   4
ENDBRANCH   2   3
BRANCH   2  23
HETATM   23  N   UNL     1      -7.546   7.312  69.847  1.00  0.00    -0.092 NA 
HETATM   24  H   UNL     1      -8.248   7.321  70.587  1.00  0.00     0.000 HD 
BRANCH  23  25
HETATM   25  C   UNL     1      -7.920   6.355  68.792  1.00  0.00    -0.110 C  
BRANCH  25  26
HETATM   26  C   UNL     1      -8.344   7.013  67.461  1.00  0.00    -0.119 C  
BRANCH  26  27
HETATM   27  O   UNL     1      -7.357   6.863  66.433  1.00  0.00    -0.070 OA 
BRANCH  27  28
HETATM   28  C   UNL     1      -7.662   6.020  65.394  1.00  0.00    -0.091 A  
HETATM   29  C   UNL     1      -8.238   5.773  63.054  1.00  0.00    -0.084 A  
HETATM   30  C   UNL     1      -7.873   4.639  65.551  1.00  0.00    -0.094 A  
HETATM   31  C   UNL     1      -7.848   6.582  64.121  1.00  0.00    -0.111 A  
HETATM   32  C   UNL     1      -8.454   4.404  63.228  1.00  0.00    -0.108 A  
HETATM   33  C   UNL     1      -8.273   3.840  64.485  1.00  0.00    -0.093 A  
BRANCH  31  34
HETATM   34  O   UNL     1      -7.800   7.917  63.814  1.00  0.00    -0.135 OA 
BRANCH  34  35
HETATM   35  C   UNL     1      -7.939   8.835  64.905  1.00  0.00    -0.135 C  
HETATM   36  C   UNL     1      -8.228  10.258  64.438  1.00  0.00    -0.159 C  
HETATM   37  F   UNL     1      -8.464  10.350  63.112  1.00  0.00    -0.151 F  
HETATM   38  F   UNL     1      -9.297  10.778  65.084  1.00  0.00    -0.195 F  
HETATM   39  F   UNL     1      -7.172  11.072  64.712  1.00  0.00     0.124 F  
ENDBRANCH  34  35
ENDBRANCH  31  34
ENDBRANCH  27  28
ENDBRANCH  26  27
ENDBRANCH  25  26
ENDBRANCH  23  25
ENDBRANCH   2  23
TORSDOF 13
ENDMDL
MODEL      380
REMARK 921   NORMALIZED FREE ENERGY PREDICTED BY IDOCK:   -0.32 KCAL/MOL
REMARK 922        TOTAL FREE ENERGY PREDICTED BY IDOCK:   -3.72 KCAL/MOL
REMARK 923 INTER-LIGAND FREE ENERGY PREDICTED BY IDOCK:   -6.95 KCAL/MOL
REMARK 924 INTRA-LIGAND FREE ENERGY PREDICTED BY IDOCK:    3.22 KCAL/MOL
REMARK 927      BINDING AFFINITY PREDICTED BY RF-SCORE:    0.00 PKD
ROOT
HETATM    1  C   UNL     1      -8.850  12.183  66.035  1.00  0.00     0.095 C  
HETATM    2  C   UNL     1      -8.008  13.040  66.989  1.00  0.00    -0.004 C  
ENDROOT
BRANCH   2   3
HETATM    3  C   UNL     1      -8.190  12.627  68.467  1.00  0.00    -0.074 C  
BRANCH   3   4
HETATM    4  C   UNL     1      -8.346  11.145  68.660  1.00  0.00    -0.154 A  
HETATM    5  C   UNL     1      -7.633  10.496  69.674  1.00  0.00    -0.134 A  
HETATM    6  C   UNL     1      -9.931   6.783  68.008  1.00  0.00    -0.144 A  
HETATM    7  C   UNL     1      -9.181  10.395  67.843  1.00  0.00    -0.143 A  
HETATM    8  C   UNL     1      -9.295   9.033  68.086  1.00  0.00    -0.151 A  
HETATM    9  C   UNL     1      -7.774   9.111  69.937  1.00  0.00    -0.087 A  
HETATM   10  C   UNL     1      -8.608   8.346  69.114  1.00  0.00    -0.134 A  
HETATM   11  C   UNL     1     -10.154   8.109  67.289  1.00  0.00    -0.309 A  
HETATM   12  N   UNL     1      -8.936   7.002  69.066  1.00  0.00    -0.134 NA 
BRANCH  12  13
HETATM   13  C   UNL     1      -8.585   5.902  69.942  1.00  0.00    -0.129 C  
BRANCH  13  14
HETATM   14  C   UNL     1      -9.049   4.558  69.375  1.00  0.00    -0.167 C  
BRANCH  14  15
HETATM   15  C   UNL     1      -9.341   4.598  67.882  1.00  0.00    -0.134 C  
HETATM   16  O   UNL     1      -9.012   3.333  67.306  1.00  0.00    -0.130 OA 
HETATM   17  H   UNL     1      -9.195   3.358  66.374  1.00  0.00     0.000 HD 
ENDBRANCH  14  15
ENDBRANCH  13  14
ENDBRANCH  12  13
BRANCH   9  18
HETATM   18  C   UNL     1      -6.950   8.634  71.077  1.00  0.00    -0.069 C  
HETATM   19  N   UNL     1      -7.462   7.576  71.795  1.00  0.00    -0.078 N  
HETATM   20  O   UNL     1      -5.899   9.155  71.432  1.00  0.00    -0.055 OA 
HETATM   21  H2  UNL     1      -8.355   7.145  71.557  1.00  0.00     0.000 HD 
HETATM   22  H1  UNL     1      -6.896   7.248  72.578  1.00  0.00     0.000 HD 
ENDBRANCH   9  18
ENDBRANCH   3   4
ENDBRANCH   2   3
BRANCH   2  23
HETATM   23  N   UNL     1      -8.360  14.455  66.774  1.00  0.00    -0.411 NA 
HETATM   24  H   UNL     1      -7.537  14.990  66.499  1.00  0.00     0.000 HD 
BRANCH  23  25
HETATM   25  C   UNL     1      -9.457  14.661  65.814  1.00  0.00    -0.145 C  
BRANCH  25  26
HETATM   26  C   UNL     1     -10.519  15.683  66.274  1.00  0.00    -0.306 C  
BRANCH  26  27
HETATM   27  O   UNL     1     -11.603  15.069  66.983  1.00  0.00    -0.331 OA 
BRANCH  27  28
HETATM   28  C   UNL     1     -11.670  15.294  68.335  1.00  0.00    -0.321 A  
HETATM   29  C   UNL     1     -10.903  16.578  70.241  1.00  0.00    -0.156 A  
HETATM   30  C   UNL     1     -12.377  14.468  69.226  1.00  0.00    -0.185 A  
HETATM   31  C   UNL     1     -10.928  16.363  68.863  1.00  0.00    -0.332 A  
HETATM   32  C   UNL     1     -11.602  15.742  71.114  1.00  0.00    -0.469 A  
HETATM   33  C   UNL     1     -12.339  14.682  70.599  1.00  0.00    -0.398 A  
BRANCH  31  34
HETATM   34  O   UNL     1     -10.093  17.190  68.159  1.00  0.00    -0.280 OA 
BRANCH  34  35
HETATM   35  C   UNL     1     -10.430  18.583  68.137  1.00  0.00    -0.325 C  
HETATM   36  C   UNL     1      -9.225  19.480  68.397  1.00  0.00    -0.353 C  
HETATM   37  F   UNL     1      -8.054  18.811  68.430  1.00  0.00    -0.309 F  
HETATM   38  F   UNL     1      -9.122  20.446  67.455  1.00  0.00    -0.413 F  
HETATM   39  F   UNL     1      -9.354  20.115  69.594  1.00  0.00    -0.077 F  
ENDBRANCH  34  35
ENDBRANCH  31  34
ENDBRANCH  27  28
ENDBRANCH  26  27
ENDBRANCH  25  26
ENDBRANCH  23  25
ENDBRANCH   2  23
TORSDOF 13
ENDMDL
MODEL      381
REMARK 921   NORMALIZED FREE ENERGY PREDICTED BY IDOCK:   -0.28 KCAL/MOL
REMARK 922        TOTAL FREE ENERGY PREDICTED BY IDOCK:   -3.65 KCAL/MOL
REMARK 923 INTER-LIGAND FREE ENERGY PREDICTED BY IDOCK:   -5.09 KCAL/MOL
REMARK 924 INTRA-LIGAND FREE ENERGY PREDICTED BY IDOCK:    1.44 KCAL/MOL
REMARK 927      BINDING AFFINITY PREDICTED BY RF-SCORE:    0.00 PKD
ROOT
HETATM    1  C   UNL     1      -7.703  14.938  66.785  1.00  0.00     0.249 C  
HETATM    2  C   UNL     1      -7.521  14.443  68.225  1.00  0.00    -0.123 C  
ENDROOT
BRANCH   2   3
HETATM    3  C   UNL     1      -8.450  13.254  68.561  1.00  0.00    -0.067 C  
BRANCH   3   4
HETATM    4  C   UNL     1      -7.943  11.935  68.053  1.00  0.00    -0.147 A  
HETATM    5  C   UNL     1      -8.406  10.744  68.624  1.00  0.00    -0.141 A  
HETATM    6  C   UNL     1      -5.565   8.873  65.419  1.00  0.00    -0.046 A  
HETATM    7  C   UNL     1      -7.010  11.867  67.027  1.00  0.00    -0.116 A  
HETATM    8  C   UNL     1      -6.596  10.616  66.592  1.00  0.00    -0.101 A  
HETATM    9  C   UNL     1      -8.002   9.469  68.157  1.00  0.00    -0.094 A  
HETATM   10  C   UNL     1      -7.057   9.391  67.128  1.00  0.00    -0.086 A  
HETATM   11  C   UNL     1      -5.602  10.396  65.500  1.00  0.00    -0.108 A  
HETATM   12  N   UNL     1      -6.432   8.341  66.479  1.00  0.00    -0.054 NA 
BRANCH  12  13
HETATM   13  C   UNL     1      -6.619   6.907  66.582  1.00  0.00    -0.048 C  
BRANCH  13  14
HETATM   14  C   UNL     1      -7.863   6.443  65.820  1.00  0.00    -0.104 C  
BRANCH  14  15
HETATM   15  C   UNL     1      -8.915   5.800  66.713  1.00  0.00    -0.118 C  
HETATM   16  O   UNL     1      -8.269   4.949  67.661  1.00  0.00    -0.104 OA 
HETATM   17  H   UNL     1      -8.927   4.548  68.218  1.00  0.00     0.000 HD 
ENDBRANCH  14  15
ENDBRANCH  13  14
ENDBRANCH  12  13
BRANCH   9  18
HETATM   18  C   UNL     1      -8.638   8.339  68.883  1.00  0.00    -0.132 C  
HETATM   19  N   UNL     1      -9.926   8.027  68.511  1.00  0.00    -0.186 N  
HETATM   20  O   UNL     1      -8.109   7.729  69.806  1.00  0.00    -0.113 OA 
HETATM   21  H2  UNL     1     -10.415   8.541  67.779  1.00  0.00     0.000 HD 
HETATM   22  H1  UNL     1     -10.363   7.251  69.010  1.00  0.00     0.000 HD 
ENDBRANCH   9  18
ENDBRANCH   3   4
ENDBRANCH   2   3
BRANCH   2  23
HETATM   23  N   UNL     1      -7.742  15.579  69.138  1.00  0.00    -0.192 NA 
HETATM   24  H   UNL     1      -7.481  16.455  68.687  1.00  0.00     0.000 HD 
BRANCH  23  25
HETATM   25  C   UNL     1      -9.112  15.661  69.672  1.00  0.00    -0.165 C  
BRANCH  25  26
HETATM   26  C   UNL     1     -10.015  16.681  68.947  1.00  0.00    -0.271 C  
BRANCH  26  27
HETATM   27  O   UNL     1     -10.154  16.397  67.548  1.00  0.00    -0.250 OA 
BRANCH  27  28
HETATM   28  C   UNL     1     -11.087  15.456  67.193  1.00  0.00    -0.291 A  
HETATM   29  C   UNL     1     -12.640  13.738  67.904  1.00  0.00     0.542 A  
HETATM   30  C   UNL     1     -11.365  15.100  65.861  1.00  0.00    -0.225 A  
HETATM   31  C   UNL     1     -11.744  14.758  68.219  1.00  0.00    -0.311 A  
HETATM   32  C   UNL     1     -12.897  13.389  66.576  1.00  0.00     0.406 A  
HETATM   33  C   UNL     1     -12.252  14.075  65.553  1.00  0.00    -0.455 A  
BRANCH  31  34
HETATM   34  O   UNL     1     -11.509  14.891  69.563  1.00  0.00    -0.264 OA 
BRANCH  34  35
HETATM   35  C   UNL     1     -12.149  13.944  70.428  1.00  0.00    -0.351 C  
HETATM   36  C   UNL     1     -12.931  14.615  71.552  1.00  0.00    -0.339 C  
HETATM   37  F   UNL     1     -13.014  15.956  71.422  1.00  0.00    -0.484 F  
HETATM   38  F   UNL     1     -14.193  14.130  71.627  1.00  0.00    -0.444 F  
HETATM   39  F   UNL     1     -12.345  14.367  72.754  1.00  0.00    -0.351 F  
ENDBRANCH  34  35
ENDBRANCH  31  34
ENDBRANCH  27  28
ENDBRANCH  26  27
ENDBRANCH  25  26
ENDBRANCH  23  25
ENDBRANCH   2  23
TORSDOF 13
ENDMDL
MODEL      382
REMARK 921   NORMALIZED FREE ENERGY PREDICTED BY IDOCK:    0.72 KCAL/MOL
REMARK 922        TOTAL FREE ENERGY PREDICTED BY IDOCK:   -1.90 KCAL/MOL
REMARK 923 INTER-LIGAND FREE ENERGY PREDICTED BY IDOCK:   -2.65 KCAL/MOL
REMARK 924 INTRA-LIGAND FREE ENERGY PREDICTED BY IDOCK:    0.75 KCAL/MOL
REMARK 927      BINDING AFFINITY PREDICTED BY RF-SCORE:    0.00 PKD
ROOT
HETATM    1  C   UNL     1      -8.471   8.167  64.938  1.00  0.00    -0.094 C  
HETATM    2  C   UNL     1      -8.072   9.192  66.008  1.00  0.00    -0.110 C  
ENDROOT
BRANCH   2   3
HETATM    3  C   UNL     1      -6.598   9.039  66.449  1.00  0.00    -0.067 C  
BRANCH   3   4
HETATM    4  C   UNL     1      -6.281   7.685  67.018  1.00  0.00    -0.053 A  
HETATM    5  C   UNL     1      -6.242   7.505  68.405  1.00  0.00    -0.036 A  
HETATM    6  C   UNL     1      -5.283   3.108  67.145  1.00  0.00    -0.008 A  
HETATM    7  C   UNL     1      -6.015   6.601  66.194  1.00  0.00    -0.033 A  
HETATM    8  C   UNL     1      -5.747   5.372  66.783  1.00  0.00    -0.017 A  
HETATM    9  C   UNL     1      -5.996   6.243  69.001  1.00  0.00    -0.021 A  
HETATM   10  C   UNL     1      -5.720   5.146  68.179  1.00  0.00    -0.017 A  
HETATM   11  C   UNL     1      -5.445   4.125  66.020  1.00  0.00    -0.013 A  
HETATM   12  N   UNL     1      -5.407   3.820  68.423  1.00  0.00    -0.012 NA 
BRANCH  12  13
HETATM   13  C   UNL     1      -5.348   3.065  69.659  1.00  0.00    -0.012 C  
BRANCH  13  14
HETATM   14  C   UNL     1      -6.662   2.329  69.934  1.00  0.00    -0.033 C  
BRANCH  14  15
HETATM   15  C   UNL     1      -7.766   2.668  68.943  1.00  0.00    -0.046 C  
HETATM   16  O   UNL     1      -9.024   2.261  69.486  1.00  0.00    -0.082 OA 
HETATM   17  H   UNL     1      -9.713   2.472  68.867  1.00  0.00     0.000 HD 
ENDBRANCH  14  15
ENDBRANCH  13  14
ENDBRANCH  12  13
BRANCH   9  18
HETATM   18  C   UNL     1      -6.030   6.270  70.487  1.00  0.00    -0.026 C  
HETATM   19  N   UNL     1      -5.832   5.063  71.120  1.00  0.00    -0.016 N  
HETATM   20  O   UNL     1      -6.273   7.271  71.152  1.00  0.00    -0.036 OA 
HETATM   21  H2  UNL     1      -5.671   4.202  70.599  1.00  0.00     0.000 HD 
HETATM   22  H1  UNL     1      -5.855   5.081  72.140  1.00  0.00     0.000 HD 
ENDBRANCH   9  18
ENDBRANCH   3   4
ENDBRANCH   2   3
BRANCH   2  23
HETATM   23  N   UNL     1      -8.996   9.057  67.148  1.00  0.00    -0.129 NA 
HETATM   24  H   UNL     1      -8.836   9.800  67.827  1.00  0.00     0.000 HD 
BRANCH  23  25
HETATM   25  C   UNL     1     -10.417   9.002  66.765  1.00  0.00    -0.200 C  
BRANCH  25  26
HETATM   26  C   UNL     1     -11.397   9.085  67.955  1.00  0.00     0.779 C  
BRANCH  26  27
HETATM   27  O   UNL     1     -10.762   9.522  69.163  1.00  0.00    -0.222 OA 
BRANCH  27  28
HETATM   28  C   UNL     1     -11.581   9.930  70.185  1.00  0.00    -0.218 A  
HETATM   29  C   UNL     1     -13.037  11.643  71.087  1.00  0.00    -0.167 A  
HETATM   30  C   UNL     1     -11.718   9.231  71.397  1.00  0.00    -0.431 A  
HETATM   31  C   UNL     1     -12.258  11.152  70.040  1.00  0.00    -0.326 A  
HETATM   32  C   UNL     1     -13.155  10.942  72.289  1.00  0.00    -0.110 A  
HETATM   33  C   UNL     1     -12.487   9.732  72.441  1.00  0.00    -0.013 A  
BRANCH  31  34
HETATM   34  O   UNL     1     -12.145  12.015  68.982  1.00  0.00    -0.271 OA 
BRANCH  34  35
HETATM   35  C   UNL     1     -12.020  13.408  69.295  1.00  0.00    -0.317 C  
HETATM   36  C   UNL     1     -12.031  14.289  68.051  1.00  0.00    -0.318 C  
HETATM   37  F   UNL     1     -12.323  13.617  66.918  1.00  0.00    -0.417 F  
HETATM   38  F   UNL     1     -12.925  15.298  68.174  1.00  0.00     0.696 F  
HETATM   39  F   UNL     1     -10.813  14.868  67.867  1.00  0.00    -0.253 F  
ENDBRANCH  34  35
ENDBRANCH  31  34
ENDBRANCH  27  28
ENDBRANCH  26  27
ENDBRANCH  25  26
ENDBRANCH  23  25
ENDBRANCH   2  23
TORSDOF 13
ENDMDL
MODEL      383
REMARK 921   NORMALIZED FREE ENERGY PREDICTED BY IDOCK:    0.80 KCAL/MOL
REMARK 922        TOTAL FREE ENERGY PREDICTED BY IDOCK:   -1.76 KCAL/MOL
REMARK 923 INTER-LIGAND FREE ENERGY PREDICTED BY IDOCK:   -0.31 KCAL/MOL
REMARK 924 INTRA-LIGAND FREE ENERGY PREDICTED BY IDOCK:   -1.45 KCAL/MOL
REMARK 927      BINDING AFFINITY PREDICTED BY RF-SCORE:    0.00 PKD
ROOT
HETATM    1  C   UNL     1     -11.267   9.097  70.685  1.00  0.00    -0.322 C  
HETATM    2  C   UNL     1     -10.211   9.132  69.572  1.00  0.00    -0.203 C  
ENDROOT
BRANCH   2   3
HETATM    3  C   UNL     1      -8.776   9.273  70.128  1.00  0.00    -0.224 C  
BRANCH   3   4
HETATM    4  C   UNL     1      -7.986  10.370  69.472  1.00  0.00    -0.152 A  
HETATM    5  C   UNL     1      -7.813  11.593  70.131  1.00  0.00     2.131 A  
HETATM    6  C   UNL     1      -5.354  12.570  66.279  1.00  0.00     1.691 A  
HETATM    7  C   UNL     1      -7.426  10.203  68.214  1.00  0.00    -0.082 A  
HETATM    8  C   UNL     1      -6.691  11.249  67.672  1.00  0.00    -0.073 A  
HETATM    9  C   UNL     1      -7.039  12.647  69.587  1.00  0.00     0.384 A  
HETATM   10  C   UNL     1      -6.476  12.490  68.316  1.00  0.00    -0.067 A  
HETATM   11  C   UNL     1      -6.035  11.207  66.332  1.00  0.00    -0.145 A  
HETATM   12  N   UNL     1      -5.719  13.308  67.495  1.00  0.00    -0.326 NA 
BRANCH  12  13
HETATM   13  C   UNL     1      -5.151  14.622  67.719  1.00  0.00     0.015 C  
BRANCH  13  14
HETATM   14  C   UNL     1      -6.231  15.707  67.754  1.00  0.00    -0.179 C  
BRANCH  14  15
HETATM   15  C   UNL     1      -5.811  17.003  67.076  1.00  0.00    -0.179 C  
HETATM   16  O   UNL     1      -5.440  17.955  68.075  1.00  0.00    -0.144 OA 
HETATM   17  H   UNL     1      -5.178  18.764  67.651  1.00  0.00     0.000 HD 
ENDBRANCH  14  15
ENDBRANCH  13  14
ENDBRANCH  12  13
BRANCH   9  18
HETATM   18  C   UNL     1      -6.960  13.843  70.465  1.00  0.00     0.738 C  
HETATM   19  N   UNL     1      -6.328  13.667  71.676  1.00  0.00     0.182 N  
HETATM   20  O   UNL     1      -7.464  14.929  70.197  1.00  0.00    -0.016 OA 
HETATM   21  H2  UNL     1      -5.937  12.767  71.953  1.00  0.00     0.000 HD 
HETATM   22  H1  UNL     1      -6.274  14.488  72.279  1.00  0.00     0.000 HD 
ENDBRANCH   9  18
ENDBRANCH   3   4
ENDBRANCH   2   3
BRANCH   2  23
HETATM   23  N   UNL     1     -10.547  10.230  68.649  1.00  0.00    -0.196 NA 
HETATM   24  H   UNL     1     -10.434   9.931  67.681  1.00  0.00     0.000 HD 
BRANCH  23  25
HETATM   25  C   UNL     1     -11.886  10.805  68.861  1.00  0.00    -0.216 C  
BRANCH  25  26
HETATM   26  C   UNL     1     -12.285  11.880  67.827  1.00  0.00     0.419 C  
BRANCH  26  27
HETATM   27  O   UNL     1     -11.220  12.799  67.549  1.00  0.00    -0.261 OA 
BRANCH  27  28
HETATM   28  C   UNL     1     -11.231  13.412  66.322  1.00  0.00    -0.305 A  
HETATM   29  C   UNL     1     -11.273  15.482  65.064  1.00  0.00    -0.364 A  
HETATM   30  C   UNL     1     -11.365  12.717  65.107  1.00  0.00    -0.343 A  
HETATM   31  C   UNL     1     -11.183  14.815  66.285  1.00  0.00    -0.343 A  
HETATM   32  C   UNL     1     -11.416  14.778  63.866  1.00  0.00     0.401 A  
HETATM   33  C   UNL     1     -11.465  13.389  63.894  1.00  0.00    -0.351 A  
BRANCH  31  34
HETATM   34  O   UNL     1     -11.173  15.650  67.372  1.00  0.00    -0.306 OA 
BRANCH  34  35
HETATM   35  C   UNL     1      -9.911  16.222  67.736  1.00  0.00    -0.246 C  
HETATM   36  C   UNL     1      -9.840  17.716  67.439  1.00  0.00    -0.305 C  
HETATM   37  F   UNL     1     -11.020  18.245  67.053  1.00  0.00    -0.370 F  
HETATM   38  F   UNL     1      -9.411  18.410  68.519  1.00  0.00    -0.292 F  
HETATM   39  F   UNL     1      -8.949  17.960  66.440  1.00  0.00    -0.260 F  
ENDBRANCH  34  35
ENDBRANCH  31  34
ENDBRANCH  27  28
ENDBRANCH  26  27
ENDBRANCH  25  26
ENDBRANCH  23  25
ENDBRANCH   2  23
TORSDOF 13
ENDMDL
MODEL      384
REMARK 921   NORMALIZED FREE ENERGY PREDICTED BY IDOCK:    1.89 KCAL/MOL
REMARK 922        TOTAL FREE ENERGY PREDICTED BY IDOCK:    0.16 KCAL/MOL
REMARK 923 INTER-LIGAND FREE ENERGY PREDICTED BY IDOCK:    1.99 KCAL/MOL
REMARK 924 INTRA-LIGAND FREE ENERGY PREDICTED BY IDOCK:   -1.83 KCAL/MOL
REMARK 927      BINDING AFFINITY PREDICTED BY RF-SCORE:    0.00 PKD
ROOT
HETATM    1  C   UNL     1     -11.275   9.097  70.659  1.00  0.00    -0.322 C  
HETATM    2  C   UNL     1     -10.174   8.962  69.599  1.00  0.00    -0.206 C  
ENDROOT
BRANCH   2   3
HETATM    3  C   UNL     1      -8.761   9.175  70.188  1.00  0.00    -0.196 C  
BRANCH   3   4
HETATM    4  C   UNL     1      -7.963  10.225  69.467  1.00  0.00    -0.171 A  
HETATM    5  C   UNL     1      -7.842  11.506  70.017  1.00  0.00     1.539 A  
HETATM    6  C   UNL     1      -5.236  12.180  66.196  1.00  0.00     1.038 A  
HETATM    7  C   UNL     1      -7.346   9.955  68.254  1.00  0.00    -0.079 A  
HETATM    8  C   UNL     1      -6.608  10.964  67.649  1.00  0.00    -0.065 A  
HETATM    9  C   UNL     1      -7.065  12.523  69.410  1.00  0.00     0.172 A  
HETATM   10  C   UNL     1      -6.445  12.263  68.183  1.00  0.00    -0.062 A  
HETATM   11  C   UNL     1      -5.893  10.813  66.347  1.00  0.00    -0.109 A  
HETATM   12  N   UNL     1      -5.668  13.019  67.322  1.00  0.00    -0.349 NA 
BRANCH  12  13
HETATM   13  C   UNL     1      -5.135  14.361  67.447  1.00  0.00     0.428 C  
BRANCH  13  14
HETATM   14  C   UNL     1      -6.247  15.412  67.456  1.00  0.00    -0.120 C  
BRANCH  14  15
HETATM   15  C   UNL     1      -5.894  16.675  66.681  1.00  0.00     0.080 C  
HETATM   16  O   UNL     1      -5.517  17.699  67.602  1.00  0.00    -0.129 OA 
HETATM   17  H   UNL     1      -5.297  18.487  67.119  1.00  0.00     0.000 HD 
ENDBRANCH  14  15
ENDBRANCH  13  14
ENDBRANCH  12  13
BRANCH   9  18
HETATM   18  C   UNL     1      -7.047  13.797  70.176  1.00  0.00     0.595 C  
HETATM   19  N   UNL     1      -8.218  14.521  70.176  1.00  0.00     0.173 N  
HETATM   20  O   UNL     1      -6.057  14.245  70.742  1.00  0.00    -0.196 OA 
HETATM   21  H2  UNL     1      -9.050  14.202  69.679  1.00  0.00     0.000 HD 
HETATM   22  H1  UNL     1      -8.206  15.396  70.702  1.00  0.00     0.000 HD 
ENDBRANCH   9  18
ENDBRANCH   3   4
ENDBRANCH   2   3
BRANCH   2  23
HETATM   23  N   UNL     1     -10.457   9.915  68.511  1.00  0.00    -0.196 NA 
HETATM   24  H   UNL     1     -10.370   9.458  67.604  1.00  0.00     0.000 HD 
BRANCH  23  25
HETATM   25  C   UNL     1     -11.762  10.588  68.628  1.00  0.00    -0.085 C  
BRANCH  25  26
HETATM   26  C   UNL     1     -12.174  11.392  67.376  1.00  0.00     0.955 C  
BRANCH  26  27
HETATM   27  O   UNL     1     -11.049  11.946  66.681  1.00  0.00    -0.280 OA 
BRANCH  27  28
HETATM   28  C   UNL     1     -11.185  12.139  65.329  1.00  0.00    -0.332 A  
HETATM   29  C   UNL     1     -10.255  11.845  63.112  1.00  0.00    -0.334 A  
HETATM   30  C   UNL     1     -12.213  12.907  64.754  1.00  0.00    -0.499 A  
HETATM   31  C   UNL     1     -10.200  11.604  64.484  1.00  0.00    -0.291 A  
HETATM   32  C   UNL     1     -11.277  12.619  62.556  1.00  0.00     2.445 A  
HETATM   33  C   UNL     1     -12.256  13.152  63.386  1.00  0.00    -0.521 A  
BRANCH  31  34
HETATM   34  O   UNL     1      -9.072  10.936  64.883  1.00  0.00    -0.197 OA 
BRANCH  34  35
HETATM   35  C   UNL     1      -9.090   9.508  64.765  1.00  0.00    -0.218 C  
HETATM   36  C   UNL     1      -8.202   9.004  63.633  1.00  0.00    -0.177 C  
HETATM   37  F   UNL     1      -7.444   9.970  63.073  1.00  0.00    -0.121 F  
HETATM   38  F   UNL     1      -7.371   8.025  64.062  1.00  0.00    -0.078 F  
HETATM   39  F   UNL     1      -8.959   8.465  62.639  1.00  0.00    -0.098 F  
ENDBRANCH  34  35
ENDBRANCH  31  34
ENDBRANCH  27  28
ENDBRANCH  26  27
ENDBRANCH  25  26
ENDBRANCH  23  25
ENDBRANCH   2  23
TORSDOF 13
ENDMDL
MODEL      385
REMARK 921   NORMALIZED FREE ENERGY PREDICTED BY IDOCK:    2.67 KCAL/MOL
REMARK 922        TOTAL FREE ENERGY PREDICTED BY IDOCK:    1.53 KCAL/MOL
REMARK 923 INTER-LIGAND FREE ENERGY PREDICTED BY IDOCK:    0.27 KCAL/MOL
REMARK 924 INTRA-LIGAND FREE ENERGY PREDICTED BY IDOCK:    1.26 KCAL/MOL
REMARK 927      BINDING AFFINITY PREDICTED BY RF-SCORE:    0.00 PKD
ROOT
HETATM    1  C   UNL     1     -11.668   9.054  70.885  1.00  0.00    -0.327 C  
HETATM    2  C   UNL     1     -10.802   9.099  69.620  1.00  0.00    -0.197 C  
ENDROOT
BRANCH   2   3
HETATM    3  C   UNL     1      -9.291   9.040  69.939  1.00  0.00    -0.182 C  
BRANCH   3   4
HETATM    4  C   UNL     1      -8.582  10.348  69.731  1.00  0.00     0.018 A  
HETATM    5  C   UNL     1      -9.266  11.426  69.159  1.00  0.00     0.158 A  
HETATM    6  C   UNL     1      -5.155  13.542  69.838  1.00  0.00    -0.083 A  
HETATM    7  C   UNL     1      -7.250  10.511  70.085  1.00  0.00    -0.025 A  
HETATM    8  C   UNL     1      -6.660  11.752  69.883  1.00  0.00    -0.000 A  
HETATM    9  C   UNL     1      -8.668  12.698  68.981  1.00  0.00     0.494 A  
HETATM   10  C   UNL     1      -7.324  12.871  69.329  1.00  0.00     0.246 A  
HETATM   11  C   UNL     1      -5.240  12.068  70.218  1.00  0.00    -0.105 A  
HETATM   12  N   UNL     1      -6.444  13.936  69.253  1.00  0.00    -0.110 NA 
BRANCH  12  13
HETATM   13  C   UNL     1      -6.646  15.316  68.859  1.00  0.00    -0.108 C  
BRANCH  13  14
HETATM   14  C   UNL     1      -5.612  16.245  69.501  1.00  0.00    -0.143 C  
BRANCH  14  15
HETATM   15  C   UNL     1      -6.229  17.456  70.187  1.00  0.00     0.097 C  
HETATM   16  O   UNL     1      -5.203  18.184  70.863  1.00  0.00    -0.263 OA 
HETATM   17  H   UNL     1      -5.588  18.940  71.291  1.00  0.00     0.000 HD 
ENDBRANCH  14  15
ENDBRANCH  13  14
ENDBRANCH  12  13
BRANCH   9  18
HETATM   18  C   UNL     1      -9.581  13.709  68.386  1.00  0.00    -0.203 C  
HETATM   19  N   UNL     1      -9.212  14.213  67.159  1.00  0.00    -0.221 N  
HETATM   20  O   UNL     1     -10.585  14.141  68.942  1.00  0.00    -0.244 OA 
HETATM   21  H2  UNL     1      -8.360  13.910  66.687  1.00  0.00     0.000 HD 
HETATM   22  H1  UNL     1      -9.839  14.907  66.751  1.00  0.00     0.000 HD 
ENDBRANCH   9  18
ENDBRANCH   3   4
ENDBRANCH   2   3
BRANCH   2  23
HETATM   23  N   UNL     1     -11.148  10.315  68.863  1.00  0.00    -0.285 NA 
HETATM   24  H   UNL     1     -10.837  10.235  67.895  1.00  0.00     0.000 HD 
BRANCH  23  25
HETATM   25  C   UNL     1     -12.576  10.670  68.918  1.00  0.00     0.956 C  
BRANCH  25  26
HETATM   26  C   UNL     1     -13.012  11.711  67.865  1.00  0.00     3.954 C  
BRANCH  26  27
HETATM   27  O   UNL     1     -11.899  12.391  67.269  1.00  0.00    -0.455 OA 
BRANCH  27  28
HETATM   28  C   UNL     1     -11.844  12.412  65.898  1.00  0.00    -0.405 A  
HETATM   29  C   UNL     1     -10.506  12.146  63.896  1.00  0.00    -0.442 A  
HETATM   30  C   UNL     1     -12.908  12.837  65.084  1.00  0.00    -0.237 A  
HETATM   31  C   UNL     1     -10.632  12.061  65.282  1.00  0.00    -0.287 A  
HETATM   32  C   UNL     1     -11.570  12.581  63.101  1.00  0.00    -0.271 A  
HETATM   33  C   UNL     1     -12.773  12.929  63.703  1.00  0.00    -0.193 A  
BRANCH  31  34
HETATM   34  O   UNL     1      -9.464  11.740  65.924  1.00  0.00    -0.227 OA 
BRANCH  34  35
HETATM   35  C   UNL     1      -9.146  10.347  66.029  1.00  0.00    -0.162 C  
HETATM   36  C   UNL     1      -8.420   9.819  64.796  1.00  0.00    -0.164 C  
HETATM   37  F   UNL     1      -8.067  10.788  63.925  1.00  0.00    -0.122 F  
HETATM   38  F   UNL     1      -7.298   9.146  65.141  1.00  0.00    -0.090 F  
HETATM   39  F   UNL     1      -9.209   8.942  64.119  1.00  0.00    -0.099 F  
ENDBRANCH  34  35
ENDBRANCH  31  34
ENDBRANCH  27  28
ENDBRANCH  26  27
ENDBRANCH  25  26
ENDBRANCH  23  25
ENDBRANCH   2  23
TORSDOF 13
ENDMDL
MODEL      386
REMARK 921   NORMALIZED FREE ENERGY PREDICTED BY IDOCK:    3.29 KCAL/MOL
REMARK 922        TOTAL FREE ENERGY PREDICTED BY IDOCK:    2.62 KCAL/MOL
REMARK 923 INTER-LIGAND FREE ENERGY PREDICTED BY IDOCK:    0.84 KCAL/MOL
REMARK 924 INTRA-LIGAND FREE ENERGY PREDICTED BY IDOCK:    1.78 KCAL/MOL
REMARK 927      BINDING AFFINITY PREDICTED BY RF-SCORE:    0.00 PKD
ROOT
HETATM    1  C   UNL     1      -8.639   8.249  65.102  1.00  0.00    -0.132 C  
HETATM    2  C   UNL     1      -8.199   9.439  65.966  1.00  0.00    -0.111 C  
ENDROOT
BRANCH   2   3
HETATM    3  C   UNL     1      -6.767   9.266  66.520  1.00  0.00    -0.072 C  
BRANCH   3   4
HETATM    4  C   UNL     1      -6.453  10.188  67.664  1.00  0.00    -0.063 A  
HETATM    5  C   UNL     1      -6.021  11.494  67.408  1.00  0.00    -0.082 A  
HETATM    6  C   UNL     1      -5.998  11.699  72.077  1.00  0.00     1.835 A  
HETATM    7  C   UNL     1      -6.572   9.768  68.982  1.00  0.00    -0.049 A  
HETATM    8  C   UNL     1      -6.284  10.675  69.993  1.00  0.00    -0.111 A  
HETATM    9  C   UNL     1      -5.755  12.424  68.443  1.00  0.00    -0.056 A  
HETATM   10  C   UNL     1      -5.866  12.008  69.774  1.00  0.00    -0.125 A  
HETATM   11  C   UNL     1      -6.371  10.360  71.450  1.00  0.00     0.556 A  
HETATM   12  N   UNL     1      -5.651  12.627  70.993  1.00  0.00    -0.321 NA 
BRANCH  12  13
HETATM   13  C   UNL     1      -5.312  13.998  71.321  1.00  0.00    -0.183 C  
BRANCH  13  14
HETATM   14  C   UNL     1      -6.513  14.932  71.154  1.00  0.00     0.473 C  
BRANCH  14  15
HETATM   15  C   UNL     1      -7.695  14.280  70.450  1.00  0.00     1.356 C  
HETATM   16  O   UNL     1      -8.582  15.298  69.983  1.00  0.00    -0.318 OA 
HETATM   17  H   UNL     1      -9.319  14.891  69.544  1.00  0.00     0.000 HD 
ENDBRANCH  14  15
ENDBRANCH  13  14
ENDBRANCH  12  13
BRANCH   9  18
HETATM   18  C   UNL     1      -5.339  13.762  67.949  1.00  0.00    -0.086 C  
HETATM   19  N   UNL     1      -5.125  14.724  68.911  1.00  0.00    -0.087 N  
HETATM   20  O   UNL     1      -5.235  14.057  66.764  1.00  0.00     0.762 OA 
HETATM   21  H2  UNL     1      -5.246  14.529  69.905  1.00  0.00     0.000 HD 
HETATM   22  H1  UNL     1      -4.840  15.644  68.572  1.00  0.00     0.000 HD 
ENDBRANCH   9  18
ENDBRANCH   3   4
ENDBRANCH   2   3
BRANCH   2  23
HETATM   23  N   UNL     1      -9.183   9.613  67.050  1.00  0.00    -0.140 NA 
HETATM   24  H   UNL     1      -9.075  10.529  67.485  1.00  0.00     0.000 HD 
BRANCH  23  25
HETATM   25  C   UNL     1     -10.579   9.399  66.633  1.00  0.00    -0.100 C  
BRANCH  25  26
HETATM   26  C   UNL     1     -11.562   9.181  67.803  1.00  0.00     1.644 C  
BRANCH  26  27
HETATM   27  O   UNL     1     -10.911   9.192  69.080  1.00  0.00    -0.161 OA 
BRANCH  27  28
HETATM   28  C   UNL     1     -11.716   9.165  70.191  1.00  0.00     0.065 A  
HETATM   29  C   UNL     1     -13.171  10.380  71.699  1.00  0.00    -0.502 A  
HETATM   30  C   UNL     1     -11.827   8.052  71.043  1.00  0.00    -0.280 A  
HETATM   31  C   UNL     1     -12.406  10.339  70.534  1.00  0.00    -0.284 A  
HETATM   32  C   UNL     1     -13.263   9.270  72.541  1.00  0.00    -0.439 A  
HETATM   33  C   UNL     1     -12.584   8.104  72.209  1.00  0.00    -0.314 A  
BRANCH  31  34
HETATM   34  O   UNL     1     -12.318  11.544  69.887  1.00  0.00    -0.250 OA 
BRANCH  34  35
HETATM   35  C   UNL     1     -12.170  12.709  70.708  1.00  0.00    -0.240 C  
HETATM   36  C   UNL     1     -12.152  13.999  69.895  1.00  0.00    -0.345 C  
HETATM   37  F   UNL     1     -12.446  13.815  68.590  1.00  0.00    -0.370 F  
HETATM   38  F   UNL     1     -13.029  14.903  70.391  1.00  0.00    -0.377 F  
HETATM   39  F   UNL     1     -10.922  14.577  69.949  1.00  0.00    -0.258 F  
ENDBRANCH  34  35
ENDBRANCH  31  34
ENDBRANCH  27  28
ENDBRANCH  26  27
ENDBRANCH  25  26
ENDBRANCH  23  25
ENDBRANCH   2  23
TORSDOF 13
ENDMDL
MODEL      387
REMARK 921   NORMALIZED FREE ENERGY PREDICTED BY IDOCK:    3.60 KCAL/MOL
REMARK 922        TOTAL FREE ENERGY PREDICTED BY IDOCK:    3.17 KCAL/MOL
REMARK 923 INTER-LIGAND FREE ENERGY PREDICTED BY IDOCK:    0.88 KCAL/MOL
REMARK 924 INTRA-LIGAND FREE ENERGY PREDICTED BY IDOCK:    2.28 KCAL/MOL
REMARK 927      BINDING AFFINITY PREDICTED BY RF-SCORE:    0.00 PKD
ROOT
HETATM    1  C   UNL     1     -11.671   9.055  70.886  1.00  0.00    -0.327 C  
HETATM    2  C   UNL     1     -10.799   9.084  69.624  1.00  0.00    -0.186 C  
ENDROOT
BRANCH   2   3
HETATM    3  C   UNL     1      -9.290   9.024  69.950  1.00  0.00    -0.182 C  
BRANCH   3   4
HETATM    4  C   UNL     1      -8.579  10.331  69.740  1.00  0.00    -0.078 A  
HETATM    5  C   UNL     1      -9.260  11.408  69.162  1.00  0.00     0.158 A  
HETATM    6  C   UNL     1      -5.149  13.522  69.851  1.00  0.00    -0.083 A  
HETATM    7  C   UNL     1      -7.249  10.494  70.099  1.00  0.00    -0.025 A  
HETATM    8  C   UNL     1      -6.656  11.733  69.895  1.00  0.00    -0.000 A  
HETATM    9  C   UNL     1      -8.659  12.679  68.982  1.00  0.00     0.483 A  
HETATM   10  C   UNL     1      -7.316  12.851  69.335  1.00  0.00     0.364 A  
HETATM   11  C   UNL     1      -5.237  12.049  70.235  1.00  0.00    -0.105 A  
HETATM   12  N   UNL     1      -6.435  13.915  69.259  1.00  0.00    -0.110 NA 
BRANCH  12  13
HETATM   13  C   UNL     1      -6.634  15.294  68.859  1.00  0.00    -0.108 C  
BRANCH  13  14
HETATM   14  C   UNL     1      -6.073  15.563  67.460  1.00  0.00    -0.119 C  
BRANCH  14  15
HETATM   15  C   UNL     1      -6.290  16.992  66.985  1.00  0.00    -0.196 C  
HETATM   16  O   UNL     1      -7.587  17.099  66.397  1.00  0.00    -0.256 OA 
HETATM   17  H   UNL     1      -7.722  17.992  66.100  1.00  0.00     0.000 HD 
ENDBRANCH  14  15
ENDBRANCH  13  14
ENDBRANCH  12  13
BRANCH   9  18
HETATM   18  C   UNL     1      -9.569  13.688  68.380  1.00  0.00    -0.203 C  
HETATM   19  N   UNL     1      -9.183  14.202  67.162  1.00  0.00    -0.221 N  
HETATM   20  O   UNL     1     -10.583  14.111  68.923  1.00  0.00    -0.244 OA 
HETATM   21  H2  UNL     1      -8.323  13.907  66.700  1.00  0.00     0.000 HD 
HETATM   22  H1  UNL     1      -9.808  14.895  66.748  1.00  0.00     0.000 HD 
ENDBRANCH   9  18
ENDBRANCH   3   4
ENDBRANCH   2   3
BRANCH   2  23
HETATM   23  N   UNL     1     -11.140  10.293  68.853  1.00  0.00    -0.285 NA 
HETATM   24  H   UNL     1     -10.823  10.202  67.888  1.00  0.00     0.000 HD 
BRANCH  23  25
HETATM   25  C   UNL     1     -12.567  10.650  68.897  1.00  0.00     0.956 C  
BRANCH  25  26
HETATM   26  C   UNL     1     -12.971  11.769  67.913  1.00  0.00     3.853 C  
BRANCH  26  27
HETATM   27  O   UNL     1     -11.841  12.487  67.401  1.00  0.00    -0.386 OA 
BRANCH  27  28
HETATM   28  C   UNL     1     -11.746  12.610  66.038  1.00  0.00    -0.417 A  
HETATM   29  C   UNL     1     -11.949  14.033  64.088  1.00  0.00    -0.439 A  
HETATM   30  C   UNL     1     -11.526  11.523  65.173  1.00  0.00    -0.090 A  
HETATM   31  C   UNL     1     -11.956  13.878  65.473  1.00  0.00    -0.383 A  
HETATM   32  C   UNL     1     -11.740  12.941  63.241  1.00  0.00    -0.408 A  
HETATM   33  C   UNL     1     -11.531  11.682  63.792  1.00  0.00    -0.457 A  
BRANCH  31  34
HETATM   34  O   UNL     1     -12.299  15.017  66.155  1.00  0.00     0.085 OA 
BRANCH  34  35
HETATM   35  C   UNL     1     -11.246  15.950  66.425  1.00  0.00     0.098 C  
HETATM   36  C   UNL     1     -11.007  16.913  65.267  1.00  0.00    -0.044 C  
HETATM   37  F   UNL     1     -11.933  16.817  64.289  1.00  0.00    -0.074 F  
HETATM   38  F   UNL     1     -10.991  18.197  65.694  1.00  0.00    -0.341 F  
HETATM   39  F   UNL     1      -9.796  16.677  64.693  1.00  0.00     0.656 F  
ENDBRANCH  34  35
ENDBRANCH  31  34
ENDBRANCH  27  28
ENDBRANCH  26  27
ENDBRANCH  25  26
ENDBRANCH  23  25
ENDBRANCH   2  23
TORSDOF 13
ENDMDL
MODEL      388
REMARK 921   NORMALIZED FREE ENERGY PREDICTED BY IDOCK:    8.63 KCAL/MOL
REMARK 922        TOTAL FREE ENERGY PREDICTED BY IDOCK:   12.03 KCAL/MOL
REMARK 923 INTER-LIGAND FREE ENERGY PREDICTED BY IDOCK:    4.16 KCAL/MOL
REMARK 924 INTRA-LIGAND FREE ENERGY PREDICTED BY IDOCK:    7.87 KCAL/MOL
REMARK 927      BINDING AFFINITY PREDICTED BY RF-SCORE:    0.00 PKD
ROOT
HETATM    1  C   UNL     1      -7.975  20.606  66.589  1.00  0.00    -0.118 C  
HETATM    2  C   UNL     1      -8.801  19.706  67.517  1.00  0.00    -0.311 C  
ENDROOT
BRANCH   2   3
HETATM    3  C   UNL     1      -7.924  18.689  68.283  1.00  0.00    -0.337 C  
BRANCH   3   4
HETATM    4  C   UNL     1      -8.669  17.455  68.706  1.00  0.00    -0.223 A  
HETATM    5  C   UNL     1      -8.051  16.203  68.612  1.00  0.00    -0.203 A  
HETATM    6  C   UNL     1     -12.129  14.790  70.405  1.00  0.00    -0.321 A  
HETATM    7  C   UNL     1      -9.970  17.526  69.183  1.00  0.00    -0.197 A  
HETATM    8  C   UNL     1     -10.596  16.350  69.575  1.00  0.00    -0.320 A  
HETATM    9  C   UNL     1      -8.683  15.009  69.040  1.00  0.00    -0.203 A  
HETATM   10  C   UNL     1      -9.997  15.070  69.515  1.00  0.00    -0.142 A  
HETATM   11  C   UNL     1     -11.989  16.279  70.106  1.00  0.00     0.110 A  
HETATM   12  N   UNL     1     -10.898  14.120  69.964  1.00  0.00     0.111 NA 
BRANCH  12  13
HETATM   13  C   UNL     1     -10.752  12.696  70.191  1.00  0.00     1.455 C  
BRANCH  13  14
HETATM   14  C   UNL     1     -12.059  12.063  70.675  1.00  0.00    -0.369 C  
BRANCH  14  15
HETATM   15  C   UNL     1     -11.945  10.570  70.945  1.00  0.00    -0.377 C  
HETATM   16  O   UNL     1     -13.122  10.125  71.623  1.00  0.00    -0.387 OA 
HETATM   17  H   UNL     1     -13.051   9.193  71.792  1.00  0.00     0.000 HD 
ENDBRANCH  14  15
ENDBRANCH  13  14
ENDBRANCH  12  13
BRANCH   9  18
HETATM   18  C   UNL     1      -7.838  13.797  68.880  1.00  0.00     0.005 C  
HETATM   19  N   UNL     1      -7.853  13.206  67.636  1.00  0.00    -0.155 N  
HETATM   20  O   UNL     1      -7.193  13.284  69.787  1.00  0.00     0.312 OA 
HETATM   21  H2  UNL     1      -8.413  13.579  66.869  1.00  0.00     0.000 HD 
HETATM   22  H1  UNL     1      -7.273  12.374  67.526  1.00  0.00     0.000 HD 
ENDBRANCH   9  18
ENDBRANCH   3   4
ENDBRANCH   2   3
BRANCH   2  23
HETATM   23  N   UNL     1      -9.834  19.032  66.711  1.00  0.00    -0.324 NA 
HETATM   24  H   UNL     1     -10.442  19.717  66.264  1.00  0.00     0.000 HD 
BRANCH  23  25
HETATM   25  C   UNL     1      -9.298  18.088  65.716  1.00  0.00     0.358 C  
BRANCH  25  26
HETATM   26  C   UNL     1     -10.308  17.018  65.249  1.00  0.00     0.048 C  
BRANCH  26  27
HETATM   27  O   UNL     1     -10.487  15.972  66.213  1.00  0.00    -0.307 OA 
BRANCH  27  28
HETATM   28  C   UNL     1     -11.595  15.176  66.070  1.00  0.00    -0.080 A  
HETATM   29  C   UNL     1     -12.501  12.936  65.887  1.00  0.00    -0.252 A  
HETATM   30  C   UNL     1     -12.883  15.676  65.810  1.00  0.00     2.006 A  
HETATM   31  C   UNL     1     -11.416  13.783  66.109  1.00  0.00    -0.338 A  
HETATM   32  C   UNL     1     -13.773  13.449  65.620  1.00  0.00     2.240 A  
HETATM   33  C   UNL     1     -13.959  14.825  65.579  1.00  0.00     3.107 A  
BRANCH  31  34
HETATM   34  O   UNL     1     -10.219  13.128  66.232  1.00  0.00    -0.280 OA 
BRANCH  34  35
HETATM   35  C   UNL     1     -10.272  11.761  66.657  1.00  0.00    -0.210 C  
HETATM   36  C   UNL     1     -11.443  11.485  67.594  1.00  0.00    -0.285 C  
HETATM   37  F   UNL     1     -12.296  12.525  67.708  1.00  0.00    -0.318 F  
HETATM   38  F   UNL     1     -12.156  10.411  67.183  1.00  0.00     0.647 F  
HETATM   39  F   UNL     1     -10.994  11.199  68.846  1.00  0.00    -0.185 F  
ENDBRANCH  34  35
ENDBRANCH  31  34
ENDBRANCH  27  28
ENDBRANCH  26  27
ENDBRANCH  25  26
ENDBRANCH  23  25
ENDBRANCH   2  23
TORSDOF 13
ENDMDL
MODEL      389
REMARK 921   NORMALIZED FREE ENERGY PREDICTED BY IDOCK:    9.91 KCAL/MOL
REMARK 922        TOTAL FREE ENERGY PREDICTED BY IDOCK:   14.27 KCAL/MOL
REMARK 923 INTER-LIGAND FREE ENERGY PREDICTED BY IDOCK:   13.27 KCAL/MOL
REMARK 924 INTRA-LIGAND FREE ENERGY PREDICTED BY IDOCK:    1.00 KCAL/MOL
REMARK 927      BINDING AFFINITY PREDICTED BY RF-SCORE:    0.00 PKD
ROOT
HETATM    1  C   UNL     1      -5.957  14.518  72.217  1.00  0.00     0.298 C  
HETATM    2  C   UNL     1      -6.009  13.752  70.889  1.00  0.00    -0.136 C  
ENDROOT
BRANCH   2   3
HETATM    3  C   UNL     1      -5.206  14.457  69.771  1.00  0.00    -0.092 C  
BRANCH   3   4
HETATM    4  C   UNL     1      -5.824  15.747  69.313  1.00  0.00    -0.118 A  
HETATM    5  C   UNL     1      -6.652  15.761  68.185  1.00  0.00    -0.136 A  
HETATM    6  C   UNL     1      -6.947  20.297  69.270  1.00  0.00    -0.040 A  
HETATM    7  C   UNL     1      -5.584  16.940  69.982  1.00  0.00    -0.222 A  
HETATM    8  C   UNL     1      -6.200  18.094  69.518  1.00  0.00    -0.235 A  
HETATM    9  C   UNL     1      -7.301  16.936  67.732  1.00  0.00    -0.169 A  
HETATM   10  C   UNL     1      -7.060  18.143  68.396  1.00  0.00    -0.252 A  
HETATM   11  C   UNL     1      -6.032  19.441  70.139  1.00  0.00    -0.282 A  
HETATM   12  N   UNL     1      -7.486  19.446  68.201  1.00  0.00    -0.282 NA 
BRANCH  12  13
HETATM   13  C   UNL     1      -8.437  20.009  67.264  1.00  0.00    -0.334 C  
BRANCH  13  14
HETATM   14  C   UNL     1      -9.488  18.981  66.837  1.00  0.00    -0.355 C  
BRANCH  14  15
HETATM   15  C   UNL     1     -10.649  19.586  66.061  1.00  0.00    -0.491 C  
HETATM   16  O   UNL     1     -10.253  20.857  65.542  1.00  0.00    -0.039 OA 
HETATM   17  H   UNL     1     -10.977  21.235  65.057  1.00  0.00     0.000 HD 
ENDBRANCH  14  15
ENDBRANCH  13  14
ENDBRANCH  12  13
BRANCH   9  18
HETATM   18  C   UNL     1      -8.158  16.720  66.537  1.00  0.00    -0.294 C  
HETATM   19  N   UNL     1      -9.217  15.854  66.697  1.00  0.00    -0.230 N  
HETATM   20  O   UNL     1      -7.942  17.216  65.437  1.00  0.00     0.118 OA 
HETATM   21  H2  UNL     1      -9.402  15.388  67.585  1.00  0.00     0.000 HD 
HETATM   22  H1  UNL     1      -9.805  15.706  65.877  1.00  0.00     0.000 HD 
ENDBRANCH   9  18
ENDBRANCH   3   4
ENDBRANCH   2   3
BRANCH   2  23
HETATM   23  N   UNL     1      -7.422  13.573  70.511  1.00  0.00     1.191 NA 
HETATM   24  H   UNL     1      -7.797  12.721  70.926  1.00  0.00     0.000 HD 
BRANCH  23  25
HETATM   25  C   UNL     1      -8.280  14.726  70.832  1.00  0.00     2.518 C  
BRANCH  25  26
HETATM   26  C   UNL     1      -9.790  14.407  70.847  1.00  0.00     2.648 C  
BRANCH  26  27
HETATM   27  O   UNL     1     -10.057  13.011  71.031  1.00  0.00     5.528 OA 
BRANCH  27  28
HETATM   28  C   UNL     1     -11.001  12.443  70.213  1.00  0.00     1.183 A  
HETATM   29  C   UNL     1     -11.481  11.204  68.188  1.00  0.00    -0.373 A  
HETATM   30  C   UNL     1     -12.386  12.603  70.397  1.00  0.00    -0.315 A  
HETATM   31  C   UNL     1     -10.556  11.728  69.090  1.00  0.00    -0.069 A  
HETATM   32  C   UNL     1     -12.854  11.381  68.378  1.00  0.00     2.352 A  
HETATM   33  C   UNL     1     -13.303  12.087  69.488  1.00  0.00     2.588 A  
BRANCH  31  34
HETATM   34  O   UNL     1      -9.252  11.578  68.695  1.00  0.00    -0.186 OA 
BRANCH  34  35
HETATM   35  C   UNL     1      -8.913  12.059  67.388  1.00  0.00    -0.176 C  
HETATM   36  C   UNL     1      -7.407  12.109  67.157  1.00  0.00    -0.124 C  
HETATM   37  F   UNL     1      -6.692  11.538  68.149  1.00  0.00    -0.058 F  
HETATM   38  F   UNL     1      -7.069  11.495  65.999  1.00  0.00    -0.021 F  
HETATM   39  F   UNL     1      -6.984  13.398  67.053  1.00  0.00    -0.121 F  
ENDBRANCH  34  35
ENDBRANCH  31  34
ENDBRANCH  27  28
ENDBRANCH  26  27
ENDBRANCH  25  26
ENDBRANCH  23  25
ENDBRANCH   2  23
TORSDOF 13
ENDMDL
MODEL      390
REMARK 921   NORMALIZED FREE ENERGY PREDICTED BY IDOCK:   12.33 KCAL/MOL
REMARK 922        TOTAL FREE ENERGY PREDICTED BY IDOCK:   18.53 KCAL/MOL
REMARK 923 INTER-LIGAND FREE ENERGY PREDICTED BY IDOCK:    0.36 KCAL/MOL
REMARK 924 INTRA-LIGAND FREE ENERGY PREDICTED BY IDOCK:   18.17 KCAL/MOL
REMARK 927      BINDING AFFINITY PREDICTED BY RF-SCORE:    0.00 PKD
ROOT
HETATM    1  C   UNL     1     -11.394   8.006  71.182  1.00  0.00    -0.292 C  
HETATM    2  C   UNL     1     -12.321   8.577  72.262  1.00  0.00    -0.387 C  
ENDROOT
BRANCH   2   3
HETATM    3  C   UNL     1     -12.909   9.950  71.867  1.00  0.00    -0.524 C  
BRANCH   3   4
HETATM    4  C   UNL     1     -11.966  10.796  71.060  1.00  0.00    -0.409 A  
HETATM    5  C   UNL     1     -10.920  10.192  70.354  1.00  0.00    -0.386 A  
HETATM    6  C   UNL     1     -10.090  14.617  69.100  1.00  0.00    -0.172 A  
HETATM    7  C   UNL     1     -12.102  12.176  71.005  1.00  0.00    -0.058 A  
HETATM    8  C   UNL     1     -11.208  12.899  70.226  1.00  0.00     0.556 A  
HETATM    9  C   UNL     1     -10.028  10.931  69.537  1.00  0.00    -0.010 A  
HETATM   10  C   UNL     1     -10.153  12.323  69.481  1.00  0.00     0.875 A  
HETATM   11  C   UNL     1     -11.238  14.383  70.076  1.00  0.00    -0.193 A  
HETATM   12  N   UNL     1      -9.448  13.323  68.835  1.00  0.00     0.116 NA 
BRANCH  12  13
HETATM   13  C   UNL     1      -8.355  13.260  67.885  1.00  0.00    -0.163 C  
BRANCH  13  14
HETATM   14  C   UNL     1      -7.621  14.599  67.779  1.00  0.00    -0.173 C  
BRANCH  14  15
HETATM   15  C   UNL     1      -6.721  14.893  68.971  1.00  0.00    -0.117 C  
HETATM   16  O   UNL     1      -6.837  13.831  69.919  1.00  0.00    -0.341 OA 
HETATM   17  H   UNL     1      -6.274  14.014  70.662  1.00  0.00     0.000 HD 
ENDBRANCH  14  15
ENDBRANCH  13  14
ENDBRANCH  12  13
BRANCH   9  18
HETATM   18  C   UNL     1      -9.012  10.089  68.852  1.00  0.00    -0.152 C  
HETATM   19  N   UNL     1      -7.698  10.458  69.033  1.00  0.00    -0.105 N  
HETATM   20  O   UNL     1      -9.282   9.149  68.114  1.00  0.00    -0.132 OA 
HETATM   21  H2  UNL     1      -7.437  11.262  69.603  1.00  0.00     0.000 HD 
HETATM   22  H1  UNL     1      -7.000   9.880  68.562  1.00  0.00     0.000 HD 
ENDBRANCH   9  18
ENDBRANCH   3   4
ENDBRANCH   2   3
BRANCH   2  23
HETATM   23  N   UNL     1     -11.568   8.654  73.527  1.00  0.00     1.120 NA 
HETATM   24  H   UNL     1     -11.545   7.743  73.985  1.00  0.00     0.000 HD 
BRANCH  23  25
HETATM   25  C   UNL     1     -10.206   9.195  73.383  1.00  0.00     3.413 C  
BRANCH  25  26
HETATM   26  C   UNL     1      -9.472   8.730  72.107  1.00  0.00    -0.239 C  
BRANCH  26  27
HETATM   27  O   UNL     1      -9.603   7.321  71.877  1.00  0.00    -0.150 OA 
BRANCH  27  28
HETATM   28  C   UNL     1      -9.788   6.916  70.580  1.00  0.00    -0.179 A  
HETATM   29  C   UNL     1      -9.756   5.103  68.973  1.00  0.00    -0.227 A  
HETATM   30  C   UNL     1     -10.027   7.803  69.515  1.00  0.00    -0.187 A  
HETATM   31  C   UNL     1      -9.656   5.548  70.290  1.00  0.00    -0.174 A  
HETATM   32  C   UNL     1      -9.983   5.998  67.925  1.00  0.00    -0.151 A  
HETATM   33  C   UNL     1     -10.116   7.353  68.202  1.00  0.00    -0.210 A  
BRANCH  31  34
HETATM   34  O   UNL     1      -9.307   4.566  71.181  1.00  0.00    -0.132 OA 
BRANCH  34  35
HETATM   35  C   UNL     1     -10.376   3.798  71.747  1.00  0.00     0.073 C  
HETATM   36  C   UNL     1      -9.878   2.716  72.698  1.00  0.00    -0.135 C  
HETATM   37  F   UNL     1      -8.555   2.794  72.956  1.00  0.00    -0.071 F  
HETATM   38  F   UNL     1     -10.532   2.766  73.882  1.00  0.00    -0.156 F  
HETATM   39  F   UNL     1     -10.109   1.480  72.176  1.00  0.00    -0.166 F  
ENDBRANCH  34  35
ENDBRANCH  31  34
ENDBRANCH  27  28
ENDBRANCH  26  27
ENDBRANCH  25  26
ENDBRANCH  23  25
ENDBRANCH   2  23
TORSDOF 13
ENDMDL
MODEL      391
REMARK 921   NORMALIZED FREE ENERGY PREDICTED BY IDOCK:   19.30 KCAL/MOL
REMARK 922        TOTAL FREE ENERGY PREDICTED BY IDOCK:   30.81 KCAL/MOL
REMARK 923 INTER-LIGAND FREE ENERGY PREDICTED BY IDOCK:   16.76 KCAL/MOL
REMARK 924 INTRA-LIGAND FREE ENERGY PREDICTED BY IDOCK:   14.05 KCAL/MOL
REMARK 927      BINDING AFFINITY PREDICTED BY RF-SCORE:    0.00 PKD
ROOT
HETATM    1  C   UNL     1     -10.626   4.650  68.883  1.00  0.00     0.561 C  
HETATM    2  C   UNL     1     -10.161   6.031  68.403  1.00  0.00    -0.164 C  
ENDROOT
BRANCH   2   3
HETATM    3  C   UNL     1      -8.746   5.992  67.781  1.00  0.00    -0.104 C  
BRANCH   3   4
HETATM    4  C   UNL     1      -8.201   7.351  67.447  1.00  0.00    -0.113 A  
HETATM    5  C   UNL     1      -8.602   8.464  68.194  1.00  0.00    -0.139 A  
HETATM    6  C   UNL     1      -5.658  10.646  65.292  1.00  0.00    -0.137 A  
HETATM    7  C   UNL     1      -7.307   7.533  66.401  1.00  0.00    -0.083 A  
HETATM    8  C   UNL     1      -6.826   8.812  66.157  1.00  0.00    -0.073 A  
HETATM    9  C   UNL     1      -8.086   9.763  67.959  1.00  0.00    -0.105 A  
HETATM   10  C   UNL     1      -7.191   9.957  66.902  1.00  0.00    -0.090 A  
HETATM   11  C   UNL     1      -5.863   9.151  65.068  1.00  0.00    -0.059 A  
HETATM   12  N   UNL     1      -6.544  11.066  66.386  1.00  0.00    -0.133 NA 
BRANCH  12  13
HETATM   13  C   UNL     1      -6.499  12.443  66.838  1.00  0.00     0.164 C  
BRANCH  13  14
HETATM   14  C   UNL     1      -5.133  12.800  67.429  1.00  0.00    -0.002 C  
BRANCH  14  15
HETATM   15  C   UNL     1      -5.192  13.198  68.897  1.00  0.00    -0.069 C  
HETATM   16  O   UNL     1      -5.870  14.450  69.015  1.00  0.00    -0.086 OA 
HETATM   17  H   UNL     1      -5.907  14.699  69.932  1.00  0.00     0.000 HD 
ENDBRANCH  14  15
ENDBRANCH  13  14
ENDBRANCH  12  13
BRANCH   9  18
HETATM   18  C   UNL     1      -8.623  10.794  68.886  1.00  0.00    -0.153 C  
HETATM   19  N   UNL     1      -7.825  11.896  69.095  1.00  0.00    -0.343 N  
HETATM   20  O   UNL     1      -9.680  10.686  69.497  1.00  0.00    -0.170 OA 
HETATM   21  H2  UNL     1      -6.919  12.000  68.639  1.00  0.00     0.000 HD 
HETATM   22  H1  UNL     1      -8.193  12.604  69.732  1.00  0.00     0.000 HD 
ENDBRANCH   9  18
ENDBRANCH   3   4
ENDBRANCH   2   3
BRANCH   2  23
HETATM   23  N   UNL     1     -10.227   6.965  69.541  1.00  0.00    -0.180 NA 
HETATM   24  H   UNL     1     -10.696   7.828  69.268  1.00  0.00     0.000 HD 
BRANCH  23  25
HETATM   25  C   UNL     1     -10.849   6.397  70.748  1.00  0.00    -0.267 C  
BRANCH  25  26
HETATM   26  C   UNL     1     -12.387   6.286  70.676  1.00  0.00     0.448 C  
BRANCH  26  27
HETATM   27  O   UNL     1     -13.042   7.021  71.719  1.00  0.00    -0.361 OA 
BRANCH  27  28
HETATM   28  C   UNL     1     -13.085   8.385  71.588  1.00  0.00    -0.334 A  
HETATM   29  C   UNL     1     -13.318  10.298  70.120  1.00  0.00     0.402 A  
HETATM   30  C   UNL     1     -12.806   9.276  72.640  1.00  0.00    -0.245 A  
HETATM   31  C   UNL     1     -13.346   8.918  70.315  1.00  0.00     1.432 A  
HETATM   32  C   UNL     1     -13.029  11.170  71.173  1.00  0.00    -0.393 A  
HETATM   33  C   UNL     1     -12.770  10.651  72.436  1.00  0.00     0.438 A  
BRANCH  31  34
HETATM   34  O   UNL     1     -13.519   8.200  69.161  1.00  0.00     6.089 OA 
BRANCH  34  35
HETATM   35  C   UNL     1     -12.417   7.390  68.733  1.00  0.00     3.974 C  
HETATM   36  C   UNL     1     -11.792   7.891  67.435  1.00  0.00     3.142 C  
HETATM   37  F   UNL     1     -12.277   9.084  67.031  1.00  0.00     3.266 F  
HETATM   38  F   UNL     1     -10.449   8.012  67.554  1.00  0.00    -0.265 F  
HETATM   39  F   UNL     1     -12.018   7.007  66.426  1.00  0.00     0.914 F  
ENDBRANCH  34  35
ENDBRANCH  31  34
ENDBRANCH  27  28
ENDBRANCH  26  27
ENDBRANCH  25  26
ENDBRANCH  23  25
ENDBRANCH   2  23
TORSDOF 13
ENDMDL
MODEL      392
REMARK 921   NORMALIZED FREE ENERGY PREDICTED BY IDOCK:   20.17 KCAL/MOL
REMARK 922        TOTAL FREE ENERGY PREDICTED BY IDOCK:   32.33 KCAL/MOL
REMARK 923 INTER-LIGAND FREE ENERGY PREDICTED BY IDOCK:   32.21 KCAL/MOL
REMARK 924 INTRA-LIGAND FREE ENERGY PREDICTED BY IDOCK:    0.13 KCAL/MOL
REMARK 927      BINDING AFFINITY PREDICTED BY RF-SCORE:    0.00 PKD
ROOT
HETATM    1  C   UNL     1      -5.952  14.459  72.290  1.00  0.00     0.243 C  
HETATM    2  C   UNL     1      -6.165  13.429  71.173  1.00  0.00     0.539 C  
ENDROOT
BRANCH   2   3
HETATM    3  C   UNL     1      -5.515  13.865  69.840  1.00  0.00    -0.102 C  
BRANCH   3   4
HETATM    4  C   UNL     1      -6.248  14.982  69.153  1.00  0.00    -0.105 A  
HETATM    5  C   UNL     1      -7.135  14.695  68.110  1.00  0.00    -0.127 A  
HETATM    6  C   UNL     1      -7.697  19.334  68.190  1.00  0.00    -0.297 A  
HETATM    7  C   UNL     1      -6.059  16.306  69.526  1.00  0.00    -0.179 A  
HETATM    8  C   UNL     1      -6.781  17.289  68.864  1.00  0.00    -0.218 A  
HETATM    9  C   UNL     1      -7.891  15.699  67.456  1.00  0.00    -0.184 A  
HETATM   10  C   UNL     1      -7.702  17.037  67.820  1.00  0.00    -0.172 A  
HETATM   11  C   UNL     1      -6.677  18.748  69.161  1.00  0.00    -0.306 A  
HETATM   12  N   UNL     1      -8.230  18.236  67.375  1.00  0.00    -0.235 NA 
BRANCH  12  13
HETATM   13  C   UNL     1      -9.269  18.519  66.404  1.00  0.00    -0.277 C  
BRANCH  13  14
HETATM   14  C   UNL     1      -9.943  19.867  66.675  1.00  0.00    -0.578 C  
BRANCH  14  15
HETATM   15  C   UNL     1     -10.458  20.011  68.100  1.00  0.00    -0.288 C  
HETATM   16  O   UNL     1     -10.191  18.806  68.819  1.00  0.00    -0.412 OA 
HETATM   17  H   UNL     1     -10.512  18.897  69.709  1.00  0.00     0.000 HD 
ENDBRANCH  14  15
ENDBRANCH  13  14
ENDBRANCH  12  13
BRANCH   9  18
HETATM   18  C   UNL     1      -8.794  15.173  66.399  1.00  0.00    -0.242 C  
HETATM   19  N   UNL     1      -9.839  14.387  66.831  1.00  0.00    -0.254 N  
HETATM   20  O   UNL     1      -8.626  15.352  65.199  1.00  0.00     1.755 OA 
HETATM   21  H2  UNL     1      -9.985  14.178  67.818  1.00  0.00     0.000 HD 
HETATM   22  H1  UNL     1     -10.459  14.025  66.105  1.00  0.00     0.000 HD 
ENDBRANCH   9  18
ENDBRANCH   3   4
ENDBRANCH   2   3
BRANCH   2  23
HETATM   23  N   UNL     1      -7.613  13.201  71.021  1.00  0.00     3.614 NA 
HETATM   24  H   UNL     1      -7.875  12.297  71.413  1.00  0.00     0.000 HD 
BRANCH  23  25
HETATM   25  C   UNL     1      -8.451  14.272  71.586  1.00  0.00     6.493 C  
BRANCH  25  26
HETATM   26  C   UNL     1      -9.945  13.904  71.719  1.00  0.00     7.297 C  
BRANCH  26  27
HETATM   27  O   UNL     1     -10.778  14.648  70.819  1.00  0.00     0.115 OA 
BRANCH  27  28
HETATM   28  C   UNL     1     -11.987  15.078  71.303  1.00  0.00    -0.335 A  
HETATM   29  C   UNL     1     -13.210  16.716  72.602  1.00  0.00     1.125 A  
HETATM   30  C   UNL     1     -13.179  14.343  71.180  1.00  0.00    -0.414 A  
HETATM   31  C   UNL     1     -12.018  16.282  72.025  1.00  0.00    -0.467 A  
HETATM   32  C   UNL     1     -14.385  15.969  72.481  1.00  0.00     0.002 A  
HETATM   33  C   UNL     1     -14.363  14.777  71.767  1.00  0.00    -0.656 A  
BRANCH  31  34
HETATM   34  O   UNL     1     -10.935  17.060  72.341  1.00  0.00     1.216 OA 
BRANCH  34  35
HETATM   35  C   UNL     1     -11.042  18.461  72.061  1.00  0.00     3.476 C  
HETATM   36  C   UNL     1     -10.221  19.314  73.023  1.00  0.00     3.648 C  
HETATM   37  F   UNL     1      -9.426  18.590  73.838  1.00  0.00     4.040 F  
HETATM   38  F   UNL     1      -9.436  20.189  72.352  1.00  0.00     1.177 F  
HETATM   39  F   UNL     1     -11.039  20.054  73.819  1.00  0.00     3.313 F  
ENDBRANCH  34  35
ENDBRANCH  31  34
ENDBRANCH  27  28
ENDBRANCH  26  27
ENDBRANCH  25  26
ENDBRANCH  23  25
ENDBRANCH   2  23
TORSDOF 13
ENDMDL
MODEL      393
REMARK 921   NORMALIZED FREE ENERGY PREDICTED BY IDOCK:   52.70 KCAL/MOL
REMARK 922        TOTAL FREE ENERGY PREDICTED BY IDOCK:   89.59 KCAL/MOL
REMARK 923 INTER-LIGAND FREE ENERGY PREDICTED BY IDOCK:   87.22 KCAL/MOL
REMARK 924 INTRA-LIGAND FREE ENERGY PREDICTED BY IDOCK:    2.37 KCAL/MOL
REMARK 927      BINDING AFFINITY PREDICTED BY RF-SCORE:    0.00 PKD
ROOT
HETATM    1  C   UNL     1      -9.189  17.681  68.666  1.00  0.00    -0.266 C  
HETATM    2  C   UNL     1     -10.556  17.424  69.311  1.00  0.00    -0.084 C  
ENDROOT
BRANCH   2   3
HETATM    3  C   UNL     1     -10.513  17.547  70.851  1.00  0.00     2.075 C  
BRANCH   3   4
HETATM    4  C   UNL     1      -9.902  16.354  71.530  1.00  0.00     4.218 A  
HETATM    5  C   UNL     1      -8.627  15.917  71.155  1.00  0.00     4.216 A  
HETATM    6  C   UNL     1      -9.443  12.761  74.504  1.00  0.00    15.841 A  
HETATM    7  C   UNL     1     -10.582  15.663  72.523  1.00  0.00     1.902 A  
HETATM    8  C   UNL     1      -9.953  14.580  73.124  1.00  0.00     6.473 A  
HETATM    9  C   UNL     1      -7.978  14.829  71.790  1.00  0.00     4.463 A  
HETATM   10  C   UNL     1      -8.659  14.122  72.788  1.00  0.00    10.043 A  
HETATM   11  C   UNL     1     -10.565  13.749  74.202  1.00  0.00     7.818 A  
HETATM   12  N   UNL     1      -8.346  13.019  73.563  1.00  0.00    13.636 NA 
BRANCH  12  13
HETATM   13  C   UNL     1      -7.124  12.247  73.677  1.00  0.00     9.419 C  
BRANCH  13  14
HETATM   14  C   UNL     1      -7.412  10.778  73.999  1.00  0.00     7.472 C  
BRANCH  14  15
HETATM   15  C   UNL     1      -6.170   9.899  73.979  1.00  0.00     0.895 C  
HETATM   16  O   UNL     1      -6.506   8.602  74.476  1.00  0.00    -0.141 OA 
HETATM   17  H   UNL     1      -5.730   8.053  74.463  1.00  0.00     0.000 HD 
ENDBRANCH  14  15
ENDBRANCH  13  14
ENDBRANCH  12  13
BRANCH   9  18
HETATM   18  C   UNL     1      -6.618  14.553  71.258  1.00  0.00     0.645 C  
HETATM   19  N   UNL     1      -6.556  13.763  70.132  1.00  0.00    -0.378 N  
HETATM   20  O   UNL     1      -5.581  14.936  71.788  1.00  0.00    -0.008 OA 
HETATM   21  H2  UNL     1      -7.395  13.389  69.689  1.00  0.00     0.000 HD 
HETATM   22  H1  UNL     1      -5.622  13.573  69.767  1.00  0.00     0.000 HD 
ENDBRANCH   9  18
ENDBRANCH   3   4
ENDBRANCH   2   3
BRANCH   2  23
HETATM   23  N   UNL     1     -11.028  16.094  68.886  1.00  0.00    -0.302 NA 
HETATM   24  H   UNL     1     -12.007  16.135  68.604  1.00  0.00     0.000 HD 
BRANCH  23  25
HETATM   25  C   UNL     1     -10.210  15.478  67.828  1.00  0.00    -0.243 C  
BRANCH  25  26
HETATM   26  C   UNL     1     -10.520  13.986  67.577  1.00  0.00    -0.252 C  
BRANCH  26  27
HETATM   27  O   UNL     1      -9.843  13.470  66.423  1.00  0.00    -0.281 OA 
BRANCH  27  28
HETATM   28  C   UNL     1      -9.694  12.109  66.344  1.00  0.00    -0.231 A  
HETATM   29  C   UNL     1     -10.698   9.918  66.596  1.00  0.00    -0.116 A  
HETATM   30  C   UNL     1      -8.462  11.474  66.111  1.00  0.00    -0.060 A  
HETATM   31  C   UNL     1     -10.822  11.307  66.586  1.00  0.00    -0.273 A  
HETATM   32  C   UNL     1      -9.464   9.303  66.373  1.00  0.00    -0.277 A  
HETATM   33  C   UNL     1      -8.343  10.089  66.133  1.00  0.00    -0.121 A  
BRANCH  31  34
HETATM   34  O   UNL     1     -12.066  11.754  66.944  1.00  0.00    -0.566 OA 
BRANCH  34  35
HETATM   35  C   UNL     1     -13.023  11.917  65.890  1.00  0.00     3.327 C  
HETATM   36  C   UNL     1     -12.390  12.433  64.602  1.00  0.00    -0.441 C  
HETATM   37  F   UNL     1     -11.042  12.475  64.645  1.00  0.00    -0.302 F  
HETATM   38  F   UNL     1     -12.745  11.669  63.543  1.00  0.00    -0.602 F  
HETATM   39  F   UNL     1     -12.820  13.696  64.334  1.00  0.00    -0.280 F  
ENDBRANCH  34  35
ENDBRANCH  31  34
ENDBRANCH  27  28
ENDBRANCH  26  27
ENDBRANCH  25  26
ENDBRANCH  23  25
ENDBRANCH   2  23
TORSDOF 13
ENDMDL
