MODEL        1
REMARK 921   NORMALIZED FREE ENERGY PREDICTED BY IDOCK:   -4.77 KCAL/MOL
REMARK 922        TOTAL FREE ENERGY PREDICTED BY IDOCK:   -5.57 KCAL/MOL
REMARK 923 INTER-LIGAND FREE ENERGY PREDICTED BY IDOCK:   -5.33 KCAL/MOL
REMARK 924 INTRA-LIGAND FREE ENERGY PREDICTED BY IDOCK:   -0.24 KCAL/MOL
REMARK 927      BINDING AFFINITY PREDICTED BY RF-SCORE:    0.00 PKD
ROOT
HETATM    1  O   UNL     1     -11.513  16.713  63.918  1.00  0.00    -1.604 OA 
HETATM    2  H   UNL     1     -11.524  17.496  64.456  1.00  0.00     0.000 HD 
HETATM    3 SI   UNL     1     -12.290  15.607  64.520  1.00  0.00    -0.357 Si 
HETATM    4  C   UNL     1     -11.527  16.245  68.287  1.00  0.00    -0.207 C  
HETATM    5  O   UNL     1     -10.972  15.363  67.316  1.00  0.00    -0.316 OA 
HETATM    6  O   UNL     1     -12.271  14.395  63.688  1.00  0.00    -0.988 OA 
HETATM    7  H   UNL     1     -12.770  13.685  64.074  1.00  0.00     0.000 HD 
ENDROOT
BRANCH   5   8
HETATM    8 SI   UNL     1      -9.320  15.034  67.387  1.00  0.00    -0.181 Si 
HETATM    9  C   UNL     1      -8.766  15.064  69.175  1.00  0.00    -0.188 C  
HETATM   10  C   UNL     1      -8.384  16.320  66.392  1.00  0.00    -0.330 C  
BRANCH   8  11
HETATM   11  O   UNL     1      -9.050  13.517  66.727  1.00  0.00    -0.243 OA 
HETATM   12 SI   UNL     1      -9.730  11.979  66.797  1.00  0.00    -0.185 Si 
HETATM   13  C   UNL     1      -9.696  11.286  68.552  1.00  0.00    -0.198 C  
HETATM   14  C   UNL     1      -8.827  10.753  65.694  1.00  0.00    -0.190 C  
HETATM   15  C   UNL     1     -11.534  12.031  66.253  1.00  0.00    -0.345 C  
ENDBRANCH   8  11
ENDBRANCH   5   8
TORSDOF 2
ENDMDL
MODEL        2
REMARK 921   NORMALIZED FREE ENERGY PREDICTED BY IDOCK:   -4.67 KCAL/MOL
REMARK 922        TOTAL FREE ENERGY PREDICTED BY IDOCK:   -5.45 KCAL/MOL
REMARK 923 INTER-LIGAND FREE ENERGY PREDICTED BY IDOCK:   -5.29 KCAL/MOL
REMARK 924 INTRA-LIGAND FREE ENERGY PREDICTED BY IDOCK:   -0.15 KCAL/MOL
REMARK 927      BINDING AFFINITY PREDICTED BY RF-SCORE:    0.00 PKD
ROOT
HETATM    1  O   UNL     1     -13.003  14.766  64.078  1.00  0.00    -0.544 OA 
HETATM    2  H   UNL     1     -13.189  13.837  64.018  1.00  0.00     0.000 HD 
HETATM    3 SI   UNL     1     -11.613  15.087  63.684  1.00  0.00    -0.590 Si 
HETATM    4  C   UNL     1      -9.797  11.927  65.061  1.00  0.00    -0.209 C  
HETATM    5  O   UNL     1      -9.985  13.244  65.572  1.00  0.00    -0.273 OA 
HETATM    6  O   UNL     1     -11.324  16.525  63.776  1.00  0.00    -1.553 OA 
HETATM    7  H   UNL     1     -10.433  16.731  63.524  1.00  0.00     0.000 HD 
ENDROOT
BRANCH   5   8
HETATM    8 SI   UNL     1     -10.189  13.435  67.234  1.00  0.00    -0.220 Si 
HETATM    9  C   UNL     1      -8.711  12.702  68.120  1.00  0.00    -0.190 C  
HETATM   10  C   UNL     1     -11.766  12.575  67.773  1.00  0.00    -0.359 C  
BRANCH   8  11
HETATM   11  O   UNL     1     -10.307  15.072  67.571  1.00  0.00    -0.238 OA 
HETATM   12 SI   UNL     1      -9.975  16.118  68.847  1.00  0.00    -0.182 Si 
HETATM   13  C   UNL     1     -10.968  15.670  70.388  1.00  0.00    -0.348 C  
HETATM   14  C   UNL     1     -10.376  17.905  68.423  1.00  0.00    -0.374 C  
HETATM   15  C   UNL     1      -8.150  16.028  69.314  1.00  0.00    -0.212 C  
ENDBRANCH   8  11
ENDBRANCH   5   8
TORSDOF 2
ENDMDL
MODEL        3
REMARK 921   NORMALIZED FREE ENERGY PREDICTED BY IDOCK:   -4.59 KCAL/MOL
REMARK 922        TOTAL FREE ENERGY PREDICTED BY IDOCK:   -5.37 KCAL/MOL
REMARK 923 INTER-LIGAND FREE ENERGY PREDICTED BY IDOCK:   -5.18 KCAL/MOL
REMARK 924 INTRA-LIGAND FREE ENERGY PREDICTED BY IDOCK:   -0.19 KCAL/MOL
REMARK 927      BINDING AFFINITY PREDICTED BY RF-SCORE:    0.00 PKD
ROOT
HETATM    1  O   UNL     1     -13.216  14.212  65.123  1.00  0.00    -0.743 OA 
HETATM    2  H   UNL     1     -13.107  13.403  65.610  1.00  0.00     0.000 HD 
HETATM    3 SI   UNL     1     -11.986  14.600  64.397  1.00  0.00    -0.352 Si 
HETATM    4  C   UNL     1      -9.307  13.387  66.952  1.00  0.00    -0.252 C  
HETATM    5  O   UNL     1      -9.897  14.656  66.687  1.00  0.00    -0.251 OA 
HETATM    6  O   UNL     1     -12.155  15.851  63.643  1.00  0.00    -1.223 OA 
HETATM    7  H   UNL     1     -11.366  16.100  63.178  1.00  0.00     0.000 HD 
ENDROOT
BRANCH   5   8
HETATM    8 SI   UNL     1     -10.173  15.696  67.985  1.00  0.00    -0.210 Si 
HETATM    9  C   UNL     1      -8.731  15.587  69.174  1.00  0.00    -0.247 C  
HETATM   10  C   UNL     1     -11.767  15.212  68.845  1.00  0.00    -0.333 C  
BRANCH   8  11
HETATM   11  O   UNL     1     -10.313  17.259  67.394  1.00  0.00    -0.320 OA 
HETATM   12 SI   UNL     1      -9.348  18.627  67.222  1.00  0.00    -0.265 Si 
HETATM   13  C   UNL     1      -8.726  19.251  68.890  1.00  0.00    -0.298 C  
HETATM   14  C   UNL     1     -10.269  20.046  66.401  1.00  0.00    -0.478 C  
HETATM   15  C   UNL     1      -7.832  18.234  66.172  1.00  0.00    -0.204 C  
ENDBRANCH   8  11
ENDBRANCH   5   8
TORSDOF 2
ENDMDL
MODEL        4
REMARK 921   NORMALIZED FREE ENERGY PREDICTED BY IDOCK:   -4.59 KCAL/MOL
REMARK 922        TOTAL FREE ENERGY PREDICTED BY IDOCK:   -5.36 KCAL/MOL
REMARK 923 INTER-LIGAND FREE ENERGY PREDICTED BY IDOCK:   -5.13 KCAL/MOL
REMARK 924 INTRA-LIGAND FREE ENERGY PREDICTED BY IDOCK:   -0.23 KCAL/MOL
REMARK 927      BINDING AFFINITY PREDICTED BY RF-SCORE:    0.00 PKD
ROOT
HETATM    1  O   UNL     1     -12.906  14.656  63.610  1.00  0.00    -0.730 OA 
HETATM    2  H   UNL     1     -13.034  13.746  63.368  1.00  0.00     0.000 HD 
HETATM    3 SI   UNL     1     -11.494  15.079  63.478  1.00  0.00    -0.580 Si 
HETATM    4  C   UNL     1      -9.721  11.778  64.547  1.00  0.00    -0.142 C  
HETATM    5  O   UNL     1     -10.044  12.979  65.241  1.00  0.00    -0.282 OA 
HETATM    6  O   UNL     1     -11.295  16.486  63.853  1.00  0.00    -1.557 OA 
HETATM    7  H   UNL     1     -10.389  16.757  63.768  1.00  0.00     0.000 HD 
ENDROOT
BRANCH   5   8
HETATM    8 SI   UNL     1     -10.481  12.872  66.865  1.00  0.00    -0.229 Si 
HETATM    9  C   UNL     1     -10.291  11.098  67.434  1.00  0.00    -0.196 C  
HETATM   10  C   UNL     1     -12.257  13.437  67.072  1.00  0.00    -0.268 C  
BRANCH   8  11
HETATM   11  O   UNL     1      -9.473  13.872  67.755  1.00  0.00    -0.202 OA 
HETATM   12 SI   UNL     1      -9.545  15.374  68.511  1.00  0.00    -0.176 Si 
HETATM   13  C   UNL     1      -9.923  16.753  67.281  1.00  0.00    -0.272 C  
HETATM   14  C   UNL     1      -7.929  15.815  69.367  1.00  0.00    -0.211 C  
HETATM   15  C   UNL     1     -10.913  15.393  69.809  1.00  0.00    -0.287 C  
ENDBRANCH   8  11
ENDBRANCH   5   8
TORSDOF 2
ENDMDL
MODEL        5
REMARK 921   NORMALIZED FREE ENERGY PREDICTED BY IDOCK:   -4.58 KCAL/MOL
REMARK 922        TOTAL FREE ENERGY PREDICTED BY IDOCK:   -5.35 KCAL/MOL
REMARK 923 INTER-LIGAND FREE ENERGY PREDICTED BY IDOCK:   -5.16 KCAL/MOL
REMARK 924 INTRA-LIGAND FREE ENERGY PREDICTED BY IDOCK:   -0.19 KCAL/MOL
REMARK 927      BINDING AFFINITY PREDICTED BY RF-SCORE:    0.00 PKD
ROOT
HETATM    1  O   UNL     1     -13.159  15.189  63.887  1.00  0.00    -0.327 OA 
HETATM    2  H   UNL     1     -13.463  14.351  63.558  1.00  0.00     0.000 HD 
HETATM    3 SI   UNL     1     -11.759  15.470  63.498  1.00  0.00    -0.707 Si 
HETATM    4  C   UNL     1     -10.294  11.864  63.670  1.00  0.00    -0.441 C  
HETATM    5  O   UNL     1     -10.291  12.962  64.578  1.00  0.00    -0.351 OA 
HETATM    6  O   UNL     1     -11.288  16.766  64.009  1.00  0.00    -1.471 OA 
HETATM    7  H   UNL     1     -10.390  16.946  63.759  1.00  0.00     0.000 HD 
ENDROOT
BRANCH   5   8
HETATM    8 SI   UNL     1     -10.393  12.634  66.229  1.00  0.00    -0.230 Si 
HETATM    9  C   UNL     1     -11.881  13.521  66.938  1.00  0.00    -0.407 C  
HETATM   10  C   UNL     1      -8.823  13.212  67.078  1.00  0.00    -0.210 C  
BRANCH   8  11
HETATM   11  O   UNL     1     -10.558  10.979  66.433  1.00  0.00    -0.257 OA 
HETATM   12 SI   UNL     1      -9.802   9.738  67.282  1.00  0.00    -0.145 Si 
HETATM   13  C   UNL     1      -7.994   9.554  66.779  1.00  0.00    -0.109 C  
HETATM   14  C   UNL     1     -10.634   8.076  66.999  1.00  0.00    -0.294 C  
HETATM   15  C   UNL     1      -9.833  10.094  69.134  1.00  0.00    -0.214 C  
ENDBRANCH   8  11
ENDBRANCH   5   8
TORSDOF 2
ENDMDL
MODEL        6
REMARK 921   NORMALIZED FREE ENERGY PREDICTED BY IDOCK:   -4.56 KCAL/MOL
REMARK 922        TOTAL FREE ENERGY PREDICTED BY IDOCK:   -5.33 KCAL/MOL
REMARK 923 INTER-LIGAND FREE ENERGY PREDICTED BY IDOCK:   -5.19 KCAL/MOL
REMARK 924 INTRA-LIGAND FREE ENERGY PREDICTED BY IDOCK:   -0.14 KCAL/MOL
REMARK 927      BINDING AFFINITY PREDICTED BY RF-SCORE:    0.00 PKD
ROOT
HETATM    1  O   UNL     1     -11.545  16.675  63.899  1.00  0.00    -1.582 OA 
HETATM    2  H   UNL     1     -11.502  17.405  64.505  1.00  0.00     0.000 HD 
HETATM    3 SI   UNL     1     -12.417  15.586  64.392  1.00  0.00    -0.405 Si 
HETATM    4  C   UNL     1     -11.660  15.820  68.207  1.00  0.00    -0.298 C  
HETATM    5  O   UNL     1     -11.163  14.986  67.164  1.00  0.00    -0.331 OA 
HETATM    6  O   UNL     1     -12.483  14.456  63.454  1.00  0.00    -1.109 OA 
HETATM    7  H   UNL     1     -13.042  13.757  63.771  1.00  0.00     0.000 HD 
ENDROOT
BRANCH   5   8
HETATM    8 SI   UNL     1      -9.544  14.520  67.216  1.00  0.00    -0.197 Si 
HETATM    9  C   UNL     1      -9.324  12.958  66.208  1.00  0.00    -0.141 C  
HETATM   10  C   UNL     1      -9.037  14.223  68.997  1.00  0.00     0.059 C  
BRANCH   8  11
HETATM   11  O   UNL     1      -8.613  15.756  66.573  1.00  0.00    -0.260 OA 
HETATM   12 SI   UNL     1      -8.275  17.373  66.897  1.00  0.00    -0.182 Si 
HETATM   13  C   UNL     1      -9.834  18.434  66.832  1.00  0.00    -0.338 C  
HETATM   14  C   UNL     1      -7.050  18.102  65.672  1.00  0.00    -0.135 C  
HETATM   15  C   UNL     1      -7.547  17.558  68.627  1.00  0.00    -0.273 C  
ENDBRANCH   8  11
ENDBRANCH   5   8
TORSDOF 2
ENDMDL
MODEL        7
REMARK 921   NORMALIZED FREE ENERGY PREDICTED BY IDOCK:   -4.49 KCAL/MOL
REMARK 922        TOTAL FREE ENERGY PREDICTED BY IDOCK:   -5.25 KCAL/MOL
REMARK 923 INTER-LIGAND FREE ENERGY PREDICTED BY IDOCK:   -5.04 KCAL/MOL
REMARK 924 INTRA-LIGAND FREE ENERGY PREDICTED BY IDOCK:   -0.22 KCAL/MOL
REMARK 927      BINDING AFFINITY PREDICTED BY RF-SCORE:    0.00 PKD
ROOT
HETATM    1  O   UNL     1     -13.270  12.535  64.684  1.00  0.00    -0.848 OA 
HETATM    2  H   UNL     1     -13.033  11.758  65.177  1.00  0.00     0.000 HD 
HETATM    3 SI   UNL     1     -12.138  13.060  63.888  1.00  0.00    -0.334 Si 
HETATM    4  C   UNL     1      -9.200  12.254  66.316  1.00  0.00    -0.171 C  
HETATM    5  O   UNL     1      -9.960  13.432  66.063  1.00  0.00    -0.291 OA 
HETATM    6  O   UNL     1     -12.503  14.263  63.125  1.00  0.00    -1.102 OA 
HETATM    7  H   UNL     1     -11.777  14.600  62.615  1.00  0.00     0.000 HD 
ENDROOT
BRANCH   5   8
HETATM    8 SI   UNL     1     -10.301  14.457  67.357  1.00  0.00    -0.232 Si 
HETATM    9  C   UNL     1      -8.868  14.419  68.562  1.00  0.00    -0.182 C  
HETATM   10  C   UNL     1     -11.878  13.894  68.201  1.00  0.00    -0.372 C  
BRANCH   8  11
HETATM   11  O   UNL     1     -10.512  16.011  66.765  1.00  0.00    -0.303 OA 
HETATM   12 SI   UNL     1      -9.741  17.504  66.854  1.00  0.00    -0.241 Si 
HETATM   13  C   UNL     1      -9.649  18.131  68.631  1.00  0.00    -0.331 C  
HETATM   14  C   UNL     1     -10.622  18.820  65.841  1.00  0.00    -0.352 C  
HETATM   15  C   UNL     1      -7.971  17.369  66.218  1.00  0.00    -0.279 C  
ENDBRANCH   8  11
ENDBRANCH   5   8
TORSDOF 2
ENDMDL
MODEL        8
REMARK 921   NORMALIZED FREE ENERGY PREDICTED BY IDOCK:   -4.44 KCAL/MOL
REMARK 922        TOTAL FREE ENERGY PREDICTED BY IDOCK:   -5.19 KCAL/MOL
REMARK 923 INTER-LIGAND FREE ENERGY PREDICTED BY IDOCK:   -4.99 KCAL/MOL
REMARK 924 INTRA-LIGAND FREE ENERGY PREDICTED BY IDOCK:   -0.20 KCAL/MOL
REMARK 927      BINDING AFFINITY PREDICTED BY RF-SCORE:    0.00 PKD
ROOT
HETATM    1  O   UNL     1     -12.561  13.546  70.694  1.00  0.00    -0.320 OA 
HETATM    2  H   UNL     1     -12.274  12.780  70.210  1.00  0.00     0.000 HD 
HETATM    3 SI   UNL     1     -13.501  14.383  69.916  1.00  0.00    -0.528 Si 
HETATM    4  C   UNL     1     -12.001  13.909  66.351  1.00  0.00    -0.438 C  
HETATM    5  O   UNL     1     -11.867  14.929  67.337  1.00  0.00    -0.348 OA 
HETATM    6  O   UNL     1     -13.943  15.568  70.664  1.00  0.00    -0.868 OA 
HETATM    7  H   UNL     1     -14.546  16.105  70.165  1.00  0.00     0.000 HD 
ENDROOT
BRANCH   5   8
HETATM    8 SI   UNL     1     -10.376  15.700  67.493  1.00  0.00    -0.239 Si 
HETATM    9  C   UNL     1      -9.095  14.759  66.504  1.00  0.00    -0.260 C  
HETATM   10  C   UNL     1      -9.890  15.758  69.303  1.00  0.00    -0.265 C  
BRANCH   8  11
HETATM   11  O   UNL     1     -10.522  17.263  66.906  1.00  0.00    -0.319 OA 
HETATM   12 SI   UNL     1      -9.713  18.733  67.037  1.00  0.00    -0.273 Si 
HETATM   13  C   UNL     1      -9.670  19.344  68.822  1.00  0.00    -0.449 C  
HETATM   14  C   UNL     1     -10.518  20.081  66.003  1.00  0.00    -0.416 C  
HETATM   15  C   UNL     1      -7.925  18.553  66.467  1.00  0.00    -0.274 C  
ENDBRANCH   8  11
ENDBRANCH   5   8
TORSDOF 2
ENDMDL
MODEL        9
REMARK 921   NORMALIZED FREE ENERGY PREDICTED BY IDOCK:   -4.35 KCAL/MOL
REMARK 922        TOTAL FREE ENERGY PREDICTED BY IDOCK:   -5.10 KCAL/MOL
REMARK 923 INTER-LIGAND FREE ENERGY PREDICTED BY IDOCK:   -4.93 KCAL/MOL
REMARK 924 INTRA-LIGAND FREE ENERGY PREDICTED BY IDOCK:   -0.17 KCAL/MOL
REMARK 927      BINDING AFFINITY PREDICTED BY RF-SCORE:    0.00 PKD
ROOT
HETATM    1  O   UNL     1     -11.305  15.979  63.892  1.00  0.00    -1.143 OA 
HETATM    2  H   UNL     1     -11.219  16.572  64.629  1.00  0.00     0.000 HD 
HETATM    3 SI   UNL     1     -12.373  14.976  64.102  1.00  0.00    -0.416 Si 
HETATM    4  C   UNL     1     -11.989  14.402  67.936  1.00  0.00    -0.313 C  
HETATM    5  O   UNL     1     -11.513  13.697  66.793  1.00  0.00    -0.320 OA 
HETATM    6  O   UNL     1     -12.506  14.057  62.962  1.00  0.00    -1.101 OA 
HETATM    7  H   UNL     1     -13.192  13.414  63.097  1.00  0.00     0.000 HD 
ENDROOT
BRANCH   5   8
HETATM    8 SI   UNL     1      -9.994  12.971  66.875  1.00  0.00    -0.213 Si 
HETATM    9  C   UNL     1      -9.899  11.926  68.425  1.00  0.00    -0.201 C  
HETATM   10  C   UNL     1      -8.669  14.298  66.900  1.00  0.00    -0.179 C  
BRANCH   8  11
HETATM   11  O   UNL     1      -9.790  12.009  65.519  1.00  0.00    -0.237 OA 
HETATM   12 SI   UNL     1      -9.179  10.487  65.140  1.00  0.00    -0.154 Si 
HETATM   13  C   UNL     1      -7.352  10.342  65.590  1.00  0.00    -0.148 C  
HETATM   14  C   UNL     1      -9.337  10.094  63.308  1.00  0.00    -0.294 C  
HETATM   15  C   UNL     1     -10.098   9.151  66.102  1.00  0.00    -0.208 C  
ENDBRANCH   8  11
ENDBRANCH   5   8
TORSDOF 2
ENDMDL
MODEL       10
REMARK 921   NORMALIZED FREE ENERGY PREDICTED BY IDOCK:   -4.33 KCAL/MOL
REMARK 922        TOTAL FREE ENERGY PREDICTED BY IDOCK:   -5.07 KCAL/MOL
REMARK 923 INTER-LIGAND FREE ENERGY PREDICTED BY IDOCK:   -4.85 KCAL/MOL
REMARK 924 INTRA-LIGAND FREE ENERGY PREDICTED BY IDOCK:   -0.22 KCAL/MOL
REMARK 927      BINDING AFFINITY PREDICTED BY RF-SCORE:    0.00 PKD
ROOT
HETATM    1  O   UNL     1     -12.734  11.384  62.847  1.00  0.00    -0.951 OA 
HETATM    2  H   UNL     1     -12.359  10.528  62.677  1.00  0.00     0.000 HD 
HETATM    3 SI   UNL     1     -11.722  12.462  62.791  1.00  0.00    -0.562 Si 
HETATM    4  C   UNL     1      -8.662  10.566  64.281  1.00  0.00    -0.176 C  
HETATM    5  O   UNL     1      -9.621  11.459  64.839  1.00  0.00    -0.233 OA 
HETATM    6  O   UNL     1     -12.302  13.787  63.055  1.00  0.00    -1.089 OA 
HETATM    7  H   UNL     1     -11.653  14.478  63.019  1.00  0.00     0.000 HD 
ENDROOT
BRANCH   5   8
HETATM    8 SI   UNL     1     -10.125  11.201  66.427  1.00  0.00    -0.189 Si 
HETATM    9  C   UNL     1     -11.637  12.251  66.768  1.00  0.00    -0.369 C  
HETATM   10  C   UNL     1      -8.736  11.655  67.603  1.00  0.00    -0.156 C  
BRANCH   8  11
HETATM   11  O   UNL     1     -10.499   9.577  66.610  1.00  0.00    -0.231 OA 
HETATM   12 SI   UNL     1     -10.037   8.285  67.584  1.00  0.00    -0.146 Si 
HETATM   13  C   UNL     1      -8.199   7.901  67.402  1.00  0.00    -0.123 C  
HETATM   14  C   UNL     1     -10.981   6.712  67.171  1.00  0.00    -0.408 C  
HETATM   15  C   UNL     1     -10.346   8.688  69.400  1.00  0.00    -0.218 C  
ENDBRANCH   8  11
ENDBRANCH   5   8
TORSDOF 2
ENDMDL
MODEL       11
REMARK 921   NORMALIZED FREE ENERGY PREDICTED BY IDOCK:   -4.30 KCAL/MOL
REMARK 922        TOTAL FREE ENERGY PREDICTED BY IDOCK:   -5.03 KCAL/MOL
REMARK 923 INTER-LIGAND FREE ENERGY PREDICTED BY IDOCK:   -4.88 KCAL/MOL
REMARK 924 INTRA-LIGAND FREE ENERGY PREDICTED BY IDOCK:   -0.15 KCAL/MOL
REMARK 927      BINDING AFFINITY PREDICTED BY RF-SCORE:    0.00 PKD
ROOT
HETATM    1  O   UNL     1     -11.086  16.235  64.025  1.00  0.00    -1.204 OA 
HETATM    2  H   UNL     1     -10.819  16.863  64.686  1.00  0.00     0.000 HD 
HETATM    3 SI   UNL     1     -12.322  15.514  64.403  1.00  0.00    -0.397 Si 
HETATM    4  C   UNL     1     -11.769  15.240  68.250  1.00  0.00    -0.301 C  
HETATM    5  O   UNL     1     -11.545  14.342  67.167  1.00  0.00    -0.351 OA 
HETATM    6  O   UNL     1     -12.736  14.541  63.382  1.00  0.00    -0.905 OA 
HETATM    7  H   UNL     1     -13.529  14.079  63.624  1.00  0.00     0.000 HD 
ENDROOT
BRANCH   5   8
HETATM    8 SI   UNL     1     -10.212  13.314  67.244  1.00  0.00    -0.219 Si 
HETATM    9  C   UNL     1      -8.677  14.327  67.596  1.00  0.00    -0.191 C  
HETATM   10  C   UNL     1     -10.032  12.401  65.616  1.00  0.00    -0.244 C  
BRANCH   8  11
HETATM   11  O   UNL     1     -10.464  12.207  68.477  1.00  0.00    -0.224 OA 
HETATM   12 SI   UNL     1      -9.993  10.640  68.872  1.00  0.00    -0.149 Si 
HETATM   13  C   UNL     1     -10.546   9.398  67.564  1.00  0.00    -0.267 C  
HETATM   14  C   UNL     1     -10.711  10.078  70.517  1.00  0.00    -0.285 C  
HETATM   15  C   UNL     1      -8.115  10.528  68.990  1.00  0.00    -0.143 C  
ENDBRANCH   8  11
ENDBRANCH   5   8
TORSDOF 2
ENDMDL
MODEL       12
REMARK 921   NORMALIZED FREE ENERGY PREDICTED BY IDOCK:   -4.28 KCAL/MOL
REMARK 922        TOTAL FREE ENERGY PREDICTED BY IDOCK:   -5.02 KCAL/MOL
REMARK 923 INTER-LIGAND FREE ENERGY PREDICTED BY IDOCK:   -4.88 KCAL/MOL
REMARK 924 INTRA-LIGAND FREE ENERGY PREDICTED BY IDOCK:   -0.14 KCAL/MOL
REMARK 927      BINDING AFFINITY PREDICTED BY RF-SCORE:    0.00 PKD
ROOT
HETATM    1  O   UNL     1     -13.153  15.135  63.878  1.00  0.00    -0.327 OA 
HETATM    2  H   UNL     1     -13.457  14.300  63.541  1.00  0.00     0.000 HD 
HETATM    3 SI   UNL     1     -11.813  15.494  63.362  1.00  0.00    -0.796 Si 
HETATM    4  C   UNL     1     -10.198  11.951  63.211  1.00  0.00    -0.395 C  
HETATM    5  O   UNL     1     -10.144  13.008  64.165  1.00  0.00    -0.344 OA 
HETATM    6  O   UNL     1     -11.342  16.785  63.883  1.00  0.00    -1.436 OA 
HETATM    7  H   UNL     1     -10.483  17.016  63.552  1.00  0.00     0.000 HD 
ENDROOT
BRANCH   5   8
HETATM    8 SI   UNL     1     -10.061  12.604  65.800  1.00  0.00    -0.232 Si 
HETATM    9  C   UNL     1     -11.797  12.483  66.489  1.00  0.00    -0.367 C  
HETATM   10  C   UNL     1      -9.084  13.917  66.718  1.00  0.00    -0.223 C  
BRANCH   8  11
HETATM   11  O   UNL     1      -9.280  11.129  65.945  1.00  0.00    -0.195 OA 
HETATM   12 SI   UNL     1      -9.033   9.950  67.121  1.00  0.00    -0.128 Si 
HETATM   13  C   UNL     1      -8.123  10.645  68.620  1.00  0.00    -0.132 C  
HETATM   14  C   UNL     1      -8.022   8.503  66.473  1.00  0.00    -0.099 C  
HETATM   15  C   UNL     1     -10.685   9.276  67.733  1.00  0.00    -0.207 C  
ENDBRANCH   8  11
ENDBRANCH   5   8
TORSDOF 2
ENDMDL
MODEL       13
REMARK 921   NORMALIZED FREE ENERGY PREDICTED BY IDOCK:   -4.28 KCAL/MOL
REMARK 922        TOTAL FREE ENERGY PREDICTED BY IDOCK:   -5.01 KCAL/MOL
REMARK 923 INTER-LIGAND FREE ENERGY PREDICTED BY IDOCK:   -4.81 KCAL/MOL
REMARK 924 INTRA-LIGAND FREE ENERGY PREDICTED BY IDOCK:   -0.21 KCAL/MOL
REMARK 927      BINDING AFFINITY PREDICTED BY RF-SCORE:    0.00 PKD
ROOT
HETATM    1  O   UNL     1     -13.409  12.094  64.166  1.00  0.00    -0.750 OA 
HETATM    2  H   UNL     1     -13.293  11.178  64.388  1.00  0.00     0.000 HD 
HETATM    3 SI   UNL     1     -12.239  12.652  63.451  1.00  0.00    -0.370 Si 
HETATM    4  C   UNL     1      -9.384  10.701  65.246  1.00  0.00    -0.214 C  
HETATM    5  O   UNL     1      -9.933  12.004  65.420  1.00  0.00    -0.250 OA 
HETATM    6  O   UNL     1     -12.418  14.070  63.108  1.00  0.00    -1.137 OA 
HETATM    7  H   UNL     1     -11.668  14.427  62.649  1.00  0.00     0.000 HD 
ENDROOT
BRANCH   5   8
HETATM    8 SI   UNL     1     -10.026  12.631  66.982  1.00  0.00    -0.200 Si 
HETATM    9  C   UNL     1      -8.498  12.124  67.937  1.00  0.00    -0.163 C  
HETATM   10  C   UNL     1     -11.570  11.979  67.825  1.00  0.00    -0.330 C  
BRANCH   8  11
HETATM   11  O   UNL     1     -10.113  14.302  66.881  1.00  0.00    -0.256 OA 
HETATM   12 SI   UNL     1     -10.286  15.614  67.919  1.00  0.00    -0.228 Si 
HETATM   13  C   UNL     1     -11.908  15.530  68.880  1.00  0.00    -0.338 C  
HETATM   14  C   UNL     1     -10.265  17.254  67.000  1.00  0.00    -0.320 C  
HETATM   15  C   UNL     1      -8.889  15.640  69.185  1.00  0.00    -0.251 C  
ENDBRANCH   8  11
ENDBRANCH   5   8
TORSDOF 2
ENDMDL
MODEL       14
REMARK 921   NORMALIZED FREE ENERGY PREDICTED BY IDOCK:   -4.24 KCAL/MOL
REMARK 922        TOTAL FREE ENERGY PREDICTED BY IDOCK:   -4.97 KCAL/MOL
REMARK 923 INTER-LIGAND FREE ENERGY PREDICTED BY IDOCK:   -4.74 KCAL/MOL
REMARK 924 INTRA-LIGAND FREE ENERGY PREDICTED BY IDOCK:   -0.22 KCAL/MOL
REMARK 927      BINDING AFFINITY PREDICTED BY RF-SCORE:    0.00 PKD
ROOT
HETATM    1  O   UNL     1     -13.178  15.913  70.280  1.00  0.00    -0.708 OA 
HETATM    2  H   UNL     1     -13.581  16.378  69.556  1.00  0.00     0.000 HD 
HETATM    3 SI   UNL     1     -12.163  16.733  70.978  1.00  0.00    -0.566 Si 
HETATM    4  C   UNL     1     -10.699  18.688  67.942  1.00  0.00    -0.296 C  
HETATM    5  O   UNL     1     -10.279  17.521  68.645  1.00  0.00    -0.335 OA 
HETATM    6  O   UNL     1     -11.540  16.014  72.098  1.00  0.00    -0.443 OA 
HETATM    7  H   UNL     1     -10.889  16.540  72.547  1.00  0.00     0.000 HD 
ENDROOT
BRANCH   5   8
HETATM    8 SI   UNL     1      -9.542  16.283  67.770  1.00  0.00    -0.206 Si 
HETATM    9  C   UNL     1      -8.690  15.116  68.961  1.00  0.00    -0.215 C  
HETATM   10  C   UNL     1      -8.298  17.019  66.575  1.00  0.00    -0.278 C  
BRANCH   8  11
HETATM   11  O   UNL     1     -10.723  15.464  66.908  1.00  0.00    -0.306 OA 
HETATM   12 SI   UNL     1     -11.286  13.887  66.739  1.00  0.00    -0.284 Si 
HETATM   13  C   UNL     1      -9.937  12.733  66.101  1.00  0.00    -0.266 C  
HETATM   14  C   UNL     1     -12.731  13.775  65.542  1.00  0.00    -0.488 C  
HETATM   15  C   UNL     1     -11.857  13.210  68.404  1.00  0.00    -0.351 C  
ENDBRANCH   8  11
ENDBRANCH   5   8
TORSDOF 2
ENDMDL
MODEL       15
REMARK 921   NORMALIZED FREE ENERGY PREDICTED BY IDOCK:   -4.22 KCAL/MOL
REMARK 922        TOTAL FREE ENERGY PREDICTED BY IDOCK:   -4.95 KCAL/MOL
REMARK 923 INTER-LIGAND FREE ENERGY PREDICTED BY IDOCK:   -4.74 KCAL/MOL
REMARK 924 INTRA-LIGAND FREE ENERGY PREDICTED BY IDOCK:   -0.21 KCAL/MOL
REMARK 927      BINDING AFFINITY PREDICTED BY RF-SCORE:    0.00 PKD
ROOT
HETATM    1  O   UNL     1     -12.438  14.052  63.033  1.00  0.00    -1.101 OA 
HETATM    2  H   UNL     1     -12.501  14.837  63.565  1.00  0.00     0.000 HD 
HETATM    3 SI   UNL     1     -13.096  12.889  63.667  1.00  0.00    -0.608 Si 
HETATM    4  C   UNL     1     -12.278  13.631  67.404  1.00  0.00    -0.244 C  
HETATM    5  O   UNL     1     -11.677  12.790  66.422  1.00  0.00    -0.363 OA 
HETATM    6  O   UNL     1     -12.997  11.675  62.845  1.00  0.00    -0.845 OA 
HETATM    7  H   UNL     1     -13.419  10.928  63.252  1.00  0.00     0.000 HD 
ENDROOT
BRANCH   5   8
HETATM    8 SI   UNL     1     -10.001  12.608  66.444  1.00  0.00    -0.216 Si 
HETATM    9  C   UNL     1      -9.492  11.469  65.048  1.00  0.00    -0.152 C  
HETATM   10  C   UNL     1      -9.472  11.893  68.095  1.00  0.00    -0.195 C  
BRANCH   8  11
HETATM   11  O   UNL     1      -9.299  14.116  66.241  1.00  0.00    -0.262 OA 
HETATM   12 SI   UNL     1      -8.389  15.208  67.142  1.00  0.00    -0.132 Si 
HETATM   13  C   UNL     1      -9.318  15.782  68.680  1.00  0.00    -0.206 C  
HETATM   14  C   UNL     1      -7.940  16.743  66.154  1.00  0.00    -0.238 C  
HETATM   15  C   UNL     1      -6.786  14.403  67.726  1.00  0.00    -0.178 C  
ENDBRANCH   8  11
ENDBRANCH   5   8
TORSDOF 2
ENDMDL
MODEL       16
REMARK 921   NORMALIZED FREE ENERGY PREDICTED BY IDOCK:   -4.22 KCAL/MOL
REMARK 922        TOTAL FREE ENERGY PREDICTED BY IDOCK:   -4.95 KCAL/MOL
REMARK 923 INTER-LIGAND FREE ENERGY PREDICTED BY IDOCK:   -4.72 KCAL/MOL
REMARK 924 INTRA-LIGAND FREE ENERGY PREDICTED BY IDOCK:   -0.23 KCAL/MOL
REMARK 927      BINDING AFFINITY PREDICTED BY RF-SCORE:    0.00 PKD
ROOT
HETATM    1  O   UNL     1     -11.287  14.921  71.283  1.00  0.00    -0.487 OA 
HETATM    2  H   UNL     1     -10.670  14.202  71.355  1.00  0.00     0.000 HD 
HETATM    3 SI   UNL     1     -12.637  14.463  70.884  1.00  0.00    -0.261 Si 
HETATM    4  C   UNL     1     -11.657  11.560  68.476  1.00  0.00    -0.313 C  
HETATM    5  O   UNL     1     -12.026  12.920  68.264  1.00  0.00    -0.332 OA 
HETATM    6  O   UNL     1     -13.593  15.574  70.773  1.00  0.00    -0.799 OA 
HETATM    7  H   UNL     1     -14.459  15.280  70.516  1.00  0.00     0.000 HD 
ENDROOT
BRANCH   5   8
HETATM    8 SI   UNL     1     -11.289  13.761  67.004  1.00  0.00    -0.273 Si 
HETATM    9  C   UNL     1     -12.427  13.757  65.517  1.00  0.00    -0.512 C  
HETATM   10  C   UNL     1      -9.656  12.943  66.578  1.00  0.00    -0.259 C  
BRANCH   8  11
HETATM   11  O   UNL     1     -11.007  15.335  67.507  1.00  0.00    -0.301 OA 
HETATM   12 SI   UNL     1      -9.690  16.340  67.807  1.00  0.00    -0.214 Si 
HETATM   13  C   UNL     1      -8.582  15.644  69.166  1.00  0.00    -0.251 C  
HETATM   14  C   UNL     1     -10.220  18.062  68.344  1.00  0.00    -0.391 C  
HETATM   15  C   UNL     1      -8.630  16.515  66.257  1.00  0.00    -0.332 C  
ENDBRANCH   8  11
ENDBRANCH   5   8
TORSDOF 2
ENDMDL
MODEL       17
REMARK 921   NORMALIZED FREE ENERGY PREDICTED BY IDOCK:   -4.22 KCAL/MOL
REMARK 922        TOTAL FREE ENERGY PREDICTED BY IDOCK:   -4.95 KCAL/MOL
REMARK 923 INTER-LIGAND FREE ENERGY PREDICTED BY IDOCK:   -4.73 KCAL/MOL
REMARK 924 INTRA-LIGAND FREE ENERGY PREDICTED BY IDOCK:   -0.22 KCAL/MOL
REMARK 927      BINDING AFFINITY PREDICTED BY RF-SCORE:    0.00 PKD
ROOT
HETATM    1  O   UNL     1     -13.183  15.730  70.369  1.00  0.00    -0.731 OA 
HETATM    2  H   UNL     1     -13.540  16.033  69.543  1.00  0.00     0.000 HD 
HETATM    3 SI   UNL     1     -12.290  16.731  70.996  1.00  0.00    -0.564 Si 
HETATM    4  C   UNL     1     -10.654  18.242  67.799  1.00  0.00    -0.393 C  
HETATM    5  O   UNL     1     -10.238  17.247  68.730  1.00  0.00    -0.315 OA 
HETATM    6  O   UNL     1     -11.738  16.262  72.275  1.00  0.00    -0.498 OA 
HETATM    7  H   UNL     1     -11.165  16.904  72.677  1.00  0.00     0.000 HD 
ENDROOT
BRANCH   5   8
HETATM    8 SI   UNL     1      -9.348  15.936  68.155  1.00  0.00    -0.183 Si 
HETATM    9  C   UNL     1      -7.722  15.848  69.079  1.00  0.00    -0.209 C  
HETATM   10  C   UNL     1      -9.042  16.148  66.316  1.00  0.00    -0.338 C  
BRANCH   8  11
HETATM   11  O   UNL     1     -10.233  14.537  68.413  1.00  0.00    -0.226 OA 
HETATM   12 SI   UNL     1     -10.940  13.313  67.500  1.00  0.00    -0.234 Si 
HETATM   13  C   UNL     1     -12.247  13.992  66.321  1.00  0.00    -0.462 C  
HETATM   14  C   UNL     1     -11.775  12.017  68.576  1.00  0.00    -0.332 C  
HETATM   15  C   UNL     1      -9.639  12.443  66.448  1.00  0.00    -0.246 C  
ENDBRANCH   8  11
ENDBRANCH   5   8
TORSDOF 2
ENDMDL
MODEL       18
REMARK 921   NORMALIZED FREE ENERGY PREDICTED BY IDOCK:   -4.22 KCAL/MOL
REMARK 922        TOTAL FREE ENERGY PREDICTED BY IDOCK:   -4.94 KCAL/MOL
REMARK 923 INTER-LIGAND FREE ENERGY PREDICTED BY IDOCK:   -4.73 KCAL/MOL
REMARK 924 INTRA-LIGAND FREE ENERGY PREDICTED BY IDOCK:   -0.21 KCAL/MOL
REMARK 927      BINDING AFFINITY PREDICTED BY RF-SCORE:    0.00 PKD
ROOT
HETATM    1  O   UNL     1     -13.526  12.024  64.047  1.00  0.00    -0.655 OA 
HETATM    2  H   UNL     1     -13.447  11.087  64.182  1.00  0.00     0.000 HD 
HETATM    3 SI   UNL     1     -12.383  12.581  63.291  1.00  0.00    -0.391 Si 
HETATM    4  C   UNL     1      -9.520  10.336  64.683  1.00  0.00    -0.293 C  
HETATM    5  O   UNL     1      -9.977  11.645  65.008  1.00  0.00    -0.246 OA 
HETATM    6  O   UNL     1     -12.505  14.031  63.083  1.00  0.00    -1.137 OA 
HETATM    7  H   UNL     1     -11.771  14.389  62.598  1.00  0.00     0.000 HD 
ENDROOT
BRANCH   5   8
HETATM    8 SI   UNL     1      -9.917  12.136  66.620  1.00  0.00    -0.192 Si 
HETATM    9  C   UNL     1      -9.011  10.838  67.621  1.00  0.00    -0.140 C  
HETATM   10  C   UNL     1     -11.661  12.361  67.270  1.00  0.00    -0.349 C  
BRANCH   8  11
HETATM   11  O   UNL     1      -9.101  13.598  66.701  1.00  0.00    -0.238 OA 
HETATM   12 SI   UNL     1      -9.469  15.235  66.829  1.00  0.00    -0.195 Si 
HETATM   13  C   UNL     1     -10.508  15.829  65.371  1.00  0.00    -0.414 C  
HETATM   14  C   UNL     1      -7.926  16.306  66.890  1.00  0.00    -0.243 C  
HETATM   15  C   UNL     1     -10.466  15.563  68.396  1.00  0.00    -0.240 C  
ENDBRANCH   8  11
ENDBRANCH   5   8
TORSDOF 2
ENDMDL
MODEL       19
REMARK 921   NORMALIZED FREE ENERGY PREDICTED BY IDOCK:   -4.21 KCAL/MOL
REMARK 922        TOTAL FREE ENERGY PREDICTED BY IDOCK:   -4.94 KCAL/MOL
REMARK 923 INTER-LIGAND FREE ENERGY PREDICTED BY IDOCK:   -4.70 KCAL/MOL
REMARK 924 INTRA-LIGAND FREE ENERGY PREDICTED BY IDOCK:   -0.23 KCAL/MOL
REMARK 927      BINDING AFFINITY PREDICTED BY RF-SCORE:    0.00 PKD
ROOT
HETATM    1  O   UNL     1     -10.799  14.027  63.720  1.00  0.00    -0.292 OA 
HETATM    2  H   UNL     1     -10.077  13.425  63.855  1.00  0.00     0.000 HD 
HETATM    3 SI   UNL     1     -10.420  15.431  63.994  1.00  0.00    -0.570 Si 
HETATM    4  C   UNL     1      -7.953  14.876  66.958  1.00  0.00    -0.135 C  
HETATM    5  O   UNL     1      -9.331  15.233  66.890  1.00  0.00    -0.215 OA 
HETATM    6  O   UNL     1     -11.538  16.362  63.785  1.00  0.00    -1.605 OA 
HETATM    7  H   UNL     1     -11.295  17.263  63.961  1.00  0.00     0.000 HD 
ENDROOT
BRANCH   5   8
HETATM    8 SI   UNL     1     -10.367  14.655  68.087  1.00  0.00    -0.209 Si 
HETATM    9  C   UNL     1     -12.102  14.544  67.394  1.00  0.00    -0.257 C  
HETATM   10  C   UNL     1     -10.325  15.813  69.562  1.00  0.00    -0.272 C  
BRANCH   8  11
HETATM   11  O   UNL     1      -9.838  13.136  68.560  1.00  0.00    -0.218 OA 
HETATM   12 SI   UNL     1     -10.320  11.532  68.395  1.00  0.00    -0.161 Si 
HETATM   13  C   UNL     1     -12.025  11.238  69.150  1.00  0.00    -0.336 C  
HETATM   14  C   UNL     1      -9.127  10.343  69.229  1.00  0.00    -0.175 C  
HETATM   15  C   UNL     1     -10.429  11.062  66.572  1.00  0.00    -0.257 C  
ENDBRANCH   8  11
ENDBRANCH   5   8
TORSDOF 2
ENDMDL
MODEL       20
REMARK 921   NORMALIZED FREE ENERGY PREDICTED BY IDOCK:   -4.20 KCAL/MOL
REMARK 922        TOTAL FREE ENERGY PREDICTED BY IDOCK:   -4.93 KCAL/MOL
REMARK 923 INTER-LIGAND FREE ENERGY PREDICTED BY IDOCK:   -4.71 KCAL/MOL
REMARK 924 INTRA-LIGAND FREE ENERGY PREDICTED BY IDOCK:   -0.22 KCAL/MOL
REMARK 927      BINDING AFFINITY PREDICTED BY RF-SCORE:    0.00 PKD
ROOT
HETATM    1  O   UNL     1     -11.262  11.105  63.021  1.00  0.00    -0.820 OA 
HETATM    2  H   UNL     1     -11.916  10.615  63.507  1.00  0.00     0.000 HD 
HETATM    3 SI   UNL     1      -9.931  11.057  63.666  1.00  0.00    -0.206 Si 
HETATM    4  C   UNL     1     -11.016  11.075  67.408  1.00  0.00    -0.291 C  
HETATM    5  O   UNL     1     -10.577  12.095  66.516  1.00  0.00    -0.227 OA 
HETATM    6  O   UNL     1      -8.919  11.814  62.915  1.00  0.00    -0.654 OA 
HETATM    7  H   UNL     1      -8.065  11.783  63.329  1.00  0.00     0.000 HD 
ENDROOT
BRANCH   5   8
HETATM    8 SI   UNL     1     -11.252  13.632  66.664  1.00  0.00    -0.280 Si 
HETATM    9  C   UNL     1     -12.018  13.803  68.363  1.00  0.00    -0.360 C  
HETATM   10  C   UNL     1     -12.553  13.874  65.334  1.00  0.00    -0.507 C  
BRANCH   8  11
HETATM   11  O   UNL     1     -10.037  14.769  66.464  1.00  0.00    -0.258 OA 
HETATM   12 SI   UNL     1      -9.314  16.003  67.351  1.00  0.00    -0.199 Si 
HETATM   13  C   UNL     1     -10.562  17.335  67.831  1.00  0.00    -0.384 C  
HETATM   14  C   UNL     1      -7.932  16.848  66.397  1.00  0.00    -0.317 C  
HETATM   15  C   UNL     1      -8.583  15.322  68.950  1.00  0.00    -0.207 C  
ENDBRANCH   8  11
ENDBRANCH   5   8
TORSDOF 2
ENDMDL
MODEL       21
REMARK 921   NORMALIZED FREE ENERGY PREDICTED BY IDOCK:   -4.19 KCAL/MOL
REMARK 922        TOTAL FREE ENERGY PREDICTED BY IDOCK:   -4.91 KCAL/MOL
REMARK 923 INTER-LIGAND FREE ENERGY PREDICTED BY IDOCK:   -4.70 KCAL/MOL
REMARK 924 INTRA-LIGAND FREE ENERGY PREDICTED BY IDOCK:   -0.21 KCAL/MOL
REMARK 927      BINDING AFFINITY PREDICTED BY RF-SCORE:    0.00 PKD
ROOT
HETATM    1  O   UNL     1     -13.022  14.955  63.708  1.00  0.00    -0.496 OA 
HETATM    2  H   UNL     1     -13.287  14.112  63.359  1.00  0.00     0.000 HD 
HETATM    3 SI   UNL     1     -11.614  15.279  63.389  1.00  0.00    -0.638 Si 
HETATM    4  C   UNL     1     -10.057  11.714  63.605  1.00  0.00    -0.402 C  
HETATM    5  O   UNL     1     -10.129  12.803  64.520  1.00  0.00    -0.307 OA 
HETATM    6  O   UNL     1     -11.205  16.583  63.930  1.00  0.00    -1.440 OA 
HETATM    7  H   UNL     1     -10.301  16.790  63.725  1.00  0.00     0.000 HD 
ENDROOT
BRANCH   5   8
HETATM    8 SI   UNL     1     -10.300  12.459  66.161  1.00  0.00    -0.225 Si 
HETATM    9  C   UNL     1     -10.648  10.631  66.370  1.00  0.00    -0.175 C  
HETATM   10  C   UNL     1     -11.707  13.477  66.869  1.00  0.00    -0.384 C  
BRANCH   8  11
HETATM   11  O   UNL     1      -8.873  12.865  66.942  1.00  0.00    -0.213 OA 
HETATM   12 SI   UNL     1      -7.542  12.083  67.611  1.00  0.00    -0.092 Si 
HETATM   13  C   UNL     1      -8.049  10.927  69.014  1.00  0.00    -0.126 C  
HETATM   14  C   UNL     1      -6.284  13.293  68.310  1.00  0.00    -0.099 C  
HETATM   15  C   UNL     1      -6.674  11.031  66.308  1.00  0.00    -0.103 C  
ENDBRANCH   8  11
ENDBRANCH   5   8
TORSDOF 2
ENDMDL
MODEL       22
REMARK 921   NORMALIZED FREE ENERGY PREDICTED BY IDOCK:   -4.18 KCAL/MOL
REMARK 922        TOTAL FREE ENERGY PREDICTED BY IDOCK:   -4.91 KCAL/MOL
REMARK 923 INTER-LIGAND FREE ENERGY PREDICTED BY IDOCK:   -4.74 KCAL/MOL
REMARK 924 INTRA-LIGAND FREE ENERGY PREDICTED BY IDOCK:   -0.16 KCAL/MOL
REMARK 927      BINDING AFFINITY PREDICTED BY RF-SCORE:    0.00 PKD
ROOT
HETATM    1  O   UNL     1     -11.451  14.148  70.666  1.00  0.00    -0.503 OA 
HETATM    2  H   UNL     1     -11.191  13.296  70.336  1.00  0.00     0.000 HD 
HETATM    3 SI   UNL     1     -12.692  14.643  70.030  1.00  0.00    -0.294 Si 
HETATM    4  C   UNL     1     -12.185  13.239  66.431  1.00  0.00    -0.356 C  
HETATM    5  O   UNL     1     -11.948  14.514  67.022  1.00  0.00    -0.404 OA 
HETATM    6  O   UNL     1     -13.094  15.961  70.541  1.00  0.00    -0.714 OA 
HETATM    7  H   UNL     1     -13.890  16.278  70.132  1.00  0.00     0.000 HD 
ENDROOT
BRANCH   5   8
HETATM    8 SI   UNL     1     -10.617  15.404  66.497  1.00  0.00    -0.262 Si 
HETATM    9  C   UNL     1     -10.900  15.941  64.726  1.00  0.00    -0.324 C  
HETATM   10  C   UNL     1      -9.072  14.348  66.620  1.00  0.00    -0.240 C  
BRANCH   8  11
HETATM   11  O   UNL     1     -10.452  16.747  67.485  1.00  0.00    -0.308 OA 
HETATM   12 SI   UNL     1      -9.721  18.262  67.432  1.00  0.00    -0.264 Si 
HETATM   13  C   UNL     1      -7.853  18.124  67.209  1.00  0.00    -0.222 C  
HETATM   14  C   UNL     1     -10.025  19.252  69.001  1.00  0.00    -0.379 C  
HETATM   15  C   UNL     1     -10.384  19.262  65.977  1.00  0.00    -0.475 C  
ENDBRANCH   8  11
ENDBRANCH   5   8
TORSDOF 2
ENDMDL
MODEL       23
REMARK 921   NORMALIZED FREE ENERGY PREDICTED BY IDOCK:   -4.17 KCAL/MOL
REMARK 922        TOTAL FREE ENERGY PREDICTED BY IDOCK:   -4.89 KCAL/MOL
REMARK 923 INTER-LIGAND FREE ENERGY PREDICTED BY IDOCK:   -4.70 KCAL/MOL
REMARK 924 INTRA-LIGAND FREE ENERGY PREDICTED BY IDOCK:   -0.19 KCAL/MOL
REMARK 927      BINDING AFFINITY PREDICTED BY RF-SCORE:    0.00 PKD
ROOT
HETATM    1  O   UNL     1     -12.778  11.355  62.953  1.00  0.00    -0.951 OA 
HETATM    2  H   UNL     1     -12.483  10.499  62.664  1.00  0.00     0.000 HD 
HETATM    3 SI   UNL     1     -11.774  12.411  62.698  1.00  0.00    -0.612 Si 
HETATM    4  C   UNL     1      -8.510  10.380  63.332  1.00  0.00    -0.174 C  
HETATM    5  O   UNL     1      -9.279  11.267  64.140  1.00  0.00    -0.155 OA 
HETATM    6  O   UNL     1     -12.230  13.735  63.146  1.00  0.00    -1.048 OA 
HETATM    7  H   UNL     1     -11.586  14.412  62.983  1.00  0.00     0.000 HD 
ENDROOT
BRANCH   5   8
HETATM    8 SI   UNL     1      -9.395  10.947  65.790  1.00  0.00    -0.164 Si 
HETATM    9  C   UNL     1      -7.700  11.116  66.568  1.00  0.00    -0.146 C  
HETATM   10  C   UNL     1     -10.060   9.212  66.045  1.00  0.00    -0.134 C  
BRANCH   8  11
HETATM   11  O   UNL     1     -10.454  12.053  66.473  1.00  0.00    -0.214 OA 
HETATM   12 SI   UNL     1     -10.431  13.650  67.002  1.00  0.00    -0.246 Si 
HETATM   13  C   UNL     1      -9.178  13.905  68.389  1.00  0.00    -0.194 C  
HETATM   14  C   UNL     1     -12.106  14.206  67.651  1.00  0.00    -0.302 C  
HETATM   15  C   UNL     1      -9.944  14.803  65.591  1.00  0.00    -0.360 C  
ENDBRANCH   8  11
ENDBRANCH   5   8
TORSDOF 2
ENDMDL
MODEL       24
REMARK 921   NORMALIZED FREE ENERGY PREDICTED BY IDOCK:   -4.08 KCAL/MOL
REMARK 922        TOTAL FREE ENERGY PREDICTED BY IDOCK:   -4.80 KCAL/MOL
REMARK 923 INTER-LIGAND FREE ENERGY PREDICTED BY IDOCK:   -4.65 KCAL/MOL
REMARK 924 INTRA-LIGAND FREE ENERGY PREDICTED BY IDOCK:   -0.15 KCAL/MOL
REMARK 927      BINDING AFFINITY PREDICTED BY RF-SCORE:    0.00 PKD
ROOT
HETATM    1  O   UNL     1     -10.180  13.139  63.460  1.00  0.00    -0.568 OA 
HETATM    2  H   UNL     1      -9.337  13.493  63.717  1.00  0.00     0.000 HD 
HETATM    3 SI   UNL     1     -11.265  14.139  63.569  1.00  0.00    -0.568 Si 
HETATM    4  C   UNL     1     -10.054  16.078  66.724  1.00  0.00    -0.268 C  
HETATM    5  O   UNL     1     -11.001  15.032  66.526  1.00  0.00    -0.321 OA 
HETATM    6  O   UNL     1     -12.570  13.592  63.172  1.00  0.00    -0.969 OA 
HETATM    7  H   UNL     1     -13.266  14.234  63.242  1.00  0.00     0.000 HD 
ENDROOT
BRANCH   5   8
HETATM    8 SI   UNL     1     -11.156  13.857  67.725  1.00  0.00    -0.232 Si 
HETATM    9  C   UNL     1      -9.493  13.598  68.546  1.00  0.00    -0.143 C  
HETATM   10  C   UNL     1     -11.761  12.257  66.956  1.00  0.00    -0.329 C  
BRANCH   8  11
HETATM   11  O   UNL     1     -12.277  14.390  68.851  1.00  0.00    -0.281 OA 
HETATM   12 SI   UNL     1     -12.485  14.370  70.521  1.00  0.00    -0.254 Si 
HETATM   13  C   UNL     1     -12.566  12.607  71.188  1.00  0.00    -0.258 C  
HETATM   14  C   UNL     1     -14.065  15.241  71.049  1.00  0.00    -0.227 C  
HETATM   15  C   UNL     1     -11.037  15.224  71.375  1.00  0.00    -0.227 C  
ENDBRANCH   8  11
ENDBRANCH   5   8
TORSDOF 2
ENDMDL
MODEL       25
REMARK 921   NORMALIZED FREE ENERGY PREDICTED BY IDOCK:   -4.07 KCAL/MOL
REMARK 922        TOTAL FREE ENERGY PREDICTED BY IDOCK:   -4.79 KCAL/MOL
REMARK 923 INTER-LIGAND FREE ENERGY PREDICTED BY IDOCK:   -4.58 KCAL/MOL
REMARK 924 INTRA-LIGAND FREE ENERGY PREDICTED BY IDOCK:   -0.21 KCAL/MOL
REMARK 927      BINDING AFFINITY PREDICTED BY RF-SCORE:    0.00 PKD
ROOT
HETATM    1  O   UNL     1     -11.328  16.553  63.707  1.00  0.00    -1.553 OA 
HETATM    2  H   UNL     1     -11.260  17.499  63.763  1.00  0.00     0.000 HD 
HETATM    3 SI   UNL     1     -12.031  15.970  64.871  1.00  0.00    -0.238 Si 
HETATM    4  C   UNL     1     -10.773  18.375  67.667  1.00  0.00    -0.357 C  
HETATM    5  O   UNL     1     -10.360  17.081  67.235  1.00  0.00    -0.301 OA 
HETATM    6  O   UNL     1     -12.136  14.507  64.784  1.00  0.00    -0.418 OA 
HETATM    7  H   UNL     1     -12.587  14.133  65.531  1.00  0.00     0.000 HD 
ENDROOT
BRANCH   5   8
HETATM    8 SI   UNL     1      -8.717  16.708  67.287  1.00  0.00    -0.174 Si 
HETATM    9  C   UNL     1      -8.473  14.941  66.716  1.00  0.00    -0.180 C  
HETATM   10  C   UNL     1      -8.084  16.921  69.039  1.00  0.00    -0.162 C  
BRANCH   8  11
HETATM   11  O   UNL     1      -7.899  17.759  66.269  1.00  0.00    -0.281 OA 
HETATM   12 SI   UNL     1      -6.862  19.078  66.399  1.00  0.00    -0.181 Si 
HETATM   13  C   UNL     1      -7.671  20.509  67.324  1.00  0.00    -0.332 C  
HETATM   14  C   UNL     1      -6.328  19.728  64.717  1.00  0.00    -0.259 C  
HETATM   15  C   UNL     1      -5.309  18.601  67.356  1.00  0.00    -0.144 C  
ENDBRANCH   8  11
ENDBRANCH   5   8
TORSDOF 2
ENDMDL
MODEL       26
REMARK 921   NORMALIZED FREE ENERGY PREDICTED BY IDOCK:   -4.04 KCAL/MOL
REMARK 922        TOTAL FREE ENERGY PREDICTED BY IDOCK:   -4.74 KCAL/MOL
REMARK 923 INTER-LIGAND FREE ENERGY PREDICTED BY IDOCK:   -4.60 KCAL/MOL
REMARK 924 INTRA-LIGAND FREE ENERGY PREDICTED BY IDOCK:   -0.15 KCAL/MOL
REMARK 927      BINDING AFFINITY PREDICTED BY RF-SCORE:    0.00 PKD
ROOT
HETATM    1  O   UNL     1     -13.436  13.964  65.606  1.00  0.00    -0.655 OA 
HETATM    2  H   UNL     1     -13.263  13.336  66.298  1.00  0.00     0.000 HD 
HETATM    3 SI   UNL     1     -12.305  14.081  64.658  1.00  0.00    -0.356 Si 
HETATM    4  C   UNL     1      -9.329  13.614  67.129  1.00  0.00    -0.240 C  
HETATM    5  O   UNL     1      -9.956  14.762  66.565  1.00  0.00    -0.253 OA 
HETATM    6  O   UNL     1     -12.572  15.052  63.588  1.00  0.00    -0.975 OA 
HETATM    7  H   UNL     1     -11.847  15.127  62.980  1.00  0.00     0.000 HD 
ENDROOT
BRANCH   5   8
HETATM    8 SI   UNL     1     -10.082  16.151  67.511  1.00  0.00    -0.226 Si 
HETATM    9  C   UNL     1     -11.499  15.943  68.717  1.00  0.00    -0.393 C  
HETATM   10  C   UNL     1     -10.380  17.636  66.404  1.00  0.00    -0.345 C  
BRANCH   8  11
HETATM   11  O   UNL     1      -8.643  16.360  68.344  1.00  0.00    -0.192 OA 
HETATM   12 SI   UNL     1      -7.292  17.361  68.284  1.00  0.00    -0.166 Si 
HETATM   13  C   UNL     1      -6.383  17.202  66.638  1.00  0.00    -0.219 C  
HETATM   14  C   UNL     1      -6.056  16.968  69.646  1.00  0.00    -0.231 C  
HETATM   15  C   UNL     1      -7.803  19.167  68.467  1.00  0.00    -0.345 C  
ENDBRANCH   8  11
ENDBRANCH   5   8
TORSDOF 2
ENDMDL
MODEL       27
REMARK 921   NORMALIZED FREE ENERGY PREDICTED BY IDOCK:   -3.99 KCAL/MOL
REMARK 922        TOTAL FREE ENERGY PREDICTED BY IDOCK:   -4.70 KCAL/MOL
REMARK 923 INTER-LIGAND FREE ENERGY PREDICTED BY IDOCK:   -4.46 KCAL/MOL
REMARK 924 INTRA-LIGAND FREE ENERGY PREDICTED BY IDOCK:   -0.24 KCAL/MOL
REMARK 927      BINDING AFFINITY PREDICTED BY RF-SCORE:    0.00 PKD
ROOT
HETATM    1  O   UNL     1     -11.060  16.206  64.319  1.00  0.00    -1.042 OA 
HETATM    2  H   UNL     1     -10.875  16.841  65.002  1.00  0.00     0.000 HD 
HETATM    3 SI   UNL     1     -12.308  15.454  64.574  1.00  0.00    -0.385 Si 
HETATM    4  C   UNL     1     -12.132  15.193  68.458  1.00  0.00    -0.114 C  
HETATM    5  O   UNL     1     -11.779  14.302  67.404  1.00  0.00    -0.354 OA 
HETATM    6  O   UNL     1     -12.594  14.472  63.519  1.00  0.00    -1.034 OA 
HETATM    7  H   UNL     1     -13.395  13.990  63.682  1.00  0.00     0.000 HD 
ENDROOT
BRANCH   5   8
HETATM    8 SI   UNL     1     -10.435  13.307  67.615  1.00  0.00    -0.210 Si 
HETATM    9  C   UNL     1      -9.804  12.766  65.937  1.00  0.00    -0.238 C  
HETATM   10  C   UNL     1     -10.917  11.815  68.643  1.00  0.00    -0.224 C  
BRANCH   8  11
HETATM   11  O   UNL     1      -9.250  14.177  68.420  1.00  0.00    -0.197 OA 
HETATM   12 SI   UNL     1      -7.757  14.876  68.082  1.00  0.00    -0.098 Si 
HETATM   13  C   UNL     1      -6.503  13.588  67.508  1.00  0.00    -0.100 C  
HETATM   14  C   UNL     1      -7.023  15.743  69.580  1.00  0.00    -0.191 C  
HETATM   15  C   UNL     1      -7.924  16.147  66.699  1.00  0.00    -0.270 C  
ENDBRANCH   8  11
ENDBRANCH   5   8
TORSDOF 2
ENDMDL
MODEL       28
REMARK 921   NORMALIZED FREE ENERGY PREDICTED BY IDOCK:   -3.98 KCAL/MOL
REMARK 922        TOTAL FREE ENERGY PREDICTED BY IDOCK:   -4.68 KCAL/MOL
REMARK 923 INTER-LIGAND FREE ENERGY PREDICTED BY IDOCK:   -4.49 KCAL/MOL
REMARK 924 INTRA-LIGAND FREE ENERGY PREDICTED BY IDOCK:   -0.20 KCAL/MOL
REMARK 927      BINDING AFFINITY PREDICTED BY RF-SCORE:    0.00 PKD
ROOT
HETATM    1  O   UNL     1     -10.824  15.029  64.450  1.00  0.00    -0.627 OA 
HETATM    2  H   UNL     1     -10.540  15.248  65.329  1.00  0.00     0.000 HD 
HETATM    3 SI   UNL     1     -12.085  14.253  64.445  1.00  0.00    -0.350 Si 
HETATM    4  C   UNL     1     -11.558  12.129  67.669  1.00  0.00    -0.343 C  
HETATM    5  O   UNL     1     -11.358  11.864  66.284  1.00  0.00    -0.334 OA 
HETATM    6  O   UNL     1     -12.525  13.912  63.085  1.00  0.00    -1.121 OA 
HETATM    7  H   UNL     1     -13.333  13.414  63.082  1.00  0.00     0.000 HD 
ENDROOT
BRANCH   5   8
HETATM    8 SI   UNL     1     -10.059  10.887  65.836  1.00  0.00    -0.196 Si 
HETATM    9  C   UNL     1      -8.497  11.541  66.636  1.00  0.00    -0.172 C  
HETATM   10  C   UNL     1      -9.888  10.893  63.968  1.00  0.00    -0.322 C  
BRANCH   8  11
HETATM   11  O   UNL     1     -10.362   9.325  66.361  1.00  0.00    -0.251 OA 
HETATM   12 SI   UNL     1      -9.832   8.282  67.570  1.00  0.00    -0.138 Si 
HETATM   13  C   UNL     1      -7.983   7.937  67.428  1.00  0.00    -0.122 C  
HETATM   14  C   UNL     1     -10.716   6.623  67.515  1.00  0.00    -0.317 C  
HETATM   15  C   UNL     1     -10.128   9.042  69.270  1.00  0.00    -0.195 C  
ENDBRANCH   8  11
ENDBRANCH   5   8
TORSDOF 2
ENDMDL
MODEL       29
REMARK 921   NORMALIZED FREE ENERGY PREDICTED BY IDOCK:   -3.96 KCAL/MOL
REMARK 922        TOTAL FREE ENERGY PREDICTED BY IDOCK:   -4.65 KCAL/MOL
REMARK 923 INTER-LIGAND FREE ENERGY PREDICTED BY IDOCK:   -4.48 KCAL/MOL
REMARK 924 INTRA-LIGAND FREE ENERGY PREDICTED BY IDOCK:   -0.17 KCAL/MOL
REMARK 927      BINDING AFFINITY PREDICTED BY RF-SCORE:    0.00 PKD
ROOT
HETATM    1  O   UNL     1      -9.697  12.251  62.756  1.00  0.00    -0.312 OA 
HETATM    2  H   UNL     1      -9.209  13.049  62.592  1.00  0.00     0.000 HD 
HETATM    3 SI   UNL     1     -11.160  12.476  62.748  1.00  0.00    -0.554 Si 
HETATM    4  C   UNL     1     -11.284  16.031  64.336  1.00  0.00    -0.205 C  
HETATM    5  O   UNL     1     -11.462  14.721  64.865  1.00  0.00    -0.378 OA 
HETATM    6  O   UNL     1     -11.915  11.241  63.002  1.00  0.00    -0.863 OA 
HETATM    7  H   UNL     1     -12.854  11.385  62.996  1.00  0.00     0.000 HD 
ENDROOT
BRANCH   5   8
HETATM    8 SI   UNL     1     -10.919  14.411  66.430  1.00  0.00    -0.286 Si 
HETATM    9  C   UNL     1      -9.346  13.399  66.344  1.00  0.00    -0.172 C  
HETATM   10  C   UNL     1     -12.242  13.478  67.377  1.00  0.00    -0.235 C  
BRANCH   8  11
HETATM   11  O   UNL     1     -10.620  15.874  67.190  1.00  0.00    -0.310 OA 
HETATM   12 SI   UNL     1     -10.068  16.425  68.682  1.00  0.00    -0.196 Si 
HETATM   13  C   UNL     1     -11.190  15.857  70.089  1.00  0.00    -0.364 C  
HETATM   14  C   UNL     1      -9.981  18.301  68.758  1.00  0.00    -0.370 C  
HETATM   15  C   UNL     1      -8.344  15.748  69.036  1.00  0.00    -0.236 C  
ENDBRANCH   8  11
ENDBRANCH   5   8
TORSDOF 2
ENDMDL
MODEL       30
REMARK 921   NORMALIZED FREE ENERGY PREDICTED BY IDOCK:   -3.94 KCAL/MOL
REMARK 922        TOTAL FREE ENERGY PREDICTED BY IDOCK:   -4.63 KCAL/MOL
REMARK 923 INTER-LIGAND FREE ENERGY PREDICTED BY IDOCK:   -4.42 KCAL/MOL
REMARK 924 INTRA-LIGAND FREE ENERGY PREDICTED BY IDOCK:   -0.21 KCAL/MOL
REMARK 927      BINDING AFFINITY PREDICTED BY RF-SCORE:    0.00 PKD
ROOT
HETATM    1  O   UNL     1     -11.173  13.256  63.527  1.00  0.00    -0.574 OA 
HETATM    2  H   UNL     1     -10.943  13.925  64.161  1.00  0.00     0.000 HD 
HETATM    3 SI   UNL     1     -12.378  12.495  63.925  1.00  0.00    -0.342 Si 
HETATM    4  C   UNL     1     -11.859  12.420  67.786  1.00  0.00    -0.298 C  
HETATM    5  O   UNL     1     -11.579  11.486  66.746  1.00  0.00    -0.492 OA 
HETATM    6  O   UNL     1     -12.733  11.460  62.944  1.00  0.00    -0.951 OA 
HETATM    7  H   UNL     1     -13.506  10.972  63.199  1.00  0.00     0.000 HD 
ENDROOT
BRANCH   5   8
HETATM    8 SI   UNL     1     -10.201  10.526  66.883  1.00  0.00    -0.173 Si 
HETATM    9  C   UNL     1      -8.845  11.517  67.711  1.00  0.00    -0.153 C  
HETATM   10  C   UNL     1      -9.654   9.972  65.176  1.00  0.00    -0.291 C  
BRANCH   8  11
HETATM   11  O   UNL     1     -10.578   9.181  67.809  1.00  0.00    -0.248 OA 
HETATM   12 SI   UNL     1     -10.307   8.617  69.371  1.00  0.00    -0.181 Si 
HETATM   13  C   UNL     1      -8.465   8.419  69.728  1.00  0.00    -0.127 C  
HETATM   14  C   UNL     1     -11.119   6.949  69.674  1.00  0.00    -0.258 C  
HETATM   15  C   UNL     1     -10.992   9.835  70.638  1.00  0.00    -0.331 C  
ENDBRANCH   8  11
ENDBRANCH   5   8
TORSDOF 2
ENDMDL
MODEL       31
REMARK 921   NORMALIZED FREE ENERGY PREDICTED BY IDOCK:   -3.91 KCAL/MOL
REMARK 922        TOTAL FREE ENERGY PREDICTED BY IDOCK:   -4.61 KCAL/MOL
REMARK 923 INTER-LIGAND FREE ENERGY PREDICTED BY IDOCK:   -4.40 KCAL/MOL
REMARK 924 INTRA-LIGAND FREE ENERGY PREDICTED BY IDOCK:   -0.20 KCAL/MOL
REMARK 927      BINDING AFFINITY PREDICTED BY RF-SCORE:    0.00 PKD
ROOT
HETATM    1  O   UNL     1     -13.066  12.546  64.657  1.00  0.00    -0.845 OA 
HETATM    2  H   UNL     1     -13.335  12.432  65.561  1.00  0.00     0.000 HD 
HETATM    3 SI   UNL     1     -11.679  12.087  64.423  1.00  0.00    -0.304 Si 
HETATM    4  C   UNL     1     -10.067  13.113  67.819  1.00  0.00    -0.226 C  
HETATM    5  O   UNL     1     -10.109  13.728  66.534  1.00  0.00    -0.272 OA 
HETATM    6  O   UNL     1     -11.261  12.264  63.025  1.00  0.00    -0.677 OA 
HETATM    7  H   UNL     1     -10.371  11.970  62.874  1.00  0.00     0.000 HD 
ENDROOT
BRANCH   5   8
HETATM    8 SI   UNL     1     -10.198  15.410  66.456  1.00  0.00    -0.241 Si 
HETATM    9  C   UNL     1     -11.102  16.046  67.968  1.00  0.00    -0.334 C  
HETATM   10  C   UNL     1     -11.105  15.915  64.894  1.00  0.00    -0.389 C  
BRANCH   8  11
HETATM   11  O   UNL     1      -8.640  16.024  66.417  1.00  0.00    -0.282 OA 
HETATM   12 SI   UNL     1      -7.647  16.990  67.373  1.00  0.00    -0.143 Si 
HETATM   13  C   UNL     1      -8.382  18.711  67.618  1.00  0.00    -0.267 C  
HETATM   14  C   UNL     1      -5.938  17.213  66.622  1.00  0.00    -0.205 C  
HETATM   15  C   UNL     1      -7.435  16.226  69.083  1.00  0.00    -0.218 C  
ENDBRANCH   8  11
ENDBRANCH   5   8
TORSDOF 2
ENDMDL
MODEL       32
REMARK 921   NORMALIZED FREE ENERGY PREDICTED BY IDOCK:   -3.91 KCAL/MOL
REMARK 922        TOTAL FREE ENERGY PREDICTED BY IDOCK:   -4.60 KCAL/MOL
REMARK 923 INTER-LIGAND FREE ENERGY PREDICTED BY IDOCK:   -4.40 KCAL/MOL
REMARK 924 INTRA-LIGAND FREE ENERGY PREDICTED BY IDOCK:   -0.20 KCAL/MOL
REMARK 927      BINDING AFFINITY PREDICTED BY RF-SCORE:    0.00 PKD
ROOT
HETATM    1  O   UNL     1     -11.605  14.783  71.658  1.00  0.00    -0.449 OA 
HETATM    2  H   UNL     1     -11.149  14.062  72.076  1.00  0.00     0.000 HD 
HETATM    3 SI   UNL     1     -12.923  14.377  71.120  1.00  0.00    -0.275 Si 
HETATM    4  C   UNL     1     -12.072  10.754  69.968  1.00  0.00    -0.345 C  
HETATM    5  O   UNL     1     -12.147  12.002  69.284  1.00  0.00    -0.271 OA 
HETATM    6  O   UNL     1     -13.628  15.492  70.472  1.00  0.00    -0.826 OA 
HETATM    7  H   UNL     1     -14.473  15.232  70.127  1.00  0.00     0.000 HD 
ENDROOT
BRANCH   5   8
HETATM    8 SI   UNL     1     -11.059  12.293  68.030  1.00  0.00    -0.187 Si 
HETATM    9  C   UNL     1      -9.699  11.008  68.089  1.00  0.00    -0.174 C  
HETATM   10  C   UNL     1     -10.339  14.015  68.215  1.00  0.00    -0.247 C  
BRANCH   8  11
HETATM   11  O   UNL     1     -11.885  12.191  66.575  1.00  0.00    -0.569 OA 
HETATM   12 SI   UNL     1     -11.649  12.622  64.966  1.00  0.00    -0.293 Si 
HETATM   13  C   UNL     1     -11.423  14.486  64.773  1.00  0.00    -0.408 C  
HETATM   14  C   UNL     1     -13.097  12.119  63.877  1.00  0.00    -0.068 C  
HETATM   15  C   UNL     1     -10.096  11.798  64.284  1.00  0.00    -0.290 C  
ENDBRANCH   8  11
ENDBRANCH   5   8
TORSDOF 2
ENDMDL
MODEL       33
REMARK 921   NORMALIZED FREE ENERGY PREDICTED BY IDOCK:   -3.90 KCAL/MOL
REMARK 922        TOTAL FREE ENERGY PREDICTED BY IDOCK:   -4.59 KCAL/MOL
REMARK 923 INTER-LIGAND FREE ENERGY PREDICTED BY IDOCK:   -4.36 KCAL/MOL
REMARK 924 INTRA-LIGAND FREE ENERGY PREDICTED BY IDOCK:   -0.24 KCAL/MOL
REMARK 927      BINDING AFFINITY PREDICTED BY RF-SCORE:    0.00 PKD
ROOT
HETATM    1  O   UNL     1     -11.095  11.083  63.098  1.00  0.00    -0.770 OA 
HETATM    2  H   UNL     1     -11.657  10.391  63.425  1.00  0.00     0.000 HD 
HETATM    3 SI   UNL     1      -9.659  10.743  63.215  1.00  0.00    -0.190 Si 
HETATM    4  C   UNL     1      -9.731   8.744  66.559  1.00  0.00    -0.259 C  
HETATM    5  O   UNL     1      -9.412  10.095  66.237  1.00  0.00    -0.165 OA 
HETATM    6  O   UNL     1      -8.789  11.814  62.709  1.00  0.00    -0.647 OA 
HETATM    7  H   UNL     1      -7.868  11.596  62.784  1.00  0.00     0.000 HD 
ENDROOT
BRANCH   5   8
HETATM    8 SI   UNL     1      -9.827  11.299  67.341  1.00  0.00    -0.168 Si 
HETATM    9  C   UNL     1      -8.512  11.391  68.670  1.00  0.00    -0.131 C  
HETATM   10  C   UNL     1     -11.495  10.902  68.101  1.00  0.00    -0.295 C  
BRANCH   8  11
HETATM   11  O   UNL     1      -9.923  12.760  66.525  1.00  0.00    -0.241 OA 
HETATM   12 SI   UNL     1     -11.039  13.999  66.296  1.00  0.00    -0.286 Si 
HETATM   13  C   UNL     1     -12.615  13.369  65.473  1.00  0.00    -0.465 C  
HETATM   14  C   UNL     1     -10.356  15.378  65.216  1.00  0.00    -0.390 C  
HETATM   15  C   UNL     1     -11.536  14.750  67.952  1.00  0.00    -0.351 C  
ENDBRANCH   8  11
ENDBRANCH   5   8
TORSDOF 2
ENDMDL
MODEL       34
REMARK 921   NORMALIZED FREE ENERGY PREDICTED BY IDOCK:   -3.89 KCAL/MOL
REMARK 922        TOTAL FREE ENERGY PREDICTED BY IDOCK:   -4.58 KCAL/MOL
REMARK 923 INTER-LIGAND FREE ENERGY PREDICTED BY IDOCK:   -4.41 KCAL/MOL
REMARK 924 INTRA-LIGAND FREE ENERGY PREDICTED BY IDOCK:   -0.18 KCAL/MOL
REMARK 927      BINDING AFFINITY PREDICTED BY RF-SCORE:    0.00 PKD
ROOT
HETATM    1  O   UNL     1     -13.140  14.102  65.165  1.00  0.00    -0.757 OA 
HETATM    2  H   UNL     1     -13.193  14.460  66.044  1.00  0.00     0.000 HD 
HETATM    3 SI   UNL     1     -13.491  12.665  65.122  1.00  0.00    -0.530 Si 
HETATM    4  C   UNL     1     -12.012  11.526  68.542  1.00  0.00    -0.224 C  
HETATM    5  O   UNL     1     -11.525  11.476  67.204  1.00  0.00    -0.430 OA 
HETATM    6  O   UNL     1     -13.408  12.112  63.763  1.00  0.00    -0.701 OA 
HETATM    7  H   UNL     1     -13.633  11.190  63.735  1.00  0.00     0.000 HD 
ENDROOT
BRANCH   5   8
HETATM    8 SI   UNL     1      -9.873  11.690  66.946  1.00  0.00    -0.183 Si 
HETATM    9  C   UNL     1      -9.554  11.819  65.105  1.00  0.00    -0.153 C  
HETATM   10  C   UNL     1      -8.935  10.237  67.670  1.00  0.00    -0.134 C  
BRANCH   8  11
HETATM   11  O   UNL     1      -9.393  13.100  67.713  1.00  0.00    -0.190 OA 
HETATM   12 SI   UNL     1      -9.778  14.738  67.685  1.00  0.00    -0.197 Si 
HETATM   13  C   UNL     1      -9.476  15.493  65.983  1.00  0.00    -0.352 C  
HETATM   14  C   UNL     1      -8.765  15.726  68.923  1.00  0.00    -0.217 C  
HETATM   15  C   UNL     1     -11.602  14.991  68.093  1.00  0.00    -0.340 C  
ENDBRANCH   8  11
ENDBRANCH   5   8
TORSDOF 2
ENDMDL
MODEL       35
REMARK 921   NORMALIZED FREE ENERGY PREDICTED BY IDOCK:   -3.84 KCAL/MOL
REMARK 922        TOTAL FREE ENERGY PREDICTED BY IDOCK:   -4.53 KCAL/MOL
REMARK 923 INTER-LIGAND FREE ENERGY PREDICTED BY IDOCK:   -4.35 KCAL/MOL
REMARK 924 INTRA-LIGAND FREE ENERGY PREDICTED BY IDOCK:   -0.18 KCAL/MOL
REMARK 927      BINDING AFFINITY PREDICTED BY RF-SCORE:    0.00 PKD
ROOT
HETATM    1  O   UNL     1     -13.800   8.879  73.220  1.00  0.00    -1.163 OA 
HETATM    2  H   UNL     1     -13.421   8.820  74.089  1.00  0.00     0.000 HD 
HETATM    3 SI   UNL     1     -13.823   7.571  72.528  1.00  0.00    -0.464 Si 
HETATM    4  C   UNL     1     -10.490   6.063  73.869  1.00  0.00    -0.272 C  
HETATM    5  O   UNL     1     -10.839   6.737  72.663  1.00  0.00    -0.227 OA 
HETATM    6  O   UNL     1     -14.409   7.662  71.183  1.00  0.00    -0.649 OA 
HETATM    7  H   UNL     1     -14.424   6.823  70.739  1.00  0.00     0.000 HD 
ENDROOT
BRANCH   5   8
HETATM    8 SI   UNL     1      -9.699   7.760  71.960  1.00  0.00    -0.148 Si 
HETATM    9  C   UNL     1      -8.393   8.186  73.232  1.00  0.00    -0.214 C  
HETATM   10  C   UNL     1     -10.548   9.317  71.350  1.00  0.00    -0.347 C  
BRANCH   8  11
HETATM   11  O   UNL     1      -8.999   6.964  70.662  1.00  0.00    -0.150 OA 
HETATM   12 SI   UNL     1      -9.200   6.866  68.994  1.00  0.00    -0.133 Si 
HETATM   13  C   UNL     1     -10.914   6.225  68.538  1.00  0.00    -0.340 C  
HETATM   14  C   UNL     1      -7.943   5.720  68.194  1.00  0.00    -0.104 C  
HETATM   15  C   UNL     1      -9.014   8.571  68.208  1.00  0.00    -0.139 C  
ENDBRANCH   8  11
ENDBRANCH   5   8
TORSDOF 2
ENDMDL
MODEL       36
REMARK 921   NORMALIZED FREE ENERGY PREDICTED BY IDOCK:   -3.84 KCAL/MOL
REMARK 922        TOTAL FREE ENERGY PREDICTED BY IDOCK:   -4.53 KCAL/MOL
REMARK 923 INTER-LIGAND FREE ENERGY PREDICTED BY IDOCK:   -4.31 KCAL/MOL
REMARK 924 INTRA-LIGAND FREE ENERGY PREDICTED BY IDOCK:   -0.22 KCAL/MOL
REMARK 927      BINDING AFFINITY PREDICTED BY RF-SCORE:    0.00 PKD
ROOT
HETATM    1  O   UNL     1      -9.315   5.134  64.996  1.00  0.00    -0.325 OA 
HETATM    2  H   UNL     1      -8.714   5.870  64.972  1.00  0.00     0.000 HD 
HETATM    3 SI   UNL     1     -10.731   5.563  64.963  1.00  0.00    -0.384 Si 
HETATM    4  C   UNL     1     -10.471   8.841  67.054  1.00  0.00    -0.268 C  
HETATM    5  O   UNL     1     -10.854   7.507  67.375  1.00  0.00    -0.267 OA 
HETATM    6  O   UNL     1     -11.660   4.425  65.000  1.00  0.00    -1.067 OA 
HETATM    7  H   UNL     1     -12.568   4.701  64.979  1.00  0.00     0.000 HD 
ENDROOT
BRANCH   5   8
HETATM    8 SI   UNL     1     -10.454   6.905  68.898  1.00  0.00    -0.160 Si 
HETATM    9  C   UNL     1      -9.002   7.873  69.576  1.00  0.00    -0.142 C  
HETATM   10  C   UNL     1     -10.016   5.087  68.755  1.00  0.00    -0.155 C  
BRANCH   8  11
HETATM   11  O   UNL     1     -11.782   7.079  69.906  1.00  0.00    -0.189 OA 
HETATM   12 SI   UNL     1     -12.225   7.985  71.253  1.00  0.00    -0.279 Si 
HETATM   13  C   UNL     1     -11.083   7.654  72.718  1.00  0.00    -0.383 C  
HETATM   14  C   UNL     1     -13.979   7.610  71.814  1.00  0.00    -0.370 C  
HETATM   15  C   UNL     1     -12.119   9.828  70.869  1.00  0.00    -0.321 C  
ENDBRANCH   8  11
ENDBRANCH   5   8
TORSDOF 2
ENDMDL
MODEL       37
REMARK 921   NORMALIZED FREE ENERGY PREDICTED BY IDOCK:   -3.83 KCAL/MOL
REMARK 922        TOTAL FREE ENERGY PREDICTED BY IDOCK:   -4.52 KCAL/MOL
REMARK 923 INTER-LIGAND FREE ENERGY PREDICTED BY IDOCK:   -4.29 KCAL/MOL
REMARK 924 INTRA-LIGAND FREE ENERGY PREDICTED BY IDOCK:   -0.23 KCAL/MOL
REMARK 927      BINDING AFFINITY PREDICTED BY RF-SCORE:    0.00 PKD
ROOT
HETATM    1  O   UNL     1     -14.385   8.035  70.965  1.00  0.00    -0.662 OA 
HETATM    2  H   UNL     1     -14.450   8.262  70.045  1.00  0.00     0.000 HD 
HETATM    3 SI   UNL     1     -14.020   9.196  71.806  1.00  0.00    -0.337 Si 
HETATM    4  C   UNL     1     -11.619  11.048  69.359  1.00  0.00    -0.312 C  
HETATM    5  O   UNL     1     -11.403  10.156  70.449  1.00  0.00    -0.278 OA 
HETATM    6  O   UNL     1     -13.920   8.844  73.230  1.00  0.00    -1.203 OA 
HETATM    7  H   UNL     1     -13.686   9.590  73.769  1.00  0.00     0.000 HD 
ENDROOT
BRANCH   5   8
HETATM    8 SI   UNL     1     -10.118   9.070  70.350  1.00  0.00    -0.163 Si 
HETATM    9  C   UNL     1      -8.573   9.994  69.837  1.00  0.00    -0.146 C  
HETATM   10  C   UNL     1     -10.525   7.734  69.097  1.00  0.00    -0.211 C  
BRANCH   8  11
HETATM   11  O   UNL     1      -9.896   8.369  71.856  1.00  0.00    -0.205 OA 
HETATM   12 SI   UNL     1      -9.771   6.826  72.516  1.00  0.00    -0.151 Si 
HETATM   13  C   UNL     1     -11.332   5.812  72.210  1.00  0.00    -0.278 C  
HETATM   14  C   UNL     1      -9.488   6.870  74.374  1.00  0.00    -0.224 C  
HETATM   15  C   UNL     1      -8.335   5.889  71.732  1.00  0.00    -0.119 C  
ENDBRANCH   8  11
ENDBRANCH   5   8
TORSDOF 2
ENDMDL
MODEL       38
REMARK 921   NORMALIZED FREE ENERGY PREDICTED BY IDOCK:   -3.83 KCAL/MOL
REMARK 922        TOTAL FREE ENERGY PREDICTED BY IDOCK:   -4.52 KCAL/MOL
REMARK 923 INTER-LIGAND FREE ENERGY PREDICTED BY IDOCK:   -4.27 KCAL/MOL
REMARK 924 INTRA-LIGAND FREE ENERGY PREDICTED BY IDOCK:   -0.25 KCAL/MOL
REMARK 927      BINDING AFFINITY PREDICTED BY RF-SCORE:    0.00 PKD
ROOT
HETATM    1  O   UNL     1      -9.898  10.587  64.838  1.00  0.00    -0.265 OA 
HETATM    2  H   UNL     1      -9.725  10.306  65.729  1.00  0.00     0.000 HD 
HETATM    3 SI   UNL     1      -8.958  11.638  64.388  1.00  0.00    -0.313 Si 
HETATM    4  C   UNL     1      -8.495  13.578  67.735  1.00  0.00    -0.184 C  
HETATM    5  O   UNL     1      -9.319  13.788  66.592  1.00  0.00    -0.269 OA 
HETATM    6  O   UNL     1      -9.226  12.073  63.010  1.00  0.00    -0.647 OA 
HETATM    7  H   UNL     1      -8.623  12.747  62.721  1.00  0.00     0.000 HD 
ENDROOT
BRANCH   5   8
HETATM    8 SI   UNL     1     -10.860  14.431  66.826  1.00  0.00    -0.272 Si 
HETATM    9  C   UNL     1     -11.364  14.180  68.611  1.00  0.00    -0.277 C  
HETATM   10  C   UNL     1     -12.074  13.578  65.679  1.00  0.00    -0.430 C  
BRANCH   8  11
HETATM   11  O   UNL     1     -10.813  16.068  66.467  1.00  0.00    -0.276 OA 
HETATM   12 SI   UNL     1      -9.970  17.438  66.961  1.00  0.00    -0.244 Si 
HETATM   13  C   UNL     1     -10.231  17.789  68.796  1.00  0.00    -0.373 C  
HETATM   14  C   UNL     1     -10.499  18.975  66.016  1.00  0.00    -0.458 C  
HETATM   15  C   UNL     1      -8.118  17.201  66.695  1.00  0.00    -0.257 C  
ENDBRANCH   8  11
ENDBRANCH   5   8
TORSDOF 2
ENDMDL
MODEL       39
REMARK 921   NORMALIZED FREE ENERGY PREDICTED BY IDOCK:   -3.83 KCAL/MOL
REMARK 922        TOTAL FREE ENERGY PREDICTED BY IDOCK:   -4.51 KCAL/MOL
REMARK 923 INTER-LIGAND FREE ENERGY PREDICTED BY IDOCK:   -4.39 KCAL/MOL
REMARK 924 INTRA-LIGAND FREE ENERGY PREDICTED BY IDOCK:   -0.12 KCAL/MOL
REMARK 927      BINDING AFFINITY PREDICTED BY RF-SCORE:    0.00 PKD
ROOT
HETATM    1  O   UNL     1     -11.017  19.627  66.928  1.00  0.00    -0.452 OA 
HETATM    2  H   UNL     1     -11.894  19.285  66.797  1.00  0.00     0.000 HD 
HETATM    3 SI   UNL     1     -10.173  19.483  65.721  1.00  0.00    -0.328 Si 
HETATM    4  C   UNL     1     -11.517  16.079  64.384  1.00  0.00    -0.242 C  
HETATM    5  O   UNL     1     -10.383  16.439  65.168  1.00  0.00    -0.610 OA 
HETATM    6  O   UNL     1      -8.816  20.012  65.923  1.00  0.00    -0.492 OA 
HETATM    7  H   UNL     1      -8.274  19.919  65.149  1.00  0.00     0.000 HD 
ENDROOT
BRANCH   5   8
HETATM    8 SI   UNL     1      -9.877  15.378  66.375  1.00  0.00    -0.220 Si 
HETATM    9  C   UNL     1     -11.142  15.373  67.755  1.00  0.00    -0.320 C  
HETATM   10  C   UNL     1      -8.205  15.924  67.026  1.00  0.00    -0.221 C  
BRANCH   8  11
HETATM   11  O   UNL     1      -9.741  13.844  65.714  1.00  0.00    -0.253 OA 
HETATM   12 SI   UNL     1     -10.613  12.405  65.691  1.00  0.00    -0.241 Si 
HETATM   13  C   UNL     1     -10.833  11.700  67.428  1.00  0.00    -0.250 C  
HETATM   14  C   UNL     1      -9.774  11.082  64.652  1.00  0.00    -0.266 C  
HETATM   15  C   UNL     1     -12.337  12.692  64.983  1.00  0.00    -0.497 C  
ENDBRANCH   8  11
ENDBRANCH   5   8
TORSDOF 2
ENDMDL
MODEL       40
REMARK 921   NORMALIZED FREE ENERGY PREDICTED BY IDOCK:   -3.82 KCAL/MOL
REMARK 922        TOTAL FREE ENERGY PREDICTED BY IDOCK:   -4.50 KCAL/MOL
REMARK 923 INTER-LIGAND FREE ENERGY PREDICTED BY IDOCK:   -4.35 KCAL/MOL
REMARK 924 INTRA-LIGAND FREE ENERGY PREDICTED BY IDOCK:   -0.16 KCAL/MOL
REMARK 927      BINDING AFFINITY PREDICTED BY RF-SCORE:    0.00 PKD
ROOT
HETATM    1  O   UNL     1      -9.973  12.179  62.715  1.00  0.00    -0.381 OA 
HETATM    2  H   UNL     1      -9.430  12.955  62.634  1.00  0.00     0.000 HD 
HETATM    3 SI   UNL     1     -11.415  12.507  62.767  1.00  0.00    -0.572 Si 
HETATM    4  C   UNL     1     -11.255  15.852  64.760  1.00  0.00    -0.355 C  
HETATM    5  O   UNL     1     -11.520  14.504  65.138  1.00  0.00    -0.341 OA 
HETATM    6  O   UNL     1     -12.256  11.308  62.894  1.00  0.00    -0.884 OA 
HETATM    7  H   UNL     1     -13.181  11.518  62.927  1.00  0.00     0.000 HD 
ENDROOT
BRANCH   5   8
HETATM    8 SI   UNL     1     -10.979  13.974  66.643  1.00  0.00    -0.277 Si 
HETATM    9  C   UNL     1     -11.107  12.108  66.718  1.00  0.00    -0.300 C  
HETATM   10  C   UNL     1     -12.022  14.754  67.992  1.00  0.00    -0.227 C  
BRANCH   8  11
HETATM   11  O   UNL     1      -9.382  14.449  66.832  1.00  0.00    -0.234 OA 
HETATM   12 SI   UNL     1      -8.513  15.624  67.666  1.00  0.00    -0.140 Si 
HETATM   13  C   UNL     1      -9.031  17.364  67.154  1.00  0.00    -0.240 C  
HETATM   14  C   UNL     1      -6.662  15.481  67.368  1.00  0.00    -0.166 C  
HETATM   15  C   UNL     1      -8.816  15.474  69.521  1.00  0.00    -0.229 C  
ENDBRANCH   8  11
ENDBRANCH   5   8
TORSDOF 2
ENDMDL
MODEL       41
REMARK 921   NORMALIZED FREE ENERGY PREDICTED BY IDOCK:   -3.81 KCAL/MOL
REMARK 922        TOTAL FREE ENERGY PREDICTED BY IDOCK:   -4.50 KCAL/MOL
REMARK 923 INTER-LIGAND FREE ENERGY PREDICTED BY IDOCK:   -4.24 KCAL/MOL
REMARK 924 INTRA-LIGAND FREE ENERGY PREDICTED BY IDOCK:   -0.26 KCAL/MOL
REMARK 927      BINDING AFFINITY PREDICTED BY RF-SCORE:    0.00 PKD
ROOT
HETATM    1  O   UNL     1     -12.483  10.747  68.720  1.00  0.00    -0.793 OA 
HETATM    2  H   UNL     1     -12.974  10.563  67.928  1.00  0.00     0.000 HD 
HETATM    3 SI   UNL     1     -12.585  12.167  69.126  1.00  0.00    -0.239 Si 
HETATM    4  C   UNL     1     -12.677  13.848  65.613  1.00  0.00    -0.495 C  
HETATM    5  O   UNL     1     -11.636  13.624  66.559  1.00  0.00    -0.335 OA 
HETATM    6  O   UNL     1     -11.825  12.452  70.351  1.00  0.00    -0.505 OA 
HETATM    7  H   UNL     1     -11.891  13.363  70.612  1.00  0.00     0.000 HD 
ENDROOT
BRANCH   5   8
HETATM    8 SI   UNL     1     -10.089  13.283  65.981  1.00  0.00    -0.247 Si 
HETATM    9  C   UNL     1     -10.215  12.693  64.209  1.00  0.00    -0.332 C  
HETATM   10  C   UNL     1      -9.299  11.963  67.054  1.00  0.00    -0.188 C  
BRANCH   8  11
HETATM   11  O   UNL     1      -9.172  14.684  66.058  1.00  0.00    -0.234 OA 
HETATM   12 SI   UNL     1      -9.348  16.273  66.583  1.00  0.00    -0.193 Si 
HETATM   13  C   UNL     1     -10.732  17.160  65.656  1.00  0.00    -0.136 C  
HETATM   14  C   UNL     1      -7.779  17.278  66.341  1.00  0.00    -0.311 C  
HETATM   15  C   UNL     1      -9.789  16.314  68.416  1.00  0.00    -0.229 C  
ENDBRANCH   8  11
ENDBRANCH   5   8
TORSDOF 2
ENDMDL
MODEL       42
REMARK 921   NORMALIZED FREE ENERGY PREDICTED BY IDOCK:   -3.81 KCAL/MOL
REMARK 922        TOTAL FREE ENERGY PREDICTED BY IDOCK:   -4.49 KCAL/MOL
REMARK 923 INTER-LIGAND FREE ENERGY PREDICTED BY IDOCK:   -4.24 KCAL/MOL
REMARK 924 INTRA-LIGAND FREE ENERGY PREDICTED BY IDOCK:   -0.25 KCAL/MOL
REMARK 927      BINDING AFFINITY PREDICTED BY RF-SCORE:    0.00 PKD
ROOT
HETATM    1  O   UNL     1     -13.651   8.770  73.216  1.00  0.00    -0.983 OA 
HETATM    2  H   UNL     1     -13.388   8.401  74.051  1.00  0.00     0.000 HD 
HETATM    3 SI   UNL     1     -13.978   7.727  72.219  1.00  0.00    -0.318 Si 
HETATM    4  C   UNL     1     -11.352   5.025  73.212  1.00  0.00    -0.317 C  
HETATM    5  O   UNL     1     -11.380   6.034  72.206  1.00  0.00    -0.275 OA 
HETATM    6  O   UNL     1     -14.385   8.298  70.927  1.00  0.00    -0.653 OA 
HETATM    7  H   UNL     1     -14.595   7.628  70.287  1.00  0.00     0.000 HD 
ENDROOT
BRANCH   5   8
HETATM    8 SI   UNL     1      -9.936   6.804  71.806  1.00  0.00    -0.170 Si 
HETATM    9  C   UNL     1      -8.574   5.525  71.682  1.00  0.00    -0.132 C  
HETATM   10  C   UNL     1      -9.520   8.075  73.121  1.00  0.00    -0.280 C  
BRANCH   8  11
HETATM   11  O   UNL     1     -10.135   7.576  70.331  1.00  0.00    -0.194 OA 
HETATM   12 SI   UNL     1     -10.012   9.132  69.703  1.00  0.00    -0.162 Si 
HETATM   13  C   UNL     1     -11.208  10.319  70.552  1.00  0.00    -0.330 C  
HETATM   14  C   UNL     1     -10.385   9.185  67.861  1.00  0.00    -0.232 C  
HETATM   15  C   UNL     1      -8.273   9.812  69.963  1.00  0.00    -0.191 C  
ENDBRANCH   8  11
ENDBRANCH   5   8
TORSDOF 2
ENDMDL
MODEL       43
REMARK 921   NORMALIZED FREE ENERGY PREDICTED BY IDOCK:   -3.76 KCAL/MOL
REMARK 922        TOTAL FREE ENERGY PREDICTED BY IDOCK:   -4.43 KCAL/MOL
REMARK 923 INTER-LIGAND FREE ENERGY PREDICTED BY IDOCK:   -4.29 KCAL/MOL
REMARK 924 INTRA-LIGAND FREE ENERGY PREDICTED BY IDOCK:   -0.15 KCAL/MOL
REMARK 927      BINDING AFFINITY PREDICTED BY RF-SCORE:    0.00 PKD
ROOT
HETATM    1  O   UNL     1      -9.666  12.727  63.840  1.00  0.00    -0.681 OA 
HETATM    2  H   UNL     1      -9.587  13.477  64.418  1.00  0.00     0.000 HD 
HETATM    3 SI   UNL     1     -11.035  12.164  63.834  1.00  0.00    -0.264 Si 
HETATM    4  C   UNL     1     -12.000  12.753  67.563  1.00  0.00    -0.281 C  
HETATM    5  O   UNL     1     -11.504  11.623  66.851  1.00  0.00    -0.426 OA 
HETATM    6  O   UNL     1     -11.157  11.003  62.942  1.00  0.00    -0.775 OA 
HETATM    7  H   UNL     1     -12.036  10.642  62.938  1.00  0.00     0.000 HD 
ENDROOT
BRANCH   5   8
HETATM    8 SI   UNL     1     -10.440  10.583  67.644  1.00  0.00    -0.168 Si 
HETATM    9  C   UNL     1      -8.891  11.529  68.106  1.00  0.00    -0.165 C  
HETATM   10  C   UNL     1     -10.014   9.146  66.516  1.00  0.00    -0.288 C  
BRANCH   8  11
HETATM   11  O   UNL     1     -11.192  10.002  69.024  1.00  0.00    -0.207 OA 
HETATM   12 SI   UNL     1     -10.938   8.810  70.184  1.00  0.00    -0.211 Si 
HETATM   13  C   UNL     1     -10.893   7.089  69.413  1.00  0.00    -0.227 C  
HETATM   14  C   UNL     1     -12.283   8.800  71.498  1.00  0.00    -0.327 C  
HETATM   15  C   UNL     1      -9.284   9.077  71.050  1.00  0.00    -0.264 C  
ENDBRANCH   8  11
ENDBRANCH   5   8
TORSDOF 2
ENDMDL
MODEL       44
REMARK 921   NORMALIZED FREE ENERGY PREDICTED BY IDOCK:   -3.76 KCAL/MOL
REMARK 922        TOTAL FREE ENERGY PREDICTED BY IDOCK:   -4.43 KCAL/MOL
REMARK 923 INTER-LIGAND FREE ENERGY PREDICTED BY IDOCK:   -4.23 KCAL/MOL
REMARK 924 INTRA-LIGAND FREE ENERGY PREDICTED BY IDOCK:   -0.20 KCAL/MOL
REMARK 927      BINDING AFFINITY PREDICTED BY RF-SCORE:    0.00 PKD
ROOT
HETATM    1  O   UNL     1     -13.345  12.087  64.077  1.00  0.00    -0.703 OA 
HETATM    2  H   UNL     1     -13.167  11.154  64.110  1.00  0.00     0.000 HD 
HETATM    3 SI   UNL     1     -12.257  12.843  63.417  1.00  0.00    -0.373 Si 
HETATM    4  C   UNL     1      -9.189  10.774  64.636  1.00  0.00    -0.219 C  
HETATM    5  O   UNL     1      -9.792  11.983  65.089  1.00  0.00    -0.248 OA 
HETATM    6  O   UNL     1     -12.533  14.286  63.366  1.00  0.00    -1.125 OA 
HETATM    7  H   UNL     1     -11.835  14.772  62.943  1.00  0.00     0.000 HD 
ENDROOT
BRANCH   5   8
HETATM    8 SI   UNL     1      -9.811  12.294  66.746  1.00  0.00    -0.189 Si 
HETATM    9  C   UNL     1     -11.571  12.170  67.372  1.00  0.00    -0.340 C  
HETATM   10  C   UNL     1      -9.123  14.009  67.066  1.00  0.00    -0.246 C  
BRANCH   8  11
HETATM   11  O   UNL     1      -8.847  11.158  67.512  1.00  0.00    -0.137 OA 
HETATM   12 SI   UNL     1      -9.040   9.730  68.383  1.00  0.00    -0.117 Si 
HETATM   13  C   UNL     1     -10.061  10.004  69.945  1.00  0.00    -0.246 C  
HETATM   14  C   UNL     1      -7.393   8.994  68.912  1.00  0.00    -0.074 C  
HETATM   15  C   UNL     1      -9.944   8.443  67.343  1.00  0.00    -0.212 C  
ENDBRANCH   8  11
ENDBRANCH   5   8
TORSDOF 2
ENDMDL
MODEL       45
REMARK 921   NORMALIZED FREE ENERGY PREDICTED BY IDOCK:   -3.75 KCAL/MOL
REMARK 922        TOTAL FREE ENERGY PREDICTED BY IDOCK:   -4.42 KCAL/MOL
REMARK 923 INTER-LIGAND FREE ENERGY PREDICTED BY IDOCK:   -4.22 KCAL/MOL
REMARK 924 INTRA-LIGAND FREE ENERGY PREDICTED BY IDOCK:   -0.20 KCAL/MOL
REMARK 927      BINDING AFFINITY PREDICTED BY RF-SCORE:    0.00 PKD
ROOT
HETATM    1  O   UNL     1      -9.855  11.267  68.966  1.00  0.00    -0.344 OA 
HETATM    2  H   UNL     1      -9.030  11.475  68.544  1.00  0.00     0.000 HD 
HETATM    3 SI   UNL     1     -11.008  11.411  68.050  1.00  0.00    -0.174 Si 
HETATM    4  C   UNL     1      -9.801  14.467  65.956  1.00  0.00    -0.318 C  
HETATM    5  O   UNL     1     -10.672  14.336  67.075  1.00  0.00    -0.284 OA 
HETATM    6  O   UNL     1     -12.284  11.089  68.704  1.00  0.00    -0.734 OA 
HETATM    7  H   UNL     1     -13.023  11.182  68.116  1.00  0.00     0.000 HD 
ENDROOT
BRANCH   5   8
HETATM    8 SI   UNL     1     -10.678  15.561  68.232  1.00  0.00    -0.227 Si 
HETATM    9  C   UNL     1      -9.155  15.395  69.307  1.00  0.00    -0.260 C  
HETATM   10  C   UNL     1     -12.231  15.427  69.275  1.00  0.00    -0.188 C  
BRANCH   8  11
HETATM   11  O   UNL     1     -10.666  17.039  67.442  1.00  0.00    -0.318 OA 
HETATM   12 SI   UNL     1      -9.636  18.358  67.262  1.00  0.00    -0.262 Si 
HETATM   13  C   UNL     1      -9.260  19.175  68.921  1.00  0.00    -0.318 C  
HETATM   14  C   UNL     1     -10.363  19.679  66.139  1.00  0.00    -0.530 C  
HETATM   15  C   UNL     1      -7.989  17.810  66.524  1.00  0.00    -0.264 C  
ENDBRANCH   8  11
ENDBRANCH   5   8
TORSDOF 2
ENDMDL
MODEL       46
REMARK 921   NORMALIZED FREE ENERGY PREDICTED BY IDOCK:   -3.75 KCAL/MOL
REMARK 922        TOTAL FREE ENERGY PREDICTED BY IDOCK:   -4.42 KCAL/MOL
REMARK 923 INTER-LIGAND FREE ENERGY PREDICTED BY IDOCK:   -4.17 KCAL/MOL
REMARK 924 INTRA-LIGAND FREE ENERGY PREDICTED BY IDOCK:   -0.25 KCAL/MOL
REMARK 927      BINDING AFFINITY PREDICTED BY RF-SCORE:    0.00 PKD
ROOT
HETATM    1  O   UNL     1      -9.825  13.074  63.597  1.00  0.00    -0.694 OA 
HETATM    2  H   UNL     1      -9.747  13.958  63.936  1.00  0.00     0.000 HD 
HETATM    3 SI   UNL     1     -11.205  12.552  63.702  1.00  0.00    -0.307 Si 
HETATM    4  C   UNL     1     -12.279  14.206  67.062  1.00  0.00    -0.339 C  
HETATM    5  O   UNL     1     -11.785  12.912  66.726  1.00  0.00    -0.346 OA 
HETATM    6  O   UNL     1     -11.325  11.183  63.178  1.00  0.00    -0.808 OA 
HETATM    7  H   UNL     1     -12.211  10.848  63.245  1.00  0.00     0.000 HD 
ENDROOT
BRANCH   5   8
HETATM    8 SI   UNL     1     -10.772  12.133  67.825  1.00  0.00    -0.186 Si 
HETATM    9  C   UNL     1      -9.803  10.805  66.928  1.00  0.00    -0.187 C  
HETATM   10  C   UNL     1     -11.803  11.374  69.196  1.00  0.00    -0.345 C  
BRANCH   8  11
HETATM   11  O   UNL     1      -9.725  13.266  68.480  1.00  0.00    -0.215 OA 
HETATM   12 SI   UNL     1      -8.364  14.136  68.009  1.00  0.00    -0.119 Si 
HETATM   13  C   UNL     1      -6.934  12.993  67.551  1.00  0.00    -0.151 C  
HETATM   14  C   UNL     1      -7.751  15.283  69.366  1.00  0.00    -0.225 C  
HETATM   15  C   UNL     1      -8.747  15.186  66.490  1.00  0.00    -0.245 C  
ENDBRANCH   8  11
ENDBRANCH   5   8
TORSDOF 2
ENDMDL
MODEL       47
REMARK 921   NORMALIZED FREE ENERGY PREDICTED BY IDOCK:   -3.74 KCAL/MOL
REMARK 922        TOTAL FREE ENERGY PREDICTED BY IDOCK:   -4.41 KCAL/MOL
REMARK 923 INTER-LIGAND FREE ENERGY PREDICTED BY IDOCK:   -4.19 KCAL/MOL
REMARK 924 INTRA-LIGAND FREE ENERGY PREDICTED BY IDOCK:   -0.22 KCAL/MOL
REMARK 927      BINDING AFFINITY PREDICTED BY RF-SCORE:    0.00 PKD
ROOT
HETATM    1  O   UNL     1      -7.617  20.490  65.223  1.00  0.00    -0.491 OA 
HETATM    2  H   UNL     1      -6.747  20.662  65.563  1.00  0.00     0.000 HD 
HETATM    3 SI   UNL     1      -8.672  20.731  66.232  1.00  0.00    -0.471 Si 
HETATM    4  C   UNL     1      -6.797  19.548  69.435  1.00  0.00    -0.330 C  
HETATM    5  O   UNL     1      -7.734  18.919  68.566  1.00  0.00    -0.307 OA 
HETATM    6  O   UNL     1     -10.019  20.464  65.706  1.00  0.00    -0.615 OA 
HETATM    7  H   UNL     1     -10.696  20.619  66.354  1.00  0.00     0.000 HD 
ENDROOT
BRANCH   5   8
HETATM    8 SI   UNL     1      -7.566  17.268  68.269  1.00  0.00    -0.173 Si 
HETATM    9  C   UNL     1      -6.334  16.550  69.483  1.00  0.00    -0.214 C  
HETATM   10  C   UNL     1      -6.973  17.009  66.508  1.00  0.00    -0.256 C  
BRANCH   8  11
HETATM   11  O   UNL     1      -9.060  16.537  68.465  1.00  0.00    -0.214 OA 
HETATM   12 SI   UNL     1     -10.031  15.427  67.653  1.00  0.00    -0.211 Si 
HETATM   13  C   UNL     1     -10.493  16.041  65.929  1.00  0.00    -0.359 C  
HETATM   14  C   UNL     1     -11.635  15.081  68.571  1.00  0.00    -0.326 C  
HETATM   15  C   UNL     1      -9.121  13.790  67.437  1.00  0.00    -0.221 C  
ENDBRANCH   8  11
ENDBRANCH   5   8
TORSDOF 2
ENDMDL
MODEL       48
REMARK 921   NORMALIZED FREE ENERGY PREDICTED BY IDOCK:   -3.73 KCAL/MOL
REMARK 922        TOTAL FREE ENERGY PREDICTED BY IDOCK:   -4.40 KCAL/MOL
REMARK 923 INTER-LIGAND FREE ENERGY PREDICTED BY IDOCK:   -4.22 KCAL/MOL
REMARK 924 INTRA-LIGAND FREE ENERGY PREDICTED BY IDOCK:   -0.18 KCAL/MOL
REMARK 927      BINDING AFFINITY PREDICTED BY RF-SCORE:    0.00 PKD
ROOT
HETATM    1  O   UNL     1     -14.349   8.055  70.905  1.00  0.00    -0.657 OA 
HETATM    2  H   UNL     1     -14.457   8.266  69.986  1.00  0.00     0.000 HD 
HETATM    3 SI   UNL     1     -14.098   9.256  71.733  1.00  0.00    -0.352 Si 
HETATM    4  C   UNL     1     -11.966  11.342  69.226  1.00  0.00    -0.342 C  
HETATM    5  O   UNL     1     -11.630  10.488  70.316  1.00  0.00    -0.280 OA 
HETATM    6  O   UNL     1     -13.931   8.929  73.156  1.00  0.00    -1.118 OA 
HETATM    7  H   UNL     1     -13.770   9.699  73.686  1.00  0.00     0.000 HD 
ENDROOT
BRANCH   5   8
HETATM    8 SI   UNL     1     -10.236   9.549  70.196  1.00  0.00    -0.165 Si 
HETATM    9  C   UNL     1      -9.894   8.747  71.853  1.00  0.00    -0.324 C  
HETATM   10  C   UNL     1      -8.794  10.635  69.688  1.00  0.00     0.167 C  
BRANCH   8  11
HETATM   11  O   UNL     1     -10.484   8.374  69.028  1.00  0.00    -0.222 OA 
HETATM   12 SI   UNL     1     -10.186   6.731  68.818  1.00  0.00    -0.146 Si 
HETATM   13  C   UNL     1      -8.341   6.345  68.897  1.00  0.00    -0.121 C  
HETATM   14  C   UNL     1     -10.819   6.101  67.163  1.00  0.00    -0.360 C  
HETATM   15  C   UNL     1     -11.024   5.730  70.179  1.00  0.00    -0.298 C  
ENDBRANCH   8  11
ENDBRANCH   5   8
TORSDOF 2
ENDMDL
MODEL       49
REMARK 921   NORMALIZED FREE ENERGY PREDICTED BY IDOCK:   -3.70 KCAL/MOL
REMARK 922        TOTAL FREE ENERGY PREDICTED BY IDOCK:   -4.37 KCAL/MOL
REMARK 923 INTER-LIGAND FREE ENERGY PREDICTED BY IDOCK:   -4.21 KCAL/MOL
REMARK 924 INTRA-LIGAND FREE ENERGY PREDICTED BY IDOCK:   -0.16 KCAL/MOL
REMARK 927      BINDING AFFINITY PREDICTED BY RF-SCORE:    0.00 PKD
ROOT
HETATM    1  O   UNL     1     -12.479  15.519  69.069  1.00  0.00    -0.607 OA 
HETATM    2  H   UNL     1     -12.982  16.188  68.619  1.00  0.00     0.000 HD 
HETATM    3 SI   UNL     1     -11.436  16.095  69.946  1.00  0.00    -0.245 Si 
HETATM    4  C   UNL     1     -10.416  19.187  67.806  1.00  0.00    -0.419 C  
HETATM    5  O   UNL     1      -9.863  17.883  67.960  1.00  0.00    -0.292 OA 
HETATM    6  O   UNL     1     -10.657  15.060  70.641  1.00  0.00    -0.517 OA 
HETATM    7  H   UNL     1      -9.988  15.430  71.204  1.00  0.00     0.000 HD 
ENDROOT
BRANCH   5   8
HETATM    8 SI   UNL     1      -9.165  17.147  66.614  1.00  0.00    -0.206 Si 
HETATM    9  C   UNL     1     -10.522  16.520  65.487  1.00  0.00    -0.301 C  
HETATM   10  C   UNL     1      -8.074  15.727  67.175  1.00  0.00    -0.211 C  
BRANCH   8  11
HETATM   11  O   UNL     1      -8.229  18.282  65.812  1.00  0.00    -0.503 OA 
HETATM   12 SI   UNL     1      -6.764  19.081  66.029  1.00  0.00    -0.175 Si 
HETATM   13  C   UNL     1      -6.764  20.112  67.609  1.00  0.00    -0.249 C  
HETATM   14  C   UNL     1      -6.371  20.242  64.604  1.00  0.00    -0.285 C  
HETATM   15  C   UNL     1      -5.353  17.839  66.173  1.00  0.00    -0.200 C  
ENDBRANCH   8  11
ENDBRANCH   5   8
TORSDOF 2
ENDMDL
MODEL       50
REMARK 921   NORMALIZED FREE ENERGY PREDICTED BY IDOCK:   -3.70 KCAL/MOL
REMARK 922        TOTAL FREE ENERGY PREDICTED BY IDOCK:   -4.37 KCAL/MOL
REMARK 923 INTER-LIGAND FREE ENERGY PREDICTED BY IDOCK:   -4.16 KCAL/MOL
REMARK 924 INTRA-LIGAND FREE ENERGY PREDICTED BY IDOCK:   -0.21 KCAL/MOL
REMARK 927      BINDING AFFINITY PREDICTED BY RF-SCORE:    0.00 PKD
ROOT
HETATM    1  O   UNL     1     -14.365   8.696  70.982  1.00  0.00    -0.628 OA 
HETATM    2  H   UNL     1     -14.042   8.993  70.140  1.00  0.00     0.000 HD 
HETATM    3 SI   UNL     1     -13.640   9.319  72.113  1.00  0.00    -0.315 Si 
HETATM    4  C   UNL     1     -10.070   9.524  70.567  1.00  0.00    -0.285 C  
HETATM    5  O   UNL     1     -10.699   8.596  71.446  1.00  0.00    -0.230 OA 
HETATM    6  O   UNL     1     -14.140   8.860  73.417  1.00  0.00    -1.256 OA 
HETATM    7  H   UNL     1     -13.675   9.259  74.142  1.00  0.00     0.000 HD 
ENDROOT
BRANCH   5   8
HETATM    8 SI   UNL     1     -10.296   6.965  71.310  1.00  0.00    -0.194 Si 
HETATM    9  C   UNL     1     -11.443   5.959  72.395  1.00  0.00    -0.306 C  
HETATM   10  C   UNL     1      -8.514   6.717  71.837  1.00  0.00    -0.114 C  
BRANCH   8  11
HETATM   11  O   UNL     1     -10.470   6.506  69.708  1.00  0.00    -0.188 OA 
HETATM   12 SI   UNL     1      -9.560   5.746  68.514  1.00  0.00    -0.117 Si 
HETATM   13  C   UNL     1      -7.982   6.706  68.128  1.00  0.00    -0.110 C  
HETATM   14  C   UNL     1     -10.512   5.564  66.903  1.00  0.00    -0.287 C  
HETATM   15  C   UNL     1      -9.040   4.024  69.080  1.00  0.00    -0.133 C  
ENDBRANCH   8  11
ENDBRANCH   5   8
TORSDOF 2
ENDMDL
MODEL       51
REMARK 921   NORMALIZED FREE ENERGY PREDICTED BY IDOCK:   -3.70 KCAL/MOL
REMARK 922        TOTAL FREE ENERGY PREDICTED BY IDOCK:   -4.37 KCAL/MOL
REMARK 923 INTER-LIGAND FREE ENERGY PREDICTED BY IDOCK:   -4.14 KCAL/MOL
REMARK 924 INTRA-LIGAND FREE ENERGY PREDICTED BY IDOCK:   -0.23 KCAL/MOL
REMARK 927      BINDING AFFINITY PREDICTED BY RF-SCORE:    0.00 PKD
ROOT
HETATM    1  O   UNL     1     -10.658  14.191  64.390  1.00  0.00    -0.597 OA 
HETATM    2  H   UNL     1     -10.020  14.775  63.998  1.00  0.00     0.000 HD 
HETATM    3 SI   UNL     1     -11.871  14.907  64.845  1.00  0.00    -0.328 Si 
HETATM    4  C   UNL     1     -10.249  18.244  66.036  1.00  0.00    -0.323 C  
HETATM    5  O   UNL     1     -10.659  17.062  66.718  1.00  0.00    -0.284 OA 
HETATM    6  O   UNL     1     -12.858  14.003  65.452  1.00  0.00    -0.658 OA 
HETATM    7  H   UNL     1     -13.635  14.463  65.745  1.00  0.00     0.000 HD 
ENDROOT
BRANCH   5   8
HETATM    8 SI   UNL     1      -9.747  16.542  68.036  1.00  0.00    -0.212 Si 
HETATM    9  C   UNL     1      -8.773  15.020  67.546  1.00  0.00    -0.184 C  
HETATM   10  C   UNL     1     -10.891  16.151  69.471  1.00  0.00    -0.329 C  
BRANCH   8  11
HETATM   11  O   UNL     1      -8.702  17.775  68.480  1.00  0.00    -0.282 OA 
HETATM   12 SI   UNL     1      -7.054  18.106  68.417  1.00  0.00    -0.195 Si 
HETATM   13  C   UNL     1      -6.053  16.832  69.383  1.00  0.00    -0.211 C  
HETATM   14  C   UNL     1      -6.642  19.797  69.129  1.00  0.00    -0.342 C  
HETATM   15  C   UNL     1      -6.441  18.062  66.634  1.00  0.00    -0.195 C  
ENDBRANCH   8  11
ENDBRANCH   5   8
TORSDOF 2
ENDMDL
MODEL       52
REMARK 921   NORMALIZED FREE ENERGY PREDICTED BY IDOCK:   -3.69 KCAL/MOL
REMARK 922        TOTAL FREE ENERGY PREDICTED BY IDOCK:   -4.36 KCAL/MOL
REMARK 923 INTER-LIGAND FREE ENERGY PREDICTED BY IDOCK:   -4.18 KCAL/MOL
REMARK 924 INTRA-LIGAND FREE ENERGY PREDICTED BY IDOCK:   -0.18 KCAL/MOL
REMARK 927      BINDING AFFINITY PREDICTED BY RF-SCORE:    0.00 PKD
ROOT
HETATM    1  O   UNL     1     -11.060  15.479  71.242  1.00  0.00    -0.355 OA 
HETATM    2  H   UNL     1     -10.273  15.986  71.406  1.00  0.00     0.000 HD 
HETATM    3 SI   UNL     1     -10.758  14.070  70.902  1.00  0.00    -0.457 Si 
HETATM    4  C   UNL     1      -7.461  14.575  68.888  1.00  0.00    -0.133 C  
HETATM    5  O   UNL     1      -8.822  14.405  68.503  1.00  0.00    -0.177 OA 
HETATM    6  O   UNL     1     -11.974  13.285  70.648  1.00  0.00    -0.492 OA 
HETATM    7  H   UNL     1     -11.780  12.381  70.430  1.00  0.00     0.000 HD 
ENDROOT
BRANCH   5   8
HETATM    8 SI   UNL     1      -9.379  15.235  67.146  1.00  0.00    -0.188 Si 
HETATM    9  C   UNL     1      -8.035  16.390  66.541  1.00  0.00    -0.307 C  
HETATM   10  C   UNL     1     -10.919  16.206  67.597  1.00  0.00    -0.268 C  
BRANCH   8  11
HETATM   11  O   UNL     1      -9.756  14.118  65.956  1.00  0.00    -0.301 OA 
HETATM   12 SI   UNL     1     -10.985  13.023  65.606  1.00  0.00    -0.268 Si 
HETATM   13  C   UNL     1     -11.166  11.725  66.963  1.00  0.00    -0.322 C  
HETATM   14  C   UNL     1     -10.682  12.107  63.992  1.00  0.00    -0.384 C  
HETATM   15  C   UNL     1     -12.640  13.917  65.464  1.00  0.00    -0.526 C  
ENDBRANCH   8  11
ENDBRANCH   5   8
TORSDOF 2
ENDMDL
MODEL       53
REMARK 921   NORMALIZED FREE ENERGY PREDICTED BY IDOCK:   -3.67 KCAL/MOL
REMARK 922        TOTAL FREE ENERGY PREDICTED BY IDOCK:   -4.33 KCAL/MOL
REMARK 923 INTER-LIGAND FREE ENERGY PREDICTED BY IDOCK:   -4.17 KCAL/MOL
REMARK 924 INTRA-LIGAND FREE ENERGY PREDICTED BY IDOCK:   -0.16 KCAL/MOL
REMARK 927      BINDING AFFINITY PREDICTED BY RF-SCORE:    0.00 PKD
ROOT
HETATM    1  O   UNL     1     -12.077  11.489  68.098  1.00  0.00    -0.604 OA 
HETATM    2  H   UNL     1     -12.827  12.054  67.952  1.00  0.00     0.000 HD 
HETATM    3 SI   UNL     1     -11.286  11.900  69.280  1.00  0.00    -0.191 Si 
HETATM    4  C   UNL     1     -11.681  15.767  69.018  1.00  0.00    -0.396 C  
HETATM    5  O   UNL     1     -10.658  14.863  68.614  1.00  0.00    -0.237 OA 
HETATM    6  O   UNL     1     -10.126  11.027  69.505  1.00  0.00    -0.428 OA 
HETATM    7  H   UNL     1      -9.618  11.291  70.263  1.00  0.00     0.000 HD 
ENDROOT
BRANCH   5   8
HETATM    8 SI   UNL     1      -9.814  15.193  67.193  1.00  0.00    -0.212 Si 
HETATM    9  C   UNL     1     -10.330  13.966  65.876  1.00  0.00    -0.311 C  
HETATM   10  C   UNL     1      -7.971  15.066  67.517  1.00  0.00    -0.178 C  
BRANCH   8  11
HETATM   11  O   UNL     1     -10.186  16.752  66.703  1.00  0.00    -0.292 OA 
HETATM   12 SI   UNL     1      -9.557  18.304  66.873  1.00  0.00    -0.252 Si 
HETATM   13  C   UNL     1      -9.482  18.828  68.684  1.00  0.00    -0.368 C  
HETATM   14  C   UNL     1     -10.583  19.589  65.961  1.00  0.00    -0.491 C  
HETATM   15  C   UNL     1      -7.798  18.379  66.197  1.00  0.00    -0.207 C  
ENDBRANCH   8  11
ENDBRANCH   5   8
TORSDOF 2
ENDMDL
MODEL       54
REMARK 921   NORMALIZED FREE ENERGY PREDICTED BY IDOCK:   -3.66 KCAL/MOL
REMARK 922        TOTAL FREE ENERGY PREDICTED BY IDOCK:   -4.33 KCAL/MOL
REMARK 923 INTER-LIGAND FREE ENERGY PREDICTED BY IDOCK:   -4.10 KCAL/MOL
REMARK 924 INTRA-LIGAND FREE ENERGY PREDICTED BY IDOCK:   -0.23 KCAL/MOL
REMARK 927      BINDING AFFINITY PREDICTED BY RF-SCORE:    0.00 PKD
ROOT
HETATM    1  O   UNL     1     -14.017   7.724  71.168  1.00  0.00    -0.609 OA 
HETATM    2  H   UNL     1     -13.646   7.765  70.295  1.00  0.00     0.000 HD 
HETATM    3 SI   UNL     1     -13.671   8.910  71.983  1.00  0.00    -0.316 Si 
HETATM    4  C   UNL     1     -10.065   9.577  70.664  1.00  0.00    -0.286 C  
HETATM    5  O   UNL     1     -10.574   8.904  71.812  1.00  0.00    -0.314 OA 
HETATM    6  O   UNL     1     -14.244   8.846  73.334  1.00  0.00    -1.241 OA 
HETATM    7  H   UNL     1     -14.022   9.607  73.857  1.00  0.00     0.000 HD 
ENDROOT
BRANCH   5   8
HETATM    8 SI   UNL     1      -9.754   7.542  72.370  1.00  0.00    -0.142 Si 
HETATM    9  C   UNL     1     -10.999   6.288  72.988  1.00  0.00    -0.242 C  
HETATM   10  C   UNL     1      -8.587   8.039  73.752  1.00  0.00    -0.266 C  
BRANCH   8  11
HETATM   11  O   UNL     1      -8.869   6.897  71.101  1.00  0.00    -0.141 OA 
HETATM   12 SI   UNL     1      -8.967   5.600  70.034  1.00  0.00    -0.117 Si 
HETATM   13  C   UNL     1      -8.971   3.949  70.947  1.00  0.00    -0.097 C  
HETATM   14  C   UNL     1      -7.530   5.566  68.823  1.00  0.00    -0.079 C  
HETATM   15  C   UNL     1     -10.565   5.689  69.037  1.00  0.00    -0.246 C  
ENDBRANCH   8  11
ENDBRANCH   5   8
TORSDOF 2
ENDMDL
MODEL       55
REMARK 921   NORMALIZED FREE ENERGY PREDICTED BY IDOCK:   -3.64 KCAL/MOL
REMARK 922        TOTAL FREE ENERGY PREDICTED BY IDOCK:   -4.30 KCAL/MOL
REMARK 923 INTER-LIGAND FREE ENERGY PREDICTED BY IDOCK:   -4.12 KCAL/MOL
REMARK 924 INTRA-LIGAND FREE ENERGY PREDICTED BY IDOCK:   -0.17 KCAL/MOL
REMARK 927      BINDING AFFINITY PREDICTED BY RF-SCORE:    0.00 PKD
ROOT
HETATM    1  O   UNL     1     -13.926  15.664  70.675  1.00  0.00    -0.827 OA 
HETATM    2  H   UNL     1     -14.232  15.910  69.810  1.00  0.00     0.000 HD 
HETATM    3 SI   UNL     1     -12.563  16.167  70.953  1.00  0.00    -0.388 Si 
HETATM    4  C   UNL     1     -11.006  15.833  67.397  1.00  0.00    -0.279 C  
HETATM    5  O   UNL     1     -10.968  15.009  68.559  1.00  0.00    -0.239 OA 
HETATM    6  O   UNL     1     -12.089  15.786  72.291  1.00  0.00    -0.384 OA 
HETATM    7  H   UNL     1     -11.214  16.108  72.469  1.00  0.00     0.000 HD 
ENDROOT
BRANCH   5   8
HETATM    8 SI   UNL     1     -10.952  13.337  68.353  1.00  0.00    -0.211 Si 
HETATM    9  C   UNL     1     -11.807  12.532  69.811  1.00  0.00    -0.310 C  
HETATM   10  C   UNL     1      -9.178  12.740  68.226  1.00  0.00    -0.186 C  
BRANCH   8  11
HETATM   11  O   UNL     1     -11.764  12.967  66.935  1.00  0.00    -0.345 OA 
HETATM   12 SI   UNL     1     -11.393  12.507  65.359  1.00  0.00    -0.276 Si 
HETATM   13  C   UNL     1     -10.341  13.807  64.486  1.00  0.00    -0.285 C  
HETATM   14  C   UNL     1     -12.934  12.242  64.315  1.00  0.00    -0.133 C  
HETATM   15  C   UNL     1     -10.407  10.899  65.358  1.00  0.00    -0.261 C  
ENDBRANCH   8  11
ENDBRANCH   5   8
TORSDOF 2
ENDMDL
MODEL       56
REMARK 921   NORMALIZED FREE ENERGY PREDICTED BY IDOCK:   -3.63 KCAL/MOL
REMARK 922        TOTAL FREE ENERGY PREDICTED BY IDOCK:   -4.29 KCAL/MOL
REMARK 923 INTER-LIGAND FREE ENERGY PREDICTED BY IDOCK:   -4.12 KCAL/MOL
REMARK 924 INTRA-LIGAND FREE ENERGY PREDICTED BY IDOCK:   -0.17 KCAL/MOL
REMARK 927      BINDING AFFINITY PREDICTED BY RF-SCORE:    0.00 PKD
ROOT
HETATM    1  O   UNL     1     -12.088  13.812  70.669  1.00  0.00    -0.335 OA 
HETATM    2  H   UNL     1     -11.723  13.025  70.282  1.00  0.00     0.000 HD 
HETATM    3 SI   UNL     1     -13.287  14.291  69.945  1.00  0.00    -0.472 Si 
HETATM    4  C   UNL     1     -12.267  13.358  66.302  1.00  0.00    -0.398 C  
HETATM    5  O   UNL     1     -12.203  14.567  67.053  1.00  0.00    -0.362 OA 
HETATM    6  O   UNL     1     -13.851  15.509  70.544  1.00  0.00    -0.827 OA 
HETATM    7  H   UNL     1     -14.620  15.816  70.079  1.00  0.00     0.000 HD 
ENDROOT
BRANCH   5   8
HETATM    8 SI   UNL     1     -10.900  15.603  66.791  1.00  0.00    -0.282 Si 
HETATM    9  C   UNL     1     -10.968  16.999  68.037  1.00  0.00    -0.252 C  
HETATM   10  C   UNL     1     -10.983  16.283  65.045  1.00  0.00    -0.298 C  
BRANCH   8  11
HETATM   11  O   UNL     1      -9.481  14.732  66.981  1.00  0.00    -0.215 OA 
HETATM   12 SI   UNL     1      -7.943  14.962  67.624  1.00  0.00    -0.111 Si 
HETATM   13  C   UNL     1      -7.032  16.368  66.756  1.00  0.00    -0.177 C  
HETATM   14  C   UNL     1      -6.872  13.424  67.472  1.00  0.00    -0.144 C  
HETATM   15  C   UNL     1      -8.055  15.414  69.451  1.00  0.00    -0.249 C  
ENDBRANCH   8  11
ENDBRANCH   5   8
TORSDOF 2
ENDMDL
MODEL       57
REMARK 921   NORMALIZED FREE ENERGY PREDICTED BY IDOCK:   -3.62 KCAL/MOL
REMARK 922        TOTAL FREE ENERGY PREDICTED BY IDOCK:   -4.28 KCAL/MOL
REMARK 923 INTER-LIGAND FREE ENERGY PREDICTED BY IDOCK:   -4.13 KCAL/MOL
REMARK 924 INTRA-LIGAND FREE ENERGY PREDICTED BY IDOCK:   -0.15 KCAL/MOL
REMARK 927      BINDING AFFINITY PREDICTED BY RF-SCORE:    0.00 PKD
ROOT
HETATM    1  O   UNL     1      -8.590  11.585  62.566  1.00  0.00    -0.595 OA 
HETATM    2  H   UNL     1      -8.842  12.500  62.522  1.00  0.00     0.000 HD 
HETATM    3 SI   UNL     1      -9.761  10.682  62.612  1.00  0.00    -0.222 Si 
HETATM    4  C   UNL     1     -12.190  12.867  64.735  1.00  0.00    -0.445 C  
HETATM    5  O   UNL     1     -11.313  11.790  65.057  1.00  0.00    -0.295 OA 
HETATM    6  O   UNL     1      -9.372   9.266  62.680  1.00  0.00    -0.554 OA 
HETATM    7  H   UNL     1     -10.123   8.687  62.710  1.00  0.00     0.000 HD 
ENDROOT
BRANCH   5   8
HETATM    8 SI   UNL     1     -10.527  11.817  66.547  1.00  0.00    -0.203 Si 
HETATM    9  C   UNL     1      -8.679  11.710  66.267  1.00  0.00    -0.136 C  
HETATM   10  C   UNL     1     -11.115  10.372  67.589  1.00  0.00    -0.293 C  
BRANCH   8  11
HETATM   11  O   UNL     1     -10.908  13.253  67.324  1.00  0.00    -0.260 OA 
HETATM   12 SI   UNL     1     -10.302  14.818  67.436  1.00  0.00    -0.227 Si 
HETATM   13  C   UNL     1      -8.550  14.836  68.138  1.00  0.00    -0.159 C  
HETATM   14  C   UNL     1     -11.358  15.912  68.542  1.00  0.00    -0.374 C  
HETATM   15  C   UNL     1     -10.227  15.618  65.730  1.00  0.00    -0.367 C  
ENDBRANCH   8  11
ENDBRANCH   5   8
TORSDOF 2
ENDMDL
MODEL       58
REMARK 921   NORMALIZED FREE ENERGY PREDICTED BY IDOCK:   -3.62 KCAL/MOL
REMARK 922        TOTAL FREE ENERGY PREDICTED BY IDOCK:   -4.28 KCAL/MOL
REMARK 923 INTER-LIGAND FREE ENERGY PREDICTED BY IDOCK:   -4.29 KCAL/MOL
REMARK 924 INTRA-LIGAND FREE ENERGY PREDICTED BY IDOCK:    0.02 KCAL/MOL
REMARK 927      BINDING AFFINITY PREDICTED BY RF-SCORE:    0.00 PKD
ROOT
HETATM    1  O   UNL     1     -13.168  12.180  63.770  1.00  0.00    -0.763 OA 
HETATM    2  H   UNL     1     -12.914  11.280  63.941  1.00  0.00     0.000 HD 
HETATM    3 SI   UNL     1     -12.008  13.035  63.433  1.00  0.00    -0.369 Si 
HETATM    4  C   UNL     1      -9.316  11.436  65.751  1.00  0.00    -0.228 C  
HETATM    5  O   UNL     1     -10.158  12.579  65.878  1.00  0.00    -0.247 OA 
HETATM    6  O   UNL     1     -12.401  14.427  63.169  1.00  0.00    -1.014 OA 
HETATM    7  H   UNL     1     -11.657  14.976  62.952  1.00  0.00     0.000 HD 
ENDROOT
BRANCH   5   8
HETATM    8 SI   UNL     1     -10.755  12.966  67.406  1.00  0.00    -0.219 Si 
HETATM    9  C   UNL     1     -11.436  11.417  68.207  1.00  0.00    -0.299 C  
HETATM   10  C   UNL     1     -12.101  14.261  67.241  1.00  0.00    -0.355 C  
BRANCH   8  11
HETATM   11  O   UNL     1      -9.499  13.585  68.327  1.00  0.00    -0.209 OA 
HETATM   12 SI   UNL     1      -7.926  14.136  68.095  1.00  0.00    -0.102 Si 
HETATM   13  C   UNL     1      -6.816  12.787  67.383  1.00  0.00    -0.133 C  
HETATM   14  C   UNL     1      -7.136  14.722  69.698  1.00  0.00    -0.158 C  
HETATM   15  C   UNL     1      -7.906  15.576  66.877  1.00  0.00    -0.194 C  
ENDBRANCH   8  11
ENDBRANCH   5   8
TORSDOF 2
ENDMDL
MODEL       59
REMARK 921   NORMALIZED FREE ENERGY PREDICTED BY IDOCK:   -3.61 KCAL/MOL
REMARK 922        TOTAL FREE ENERGY PREDICTED BY IDOCK:   -4.27 KCAL/MOL
REMARK 923 INTER-LIGAND FREE ENERGY PREDICTED BY IDOCK:   -4.10 KCAL/MOL
REMARK 924 INTRA-LIGAND FREE ENERGY PREDICTED BY IDOCK:   -0.17 KCAL/MOL
REMARK 927      BINDING AFFINITY PREDICTED BY RF-SCORE:    0.00 PKD
ROOT
HETATM    1  O   UNL     1     -11.272  14.756  71.648  1.00  0.00    -0.530 OA 
HETATM    2  H   UNL     1     -10.878  14.024  72.108  1.00  0.00     0.000 HD 
HETATM    3 SI   UNL     1     -12.379  14.331  70.761  1.00  0.00    -0.251 Si 
HETATM    4  C   UNL     1     -10.983  10.893  69.573  1.00  0.00    -0.253 C  
HETATM    5  O   UNL     1     -10.985  12.196  68.997  1.00  0.00    -0.230 OA 
HETATM    6  O   UNL     1     -12.987  15.463  70.048  1.00  0.00    -0.646 OA 
HETATM    7  H   UNL     1     -13.697  15.191  69.479  1.00  0.00     0.000 HD 
ENDROOT
BRANCH   5   8
HETATM    8 SI   UNL     1      -9.647  12.670  68.089  1.00  0.00    -0.170 Si 
HETATM    9  C   UNL     1      -8.212  11.530  68.472  1.00  0.00    -0.148 C  
HETATM   10  C   UNL     1      -9.203  14.443  68.509  1.00  0.00    -0.198 C  
BRANCH   8  11
HETATM   11  O   UNL     1     -10.044  12.568  66.463  1.00  0.00    -0.230 OA 
HETATM   12 SI   UNL     1     -10.921  13.447  65.328  1.00  0.00    -0.279 Si 
HETATM   13  C   UNL     1     -12.736  13.601  65.821  1.00  0.00    -0.416 C  
HETATM   14  C   UNL     1     -10.870  12.656  63.623  1.00  0.00    -0.395 C  
HETATM   15  C   UNL     1     -10.233  15.197  65.177  1.00  0.00    -0.351 C  
ENDBRANCH   8  11
ENDBRANCH   5   8
TORSDOF 2
ENDMDL
MODEL       60
REMARK 921   NORMALIZED FREE ENERGY PREDICTED BY IDOCK:   -3.60 KCAL/MOL
REMARK 922        TOTAL FREE ENERGY PREDICTED BY IDOCK:   -4.26 KCAL/MOL
REMARK 923 INTER-LIGAND FREE ENERGY PREDICTED BY IDOCK:   -4.09 KCAL/MOL
REMARK 924 INTRA-LIGAND FREE ENERGY PREDICTED BY IDOCK:   -0.16 KCAL/MOL
REMARK 927      BINDING AFFINITY PREDICTED BY RF-SCORE:    0.00 PKD
ROOT
HETATM    1  O   UNL     1     -12.671  15.396  69.469  1.00  0.00    -0.604 OA 
HETATM    2  H   UNL     1     -13.173  15.740  68.740  1.00  0.00     0.000 HD 
HETATM    3 SI   UNL     1     -11.219  15.642  69.317  1.00  0.00    -0.218 Si 
HETATM    4  C   UNL     1     -10.891  15.252  65.455  1.00  0.00    -0.387 C  
HETATM    5  O   UNL     1     -10.654  14.368  66.547  1.00  0.00    -0.289 OA 
HETATM    6  O   UNL     1     -10.442  15.108  70.445  1.00  0.00    -0.490 OA 
HETATM    7  H   UNL     1      -9.511  15.266  70.348  1.00  0.00     0.000 HD 
ENDROOT
BRANCH   5   8
HETATM    8 SI   UNL     1     -11.003  12.732  66.342  1.00  0.00    -0.252 Si 
HETATM    9  C   UNL     1     -12.232  12.539  64.943  1.00  0.00    -0.470 C  
HETATM   10  C   UNL     1     -11.713  12.041  67.934  1.00  0.00    -0.323 C  
BRANCH   8  11
HETATM   11  O   UNL     1      -9.580  11.927  65.973  1.00  0.00    -0.229 OA 
HETATM   12 SI   UNL     1      -9.105  10.505  65.208  1.00  0.00    -0.149 Si 
HETATM   13  C   UNL     1      -9.811   8.983  66.072  1.00  0.00    -0.242 C  
HETATM   14  C   UNL     1      -7.236  10.310  65.171  1.00  0.00    -0.125 C  
HETATM   15  C   UNL     1      -9.728  10.475  63.429  1.00  0.00    -0.316 C  
ENDBRANCH   8  11
ENDBRANCH   5   8
TORSDOF 2
ENDMDL
MODEL       61
REMARK 921   NORMALIZED FREE ENERGY PREDICTED BY IDOCK:   -3.58 KCAL/MOL
REMARK 922        TOTAL FREE ENERGY PREDICTED BY IDOCK:   -4.23 KCAL/MOL
REMARK 923 INTER-LIGAND FREE ENERGY PREDICTED BY IDOCK:   -4.08 KCAL/MOL
REMARK 924 INTRA-LIGAND FREE ENERGY PREDICTED BY IDOCK:   -0.16 KCAL/MOL
REMARK 927      BINDING AFFINITY PREDICTED BY RF-SCORE:    0.00 PKD
ROOT
HETATM    1  O   UNL     1      -8.486  12.455  68.947  1.00  0.00    -0.355 OA 
HETATM    2  H   UNL     1      -9.406  12.283  68.786  1.00  0.00     0.000 HD 
HETATM    3 SI   UNL     1      -8.279  13.636  69.815  1.00  0.00    -0.315 Si 
HETATM    4  C   UNL     1     -11.220  15.875  68.585  1.00  0.00    -0.360 C  
HETATM    5  O   UNL     1      -9.832  15.831  68.270  1.00  0.00    -0.210 OA 
HETATM    6  O   UNL     1      -6.855  13.903  70.063  1.00  0.00    -0.360 OA 
HETATM    7  H   UNL     1      -6.723  14.661  70.621  1.00  0.00     0.000 HD 
ENDROOT
BRANCH   5   8
HETATM    8 SI   UNL     1      -9.359  16.169  66.688  1.00  0.00    -0.188 Si 
HETATM    9  C   UNL     1      -7.564  16.701  66.686  1.00  0.00    -0.279 C  
HETATM   10  C   UNL     1     -10.445  17.530  65.990  1.00  0.00    -0.274 C  
BRANCH   8  11
HETATM   11  O   UNL     1      -9.549  14.781  65.767  1.00  0.00    -0.316 OA 
HETATM   12 SI   UNL     1     -10.777  13.706  65.356  1.00  0.00    -0.270 Si 
HETATM   13  C   UNL     1     -11.501  12.864  66.881  1.00  0.00    -0.341 C  
HETATM   14  C   UNL     1     -10.175  12.351  64.201  1.00  0.00    -0.351 C  
HETATM   15  C   UNL     1     -12.187  14.617  64.497  1.00  0.00    -0.456 C  
ENDBRANCH   8  11
ENDBRANCH   5   8
TORSDOF 2
ENDMDL
MODEL       62
REMARK 921   NORMALIZED FREE ENERGY PREDICTED BY IDOCK:   -3.58 KCAL/MOL
REMARK 922        TOTAL FREE ENERGY PREDICTED BY IDOCK:   -4.23 KCAL/MOL
REMARK 923 INTER-LIGAND FREE ENERGY PREDICTED BY IDOCK:   -4.01 KCAL/MOL
REMARK 924 INTRA-LIGAND FREE ENERGY PREDICTED BY IDOCK:   -0.22 KCAL/MOL
REMARK 927      BINDING AFFINITY PREDICTED BY RF-SCORE:    0.00 PKD
ROOT
HETATM    1  O   UNL     1     -13.392  15.949  70.525  1.00  0.00    -0.739 OA 
HETATM    2  H   UNL     1     -13.669  16.358  69.713  1.00  0.00     0.000 HD 
HETATM    3 SI   UNL     1     -12.361  16.742  71.230  1.00  0.00    -0.599 Si 
HETATM    4  C   UNL     1     -10.406  18.147  68.167  1.00  0.00    -0.379 C  
HETATM    5  O   UNL     1     -10.189  17.041  69.038  1.00  0.00    -0.290 OA 
HETATM    6  O   UNL     1     -11.932  16.109  72.485  1.00  0.00    -0.494 OA 
HETATM    7  H   UNL     1     -11.271  16.618  72.938  1.00  0.00     0.000 HD 
ENDROOT
BRANCH   5   8
HETATM    8 SI   UNL     1      -9.517  15.636  68.394  1.00  0.00    -0.177 Si 
HETATM    9  C   UNL     1      -8.840  16.008  66.688  1.00  0.00    -0.272 C  
HETATM   10  C   UNL     1     -10.831  14.302  68.297  1.00  0.00    -0.246 C  
BRANCH   8  11
HETATM   11  O   UNL     1      -8.281  15.125  69.404  1.00  0.00    -0.216 OA 
HETATM   12 SI   UNL     1      -6.601  15.033  69.383  1.00  0.00    -0.096 Si 
HETATM   13  C   UNL     1      -5.983  13.938  67.977  1.00  0.00    -0.139 C  
HETATM   14  C   UNL     1      -5.909  14.331  70.985  1.00  0.00    -0.209 C  
HETATM   15  C   UNL     1      -5.851  16.745  69.128  1.00  0.00    -0.155 C  
ENDBRANCH   8  11
ENDBRANCH   5   8
TORSDOF 2
ENDMDL
MODEL       63
REMARK 921   NORMALIZED FREE ENERGY PREDICTED BY IDOCK:   -3.57 KCAL/MOL
REMARK 922        TOTAL FREE ENERGY PREDICTED BY IDOCK:   -4.22 KCAL/MOL
REMARK 923 INTER-LIGAND FREE ENERGY PREDICTED BY IDOCK:   -4.11 KCAL/MOL
REMARK 924 INTRA-LIGAND FREE ENERGY PREDICTED BY IDOCK:   -0.11 KCAL/MOL
REMARK 927      BINDING AFFINITY PREDICTED BY RF-SCORE:    0.00 PKD
ROOT
HETATM    1  O   UNL     1     -12.853  13.412  70.537  1.00  0.00    -0.164 OA 
HETATM    2  H   UNL     1     -12.784  12.603  70.044  1.00  0.00     0.000 HD 
HETATM    3 SI   UNL     1     -13.592  14.460  69.797  1.00  0.00    -0.515 Si 
HETATM    4  C   UNL     1     -12.410  13.657  66.172  1.00  0.00    -0.426 C  
HETATM    5  O   UNL     1     -11.988  14.606  67.147  1.00  0.00    -0.391 OA 
HETATM    6  O   UNL     1     -13.698  15.712  70.559  1.00  0.00    -0.835 OA 
HETATM    7  H   UNL     1     -14.172  16.384  70.085  1.00  0.00     0.000 HD 
ENDROOT
BRANCH   5   8
HETATM    8 SI   UNL     1     -10.348  14.987  67.235  1.00  0.00    -0.231 Si 
HETATM    9  C   UNL     1     -10.113  16.409  68.429  1.00  0.00    -0.245 C  
HETATM   10  C   UNL     1      -9.724  15.456  65.529  1.00  0.00    -0.283 C  
BRANCH   8  11
HETATM   11  O   UNL     1      -9.516  13.637  67.777  1.00  0.00    -0.206 OA 
HETATM   12 SI   UNL     1      -9.593  11.964  67.609  1.00  0.00    -0.164 Si 
HETATM   13  C   UNL     1     -11.234  11.278  68.239  1.00  0.00    -0.267 C  
HETATM   14  C   UNL     1      -8.222  11.092  68.556  1.00  0.00    -0.149 C  
HETATM   15  C   UNL     1      -9.444  11.478  65.794  1.00  0.00    -0.234 C  
ENDBRANCH   8  11
ENDBRANCH   5   8
TORSDOF 2
ENDMDL
MODEL       64
REMARK 921   NORMALIZED FREE ENERGY PREDICTED BY IDOCK:   -3.55 KCAL/MOL
REMARK 922        TOTAL FREE ENERGY PREDICTED BY IDOCK:   -4.20 KCAL/MOL
REMARK 923 INTER-LIGAND FREE ENERGY PREDICTED BY IDOCK:   -3.95 KCAL/MOL
REMARK 924 INTRA-LIGAND FREE ENERGY PREDICTED BY IDOCK:   -0.25 KCAL/MOL
REMARK 927      BINDING AFFINITY PREDICTED BY RF-SCORE:    0.00 PKD
ROOT
HETATM    1  O   UNL     1      -9.760  12.926  63.549  1.00  0.00    -0.623 OA 
HETATM    2  H   UNL     1      -9.622  13.815  63.852  1.00  0.00     0.000 HD 
HETATM    3 SI   UNL     1     -11.180  12.518  63.632  1.00  0.00    -0.307 Si 
HETATM    4  C   UNL     1     -12.213  14.400  66.883  1.00  0.00    -0.267 C  
HETATM    5  O   UNL     1     -11.815  13.058  66.618  1.00  0.00    -0.367 OA 
HETATM    6  O   UNL     1     -11.394  11.141  63.163  1.00  0.00    -0.808 OA 
HETATM    7  H   UNL     1     -12.305  10.880  63.216  1.00  0.00     0.000 HD 
ENDROOT
BRANCH   5   8
HETATM    8 SI   UNL     1     -10.898  12.251  67.781  1.00  0.00    -0.192 Si 
HETATM    9  C   UNL     1     -11.729  12.433  69.449  1.00  0.00    -0.322 C  
HETATM   10  C   UNL     1      -9.171  12.980  67.829  1.00  0.00    -0.200 C  
BRANCH   8  11
HETATM   11  O   UNL     1     -10.807  10.633  67.357  1.00  0.00    -0.262 OA 
HETATM   12 SI   UNL     1      -9.619   9.489  67.021  1.00  0.00    -0.135 Si 
HETATM   13  C   UNL     1      -8.567   9.996  65.539  1.00  0.00    -0.151 C  
HETATM   14  C   UNL     1     -10.349   7.799  66.636  1.00  0.00    -0.192 C  
HETATM   15  C   UNL     1      -8.455   9.297  68.492  1.00  0.00    -0.123 C  
ENDBRANCH   8  11
ENDBRANCH   5   8
TORSDOF 2
ENDMDL
MODEL       65
REMARK 921   NORMALIZED FREE ENERGY PREDICTED BY IDOCK:   -3.55 KCAL/MOL
REMARK 922        TOTAL FREE ENERGY PREDICTED BY IDOCK:   -4.20 KCAL/MOL
REMARK 923 INTER-LIGAND FREE ENERGY PREDICTED BY IDOCK:   -3.99 KCAL/MOL
REMARK 924 INTRA-LIGAND FREE ENERGY PREDICTED BY IDOCK:   -0.22 KCAL/MOL
REMARK 927      BINDING AFFINITY PREDICTED BY RF-SCORE:    0.00 PKD
ROOT
HETATM    1  O   UNL     1     -14.402   8.061  70.869  1.00  0.00    -0.657 OA 
HETATM    2  H   UNL     1     -14.439   8.249  69.938  1.00  0.00     0.000 HD 
HETATM    3 SI   UNL     1     -13.982   9.236  71.664  1.00  0.00    -0.343 Si 
HETATM    4  C   UNL     1     -11.437  10.830  69.181  1.00  0.00    -0.298 C  
HETATM    5  O   UNL     1     -11.291   9.978  70.313  1.00  0.00    -0.266 OA 
HETATM    6  O   UNL     1     -13.925   8.945  73.103  1.00  0.00    -1.118 OA 
HETATM    7  H   UNL     1     -13.655   9.699  73.613  1.00  0.00     0.000 HD 
ENDROOT
BRANCH   5   8
HETATM    8 SI   UNL     1     -10.072   8.814  70.286  1.00  0.00    -0.169 Si 
HETATM    9  C   UNL     1     -10.767   7.215  69.603  1.00  0.00    -0.239 C  
HETATM   10  C   UNL     1      -9.420   8.552  72.025  1.00  0.00    -0.294 C  
BRANCH   8  11
HETATM   11  O   UNL     1      -8.831   9.367  69.305  1.00  0.00    -0.137 OA 
HETATM   12 SI   UNL     1      -8.097   8.944  67.851  1.00  0.00    -0.096 Si 
HETATM   13  C   UNL     1      -7.343   7.216  67.931  1.00  0.00    -0.097 C  
HETATM   14  C   UNL     1      -6.720  10.133  67.377  1.00  0.00    -0.073 C  
HETATM   15  C   UNL     1      -9.364   8.936  66.453  1.00  0.00    -0.204 C  
ENDBRANCH   8  11
ENDBRANCH   5   8
TORSDOF 2
ENDMDL
MODEL       66
REMARK 921   NORMALIZED FREE ENERGY PREDICTED BY IDOCK:   -3.55 KCAL/MOL
REMARK 922        TOTAL FREE ENERGY PREDICTED BY IDOCK:   -4.20 KCAL/MOL
REMARK 923 INTER-LIGAND FREE ENERGY PREDICTED BY IDOCK:   -3.95 KCAL/MOL
REMARK 924 INTRA-LIGAND FREE ENERGY PREDICTED BY IDOCK:   -0.25 KCAL/MOL
REMARK 927      BINDING AFFINITY PREDICTED BY RF-SCORE:    0.00 PKD
ROOT
HETATM    1  O   UNL     1     -11.241  12.084  69.899  1.00  0.00    -0.485 OA 
HETATM    2  H   UNL     1     -11.392  12.256  70.821  1.00  0.00     0.000 HD 
HETATM    3 SI   UNL     1     -12.355  11.332  69.279  1.00  0.00    -0.267 Si 
HETATM    4  C   UNL     1     -13.350   9.048  72.275  1.00  0.00    -0.467 C  
HETATM    5  O   UNL     1     -12.536   8.846  71.123  1.00  0.00    -0.279 OA 
HETATM    6  O   UNL     1     -12.122  11.064  67.853  1.00  0.00    -0.721 OA 
HETATM    7  H   UNL     1     -12.836  10.581  67.455  1.00  0.00     0.000 HD 
ENDROOT
BRANCH   5   8
HETATM    8 SI   UNL     1     -11.171   7.868  71.271  1.00  0.00    -0.235 Si 
HETATM    9  C   UNL     1     -11.374   6.364  70.175  1.00  0.00    -0.420 C  
HETATM   10  C   UNL     1     -10.965   7.348  73.061  1.00  0.00    -0.374 C  
BRANCH   8  11
HETATM   11  O   UNL     1      -9.830   8.751  70.792  1.00  0.00    -0.179 OA 
HETATM   12 SI   UNL     1      -8.648   8.690  69.594  1.00  0.00    -0.110 Si 
HETATM   13  C   UNL     1      -7.637   7.100  69.699  1.00  0.00    -0.104 C  
HETATM   14  C   UNL     1      -7.443  10.128  69.711  1.00  0.00    -0.163 C  
HETATM   15  C   UNL     1      -9.442   8.734  67.884  1.00  0.00    -0.142 C  
ENDBRANCH   8  11
ENDBRANCH   5   8
TORSDOF 2
ENDMDL
MODEL       67
REMARK 921   NORMALIZED FREE ENERGY PREDICTED BY IDOCK:   -3.53 KCAL/MOL
REMARK 922        TOTAL FREE ENERGY PREDICTED BY IDOCK:   -4.18 KCAL/MOL
REMARK 923 INTER-LIGAND FREE ENERGY PREDICTED BY IDOCK:   -4.02 KCAL/MOL
REMARK 924 INTRA-LIGAND FREE ENERGY PREDICTED BY IDOCK:   -0.16 KCAL/MOL
REMARK 927      BINDING AFFINITY PREDICTED BY RF-SCORE:    0.00 PKD
ROOT
HETATM    1  O   UNL     1     -10.653   9.603  70.767  1.00  0.00    -0.291 OA 
HETATM    2  H   UNL     1      -9.911   9.024  70.634  1.00  0.00     0.000 HD 
HETATM    3 SI   UNL     1     -11.822   9.215  69.947  1.00  0.00    -0.371 Si 
HETATM    4  C   UNL     1      -9.989   7.946  66.752  1.00  0.00    -0.263 C  
HETATM    5  O   UNL     1     -10.606   9.183  67.095  1.00  0.00    -0.263 OA 
HETATM    6  O   UNL     1     -12.969  10.110  70.152  1.00  0.00    -0.580 OA 
HETATM    7  H   UNL     1     -13.720   9.861  69.626  1.00  0.00     0.000 HD 
ENDROOT
BRANCH   5   8
HETATM    8 SI   UNL     1      -9.921  10.608  66.511  1.00  0.00    -0.172 Si 
HETATM    9  C   UNL     1     -10.225  10.723  64.667  1.00  0.00    -0.350 C  
HETATM   10  C   UNL     1      -8.080  10.608  66.870  1.00  0.00    -0.124 C  
BRANCH   8  11
HETATM   11  O   UNL     1     -10.639  11.904  67.294  1.00  0.00    -0.217 OA 
HETATM   12 SI   UNL     1     -11.113  13.479  66.938  1.00  0.00    -0.266 Si 
HETATM   13  C   UNL     1      -9.648  14.540  66.401  1.00  0.00    -0.303 C  
HETATM   14  C   UNL     1     -11.910  14.331  68.412  1.00  0.00    -0.338 C  
HETATM   15  C   UNL     1     -12.356  13.487  65.520  1.00  0.00    -0.481 C  
ENDBRANCH   8  11
ENDBRANCH   5   8
TORSDOF 2
ENDMDL
MODEL       68
REMARK 921   NORMALIZED FREE ENERGY PREDICTED BY IDOCK:   -3.53 KCAL/MOL
REMARK 922        TOTAL FREE ENERGY PREDICTED BY IDOCK:   -4.18 KCAL/MOL
REMARK 923 INTER-LIGAND FREE ENERGY PREDICTED BY IDOCK:   -3.95 KCAL/MOL
REMARK 924 INTRA-LIGAND FREE ENERGY PREDICTED BY IDOCK:   -0.23 KCAL/MOL
REMARK 927      BINDING AFFINITY PREDICTED BY RF-SCORE:    0.00 PKD
ROOT
HETATM    1  O   UNL     1     -11.648   4.665  65.103  1.00  0.00    -1.107 OA 
HETATM    2  H   UNL     1     -12.379   5.147  65.471  1.00  0.00     0.000 HD 
HETATM    3 SI   UNL     1     -10.937   3.859  66.121  1.00  0.00    -0.423 Si 
HETATM    4  C   UNL     1     -11.268   6.241  69.187  1.00  0.00    -0.371 C  
HETATM    5  O   UNL     1     -10.229   6.010  68.240  1.00  0.00    -0.150 OA 
HETATM    6  O   UNL     1      -9.805   3.114  65.552  1.00  0.00    -0.382 OA 
HETATM    7  H   UNL     1      -9.349   2.597  66.205  1.00  0.00     0.000 HD 
ENDROOT
BRANCH   5   8
HETATM    8 SI   UNL     1      -9.284   7.319  67.754  1.00  0.00    -0.125 Si 
HETATM    9  C   UNL     1      -8.722   7.046  65.989  1.00  0.00    -0.144 C  
HETATM   10  C   UNL     1      -7.803   7.476  68.894  1.00  0.00    -0.124 C  
BRANCH   8  11
HETATM   11  O   UNL     1     -10.212   8.711  67.854  1.00  0.00    -0.197 OA 
HETATM   12 SI   UNL     1     -10.283  10.107  68.791  1.00  0.00    -0.152 Si 
HETATM   13  C   UNL     1     -10.582   9.707  70.610  1.00  0.00    -0.319 C  
HETATM   14  C   UNL     1     -11.659  11.263  68.238  1.00  0.00    -0.300 C  
HETATM   15  C   UNL     1      -8.655  11.052  68.687  1.00  0.00    -0.157 C  
ENDBRANCH   8  11
ENDBRANCH   5   8
TORSDOF 2
ENDMDL
MODEL       69
REMARK 921   NORMALIZED FREE ENERGY PREDICTED BY IDOCK:   -3.53 KCAL/MOL
REMARK 922        TOTAL FREE ENERGY PREDICTED BY IDOCK:   -4.17 KCAL/MOL
REMARK 923 INTER-LIGAND FREE ENERGY PREDICTED BY IDOCK:   -3.97 KCAL/MOL
REMARK 924 INTRA-LIGAND FREE ENERGY PREDICTED BY IDOCK:   -0.21 KCAL/MOL
REMARK 927      BINDING AFFINITY PREDICTED BY RF-SCORE:    0.00 PKD
ROOT
HETATM    1  O   UNL     1      -8.287  13.104  68.809  1.00  0.00    -0.344 OA 
HETATM    2  H   UNL     1      -8.742  13.742  69.345  1.00  0.00     0.000 HD 
HETATM    3 SI   UNL     1      -7.389  13.740  67.820  1.00  0.00    -0.082 Si 
HETATM    4  C   UNL     1      -9.497  16.901  66.960  1.00  0.00    -0.244 C  
HETATM    5  O   UNL     1      -9.339  15.634  66.329  1.00  0.00    -0.268 OA 
HETATM    6  O   UNL     1      -6.684  12.752  66.990  1.00  0.00    -0.382 OA 
HETATM    7  H   UNL     1      -6.108  13.160  66.355  1.00  0.00     0.000 HD 
ENDROOT
BRANCH   5   8
HETATM    8 SI   UNL     1     -10.676  14.950  65.562  1.00  0.00    -0.269 Si 
HETATM    9  C   UNL     1     -11.522  16.259  64.525  1.00  0.00    -0.169 C  
HETATM   10  C   UNL     1     -11.857  14.275  66.853  1.00  0.00    -0.433 C  
BRANCH   8  11
HETATM   11  O   UNL     1     -10.145  13.696  64.585  1.00  0.00    -0.357 OA 
HETATM   12 SI   UNL     1     -10.550  12.094  64.270  1.00  0.00    -0.256 Si 
HETATM   13  C   UNL     1     -10.408  11.025  65.818  1.00  0.00    -0.257 C  
HETATM   14  C   UNL     1      -9.443  11.327  62.958  1.00  0.00    -0.367 C  
HETATM   15  C   UNL     1     -12.333  11.972  63.669  1.00  0.00    -0.539 C  
ENDBRANCH   8  11
ENDBRANCH   5   8
TORSDOF 2
ENDMDL
MODEL       70
REMARK 921   NORMALIZED FREE ENERGY PREDICTED BY IDOCK:   -3.52 KCAL/MOL
REMARK 922        TOTAL FREE ENERGY PREDICTED BY IDOCK:   -4.17 KCAL/MOL
REMARK 923 INTER-LIGAND FREE ENERGY PREDICTED BY IDOCK:   -3.94 KCAL/MOL
REMARK 924 INTRA-LIGAND FREE ENERGY PREDICTED BY IDOCK:   -0.23 KCAL/MOL
REMARK 927      BINDING AFFINITY PREDICTED BY RF-SCORE:    0.00 PKD
ROOT
HETATM    1  O   UNL     1     -11.447  14.622  64.061  1.00  0.00    -0.613 OA 
HETATM    2  H   UNL     1     -10.838  15.335  63.909  1.00  0.00     0.000 HD 
HETATM    3 SI   UNL     1     -12.526  14.998  65.002  1.00  0.00    -0.362 Si 
HETATM    4  C   UNL     1     -10.523  17.329  67.397  1.00  0.00    -0.338 C  
HETATM    5  O   UNL     1     -10.904  15.958  67.465  1.00  0.00    -0.315 OA 
HETATM    6  O   UNL     1     -13.470  13.896  65.238  1.00  0.00    -0.612 OA 
HETATM    7  H   UNL     1     -14.162  14.137  65.842  1.00  0.00     0.000 HD 
ENDROOT
BRANCH   5   8
HETATM    8 SI   UNL     1      -9.842  14.867  68.187  1.00  0.00    -0.195 Si 
HETATM    9  C   UNL     1      -9.048  15.679  69.675  1.00  0.00    -0.165 C  
HETATM   10  C   UNL     1      -8.531  14.357  66.946  1.00  0.00    -0.127 C  
BRANCH   8  11
HETATM   11  O   UNL     1     -10.709  13.515  68.664  1.00  0.00    -0.245 OA 
HETATM   12 SI   UNL     1     -10.785  11.876  68.291  1.00  0.00    -0.179 Si 
HETATM   13  C   UNL     1     -11.234  11.597  66.480  1.00  0.00    -0.294 C  
HETATM   14  C   UNL     1     -12.062  10.969  69.330  1.00  0.00    -0.318 C  
HETATM   15  C   UNL     1      -9.111  11.057  68.583  1.00  0.00    -0.174 C  
ENDBRANCH   8  11
ENDBRANCH   5   8
TORSDOF 2
ENDMDL
MODEL       71
REMARK 921   NORMALIZED FREE ENERGY PREDICTED BY IDOCK:   -3.52 KCAL/MOL
REMARK 922        TOTAL FREE ENERGY PREDICTED BY IDOCK:   -4.16 KCAL/MOL
REMARK 923 INTER-LIGAND FREE ENERGY PREDICTED BY IDOCK:   -4.01 KCAL/MOL
REMARK 924 INTRA-LIGAND FREE ENERGY PREDICTED BY IDOCK:   -0.16 KCAL/MOL
REMARK 927      BINDING AFFINITY PREDICTED BY RF-SCORE:    0.00 PKD
ROOT
HETATM    1  O   UNL     1     -12.613   6.453  72.466  1.00  0.00    -0.531 OA 
HETATM    2  H   UNL     1     -13.378   6.758  71.991  1.00  0.00     0.000 HD 
HETATM    3 SI   UNL     1     -11.994   7.522  73.281  1.00  0.00    -0.506 Si 
HETATM    4  C   UNL     1     -12.617  10.573  70.938  1.00  0.00    -0.398 C  
HETATM    5  O   UNL     1     -11.494   9.722  71.153  1.00  0.00    -0.343 OA 
HETATM    6  O   UNL     1     -10.811   7.051  74.014  1.00  0.00    -0.490 OA 
HETATM    7  H   UNL     1     -10.414   7.737  74.537  1.00  0.00     0.000 HD 
ENDROOT
BRANCH   5   8
HETATM    8 SI   UNL     1     -10.516   9.340  69.835  1.00  0.00    -0.179 Si 
HETATM    9  C   UNL     1     -10.832   7.565  69.332  1.00  0.00    -0.150 C  
HETATM   10  C   UNL     1      -8.715   9.575  70.305  1.00  0.00    -0.235 C  
BRANCH   8  11
HETATM   11  O   UNL     1     -10.899  10.373  68.571  1.00  0.00    -0.208 OA 
HETATM   12 SI   UNL     1     -10.197  10.924  67.145  1.00  0.00    -0.173 Si 
HETATM   13  C   UNL     1      -8.577  11.834  67.474  1.00  0.00    -0.157 C  
HETATM   14  C   UNL     1     -11.322  12.106  66.211  1.00  0.00    -0.357 C  
HETATM   15  C   UNL     1      -9.801   9.476  66.004  1.00  0.00    -0.283 C  
ENDBRANCH   8  11
ENDBRANCH   5   8
TORSDOF 2
ENDMDL
MODEL       72
REMARK 921   NORMALIZED FREE ENERGY PREDICTED BY IDOCK:   -3.50 KCAL/MOL
REMARK 922        TOTAL FREE ENERGY PREDICTED BY IDOCK:   -4.14 KCAL/MOL
REMARK 923 INTER-LIGAND FREE ENERGY PREDICTED BY IDOCK:   -3.92 KCAL/MOL
REMARK 924 INTRA-LIGAND FREE ENERGY PREDICTED BY IDOCK:   -0.23 KCAL/MOL
REMARK 927      BINDING AFFINITY PREDICTED BY RF-SCORE:    0.00 PKD
ROOT
HETATM    1  O   UNL     1     -11.584   4.586  65.201  1.00  0.00    -1.102 OA 
HETATM    2  H   UNL     1     -12.048   4.167  65.916  1.00  0.00     0.000 HD 
HETATM    3 SI   UNL     1     -10.120   4.392  65.292  1.00  0.00    -0.146 Si 
HETATM    4  C   UNL     1      -9.684   4.506  69.162  1.00  0.00    -0.179 C  
HETATM    5  O   UNL     1      -9.519   5.478  68.133  1.00  0.00    -0.109 OA 
HETATM    6  O   UNL     1      -9.402   5.041  64.185  1.00  0.00    -0.358 OA 
HETATM    7  H   UNL     1      -8.462   4.917  64.244  1.00  0.00     0.000 HD 
ENDROOT
BRANCH   5   8
HETATM    8 SI   UNL     1      -9.927   7.078  68.472  1.00  0.00    -0.141 Si 
HETATM    9  C   UNL     1     -10.361   7.951  66.873  1.00  0.00    -0.330 C  
HETATM   10  C   UNL     1      -8.479   7.928  69.307  1.00  0.00    -0.137 C  
BRANCH   8  11
HETATM   11  O   UNL     1     -11.246   7.083  69.506  1.00  0.00    -0.220 OA 
HETATM   12 SI   UNL     1     -11.586   7.487  71.104  1.00  0.00    -0.248 Si 
HETATM   13  C   UNL     1     -10.569   6.455  72.312  1.00  0.00    -0.214 C  
HETATM   14  C   UNL     1     -13.398   7.225  71.532  1.00  0.00    -0.369 C  
HETATM   15  C   UNL     1     -11.169   9.297  71.428  1.00  0.00    -0.362 C  
ENDBRANCH   8  11
ENDBRANCH   5   8
TORSDOF 2
ENDMDL
MODEL       73
REMARK 921   NORMALIZED FREE ENERGY PREDICTED BY IDOCK:   -3.50 KCAL/MOL
REMARK 922        TOTAL FREE ENERGY PREDICTED BY IDOCK:   -4.14 KCAL/MOL
REMARK 923 INTER-LIGAND FREE ENERGY PREDICTED BY IDOCK:   -4.00 KCAL/MOL
REMARK 924 INTRA-LIGAND FREE ENERGY PREDICTED BY IDOCK:   -0.15 KCAL/MOL
REMARK 927      BINDING AFFINITY PREDICTED BY RF-SCORE:    0.00 PKD
ROOT
HETATM    1  O   UNL     1     -12.502  10.531  69.148  1.00  0.00    -0.750 OA 
HETATM    2  H   UNL     1     -13.340  10.978  69.162  1.00  0.00     0.000 HD 
HETATM    3 SI   UNL     1     -11.602  10.989  70.229  1.00  0.00    -0.212 Si 
HETATM    4  C   UNL     1     -12.595  14.755  70.355  1.00  0.00    -0.346 C  
HETATM    5  O   UNL     1     -11.528  14.049  69.729  1.00  0.00    -0.258 OA 
HETATM    6  O   UNL     1     -10.305  10.298  70.206  1.00  0.00    -0.413 OA 
HETATM    7  H   UNL     1      -9.727  10.593  70.900  1.00  0.00     0.000 HD 
ENDROOT
BRANCH   5   8
HETATM    8 SI   UNL     1     -10.979  14.593  68.231  1.00  0.00    -0.221 Si 
HETATM    9  C   UNL     1     -12.233  14.137  66.918  1.00  0.00    -0.365 C  
HETATM   10  C   UNL     1      -9.320  13.805  67.850  1.00  0.00    -0.211 C  
BRANCH   8  11
HETATM   11  O   UNL     1     -10.800  16.258  68.303  1.00  0.00    -0.310 OA 
HETATM   12 SI   UNL     1      -9.727  17.429  67.748  1.00  0.00    -0.236 Si 
HETATM   13  C   UNL     1      -7.988  17.155  68.427  1.00  0.00    -0.250 C  
HETATM   14  C   UNL     1     -10.253  19.165  68.243  1.00  0.00    -0.401 C  
HETATM   15  C   UNL     1      -9.607  17.374  65.867  1.00  0.00    -0.025 C  
ENDBRANCH   8  11
ENDBRANCH   5   8
TORSDOF 2
ENDMDL
MODEL       74
REMARK 921   NORMALIZED FREE ENERGY PREDICTED BY IDOCK:   -3.49 KCAL/MOL
REMARK 922        TOTAL FREE ENERGY PREDICTED BY IDOCK:   -4.13 KCAL/MOL
REMARK 923 INTER-LIGAND FREE ENERGY PREDICTED BY IDOCK:   -3.95 KCAL/MOL
REMARK 924 INTRA-LIGAND FREE ENERGY PREDICTED BY IDOCK:   -0.18 KCAL/MOL
REMARK 927      BINDING AFFINITY PREDICTED BY RF-SCORE:    0.00 PKD
ROOT
HETATM    1  O   UNL     1     -12.022  16.107  63.581  1.00  0.00    -1.375 OA 
HETATM    2  H   UNL     1     -12.177  15.578  62.807  1.00  0.00     0.000 HD 
HETATM    3 SI   UNL     1     -10.633  15.984  64.076  1.00  0.00    -0.568 Si 
HETATM    4  C   UNL     1      -9.977  12.232  63.256  1.00  0.00    -0.039 C  
HETATM    5  O   UNL     1     -10.368  12.916  64.443  1.00  0.00    -0.370 OA 
HETATM    6  O   UNL     1     -10.392  16.802  65.273  1.00  0.00    -0.622 OA 
HETATM    7  H   UNL     1      -9.501  16.722  65.590  1.00  0.00     0.000 HD 
ENDROOT
BRANCH   5   8
HETATM    8 SI   UNL     1     -11.441  12.149  65.492  1.00  0.00    -0.280 Si 
HETATM    9  C   UNL     1     -10.650  10.579  66.136  1.00  0.00    -0.112 C  
HETATM   10  C   UNL     1     -13.030  11.751  64.578  1.00  0.00     0.711 C  
BRANCH   8  11
HETATM   11  O   UNL     1     -11.776  13.187  66.763  1.00  0.00    -0.346 OA 
HETATM   12 SI   UNL     1     -11.238  13.464  68.334  1.00  0.00    -0.216 Si 
HETATM   13  C   UNL     1     -11.486  11.948  69.429  1.00  0.00    -0.302 C  
HETATM   14  C   UNL     1     -12.138  14.898  69.150  1.00  0.00    -0.231 C  
HETATM   15  C   UNL     1      -9.394  13.858  68.336  1.00  0.00    -0.201 C  
ENDBRANCH   8  11
ENDBRANCH   5   8
TORSDOF 2
ENDMDL
MODEL       75
REMARK 921   NORMALIZED FREE ENERGY PREDICTED BY IDOCK:   -3.49 KCAL/MOL
REMARK 922        TOTAL FREE ENERGY PREDICTED BY IDOCK:   -4.13 KCAL/MOL
REMARK 923 INTER-LIGAND FREE ENERGY PREDICTED BY IDOCK:   -3.94 KCAL/MOL
REMARK 924 INTRA-LIGAND FREE ENERGY PREDICTED BY IDOCK:   -0.19 KCAL/MOL
REMARK 927      BINDING AFFINITY PREDICTED BY RF-SCORE:    0.00 PKD
ROOT
HETATM    1  O   UNL     1     -13.066  14.640  69.935  1.00  0.00    -0.531 OA 
HETATM    2  H   UNL     1     -13.718  14.084  69.525  1.00  0.00     0.000 HD 
HETATM    3 SI   UNL     1     -12.613  15.727  69.039  1.00  0.00    -0.484 Si 
HETATM    4  C   UNL     1     -12.730  13.854  65.625  1.00  0.00    -0.495 C  
HETATM    5  O   UNL     1     -11.680  14.138  66.545  1.00  0.00    -0.361 OA 
HETATM    6  O   UNL     1     -11.603  16.588  69.673  1.00  0.00    -0.286 OA 
HETATM    7  H   UNL     1     -11.312  17.285  69.098  1.00  0.00     0.000 HD 
ENDROOT
BRANCH   5   8
HETATM    8 SI   UNL     1     -10.463  12.990  66.748  1.00  0.00    -0.239 Si 
HETATM    9  C   UNL     1      -8.834  13.869  67.030  1.00  0.00    -0.218 C  
HETATM   10  C   UNL     1     -10.364  11.908  65.219  1.00  0.00    -0.276 C  
BRANCH   8  11
HETATM   11  O   UNL     1     -10.842  12.041  68.076  1.00  0.00    -0.199 OA 
HETATM   12 SI   UNL     1     -10.333  10.595  68.772  1.00  0.00    -0.151 Si 
HETATM   13  C   UNL     1     -10.560   9.140  67.593  1.00  0.00    -0.242 C  
HETATM   14  C   UNL     1     -11.279  10.194  70.346  1.00  0.00    -0.330 C  
HETATM   15  C   UNL     1      -8.499  10.683  69.202  1.00  0.00    -0.128 C  
ENDBRANCH   8  11
ENDBRANCH   5   8
TORSDOF 2
ENDMDL
MODEL       76
REMARK 921   NORMALIZED FREE ENERGY PREDICTED BY IDOCK:   -3.48 KCAL/MOL
REMARK 922        TOTAL FREE ENERGY PREDICTED BY IDOCK:   -4.13 KCAL/MOL
REMARK 923 INTER-LIGAND FREE ENERGY PREDICTED BY IDOCK:   -3.95 KCAL/MOL
REMARK 924 INTRA-LIGAND FREE ENERGY PREDICTED BY IDOCK:   -0.18 KCAL/MOL
REMARK 927      BINDING AFFINITY PREDICTED BY RF-SCORE:    0.00 PKD
ROOT
HETATM    1  O   UNL     1     -12.220  13.536  63.287  1.00  0.00    -0.880 OA 
HETATM    2  H   UNL     1     -11.935  14.230  63.870  1.00  0.00     0.000 HD 
HETATM    3 SI   UNL     1     -13.214  12.642  63.922  1.00  0.00    -0.594 Si 
HETATM    4  C   UNL     1     -11.859  12.647  67.575  1.00  0.00    -0.334 C  
HETATM    5  O   UNL     1     -11.708  11.747  66.481  1.00  0.00    -0.530 OA 
HETATM    6  O   UNL     1     -13.653  11.567  63.020  1.00  0.00    -0.140 OA 
HETATM    7  H   UNL     1     -14.290  10.994  63.428  1.00  0.00     0.000 HD 
ENDROOT
BRANCH   5   8
HETATM    8 SI   UNL     1     -10.232  10.955  66.295  1.00  0.00    -0.193 Si 
HETATM    9  C   UNL     1     -10.009  10.491  64.495  1.00  0.00    -0.345 C  
HETATM   10  C   UNL     1     -10.206   9.421  67.373  1.00  0.00    -0.239 C  
BRANCH   8  11
HETATM   11  O   UNL     1      -9.007  11.992  66.776  1.00  0.00    -0.189 OA 
HETATM   12 SI   UNL     1      -7.442  11.889  67.387  1.00  0.00    -0.093 Si 
HETATM   13  C   UNL     1      -7.401  10.979  69.039  1.00  0.00    -0.123 C  
HETATM   14  C   UNL     1      -6.674  13.582  67.662  1.00  0.00    -0.167 C  
HETATM   15  C   UNL     1      -6.334  10.934  66.197  1.00  0.00    -0.123 C  
ENDBRANCH   8  11
ENDBRANCH   5   8
TORSDOF 2
ENDMDL
MODEL       77
REMARK 921   NORMALIZED FREE ENERGY PREDICTED BY IDOCK:   -3.48 KCAL/MOL
REMARK 922        TOTAL FREE ENERGY PREDICTED BY IDOCK:   -4.12 KCAL/MOL
REMARK 923 INTER-LIGAND FREE ENERGY PREDICTED BY IDOCK:   -3.92 KCAL/MOL
REMARK 924 INTRA-LIGAND FREE ENERGY PREDICTED BY IDOCK:   -0.21 KCAL/MOL
REMARK 927      BINDING AFFINITY PREDICTED BY RF-SCORE:    0.00 PKD
ROOT
HETATM    1  O   UNL     1      -8.512  11.628  62.457  1.00  0.00    -0.639 OA 
HETATM    2  H   UNL     1      -8.683  12.530  62.212  1.00  0.00     0.000 HD 
HETATM    3 SI   UNL     1      -9.758  10.854  62.656  1.00  0.00    -0.227 Si 
HETATM    4  C   UNL     1     -12.017  13.633  64.189  1.00  0.00    -0.443 C  
HETATM    5  O   UNL     1     -11.242  12.583  64.759  1.00  0.00    -0.289 OA 
HETATM    6  O   UNL     1      -9.493   9.459  63.036  1.00  0.00    -0.517 OA 
HETATM    7  H   UNL     1     -10.292   8.962  63.163  1.00  0.00     0.000 HD 
ENDROOT
BRANCH   5   8
HETATM    8 SI   UNL     1     -10.477  12.865  66.234  1.00  0.00    -0.246 Si 
HETATM    9  C   UNL     1     -11.716  12.635  67.619  1.00  0.00    -0.361 C  
HETATM   10  C   UNL     1      -9.788  14.609  66.258  1.00  0.00    -0.300 C  
BRANCH   8  11
HETATM   11  O   UNL     1      -9.220  11.769  66.400  1.00  0.00    -0.209 OA 
HETATM   12 SI   UNL     1      -8.944  10.275  67.124  1.00  0.00    -0.128 Si 
HETATM   13  C   UNL     1      -9.200  10.352  68.992  1.00  0.00    -0.187 C  
HETATM   14  C   UNL     1      -7.195   9.653  66.825  1.00  0.00    -0.090 C  
HETATM   15  C   UNL     1     -10.143   8.986  66.450  1.00  0.00    -0.281 C  
ENDBRANCH   8  11
ENDBRANCH   5   8
TORSDOF 2
ENDMDL
MODEL       78
REMARK 921   NORMALIZED FREE ENERGY PREDICTED BY IDOCK:   -3.48 KCAL/MOL
REMARK 922        TOTAL FREE ENERGY PREDICTED BY IDOCK:   -4.12 KCAL/MOL
REMARK 923 INTER-LIGAND FREE ENERGY PREDICTED BY IDOCK:   -3.88 KCAL/MOL
REMARK 924 INTRA-LIGAND FREE ENERGY PREDICTED BY IDOCK:   -0.24 KCAL/MOL
REMARK 927      BINDING AFFINITY PREDICTED BY RF-SCORE:    0.00 PKD
ROOT
HETATM    1  O   UNL     1     -10.973  14.766  70.979  1.00  0.00    -0.533 OA 
HETATM    2  H   UNL     1     -10.065  15.044  70.964  1.00  0.00     0.000 HD 
HETATM    3 SI   UNL     1     -11.119  13.314  70.729  1.00  0.00    -0.492 Si 
HETATM    4  C   UNL     1      -8.229  12.797  68.168  1.00  0.00    -0.167 C  
HETATM    5  O   UNL     1      -9.634  12.990  68.027  1.00  0.00    -0.211 OA 
HETATM    6  O   UNL     1     -12.524  12.883  70.752  1.00  0.00    -0.349 OA 
HETATM    7  H   UNL     1     -12.617  11.952  70.592  1.00  0.00     0.000 HD 
ENDROOT
BRANCH   5   8
HETATM    8 SI   UNL     1     -10.190  13.877  66.706  1.00  0.00    -0.240 Si 
HETATM    9  C   UNL     1     -11.971  14.370  67.007  1.00  0.00    -0.395 C  
HETATM   10  C   UNL     1     -10.055  12.835  65.153  1.00  0.00    -0.227 C  
BRANCH   8  11
HETATM   11  O   UNL     1      -9.235  15.244  66.543  1.00  0.00    -0.248 OA 
HETATM   12 SI   UNL     1      -8.939  16.676  67.376  1.00  0.00    -0.183 Si 
HETATM   13  C   UNL     1     -10.503  17.718  67.542  1.00  0.00    -0.372 C  
HETATM   14  C   UNL     1      -7.646  17.740  66.522  1.00  0.00    -0.256 C  
HETATM   15  C   UNL     1      -8.327  16.306  69.121  1.00  0.00    -0.211 C  
ENDBRANCH   8  11
ENDBRANCH   5   8
TORSDOF 2
ENDMDL
MODEL       79
REMARK 921   NORMALIZED FREE ENERGY PREDICTED BY IDOCK:   -3.48 KCAL/MOL
REMARK 922        TOTAL FREE ENERGY PREDICTED BY IDOCK:   -4.12 KCAL/MOL
REMARK 923 INTER-LIGAND FREE ENERGY PREDICTED BY IDOCK:   -3.94 KCAL/MOL
REMARK 924 INTRA-LIGAND FREE ENERGY PREDICTED BY IDOCK:   -0.18 KCAL/MOL
REMARK 927      BINDING AFFINITY PREDICTED BY RF-SCORE:    0.00 PKD
ROOT
HETATM    1  O   UNL     1     -10.984   9.517  70.811  1.00  0.00    -0.267 OA 
HETATM    2  H   UNL     1     -10.166   9.404  70.342  1.00  0.00     0.000 HD 
HETATM    3 SI   UNL     1     -12.164   9.331  69.937  1.00  0.00    -0.452 Si 
HETATM    4  C   UNL     1     -10.774  10.850  66.630  1.00  0.00    -0.230 C  
HETATM    5  O   UNL     1     -11.595  11.370  67.672  1.00  0.00    -0.474 OA 
HETATM    6  O   UNL     1     -13.429   9.506  70.663  1.00  0.00    -0.583 OA 
HETATM    7  H   UNL     1     -14.186   9.386  70.103  1.00  0.00     0.000 HD 
ENDROOT
BRANCH   5   8
HETATM    8 SI   UNL     1     -11.421  12.992  68.093  1.00  0.00    -0.220 Si 
HETATM    9  C   UNL     1     -12.053  13.244  69.837  1.00  0.00    -0.308 C  
HETATM   10  C   UNL     1     -12.387  14.057  66.888  1.00  0.00    -0.286 C  
BRANCH   8  11
HETATM   11  O   UNL     1      -9.795  13.393  68.007  1.00  0.00    -0.216 OA 
HETATM   12 SI   UNL     1      -8.852  14.771  67.802  1.00  0.00    -0.152 Si 
HETATM   13  C   UNL     1      -9.206  15.615  66.152  1.00  0.00    -0.343 C  
HETATM   14  C   UNL     1      -7.012  14.385  67.848  1.00  0.00    -0.163 C  
HETATM   15  C   UNL     1      -9.216  16.026  69.161  1.00  0.00    -0.247 C  
ENDBRANCH   8  11
ENDBRANCH   5   8
TORSDOF 2
ENDMDL
MODEL       80
REMARK 921   NORMALIZED FREE ENERGY PREDICTED BY IDOCK:   -3.47 KCAL/MOL
REMARK 922        TOTAL FREE ENERGY PREDICTED BY IDOCK:   -4.12 KCAL/MOL
REMARK 923 INTER-LIGAND FREE ENERGY PREDICTED BY IDOCK:   -3.91 KCAL/MOL
REMARK 924 INTRA-LIGAND FREE ENERGY PREDICTED BY IDOCK:   -0.20 KCAL/MOL
REMARK 927      BINDING AFFINITY PREDICTED BY RF-SCORE:    0.00 PKD
ROOT
HETATM    1  O   UNL     1     -12.474  11.398  70.532  1.00  0.00    -0.318 OA 
HETATM    2  H   UNL     1     -12.955  11.246  71.337  1.00  0.00     0.000 HD 
HETATM    3 SI   UNL     1     -12.811  10.413  69.481  1.00  0.00    -0.475 Si 
HETATM    4  C   UNL     1     -13.339   7.250  71.694  1.00  0.00    -0.358 C  
HETATM    5  O   UNL     1     -12.239   7.731  70.928  1.00  0.00    -0.257 OA 
HETATM    6  O   UNL     1     -12.066  10.648  68.236  1.00  0.00    -0.817 OA 
HETATM    7  H   UNL     1     -12.283  10.016  67.561  1.00  0.00     0.000 HD 
ENDROOT
BRANCH   5   8
HETATM    8 SI   UNL     1     -10.680   7.464  71.512  1.00  0.00    -0.213 Si 
HETATM    9  C   UNL     1     -10.784   6.888  73.291  1.00  0.00    -0.320 C  
HETATM   10  C   UNL     1      -9.690   9.052  71.398  1.00  0.00    -0.299 C  
BRANCH   8  11
HETATM   11  O   UNL     1      -9.952   6.286  70.568  1.00  0.00    -0.181 OA 
HETATM   12 SI   UNL     1      -9.465   6.082  68.970  1.00  0.00    -0.122 Si 
HETATM   13  C   UNL     1     -10.921   6.220  67.778  1.00  0.00    -0.332 C  
HETATM   14  C   UNL     1      -8.662   4.407  68.681  1.00  0.00    -0.095 C  
HETATM   15  C   UNL     1      -8.221   7.414  68.487  1.00  0.00    -0.125 C  
ENDBRANCH   8  11
ENDBRANCH   5   8
TORSDOF 2
ENDMDL
MODEL       81
REMARK 921   NORMALIZED FREE ENERGY PREDICTED BY IDOCK:   -3.47 KCAL/MOL
REMARK 922        TOTAL FREE ENERGY PREDICTED BY IDOCK:   -4.11 KCAL/MOL
REMARK 923 INTER-LIGAND FREE ENERGY PREDICTED BY IDOCK:   -3.90 KCAL/MOL
REMARK 924 INTRA-LIGAND FREE ENERGY PREDICTED BY IDOCK:   -0.21 KCAL/MOL
REMARK 927      BINDING AFFINITY PREDICTED BY RF-SCORE:    0.00 PKD
ROOT
HETATM    1  O   UNL     1     -11.499  12.847  69.994  1.00  0.00    -0.506 OA 
HETATM    2  H   UNL     1     -10.875  13.296  70.552  1.00  0.00     0.000 HD 
HETATM    3 SI   UNL     1     -10.837  12.054  68.934  1.00  0.00    -0.180 Si 
HETATM    4  C   UNL     1      -7.799  14.375  68.182  1.00  0.00    -0.138 C  
HETATM    5  O   UNL     1      -9.068  14.198  67.559  1.00  0.00    -0.180 OA 
HETATM    6  O   UNL     1     -11.803  11.360  68.070  1.00  0.00    -0.570 OA 
HETATM    7  H   UNL     1     -11.378  10.851  67.391  1.00  0.00     0.000 HD 
ENDROOT
BRANCH   5   8
HETATM    8 SI   UNL     1      -9.831  15.548  66.899  1.00  0.00    -0.216 Si 
HETATM    9  C   UNL     1     -10.818  16.408  68.237  1.00  0.00    -0.347 C  
HETATM   10  C   UNL     1     -10.958  15.008  65.501  1.00  0.00    -0.358 C  
BRANCH   8  11
HETATM   11  O   UNL     1      -8.656  16.581  66.297  1.00  0.00    -0.288 OA 
HETATM   12 SI   UNL     1      -8.056  18.121  66.616  1.00  0.00    -0.203 Si 
HETATM   13  C   UNL     1      -9.393  19.439  66.431  1.00  0.00    -0.368 C  
HETATM   14  C   UNL     1      -6.648  18.586  65.461  1.00  0.00    -0.264 C  
HETATM   15  C   UNL     1      -7.413  18.222  68.386  1.00  0.00    -0.281 C  
ENDBRANCH   8  11
ENDBRANCH   5   8
TORSDOF 2
ENDMDL
MODEL       82
REMARK 921   NORMALIZED FREE ENERGY PREDICTED BY IDOCK:   -3.46 KCAL/MOL
REMARK 922        TOTAL FREE ENERGY PREDICTED BY IDOCK:   -4.10 KCAL/MOL
REMARK 923 INTER-LIGAND FREE ENERGY PREDICTED BY IDOCK:   -3.85 KCAL/MOL
REMARK 924 INTRA-LIGAND FREE ENERGY PREDICTED BY IDOCK:   -0.26 KCAL/MOL
REMARK 927      BINDING AFFINITY PREDICTED BY RF-SCORE:    0.00 PKD
ROOT
HETATM    1  O   UNL     1      -9.416   7.431  66.183  1.00  0.00    -0.353 OA 
HETATM    2  H   UNL     1      -8.932   8.158  65.809  1.00  0.00     0.000 HD 
HETATM    3 SI   UNL     1     -10.879   7.598  66.040  1.00  0.00    -0.467 Si 
HETATM    4  C   UNL     1     -11.143  11.461  66.475  1.00  0.00    -0.251 C  
HETATM    5  O   UNL     1     -11.328  10.365  67.366  1.00  0.00    -0.355 OA 
HETATM    6  O   UNL     1     -11.628   6.474  66.619  1.00  0.00    -0.678 OA 
HETATM    7  H   UNL     1     -12.567   6.581  66.527  1.00  0.00     0.000 HD 
ENDROOT
BRANCH   5   8
HETATM    8 SI   UNL     1     -10.864  10.556  68.975  1.00  0.00    -0.166 Si 
HETATM    9  C   UNL     1     -11.543  12.178  69.619  1.00  0.00    -0.291 C  
HETATM   10  C   UNL     1      -8.993  10.539  69.092  1.00  0.00    -0.161 C  
BRANCH   8  11
HETATM   11  O   UNL     1     -11.488   9.279  69.864  1.00  0.00    -0.133 OA 
HETATM   12 SI   UNL     1     -10.919   8.044  70.855  1.00  0.00    -0.219 Si 
HETATM   13  C   UNL     1      -9.739   6.899  69.929  1.00  0.00    -0.162 C  
HETATM   14  C   UNL     1     -12.312   6.980  71.534  1.00  0.00    -0.379 C  
HETATM   15  C   UNL     1      -9.968   8.760  72.318  1.00  0.00    -0.232 C  
ENDBRANCH   8  11
ENDBRANCH   5   8
TORSDOF 2
ENDMDL
MODEL       83
REMARK 921   NORMALIZED FREE ENERGY PREDICTED BY IDOCK:   -3.46 KCAL/MOL
REMARK 922        TOTAL FREE ENERGY PREDICTED BY IDOCK:   -4.10 KCAL/MOL
REMARK 923 INTER-LIGAND FREE ENERGY PREDICTED BY IDOCK:   -3.89 KCAL/MOL
REMARK 924 INTRA-LIGAND FREE ENERGY PREDICTED BY IDOCK:   -0.21 KCAL/MOL
REMARK 927      BINDING AFFINITY PREDICTED BY RF-SCORE:    0.00 PKD
ROOT
HETATM    1  O   UNL     1     -11.493  11.977  70.321  1.00  0.00    -0.515 OA 
HETATM    2  H   UNL     1     -11.720  12.052  71.240  1.00  0.00     0.000 HD 
HETATM    3 SI   UNL     1     -12.551  11.304  69.534  1.00  0.00    -0.276 Si 
HETATM    4  C   UNL     1     -13.790   8.724  72.178  1.00  0.00    -0.457 C  
HETATM    5  O   UNL     1     -12.883   8.638  71.082  1.00  0.00    -0.228 OA 
HETATM    6  O   UNL     1     -12.200  11.187  68.112  1.00  0.00    -0.708 OA 
HETATM    7  H   UNL     1     -12.879  10.756  67.607  1.00  0.00     0.000 HD 
ENDROOT
BRANCH   5   8
HETATM    8 SI   UNL     1     -11.535   7.639  71.237  1.00  0.00    -0.245 Si 
HETATM    9  C   UNL     1     -11.942   6.239  72.411  1.00  0.00    -0.188 C  
HETATM   10  C   UNL     1     -10.089   8.639  71.889  1.00  0.00    -0.328 C  
BRANCH   8  11
HETATM   11  O   UNL     1     -11.149   7.027  69.725  1.00  0.00    -0.260 OA 
HETATM   12 SI   UNL     1      -9.949   6.078  69.024  1.00  0.00    -0.131 Si 
HETATM   13  C   UNL     1      -8.246   6.868  69.203  1.00  0.00    -0.121 C  
HETATM   14  C   UNL     1     -10.247   5.799  67.188  1.00  0.00    -0.207 C  
HETATM   15  C   UNL     1      -9.872   4.390  69.862  1.00  0.00    -0.220 C  
ENDBRANCH   8  11
ENDBRANCH   5   8
TORSDOF 2
ENDMDL
MODEL       84
REMARK 921   NORMALIZED FREE ENERGY PREDICTED BY IDOCK:   -3.46 KCAL/MOL
REMARK 922        TOTAL FREE ENERGY PREDICTED BY IDOCK:   -4.10 KCAL/MOL
REMARK 923 INTER-LIGAND FREE ENERGY PREDICTED BY IDOCK:   -3.91 KCAL/MOL
REMARK 924 INTRA-LIGAND FREE ENERGY PREDICTED BY IDOCK:   -0.19 KCAL/MOL
REMARK 927      BINDING AFFINITY PREDICTED BY RF-SCORE:    0.00 PKD
ROOT
HETATM    1  O   UNL     1      -9.124  12.033  65.282  1.00  0.00    -0.421 OA 
HETATM    2  H   UNL     1      -8.829  12.613  64.589  1.00  0.00     0.000 HD 
HETATM    3 SI   UNL     1     -10.588  12.105  65.489  1.00  0.00    -0.241 Si 
HETATM    4  C   UNL     1     -11.165  15.892  64.779  1.00  0.00    -0.355 C  
HETATM    5  O   UNL     1     -11.004  15.138  65.978  1.00  0.00    -0.331 OA 
HETATM    6  O   UNL     1     -11.044  11.208  66.561  1.00  0.00    -0.263 OA 
HETATM    7  H   UNL     1     -11.983  11.254  66.694  1.00  0.00     0.000 HD 
ENDROOT
BRANCH   5   8
HETATM    8 SI   UNL     1     -10.187  15.852  67.268  1.00  0.00    -0.239 Si 
HETATM    9  C   UNL     1      -8.818  14.708  67.833  1.00  0.00    -0.170 C  
HETATM   10  C   UNL     1     -11.392  16.171  68.670  1.00  0.00    -0.365 C  
BRANCH   8  11
HETATM   11  O   UNL     1      -9.542  17.309  66.749  1.00  0.00    -0.252 OA 
HETATM   12 SI   UNL     1      -8.752  18.639  67.412  1.00  0.00    -0.249 Si 
HETATM   13  C   UNL     1      -9.817  19.505  68.706  1.00  0.00    -0.451 C  
HETATM   14  C   UNL     1      -8.302  19.918  66.110  1.00  0.00    -0.317 C  
HETATM   15  C   UNL     1      -7.161  18.098  68.269  1.00  0.00    -0.254 C  
ENDBRANCH   8  11
ENDBRANCH   5   8
TORSDOF 2
ENDMDL
MODEL       85
REMARK 921   NORMALIZED FREE ENERGY PREDICTED BY IDOCK:   -3.45 KCAL/MOL
REMARK 922        TOTAL FREE ENERGY PREDICTED BY IDOCK:   -4.09 KCAL/MOL
REMARK 923 INTER-LIGAND FREE ENERGY PREDICTED BY IDOCK:   -3.83 KCAL/MOL
REMARK 924 INTRA-LIGAND FREE ENERGY PREDICTED BY IDOCK:   -0.26 KCAL/MOL
REMARK 927      BINDING AFFINITY PREDICTED BY RF-SCORE:    0.00 PKD
ROOT
HETATM    1  O   UNL     1     -12.507  10.781  69.158  1.00  0.00    -0.724 OA 
HETATM    2  H   UNL     1     -13.218  11.410  69.166  1.00  0.00     0.000 HD 
HETATM    3 SI   UNL     1     -11.263  11.331  69.741  1.00  0.00    -0.199 Si 
HETATM    4  C   UNL     1     -11.550  15.023  68.528  1.00  0.00    -0.326 C  
HETATM    5  O   UNL     1     -10.847  13.886  68.033  1.00  0.00    -0.239 OA 
HETATM    6  O   UNL     1     -10.162  10.357  69.727  1.00  0.00    -0.307 OA 
HETATM    7  H   UNL     1      -9.364  10.711  70.101  1.00  0.00     0.000 HD 
ENDROOT
BRANCH   5   8
HETATM    8 SI   UNL     1     -10.691  13.706  66.365  1.00  0.00    -0.265 Si 
HETATM    9  C   UNL     1     -10.229  15.357  65.612  1.00  0.00    -0.376 C  
HETATM   10  C   UNL     1     -12.311  13.092  65.648  1.00  0.00    -0.461 C  
BRANCH   8  11
HETATM   11  O   UNL     1      -9.487  12.580  66.061  1.00  0.00    -0.231 OA 
HETATM   12 SI   UNL     1      -9.320  11.105  65.269  1.00  0.00    -0.181 Si 
HETATM   13  C   UNL     1     -10.448   9.787  66.012  1.00  0.00    -0.006 C  
HETATM   14  C   UNL     1      -7.561  10.448  65.355  1.00  0.00    -0.131 C  
HETATM   15  C   UNL     1      -9.788  11.278  63.450  1.00  0.00    -0.385 C  
ENDBRANCH   8  11
ENDBRANCH   5   8
TORSDOF 2
ENDMDL
MODEL       86
REMARK 921   NORMALIZED FREE ENERGY PREDICTED BY IDOCK:   -3.44 KCAL/MOL
REMARK 922        TOTAL FREE ENERGY PREDICTED BY IDOCK:   -4.08 KCAL/MOL
REMARK 923 INTER-LIGAND FREE ENERGY PREDICTED BY IDOCK:   -3.82 KCAL/MOL
REMARK 924 INTRA-LIGAND FREE ENERGY PREDICTED BY IDOCK:   -0.26 KCAL/MOL
REMARK 927      BINDING AFFINITY PREDICTED BY RF-SCORE:    0.00 PKD
ROOT
HETATM    1  O   UNL     1     -11.156   8.468  68.642  1.00  0.00    -0.429 OA 
HETATM    2  H   UNL     1     -10.797   7.938  67.940  1.00  0.00     0.000 HD 
HETATM    3 SI   UNL     1     -11.988   9.583  68.135  1.00  0.00    -0.508 Si 
HETATM    4  C   UNL     1     -10.002  10.463  64.901  1.00  0.00    -0.339 C  
HETATM    5  O   UNL     1     -10.017  11.013  66.216  1.00  0.00    -0.210 OA 
HETATM    6  O   UNL     1     -12.543  10.403  69.221  1.00  0.00    -0.686 OA 
HETATM    7  H   UNL     1     -13.077  11.118  68.896  1.00  0.00     0.000 HD 
ENDROOT
BRANCH   5   8
HETATM    8 SI   UNL     1      -8.571  11.596  66.856  1.00  0.00    -0.133 Si 
HETATM    9  C   UNL     1      -7.137  10.768  65.982  1.00  0.00    -0.102 C  
HETATM   10  C   UNL     1      -8.511  11.234  68.695  1.00  0.00    -0.143 C  
BRANCH   8  11
HETATM   11  O   UNL     1      -8.512  13.253  66.614  1.00  0.00    -0.038 OA 
HETATM   12 SI   UNL     1      -9.588  14.534  66.427  1.00  0.00    -0.217 Si 
HETATM   13  C   UNL     1     -10.695  14.295  64.918  1.00  0.00    -0.432 C  
HETATM   14  C   UNL     1      -8.704  16.179  66.217  1.00  0.00    -0.337 C  
HETATM   15  C   UNL     1     -10.717  14.669  67.932  1.00  0.00    -0.250 C  
ENDBRANCH   8  11
ENDBRANCH   5   8
TORSDOF 2
ENDMDL
MODEL       87
REMARK 921   NORMALIZED FREE ENERGY PREDICTED BY IDOCK:   -3.44 KCAL/MOL
REMARK 922        TOTAL FREE ENERGY PREDICTED BY IDOCK:   -4.08 KCAL/MOL
REMARK 923 INTER-LIGAND FREE ENERGY PREDICTED BY IDOCK:   -3.84 KCAL/MOL
REMARK 924 INTRA-LIGAND FREE ENERGY PREDICTED BY IDOCK:   -0.24 KCAL/MOL
REMARK 927      BINDING AFFINITY PREDICTED BY RF-SCORE:    0.00 PKD
ROOT
HETATM    1  O   UNL     1     -12.439  15.019  68.676  1.00  0.00    -0.578 OA 
HETATM    2  H   UNL     1     -13.224  15.197  68.173  1.00  0.00     0.000 HD 
HETATM    3 SI   UNL     1     -11.216  15.509  68.001  1.00  0.00    -0.252 Si 
HETATM    4  C   UNL     1     -12.199  14.829  64.293  1.00  0.00    -0.379 C  
HETATM    5  O   UNL     1     -11.418  14.109  65.242  1.00  0.00    -0.311 OA 
HETATM    6  O   UNL     1     -10.000  15.233  68.780  1.00  0.00    -0.201 OA 
HETATM    7  H   UNL     1      -9.216  15.548  68.347  1.00  0.00     0.000 HD 
ENDROOT
BRANCH   5   8
HETATM    8 SI   UNL     1     -11.477  12.425  65.212  1.00  0.00    -0.280 Si 
HETATM    9  C   UNL     1      -9.822  11.765  64.636  1.00  0.00    -0.203 C  
HETATM   10  C   UNL     1     -12.841  11.868  64.051  1.00  0.00    -0.171 C  
BRANCH   8  11
HETATM   11  O   UNL     1     -11.807  11.876  66.761  1.00  0.00    -0.598 OA 
HETATM   12 SI   UNL     1     -11.044  10.981  67.965  1.00  0.00    -0.177 Si 
HETATM   13  C   UNL     1     -10.623   9.240  67.374  1.00  0.00    -0.255 C  
HETATM   14  C   UNL     1     -12.110  10.808  69.503  1.00  0.00    -0.272 C  
HETATM   15  C   UNL     1      -9.425  11.806  68.470  1.00  0.00    -0.163 C  
ENDBRANCH   8  11
ENDBRANCH   5   8
TORSDOF 2
ENDMDL
MODEL       88
REMARK 921   NORMALIZED FREE ENERGY PREDICTED BY IDOCK:   -3.44 KCAL/MOL
REMARK 922        TOTAL FREE ENERGY PREDICTED BY IDOCK:   -4.07 KCAL/MOL
REMARK 923 INTER-LIGAND FREE ENERGY PREDICTED BY IDOCK:   -3.88 KCAL/MOL
REMARK 924 INTRA-LIGAND FREE ENERGY PREDICTED BY IDOCK:   -0.19 KCAL/MOL
REMARK 927      BINDING AFFINITY PREDICTED BY RF-SCORE:    0.00 PKD
ROOT
HETATM    1  O   UNL     1      -9.234  11.471  63.910  1.00  0.00    -0.423 OA 
HETATM    2  H   UNL     1      -9.448  12.279  63.458  1.00  0.00     0.000 HD 
HETATM    3 SI   UNL     1     -10.438  10.780  64.424  1.00  0.00    -0.263 Si 
HETATM    4  C   UNL     1     -12.601  13.870  65.399  1.00  0.00    -0.507 C  
HETATM    5  O   UNL     1     -11.751  13.001  66.143  1.00  0.00    -0.354 OA 
HETATM    6  O   UNL     1     -10.107   9.530  65.123  1.00  0.00    -0.373 OA 
HETATM    7  H   UNL     1     -10.880   9.087  65.453  1.00  0.00     0.000 HD 
ENDROOT
BRANCH   5   8
HETATM    8 SI   UNL     1     -10.855  13.653  67.413  1.00  0.00    -0.246 Si 
HETATM    9  C   UNL     1      -9.462  12.479  67.845  1.00  0.00    -0.196 C  
HETATM   10  C   UNL     1     -11.973  13.914  68.896  1.00  0.00    -0.358 C  
BRANCH   8  11
HETATM   11  O   UNL     1     -10.231  15.129  66.922  1.00  0.00    -0.252 OA 
HETATM   12 SI   UNL     1      -9.459  16.456  67.610  1.00  0.00    -0.207 Si 
HETATM   13  C   UNL     1     -10.533  17.282  68.923  1.00  0.00    -0.327 C  
HETATM   14  C   UNL     1      -9.029  17.768  66.333  1.00  0.00    -0.229 C  
HETATM   15  C   UNL     1      -7.859  15.922  68.453  1.00  0.00    -0.145 C  
ENDBRANCH   8  11
ENDBRANCH   5   8
TORSDOF 2
ENDMDL
MODEL       89
REMARK 921   NORMALIZED FREE ENERGY PREDICTED BY IDOCK:   -3.42 KCAL/MOL
REMARK 922        TOTAL FREE ENERGY PREDICTED BY IDOCK:   -4.05 KCAL/MOL
REMARK 923 INTER-LIGAND FREE ENERGY PREDICTED BY IDOCK:   -3.87 KCAL/MOL
REMARK 924 INTRA-LIGAND FREE ENERGY PREDICTED BY IDOCK:   -0.18 KCAL/MOL
REMARK 927      BINDING AFFINITY PREDICTED BY RF-SCORE:    0.00 PKD
ROOT
HETATM    1  O   UNL     1     -10.748  12.626  69.229  1.00  0.00    -0.433 OA 
HETATM    2  H   UNL     1     -10.753  12.832  70.157  1.00  0.00     0.000 HD 
HETATM    3 SI   UNL     1     -12.029  12.035  68.780  1.00  0.00    -0.223 Si 
HETATM    4  C   UNL     1     -12.944   9.966  71.951  1.00  0.00    -0.448 C  
HETATM    5  O   UNL     1     -12.323   9.630  70.714  1.00  0.00    -0.275 OA 
HETATM    6  O   UNL     1     -12.022  11.715  67.345  1.00  0.00    -0.621 OA 
HETATM    7  H   UNL     1     -12.843  11.336  67.057  1.00  0.00     0.000 HD 
ENDROOT
BRANCH   5   8
HETATM    8 SI   UNL     1     -11.104   8.466  70.721  1.00  0.00    -0.224 Si 
HETATM    9  C   UNL     1     -11.882   6.765  70.797  1.00  0.00    -0.392 C  
HETATM   10  C   UNL     1      -9.988   8.740  72.204  1.00  0.00    -0.289 C  
BRANCH   8  11
HETATM   11  O   UNL     1     -10.207   8.626  69.314  1.00  0.00    -0.201 OA 
HETATM   12 SI   UNL     1      -9.543   7.631  68.130  1.00  0.00    -0.141 Si 
HETATM   13  C   UNL     1      -8.290   6.424  68.861  1.00  0.00    -0.121 C  
HETATM   14  C   UNL     1      -8.658   8.614  66.793  1.00  0.00    -0.120 C  
HETATM   15  C   UNL     1     -10.890   6.605  67.301  1.00  0.00    -0.385 C  
ENDBRANCH   8  11
ENDBRANCH   5   8
TORSDOF 2
ENDMDL
MODEL       90
REMARK 921   NORMALIZED FREE ENERGY PREDICTED BY IDOCK:   -3.41 KCAL/MOL
REMARK 922        TOTAL FREE ENERGY PREDICTED BY IDOCK:   -4.05 KCAL/MOL
REMARK 923 INTER-LIGAND FREE ENERGY PREDICTED BY IDOCK:   -3.83 KCAL/MOL
REMARK 924 INTRA-LIGAND FREE ENERGY PREDICTED BY IDOCK:   -0.22 KCAL/MOL
REMARK 927      BINDING AFFINITY PREDICTED BY RF-SCORE:    0.00 PKD
ROOT
HETATM    1  O   UNL     1     -11.277  14.832  71.512  1.00  0.00    -0.540 OA 
HETATM    2  H   UNL     1     -10.889  14.083  71.948  1.00  0.00     0.000 HD 
HETATM    3 SI   UNL     1     -12.591  14.513  70.911  1.00  0.00    -0.260 Si 
HETATM    4  C   UNL     1     -11.922  10.844  69.784  1.00  0.00    -0.351 C  
HETATM    5  O   UNL     1     -11.883  12.095  69.104  1.00  0.00    -0.300 OA 
HETATM    6  O   UNL     1     -13.191  15.672  70.235  1.00  0.00    -0.725 OA 
HETATM    7  H   UNL     1     -14.034  15.467  69.849  1.00  0.00     0.000 HD 
ENDROOT
BRANCH   5   8
HETATM    8 SI   UNL     1     -10.721  12.317  67.903  1.00  0.00    -0.189 Si 
HETATM    9  C   UNL     1      -9.973  14.023  68.084  1.00  0.00    -0.242 C  
HETATM   10  C   UNL     1     -11.520  12.130  66.217  1.00  0.00    -0.374 C  
BRANCH   8  11
HETATM   11  O   UNL     1      -9.535  11.147  68.088  1.00  0.00    -0.167 OA 
HETATM   12 SI   UNL     1      -8.970   9.792  67.265  1.00  0.00    -0.125 Si 
HETATM   13  C   UNL     1     -10.315   8.482  67.079  1.00  0.00    -0.309 C  
HETATM   14  C   UNL     1      -7.519   8.982  68.145  1.00  0.00    -0.084 C  
HETATM   15  C   UNL     1      -8.407  10.264  65.529  1.00  0.00    -0.164 C  
ENDBRANCH   8  11
ENDBRANCH   5   8
TORSDOF 2
ENDMDL
MODEL       91
REMARK 921   NORMALIZED FREE ENERGY PREDICTED BY IDOCK:   -3.40 KCAL/MOL
REMARK 922        TOTAL FREE ENERGY PREDICTED BY IDOCK:   -4.04 KCAL/MOL
REMARK 923 INTER-LIGAND FREE ENERGY PREDICTED BY IDOCK:   -3.83 KCAL/MOL
REMARK 924 INTRA-LIGAND FREE ENERGY PREDICTED BY IDOCK:   -0.21 KCAL/MOL
REMARK 927      BINDING AFFINITY PREDICTED BY RF-SCORE:    0.00 PKD
ROOT
HETATM    1  O   UNL     1     -10.528  17.820  67.005  1.00  0.00    -0.347 OA 
HETATM    2  H   UNL     1     -11.472  17.727  67.059  1.00  0.00     0.000 HD 
HETATM    3 SI   UNL     1      -9.959  17.106  65.841  1.00  0.00    -0.256 Si 
HETATM    4  C   UNL     1     -12.325  14.012  65.749  1.00  0.00    -0.480 C  
HETATM    5  O   UNL     1     -11.024  14.229  66.287  1.00  0.00    -0.308 OA 
HETATM    6  O   UNL     1      -8.498  17.250  65.758  1.00  0.00    -0.532 OA 
HETATM    7  H   UNL     1      -8.133  16.792  65.010  1.00  0.00     0.000 HD 
ENDROOT
BRANCH   5   8
HETATM    8 SI   UNL     1     -10.612  13.446  67.722  1.00  0.00    -0.219 Si 
HETATM    9  C   UNL     1     -11.897  13.840  69.025  1.00  0.00    -0.357 C  
HETATM   10  C   UNL     1      -8.916  14.019  68.281  1.00  0.00    -0.190 C  
BRANCH   8  11
HETATM   11  O   UNL     1     -10.572  11.795  67.435  1.00  0.00    -0.212 OA 
HETATM   12 SI   UNL     1      -9.888  10.730  66.326  1.00  0.00    -0.175 Si 
HETATM   13  C   UNL     1     -10.483  11.080  64.570  1.00  0.00    -0.342 C  
HETATM   14  C   UNL     1     -10.307   8.938  66.711  1.00  0.00    -0.247 C  
HETATM   15  C   UNL     1      -8.010  10.900  66.323  1.00  0.00    -0.161 C  
ENDBRANCH   8  11
ENDBRANCH   5   8
TORSDOF 2
ENDMDL
MODEL       92
REMARK 921   NORMALIZED FREE ENERGY PREDICTED BY IDOCK:   -3.40 KCAL/MOL
REMARK 922        TOTAL FREE ENERGY PREDICTED BY IDOCK:   -4.03 KCAL/MOL
REMARK 923 INTER-LIGAND FREE ENERGY PREDICTED BY IDOCK:   -3.78 KCAL/MOL
REMARK 924 INTRA-LIGAND FREE ENERGY PREDICTED BY IDOCK:   -0.25 KCAL/MOL
REMARK 927      BINDING AFFINITY PREDICTED BY RF-SCORE:    0.00 PKD
ROOT
HETATM    1  O   UNL     1     -12.171  13.976  70.367  1.00  0.00    -0.319 OA 
HETATM    2  H   UNL     1     -12.672  13.301  69.925  1.00  0.00     0.000 HD 
HETATM    3 SI   UNL     1     -12.332  15.302  69.730  1.00  0.00    -0.271 Si 
HETATM    4  C   UNL     1     -12.591  14.209  66.000  1.00  0.00    -0.375 C  
HETATM    5  O   UNL     1     -11.517  14.694  66.801  1.00  0.00    -0.352 OA 
HETATM    6  O   UNL     1     -11.557  16.348  70.414  1.00  0.00    -0.465 OA 
HETATM    7  H   UNL     1     -11.661  17.198  70.005  1.00  0.00     0.000 HD 
ENDROOT
BRANCH   5   8
HETATM    8 SI   UNL     1      -9.971  14.086  66.520  1.00  0.00    -0.233 Si 
HETATM    9  C   UNL     1     -10.005  13.014  64.985  1.00  0.00    -0.139 C  
HETATM   10  C   UNL     1      -9.415  13.082  68.004  1.00  0.00    -0.217 C  
BRANCH   8  11
HETATM   11  O   UNL     1      -8.924  15.375  66.298  1.00  0.00    -0.297 OA 
HETATM   12 SI   UNL     1      -8.728  16.946  66.869  1.00  0.00    -0.180 Si 
HETATM   13  C   UNL     1     -10.228  18.020  66.473  1.00  0.00    -0.382 C  
HETATM   14  C   UNL     1      -7.223  17.790  66.124  1.00  0.00    -0.311 C  
HETATM   15  C   UNL     1      -8.523  16.943  68.744  1.00  0.00    -0.244 C  
ENDBRANCH   8  11
ENDBRANCH   5   8
TORSDOF 2
ENDMDL
MODEL       93
REMARK 921   NORMALIZED FREE ENERGY PREDICTED BY IDOCK:   -3.39 KCAL/MOL
REMARK 922        TOTAL FREE ENERGY PREDICTED BY IDOCK:   -4.02 KCAL/MOL
REMARK 923 INTER-LIGAND FREE ENERGY PREDICTED BY IDOCK:   -3.83 KCAL/MOL
REMARK 924 INTRA-LIGAND FREE ENERGY PREDICTED BY IDOCK:   -0.19 KCAL/MOL
REMARK 927      BINDING AFFINITY PREDICTED BY RF-SCORE:    0.00 PKD
ROOT
HETATM    1  O   UNL     1     -14.058  15.614  70.716  1.00  0.00    -0.828 OA 
HETATM    2  H   UNL     1     -14.274  16.037  69.893  1.00  0.00     0.000 HD 
HETATM    3 SI   UNL     1     -12.711  15.986  71.201  1.00  0.00    -0.379 Si 
HETATM    4  C   UNL     1     -10.840  16.264  67.795  1.00  0.00    -0.315 C  
HETATM    5  O   UNL     1     -10.938  15.232  68.772  1.00  0.00    -0.239 OA 
HETATM    6  O   UNL     1     -12.376  15.331  72.474  1.00  0.00    -0.322 OA 
HETATM    7  H   UNL     1     -11.512  15.570  72.786  1.00  0.00     0.000 HD 
ENDROOT
BRANCH   5   8
HETATM    8 SI   UNL     1     -10.956  13.631  68.244  1.00  0.00    -0.215 Si 
HETATM    9  C   UNL     1     -12.001  13.509  66.696  1.00  0.00    -0.404 C  
HETATM   10  C   UNL     1     -11.661  12.537  69.595  1.00  0.00    -0.302 C  
BRANCH   8  11
HETATM   11  O   UNL     1      -9.382  13.161  67.914  1.00  0.00    -0.199 OA 
HETATM   12 SI   UNL     1      -8.567  11.784  67.394  1.00  0.00    -0.130 Si 
HETATM   13  C   UNL     1      -8.809  10.342  68.586  1.00  0.00    -0.137 C  
HETATM   14  C   UNL     1      -6.716  12.073  67.235  1.00  0.00    -0.144 C  
HETATM   15  C   UNL     1      -9.215  11.232  65.712  1.00  0.00    -0.219 C  
ENDBRANCH   8  11
ENDBRANCH   5   8
TORSDOF 2
ENDMDL
MODEL       94
REMARK 921   NORMALIZED FREE ENERGY PREDICTED BY IDOCK:   -3.38 KCAL/MOL
REMARK 922        TOTAL FREE ENERGY PREDICTED BY IDOCK:   -4.02 KCAL/MOL
REMARK 923 INTER-LIGAND FREE ENERGY PREDICTED BY IDOCK:   -3.79 KCAL/MOL
REMARK 924 INTRA-LIGAND FREE ENERGY PREDICTED BY IDOCK:   -0.22 KCAL/MOL
REMARK 927      BINDING AFFINITY PREDICTED BY RF-SCORE:    0.00 PKD
ROOT
HETATM    1  O   UNL     1      -6.842  12.815  66.782  1.00  0.00    -0.399 OA 
HETATM    2  H   UNL     1      -6.932  12.600  65.861  1.00  0.00     0.000 HD 
HETATM    3 SI   UNL     1      -7.687  11.958  67.644  1.00  0.00    -0.099 Si 
HETATM    4  C   UNL     1     -10.778  11.528  65.312  1.00  0.00    -0.279 C  
HETATM    5  O   UNL     1     -10.496  12.396  66.406  1.00  0.00    -0.237 OA 
HETATM    6  O   UNL     1      -7.548  12.291  69.069  1.00  0.00    -0.301 OA 
HETATM    7  H   UNL     1      -8.089  11.741  69.622  1.00  0.00     0.000 HD 
ENDROOT
BRANCH   5   8
HETATM    8 SI   UNL     1     -11.103  13.967  66.357  1.00  0.00    -0.289 Si 
HETATM    9  C   UNL     1     -12.782  13.949  65.530  1.00  0.00    -0.499 C  
HETATM   10  C   UNL     1      -9.918  15.065  65.405  1.00  0.00    -0.330 C  
BRANCH   8  11
HETATM   11  O   UNL     1     -11.242  14.533  67.929  1.00  0.00    -0.272 OA 
HETATM   12 SI   UNL     1     -10.566  15.734  68.895  1.00  0.00    -0.193 Si 
HETATM   13  C   UNL     1      -8.702  15.509  69.079  1.00  0.00    -0.235 C  
HETATM   14  C   UNL     1     -11.302  15.751  70.625  1.00  0.00    -0.388 C  
HETATM   15  C   UNL     1     -10.850  17.433  68.127  1.00  0.00    -0.273 C  
ENDBRANCH   8  11
ENDBRANCH   5   8
TORSDOF 2
ENDMDL
MODEL       95
REMARK 921   NORMALIZED FREE ENERGY PREDICTED BY IDOCK:   -3.38 KCAL/MOL
REMARK 922        TOTAL FREE ENERGY PREDICTED BY IDOCK:   -4.01 KCAL/MOL
REMARK 923 INTER-LIGAND FREE ENERGY PREDICTED BY IDOCK:   -3.79 KCAL/MOL
REMARK 924 INTRA-LIGAND FREE ENERGY PREDICTED BY IDOCK:   -0.22 KCAL/MOL
REMARK 927      BINDING AFFINITY PREDICTED BY RF-SCORE:    0.00 PKD
ROOT
HETATM    1  O   UNL     1     -10.768  15.617  64.332  1.00  0.00    -0.724 OA 
HETATM    2  H   UNL     1     -10.670  16.339  63.722  1.00  0.00     0.000 HD 
HETATM    3 SI   UNL     1     -11.602  15.977  65.500  1.00  0.00    -0.250 Si 
HETATM    4  C   UNL     1     -10.527  19.695  65.948  1.00  0.00    -0.493 C  
HETATM    5  O   UNL     1     -10.124  18.482  66.576  1.00  0.00    -0.353 OA 
HETATM    6  O   UNL     1     -11.754  14.860  66.443  1.00  0.00    -0.307 OA 
HETATM    7  H   UNL     1     -12.289  15.092  67.193  1.00  0.00     0.000 HD 
ENDROOT
BRANCH   5   8
HETATM    8 SI   UNL     1      -8.509  18.314  67.029  1.00  0.00    -0.220 Si 
HETATM    9  C   UNL     1      -8.256  19.119  68.701  1.00  0.00    -0.369 C  
HETATM   10  C   UNL     1      -7.412  19.124  65.742  1.00  0.00    -0.177 C  
BRANCH   8  11
HETATM   11  O   UNL     1      -8.148  16.680  67.118  1.00  0.00    -0.163 OA 
HETATM   12 SI   UNL     1      -7.984  15.493  68.300  1.00  0.00    -0.119 Si 
HETATM   13  C   UNL     1      -6.616  15.921  69.527  1.00  0.00    -0.191 C  
HETATM   14  C   UNL     1      -7.570  13.813  67.565  1.00  0.00    -0.173 C  
HETATM   15  C   UNL     1      -9.582  15.319  69.284  1.00  0.00    -0.249 C  
ENDBRANCH   8  11
ENDBRANCH   5   8
TORSDOF 2
ENDMDL
MODEL       96
REMARK 921   NORMALIZED FREE ENERGY PREDICTED BY IDOCK:   -3.37 KCAL/MOL
REMARK 922        TOTAL FREE ENERGY PREDICTED BY IDOCK:   -4.00 KCAL/MOL
REMARK 923 INTER-LIGAND FREE ENERGY PREDICTED BY IDOCK:   -3.79 KCAL/MOL
REMARK 924 INTRA-LIGAND FREE ENERGY PREDICTED BY IDOCK:   -0.21 KCAL/MOL
REMARK 927      BINDING AFFINITY PREDICTED BY RF-SCORE:    0.00 PKD
ROOT
HETATM    1  O   UNL     1     -12.563  10.146  71.571  1.00  0.00    -0.367 OA 
HETATM    2  H   UNL     1     -11.677  10.482  71.507  1.00  0.00     0.000 HD 
HETATM    3 SI   UNL     1     -12.832   9.516  72.883  1.00  0.00    -0.348 Si 
HETATM    4  C   UNL     1      -9.342   7.931  73.576  1.00  0.00    -0.268 C  
HETATM    5  O   UNL     1     -10.560   7.414  73.047  1.00  0.00    -0.273 OA 
HETATM    6  O   UNL     1     -14.204   8.996  72.981  1.00  0.00    -1.107 OA 
HETATM    7  H   UNL     1     -14.376   8.592  73.822  1.00  0.00     0.000 HD 
ENDROOT
BRANCH   5   8
HETATM    8 SI   UNL     1     -10.473   6.245  71.836  1.00  0.00    -0.191 Si 
HETATM    9  C   UNL     1      -8.761   6.276  71.078  1.00  0.00    -0.136 C  
HETATM   10  C   UNL     1     -11.771   6.602  70.530  1.00  0.00    -0.394 C  
BRANCH   8  11
HETATM   11  O   UNL     1     -10.772   4.745  72.521  1.00  0.00    -0.209 OA 
HETATM   12 SI   UNL     1      -9.929   3.328  72.855  1.00  0.00    -0.108 Si 
HETATM   13  C   UNL     1      -9.246   2.539  71.283  1.00  0.00    -0.121 C  
HETATM   14  C   UNL     1     -11.008   2.043  73.702  1.00  0.00    -0.182 C  
HETATM   15  C   UNL     1      -8.460   3.686  73.982  1.00  0.00    -0.086 C  
ENDBRANCH   8  11
ENDBRANCH   5   8
TORSDOF 2
ENDMDL
MODEL       97
REMARK 921   NORMALIZED FREE ENERGY PREDICTED BY IDOCK:   -3.37 KCAL/MOL
REMARK 922        TOTAL FREE ENERGY PREDICTED BY IDOCK:   -4.00 KCAL/MOL
REMARK 923 INTER-LIGAND FREE ENERGY PREDICTED BY IDOCK:   -3.80 KCAL/MOL
REMARK 924 INTRA-LIGAND FREE ENERGY PREDICTED BY IDOCK:   -0.20 KCAL/MOL
REMARK 927      BINDING AFFINITY PREDICTED BY RF-SCORE:    0.00 PKD
ROOT
HETATM    1  O   UNL     1     -11.297   5.979  70.339  1.00  0.00    -0.338 OA 
HETATM    2  H   UNL     1     -10.628   5.673  69.737  1.00  0.00     0.000 HD 
HETATM    3 SI   UNL     1     -12.375   6.723  69.650  1.00  0.00    -0.557 Si 
HETATM    4  C   UNL     1     -10.282   8.502  66.887  1.00  0.00    -0.305 C  
HETATM    5  O   UNL     1     -10.771   8.918  68.159  1.00  0.00    -0.187 OA 
HETATM    6  O   UNL     1     -13.408   7.197  70.582  1.00  0.00    -0.532 OA 
HETATM    7  H   UNL     1     -14.100   7.674  70.140  1.00  0.00     0.000 HD 
ENDROOT
BRANCH   5   8
HETATM    8 SI   UNL     1      -9.821   9.965  69.076  1.00  0.00    -0.151 Si 
HETATM    9  C   UNL     1      -8.218  10.293  68.167  1.00  0.00    -0.114 C  
HETATM   10  C   UNL     1      -9.476   9.192  70.750  1.00  0.00    -0.272 C  
BRANCH   8  11
HETATM   11  O   UNL     1     -10.664  11.398  69.290  1.00  0.00    -0.212 OA 
HETATM   12 SI   UNL     1     -10.933  12.833  68.452  1.00  0.00    -0.198 Si 
HETATM   13  C   UNL     1      -9.322  13.760  68.128  1.00  0.00    -0.211 C  
HETATM   14  C   UNL     1     -12.072  13.999  69.390  1.00  0.00    -0.340 C  
HETATM   15  C   UNL     1     -11.719  12.477  66.775  1.00  0.00    -0.384 C  
ENDBRANCH   8  11
ENDBRANCH   5   8
TORSDOF 2
ENDMDL
MODEL       98
REMARK 921   NORMALIZED FREE ENERGY PREDICTED BY IDOCK:   -3.37 KCAL/MOL
REMARK 922        TOTAL FREE ENERGY PREDICTED BY IDOCK:   -4.00 KCAL/MOL
REMARK 923 INTER-LIGAND FREE ENERGY PREDICTED BY IDOCK:   -3.75 KCAL/MOL
REMARK 924 INTRA-LIGAND FREE ENERGY PREDICTED BY IDOCK:   -0.25 KCAL/MOL
REMARK 927      BINDING AFFINITY PREDICTED BY RF-SCORE:    0.00 PKD
ROOT
HETATM    1  O   UNL     1     -13.626   6.688  71.981  1.00  0.00    -0.481 OA 
HETATM    2  H   UNL     1     -13.233   5.829  71.882  1.00  0.00     0.000 HD 
HETATM    3 SI   UNL     1     -13.797   7.379  70.683  1.00  0.00    -0.555 Si 
HETATM    4  C   UNL     1     -10.600   6.121  68.845  1.00  0.00    -0.276 C  
HETATM    5  O   UNL     1     -10.910   7.318  69.554  1.00  0.00    -0.240 OA 
HETATM    6  O   UNL     1     -14.405   8.709  70.835  1.00  0.00    -0.631 OA 
HETATM    7  H   UNL     1     -14.515   9.152  70.002  1.00  0.00     0.000 HD 
ENDROOT
BRANCH   5   8
HETATM    8 SI   UNL     1      -9.691   8.050  70.459  1.00  0.00    -0.165 Si 
HETATM    9  C   UNL     1      -8.286   6.834  70.690  1.00  0.00    -0.129 C  
HETATM   10  C   UNL     1     -10.378   8.577  72.122  1.00  0.00    -0.339 C  
BRANCH   8  11
HETATM   11  O   UNL     1      -9.150   9.402  69.628  1.00  0.00    -0.156 OA 
HETATM   12 SI   UNL     1      -9.771  10.561  68.578  1.00  0.00    -0.137 Si 
HETATM   13  C   UNL     1     -10.432   9.779  66.993  1.00  0.00    -0.227 C  
HETATM   14  C   UNL     1      -8.478  11.831  68.079  1.00  0.00    -0.157 C  
HETATM   15  C   UNL     1     -11.206  11.480  69.387  1.00  0.00    -0.259 C  
ENDBRANCH   8  11
ENDBRANCH   5   8
TORSDOF 2
ENDMDL
MODEL       99
REMARK 921   NORMALIZED FREE ENERGY PREDICTED BY IDOCK:   -3.37 KCAL/MOL
REMARK 922        TOTAL FREE ENERGY PREDICTED BY IDOCK:   -3.99 KCAL/MOL
REMARK 923 INTER-LIGAND FREE ENERGY PREDICTED BY IDOCK:   -4.13 KCAL/MOL
REMARK 924 INTRA-LIGAND FREE ENERGY PREDICTED BY IDOCK:    0.14 KCAL/MOL
REMARK 927      BINDING AFFINITY PREDICTED BY RF-SCORE:    0.00 PKD
ROOT
HETATM    1  O   UNL     1     -13.262  14.697  64.717  1.00  0.00    -0.282 OA 
HETATM    2  H   UNL     1     -13.673  13.844  64.639  1.00  0.00     0.000 HD 
HETATM    3 SI   UNL     1     -12.208  14.908  63.700  1.00  0.00    -0.535 Si 
HETATM    4  C   UNL     1     -10.781  11.289  63.477  1.00  0.00    -0.335 C  
HETATM    5  O   UNL     1     -10.371  12.457  64.182  1.00  0.00    -0.341 OA 
HETATM    6  O   UNL     1     -11.572  16.227  63.820  1.00  0.00    -1.539 OA 
HETATM    7  H   UNL     1     -10.896  16.362  63.168  1.00  0.00     0.000 HD 
ENDROOT
BRANCH   5   8
HETATM    8 SI   UNL     1      -9.689  12.268  65.712  1.00  0.00    -0.215 Si 
HETATM    9  C   UNL     1     -10.832  11.227  66.768  1.00  0.00    -0.282 C  
HETATM   10  C   UNL     1      -9.433  13.954  66.494  1.00  0.00    -0.274 C  
BRANCH   8  11
HETATM   11  O   UNL     1      -8.207  11.504  65.543  1.00  0.00     0.185 OA 
HETATM   12 SI   UNL     1      -7.571  10.159  64.757  1.00  0.00    -0.110 Si 
HETATM   13  C   UNL     1      -8.393   8.563  65.337  1.00  0.00    -0.156 C  
HETATM   14  C   UNL     1      -5.722   9.974  65.049  1.00  0.00    -0.098 C  
HETATM   15  C   UNL     1      -7.855  10.289  62.897  1.00  0.00    -0.149 C  
ENDBRANCH   8  11
ENDBRANCH   5   8
TORSDOF 2
ENDMDL
MODEL      100
REMARK 921   NORMALIZED FREE ENERGY PREDICTED BY IDOCK:   -3.36 KCAL/MOL
REMARK 922        TOTAL FREE ENERGY PREDICTED BY IDOCK:   -3.98 KCAL/MOL
REMARK 923 INTER-LIGAND FREE ENERGY PREDICTED BY IDOCK:   -3.82 KCAL/MOL
REMARK 924 INTRA-LIGAND FREE ENERGY PREDICTED BY IDOCK:   -0.16 KCAL/MOL
REMARK 927      BINDING AFFINITY PREDICTED BY RF-SCORE:    0.00 PKD
ROOT
HETATM    1  O   UNL     1     -11.874   6.895  69.521  1.00  0.00    -0.602 OA 
HETATM    2  H   UNL     1     -12.698   7.359  69.430  1.00  0.00     0.000 HD 
HETATM    3 SI   UNL     1     -10.986   7.521  70.526  1.00  0.00    -0.218 Si 
HETATM    4  C   UNL     1     -11.865  11.270  69.933  1.00  0.00    -0.360 C  
HETATM    5  O   UNL     1     -10.805  10.433  69.477  1.00  0.00    -0.221 OA 
HETATM    6  O   UNL     1      -9.710   6.803  70.666  1.00  0.00    -0.172 OA 
HETATM    7  H   UNL     1      -9.140   7.205  71.311  1.00  0.00     0.000 HD 
ENDROOT
BRANCH   5   8
HETATM    8 SI   UNL     1     -10.206  10.678  67.921  1.00  0.00    -0.155 Si 
HETATM    9  C   UNL     1     -10.214   9.050  66.998  1.00  0.00    -0.266 C  
HETATM   10  C   UNL     1      -8.462  11.361  68.024  1.00  0.00    -0.145 C  
BRANCH   8  11
HETATM   11  O   UNL     1     -11.190  11.787  67.140  1.00  0.00    -0.280 OA 
HETATM   12 SI   UNL     1     -11.067  12.924  65.905  1.00  0.00    -0.268 Si 
HETATM   13  C   UNL     1      -9.793  14.255  66.312  1.00  0.00    -0.307 C  
HETATM   14  C   UNL     1     -12.700  13.795  65.577  1.00  0.00    -0.488 C  
HETATM   15  C   UNL     1     -10.517  12.097  64.302  1.00  0.00    -0.339 C  
ENDBRANCH   8  11
ENDBRANCH   5   8
TORSDOF 2
ENDMDL
MODEL      101
REMARK 921   NORMALIZED FREE ENERGY PREDICTED BY IDOCK:   -3.35 KCAL/MOL
REMARK 922        TOTAL FREE ENERGY PREDICTED BY IDOCK:   -3.98 KCAL/MOL
REMARK 923 INTER-LIGAND FREE ENERGY PREDICTED BY IDOCK:   -3.79 KCAL/MOL
REMARK 924 INTRA-LIGAND FREE ENERGY PREDICTED BY IDOCK:   -0.19 KCAL/MOL
REMARK 927      BINDING AFFINITY PREDICTED BY RF-SCORE:    0.00 PKD
ROOT
HETATM    1  O   UNL     1      -9.925  12.745  63.511  1.00  0.00    -0.673 OA 
HETATM    2  H   UNL     1      -9.459  13.344  64.083  1.00  0.00     0.000 HD 
HETATM    3 SI   UNL     1     -11.272  12.411  64.026  1.00  0.00    -0.284 Si 
HETATM    4  C   UNL     1     -10.523  12.383  67.849  1.00  0.00    -0.215 C  
HETATM    5  O   UNL     1     -10.614  11.356  66.867  1.00  0.00    -0.229 OA 
HETATM    6  O   UNL     1     -11.993  11.484  63.142  1.00  0.00    -0.901 OA 
HETATM    7  H   UNL     1     -12.857  11.270  63.472  1.00  0.00     0.000 HD 
ENDROOT
BRANCH   5   8
HETATM    8 SI   UNL     1      -9.584  10.029  66.999  1.00  0.00    -0.147 Si 
HETATM    9  C   UNL     1      -7.952  10.591  67.725  1.00  0.00    -0.106 C  
HETATM   10  C   UNL     1      -9.317   9.273  65.303  1.00  0.00    -0.202 C  
BRANCH   8  11
HETATM   11  O   UNL     1     -10.301   8.896  68.005  1.00  0.00    -0.204 OA 
HETATM   12 SI   UNL     1     -10.089   7.281  68.428  1.00  0.00    -0.145 Si 
HETATM   13  C   UNL     1     -10.255   6.144  66.932  1.00  0.00    -0.208 C  
HETATM   14  C   UNL     1     -11.345   6.712  69.706  1.00  0.00    -0.354 C  
HETATM   15  C   UNL     1      -8.367   7.010  69.147  1.00  0.00    -0.125 C  
ENDBRANCH   8  11
ENDBRANCH   5   8
TORSDOF 2
ENDMDL
MODEL      102
REMARK 921   NORMALIZED FREE ENERGY PREDICTED BY IDOCK:   -3.34 KCAL/MOL
REMARK 922        TOTAL FREE ENERGY PREDICTED BY IDOCK:   -3.97 KCAL/MOL
REMARK 923 INTER-LIGAND FREE ENERGY PREDICTED BY IDOCK:   -3.75 KCAL/MOL
REMARK 924 INTRA-LIGAND FREE ENERGY PREDICTED BY IDOCK:   -0.22 KCAL/MOL
REMARK 927      BINDING AFFINITY PREDICTED BY RF-SCORE:    0.00 PKD
ROOT
HETATM    1  O   UNL     1      -9.221   6.520  67.358  1.00  0.00    -0.121 OA 
HETATM    2  H   UNL     1      -8.383   6.734  66.965  1.00  0.00     0.000 HD 
HETATM    3 SI   UNL     1     -10.347   6.715  66.418  1.00  0.00    -0.183 Si 
HETATM    4  C   UNL     1      -9.049   9.835  64.479  1.00  0.00    -0.249 C  
HETATM    5  O   UNL     1      -9.951   9.671  65.570  1.00  0.00    -0.311 OA 
HETATM    6  O   UNL     1     -11.644   6.384  67.026  1.00  0.00    -0.696 OA 
HETATM    7  H   UNL     1     -12.367   6.510  66.423  1.00  0.00     0.000 HD 
ENDROOT
BRANCH   5   8
HETATM    8 SI   UNL     1      -9.973  10.850  66.774  1.00  0.00    -0.174 Si 
HETATM    9  C   UNL     1      -8.305  11.698  66.830  1.00  0.00    -0.171 C  
HETATM   10  C   UNL     1     -10.353  10.048  68.426  1.00  0.00    -0.191 C  
BRANCH   8  11
HETATM   11  O   UNL     1     -11.171  11.963  66.408  1.00  0.00    -0.307 OA 
HETATM   12 SI   UNL     1     -11.540  13.051  65.178  1.00  0.00    -0.297 Si 
HETATM   13  C   UNL     1     -10.189  14.352  64.976  1.00  0.00    -0.374 C  
HETATM   14  C   UNL     1     -13.152  13.964  65.499  1.00  0.00    -0.187 C  
HETATM   15  C   UNL     1     -11.700  12.151  63.529  1.00  0.00    -0.490 C  
ENDBRANCH   8  11
ENDBRANCH   5   8
TORSDOF 2
ENDMDL
MODEL      103
REMARK 921   NORMALIZED FREE ENERGY PREDICTED BY IDOCK:   -3.33 KCAL/MOL
REMARK 922        TOTAL FREE ENERGY PREDICTED BY IDOCK:   -3.96 KCAL/MOL
REMARK 923 INTER-LIGAND FREE ENERGY PREDICTED BY IDOCK:   -3.74 KCAL/MOL
REMARK 924 INTRA-LIGAND FREE ENERGY PREDICTED BY IDOCK:   -0.22 KCAL/MOL
REMARK 927      BINDING AFFINITY PREDICTED BY RF-SCORE:    0.00 PKD
ROOT
HETATM    1  O   UNL     1      -8.304  17.484  68.559  1.00  0.00    -0.263 OA 
HETATM    2  H   UNL     1      -8.215  16.731  69.132  1.00  0.00     0.000 HD 
HETATM    3 SI   UNL     1      -9.674  18.045  68.579  1.00  0.00    -0.251 Si 
HETATM    4  C   UNL     1     -11.723  14.755  68.972  1.00  0.00    -0.312 C  
HETATM    5  O   UNL     1     -11.380  15.561  67.848  1.00  0.00    -0.331 OA 
HETATM    6  O   UNL     1      -9.813  19.209  67.692  1.00  0.00    -0.311 OA 
HETATM    7  H   UNL     1     -10.691  19.569  67.705  1.00  0.00     0.000 HD 
ENDROOT
BRANCH   5   8
HETATM    8 SI   UNL     1     -11.074  14.795  66.378  1.00  0.00    -0.293 Si 
HETATM    9  C   UNL     1     -10.590  16.082  65.107  1.00  0.00    -0.370 C  
HETATM   10  C   UNL     1     -12.611  13.874  65.823  1.00  0.00    -0.494 C  
BRANCH   8  11
HETATM   11  O   UNL     1      -9.822  13.703  66.597  1.00  0.00    -0.267 OA 
HETATM   12 SI   UNL     1      -9.573  12.042  66.496  1.00  0.00    -0.187 Si 
HETATM   13  C   UNL     1     -10.681  11.100  67.697  1.00  0.00    -0.230 C  
HETATM   14  C   UNL     1      -7.796  11.566  66.883  1.00  0.00    -0.163 C  
HETATM   15  C   UNL     1      -9.975  11.421  64.761  1.00  0.00    -0.267 C  
ENDBRANCH   8  11
ENDBRANCH   5   8
TORSDOF 2
ENDMDL
MODEL      104
REMARK 921   NORMALIZED FREE ENERGY PREDICTED BY IDOCK:   -3.33 KCAL/MOL
REMARK 922        TOTAL FREE ENERGY PREDICTED BY IDOCK:   -3.96 KCAL/MOL
REMARK 923 INTER-LIGAND FREE ENERGY PREDICTED BY IDOCK:   -3.78 KCAL/MOL
REMARK 924 INTRA-LIGAND FREE ENERGY PREDICTED BY IDOCK:   -0.18 KCAL/MOL
REMARK 927      BINDING AFFINITY PREDICTED BY RF-SCORE:    0.00 PKD
ROOT
HETATM    1  O   UNL     1     -10.309  14.993  70.533  1.00  0.00    -0.512 OA 
HETATM    2  H   UNL     1      -9.675  14.521  70.005  1.00  0.00     0.000 HD 
HETATM    3 SI   UNL     1     -11.597  15.180  69.829  1.00  0.00    -0.222 Si 
HETATM    4  C   UNL     1     -10.291  15.668  66.191  1.00  0.00    -0.316 C  
HETATM    5  O   UNL     1     -10.687  16.576  67.215  1.00  0.00    -0.313 OA 
HETATM    6  O   UNL     1     -12.577  15.910  70.646  1.00  0.00    -0.455 OA 
HETATM    7  H   UNL     1     -13.404  16.030  70.194  1.00  0.00     0.000 HD 
ENDROOT
BRANCH   5   8
HETATM    8 SI   UNL     1      -9.865  18.042  67.345  1.00  0.00    -0.264 Si 
HETATM    9  C   UNL     1      -9.971  18.648  69.113  1.00  0.00    -0.193 C  
HETATM   10  C   UNL     1     -10.632  19.294  66.178  1.00  0.00    -0.459 C  
BRANCH   8  11
HETATM   11  O   UNL     1      -8.263  17.793  66.917  1.00  0.00    -0.216 OA 
HETATM   12 SI   UNL     1      -6.740  18.322  67.398  1.00  0.00    -0.172 Si 
HETATM   13  C   UNL     1      -6.561  20.190  67.206  1.00  0.00    -0.216 C  
HETATM   14  C   UNL     1      -5.363  17.523  66.397  1.00  0.00    -0.194 C  
HETATM   15  C   UNL     1      -6.446  17.917  69.216  1.00  0.00    -0.248 C  
ENDBRANCH   8  11
ENDBRANCH   5   8
TORSDOF 2
ENDMDL
MODEL      105
REMARK 921   NORMALIZED FREE ENERGY PREDICTED BY IDOCK:   -3.33 KCAL/MOL
REMARK 922        TOTAL FREE ENERGY PREDICTED BY IDOCK:   -3.95 KCAL/MOL
REMARK 923 INTER-LIGAND FREE ENERGY PREDICTED BY IDOCK:   -3.72 KCAL/MOL
REMARK 924 INTRA-LIGAND FREE ENERGY PREDICTED BY IDOCK:   -0.23 KCAL/MOL
REMARK 927      BINDING AFFINITY PREDICTED BY RF-SCORE:    0.00 PKD
ROOT
HETATM    1  O   UNL     1     -11.150   8.458  67.412  1.00  0.00    -0.441 OA 
HETATM    2  H   UNL     1     -11.537   9.129  67.963  1.00  0.00     0.000 HD 
HETATM    3 SI   UNL     1     -11.900   7.183  67.468  1.00  0.00    -0.522 Si 
HETATM    4  C   UNL     1     -12.999   7.235  71.206  1.00  0.00    -0.328 C  
HETATM    5  O   UNL     1     -11.925   6.604  70.514  1.00  0.00    -0.400 OA 
HETATM    6  O   UNL     1     -11.302   6.146  66.617  1.00  0.00    -0.727 OA 
HETATM    7  H   UNL     1     -11.783   5.328  66.653  1.00  0.00     0.000 HD 
ENDROOT
BRANCH   5   8
HETATM    8 SI   UNL     1     -10.444   6.455  71.304  1.00  0.00    -0.193 Si 
HETATM    9  C   UNL     1     -10.212   4.675  71.838  1.00  0.00    -0.184 C  
HETATM   10  C   UNL     1     -10.413   7.593  72.794  1.00  0.00    -0.311 C  
BRANCH   8  11
HETATM   11  O   UNL     1      -9.227   6.899  70.240  1.00  0.00    -0.155 OA 
HETATM   12 SI   UNL     1      -8.113   8.147  70.059  1.00  0.00    -0.093 Si 
HETATM   13  C   UNL     1      -8.968   9.818  69.870  1.00  0.00    -0.229 C  
HETATM   14  C   UNL     1      -7.016   7.906  68.551  1.00  0.00    -0.071 C  
HETATM   15  C   UNL     1      -6.998   8.259  71.575  1.00  0.00    -0.068 C  
ENDBRANCH   8  11
ENDBRANCH   5   8
TORSDOF 2
ENDMDL
MODEL      106
REMARK 921   NORMALIZED FREE ENERGY PREDICTED BY IDOCK:   -3.31 KCAL/MOL
REMARK 922        TOTAL FREE ENERGY PREDICTED BY IDOCK:   -3.93 KCAL/MOL
REMARK 923 INTER-LIGAND FREE ENERGY PREDICTED BY IDOCK:   -3.82 KCAL/MOL
REMARK 924 INTRA-LIGAND FREE ENERGY PREDICTED BY IDOCK:   -0.11 KCAL/MOL
REMARK 927      BINDING AFFINITY PREDICTED BY RF-SCORE:    0.00 PKD
ROOT
HETATM    1  O   UNL     1     -12.289  10.746  68.386  1.00  0.00    -0.813 OA 
HETATM    2  H   UNL     1     -12.743  11.102  67.631  1.00  0.00     0.000 HD 
HETATM    3 SI   UNL     1     -12.132  11.743  69.468  1.00  0.00    -0.236 Si 
HETATM    4  C   UNL     1     -11.596  14.954  67.328  1.00  0.00    -0.324 C  
HETATM    5  O   UNL     1     -10.702  14.060  67.984  1.00  0.00    -0.239 OA 
HETATM    6  O   UNL     1     -11.429  11.192  70.636  1.00  0.00    -0.433 OA 
HETATM    7  H   UNL     1     -11.328  11.831  71.330  1.00  0.00     0.000 HD 
ENDROOT
BRANCH   5   8
HETATM    8 SI   UNL     1      -9.217  13.736  67.255  1.00  0.00    -0.181 Si 
HETATM    9  C   UNL     1      -8.303  12.457  68.271  1.00  0.00    -0.169 C  
HETATM   10  C   UNL     1      -8.217  15.319  67.145  1.00  0.00    -0.219 C  
BRANCH   8  11
HETATM   11  O   UNL     1      -9.499  13.149  65.711  1.00  0.00    -0.114 OA 
HETATM   12 SI   UNL     1     -10.467  11.992  64.965  1.00  0.00    -0.240 Si 
HETATM   13  C   UNL     1     -10.108  10.260  65.621  1.00  0.00    -0.271 C  
HETATM   14  C   UNL     1     -10.214  11.949  63.103  1.00  0.00    -0.296 C  
HETATM   15  C   UNL     1     -12.289  12.347  65.296  1.00  0.00    -0.287 C  
ENDBRANCH   8  11
ENDBRANCH   5   8
TORSDOF 2
ENDMDL
MODEL      107
REMARK 921   NORMALIZED FREE ENERGY PREDICTED BY IDOCK:   -3.31 KCAL/MOL
REMARK 922        TOTAL FREE ENERGY PREDICTED BY IDOCK:   -3.93 KCAL/MOL
REMARK 923 INTER-LIGAND FREE ENERGY PREDICTED BY IDOCK:   -3.75 KCAL/MOL
REMARK 924 INTRA-LIGAND FREE ENERGY PREDICTED BY IDOCK:   -0.19 KCAL/MOL
REMARK 927      BINDING AFFINITY PREDICTED BY RF-SCORE:    0.00 PKD
ROOT
HETATM    1  O   UNL     1     -11.288   7.275  73.485  1.00  0.00    -0.564 OA 
HETATM    2  H   UNL     1     -10.766   6.505  73.292  1.00  0.00     0.000 HD 
HETATM    3 SI   UNL     1     -12.421   7.434  72.546  1.00  0.00    -0.319 Si 
HETATM    4  C   UNL     1     -10.760   6.107  69.282  1.00  0.00    -0.318 C  
HETATM    5  O   UNL     1     -10.974   7.415  69.804  1.00  0.00    -0.247 OA 
HETATM    6  O   UNL     1     -13.229   8.626  72.844  1.00  0.00    -0.673 OA 
HETATM    7  H   UNL     1     -13.956   8.728  72.242  1.00  0.00     0.000 HD 
ENDROOT
BRANCH   5   8
HETATM    8 SI   UNL     1      -9.800   8.591  69.521  1.00  0.00    -0.167 Si 
HETATM    9  C   UNL     1      -8.589   7.952  68.244  1.00  0.00    -0.124 C  
HETATM   10  C   UNL     1      -8.910   8.985  71.124  1.00  0.00    -0.215 C  
BRANCH   8  11
HETATM   11  O   UNL     1     -10.558   9.974  68.953  1.00  0.00    -0.200 OA 
HETATM   12 SI   UNL     1     -10.314  11.142  67.766  1.00  0.00    -0.166 Si 
HETATM   13  C   UNL     1      -8.692  12.070  68.030  1.00  0.00    -0.175 C  
HETATM   14  C   UNL     1     -11.691  12.421  67.735  1.00  0.00    -0.350 C  
HETATM   15  C   UNL     1     -10.226  10.340  66.062  1.00  0.00    -0.228 C  
ENDBRANCH   8  11
ENDBRANCH   5   8
TORSDOF 2
ENDMDL
MODEL      108
REMARK 921   NORMALIZED FREE ENERGY PREDICTED BY IDOCK:   -3.29 KCAL/MOL
REMARK 922        TOTAL FREE ENERGY PREDICTED BY IDOCK:   -3.91 KCAL/MOL
REMARK 923 INTER-LIGAND FREE ENERGY PREDICTED BY IDOCK:   -3.71 KCAL/MOL
REMARK 924 INTRA-LIGAND FREE ENERGY PREDICTED BY IDOCK:   -0.20 KCAL/MOL
REMARK 927      BINDING AFFINITY PREDICTED BY RF-SCORE:    0.00 PKD
ROOT
HETATM    1  O   UNL     1      -9.393   6.698  65.356  1.00  0.00    -0.328 OA 
HETATM    2  H   UNL     1      -9.094   7.593  65.240  1.00  0.00     0.000 HD 
HETATM    3 SI   UNL     1     -10.742   6.630  65.961  1.00  0.00    -0.437 Si 
HETATM    4  C   UNL     1     -10.536   9.688  68.366  1.00  0.00    -0.225 C  
HETATM    5  O   UNL     1     -10.353   8.288  68.552  1.00  0.00    -0.206 OA 
HETATM    6  O   UNL     1     -11.203   5.246  66.141  1.00  0.00    -0.731 OA 
HETATM    7  H   UNL     1     -12.068   5.202  66.529  1.00  0.00     0.000 HD 
ENDROOT
BRANCH   5   8
HETATM    8 SI   UNL     1      -9.184   7.774  69.653  1.00  0.00    -0.143 Si 
HETATM    9  C   UNL     1      -8.459   9.268  70.517  1.00  0.00    -0.216 C  
HETATM   10  C   UNL     1      -7.841   6.832  68.743  1.00  0.00    -0.111 C  
BRANCH   8  11
HETATM   11  O   UNL     1      -9.913   6.761  70.770  1.00  0.00    -0.186 OA 
HETATM   12 SI   UNL     1     -10.738   6.891  72.231  1.00  0.00    -0.201 Si 
HETATM   13  C   UNL     1      -9.666   7.686  73.565  1.00  0.00    -0.299 C  
HETATM   14  C   UNL     1     -11.294   5.217  72.884  1.00  0.00    -0.301 C  
HETATM   15  C   UNL     1     -12.269   7.972  72.028  1.00  0.00    -0.331 C  
ENDBRANCH   8  11
ENDBRANCH   5   8
TORSDOF 2
ENDMDL
MODEL      109
REMARK 921   NORMALIZED FREE ENERGY PREDICTED BY IDOCK:   -3.29 KCAL/MOL
REMARK 922        TOTAL FREE ENERGY PREDICTED BY IDOCK:   -3.91 KCAL/MOL
REMARK 923 INTER-LIGAND FREE ENERGY PREDICTED BY IDOCK:   -3.70 KCAL/MOL
REMARK 924 INTRA-LIGAND FREE ENERGY PREDICTED BY IDOCK:   -0.21 KCAL/MOL
REMARK 927      BINDING AFFINITY PREDICTED BY RF-SCORE:    0.00 PKD
ROOT
HETATM    1  O   UNL     1     -12.482  10.509  69.166  1.00  0.00    -0.750 OA 
HETATM    2  H   UNL     1     -13.323  10.946  69.108  1.00  0.00     0.000 HD 
HETATM    3 SI   UNL     1     -11.747  10.868  70.399  1.00  0.00    -0.211 Si 
HETATM    4  C   UNL     1     -12.827  14.596  70.742  1.00  0.00    -0.358 C  
HETATM    5  O   UNL     1     -11.670  13.962  70.205  1.00  0.00    -0.277 OA 
HETATM    6  O   UNL     1     -10.444  10.193  70.490  1.00  0.00    -0.384 OA 
HETATM    7  H   UNL     1      -9.973  10.423  71.281  1.00  0.00     0.000 HD 
ENDROOT
BRANCH   5   8
HETATM    8 SI   UNL     1     -10.934  14.652  68.854  1.00  0.00    -0.205 Si 
HETATM    9  C   UNL     1      -9.167  15.101  69.282  1.00  0.00    -0.205 C  
HETATM   10  C   UNL     1     -11.889  16.181  68.336  1.00  0.00     0.020 C  
BRANCH   8  11
HETATM   11  O   UNL     1     -10.957  13.534  67.606  1.00  0.00    -0.255 OA 
HETATM   12 SI   UNL     1     -11.320  13.494  65.963  1.00  0.00    -0.292 Si 
HETATM   13  C   UNL     1     -13.113  13.983  65.636  1.00  0.00    -0.147 C  
HETATM   14  C   UNL     1     -11.062  11.787  65.220  1.00  0.00    -0.276 C  
HETATM   15  C   UNL     1     -10.230  14.710  65.019  1.00  0.00    -0.361 C  
ENDBRANCH   8  11
ENDBRANCH   5   8
TORSDOF 2
ENDMDL
MODEL      110
REMARK 921   NORMALIZED FREE ENERGY PREDICTED BY IDOCK:   -3.28 KCAL/MOL
REMARK 922        TOTAL FREE ENERGY PREDICTED BY IDOCK:   -3.90 KCAL/MOL
REMARK 923 INTER-LIGAND FREE ENERGY PREDICTED BY IDOCK:   -3.69 KCAL/MOL
REMARK 924 INTRA-LIGAND FREE ENERGY PREDICTED BY IDOCK:   -0.21 KCAL/MOL
REMARK 927      BINDING AFFINITY PREDICTED BY RF-SCORE:    0.00 PKD
ROOT
HETATM    1  O   UNL     1      -8.542  11.640  62.428  1.00  0.00    -0.584 OA 
HETATM    2  H   UNL     1      -8.710  12.548  62.206  1.00  0.00     0.000 HD 
HETATM    3 SI   UNL     1      -9.791  10.859  62.579  1.00  0.00    -0.244 Si 
HETATM    4  C   UNL     1     -12.086  13.592  64.142  1.00  0.00    -0.435 C  
HETATM    5  O   UNL     1     -11.321  12.526  64.699  1.00  0.00    -0.298 OA 
HETATM    6  O   UNL     1      -9.532   9.454  62.924  1.00  0.00    -0.537 OA 
HETATM    7  H   UNL     1     -10.333   8.954  63.020  1.00  0.00     0.000 HD 
ENDROOT
BRANCH   5   8
HETATM    8 SI   UNL     1     -10.588  12.766  66.197  1.00  0.00    -0.248 Si 
HETATM    9  C   UNL     1     -11.624  11.944  67.523  1.00  0.00    -0.304 C  
HETATM   10  C   UNL     1     -10.439  14.605  66.532  1.00  0.00    -0.290 C  
BRANCH   8  11
HETATM   11  O   UNL     1      -9.058  12.083  66.157  1.00  0.00    -0.203 OA 
HETATM   12 SI   UNL     1      -7.712  11.959  67.159  1.00  0.00    -0.108 Si 
HETATM   13  C   UNL     1      -7.007  13.657  67.585  1.00  0.00    -0.172 C  
HETATM   14  C   UNL     1      -6.329  10.961  66.370  1.00  0.00    -0.132 C  
HETATM   15  C   UNL     1      -8.177  11.124  68.785  1.00  0.00    -0.135 C  
ENDBRANCH   8  11
ENDBRANCH   5   8
TORSDOF 2
ENDMDL
MODEL      111
REMARK 921   NORMALIZED FREE ENERGY PREDICTED BY IDOCK:   -3.28 KCAL/MOL
REMARK 922        TOTAL FREE ENERGY PREDICTED BY IDOCK:   -3.90 KCAL/MOL
REMARK 923 INTER-LIGAND FREE ENERGY PREDICTED BY IDOCK:   -3.82 KCAL/MOL
REMARK 924 INTRA-LIGAND FREE ENERGY PREDICTED BY IDOCK:   -0.08 KCAL/MOL
REMARK 927      BINDING AFFINITY PREDICTED BY RF-SCORE:    0.00 PKD
ROOT
HETATM    1  O   UNL     1     -12.648  10.352  69.437  1.00  0.00    -0.687 OA 
HETATM    2  H   UNL     1     -13.012   9.544  69.778  1.00  0.00     0.000 HD 
HETATM    3 SI   UNL     1     -12.245  10.232  68.018  1.00  0.00    -0.471 Si 
HETATM    4  C   UNL     1     -10.986   6.545  68.006  1.00  0.00    -0.282 C  
HETATM    5  O   UNL     1     -10.323   7.801  68.116  1.00  0.00    -0.197 OA 
HETATM    6  O   UNL     1     -11.681  11.482  67.490  1.00  0.00    -0.555 OA 
HETATM    7  H   UNL     1     -11.423  11.405  66.580  1.00  0.00     0.000 HD 
ENDROOT
BRANCH   5   8
HETATM    8 SI   UNL     1      -8.966   7.904  69.110  1.00  0.00    -0.134 Si 
HETATM    9  C   UNL     1      -8.119   9.549  68.821  1.00  0.00    -0.096 C  
HETATM   10  C   UNL     1      -7.796   6.491  68.719  1.00  0.00    -0.110 C  
BRANCH   8  11
HETATM   11  O   UNL     1      -9.465   7.787  70.706  1.00  0.00    -0.161 OA 
HETATM   12 SI   UNL     1     -10.514   6.847  71.626  1.00  0.00    -0.197 Si 
HETATM   13  C   UNL     1     -12.294   6.998  71.019  1.00  0.00    -0.356 C  
HETATM   14  C   UNL     1     -10.499   7.337  73.441  1.00  0.00    -0.377 C  
HETATM   15  C   UNL     1     -10.038   5.026  71.512  1.00  0.00    -0.196 C  
ENDBRANCH   8  11
ENDBRANCH   5   8
TORSDOF 2
ENDMDL
MODEL      112
REMARK 921   NORMALIZED FREE ENERGY PREDICTED BY IDOCK:   -3.28 KCAL/MOL
REMARK 922        TOTAL FREE ENERGY PREDICTED BY IDOCK:   -3.90 KCAL/MOL
REMARK 923 INTER-LIGAND FREE ENERGY PREDICTED BY IDOCK:   -3.66 KCAL/MOL
REMARK 924 INTRA-LIGAND FREE ENERGY PREDICTED BY IDOCK:   -0.23 KCAL/MOL
REMARK 927      BINDING AFFINITY PREDICTED BY RF-SCORE:    0.00 PKD
ROOT
HETATM    1  O   UNL     1     -11.092   8.312  67.584  1.00  0.00    -0.483 OA 
HETATM    2  H   UNL     1     -11.480   9.018  68.088  1.00  0.00     0.000 HD 
HETATM    3 SI   UNL     1     -11.905   7.076  67.633  1.00  0.00    -0.527 Si 
HETATM    4  C   UNL     1     -13.228   7.307  71.291  1.00  0.00    -0.289 C  
HETATM    5  O   UNL     1     -12.145   6.604  70.689  1.00  0.00    -0.394 OA 
HETATM    6  O   UNL     1     -11.305   5.982  66.855  1.00  0.00    -0.567 OA 
HETATM    7  H   UNL     1     -11.826   5.190  66.887  1.00  0.00     0.000 HD 
ENDROOT
BRANCH   5   8
HETATM    8 SI   UNL     1     -10.724   6.414  71.575  1.00  0.00    -0.206 Si 
HETATM    9  C   UNL     1     -10.720   7.635  72.995  1.00  0.00    -0.391 C  
HETATM   10  C   UNL     1      -9.247   6.710  70.457  1.00  0.00    -0.156 C  
BRANCH   8  11
HETATM   11  O   UNL     1     -10.669   4.846  72.164  1.00  0.00    -0.198 OA 
HETATM   12 SI   UNL     1      -9.642   3.515  72.094  1.00  0.00    -0.098 Si 
HETATM   13  C   UNL     1      -9.398   2.919  70.320  1.00  0.00    -0.149 C  
HETATM   14  C   UNL     1     -10.298   2.060  73.087  1.00  0.00    -0.124 C  
HETATM   15  C   UNL     1      -7.940   3.961  72.772  1.00  0.00    -0.082 C  
ENDBRANCH   8  11
ENDBRANCH   5   8
TORSDOF 2
ENDMDL
MODEL      113
REMARK 921   NORMALIZED FREE ENERGY PREDICTED BY IDOCK:   -3.27 KCAL/MOL
REMARK 922        TOTAL FREE ENERGY PREDICTED BY IDOCK:   -3.88 KCAL/MOL
REMARK 923 INTER-LIGAND FREE ENERGY PREDICTED BY IDOCK:   -3.71 KCAL/MOL
REMARK 924 INTRA-LIGAND FREE ENERGY PREDICTED BY IDOCK:   -0.18 KCAL/MOL
REMARK 927      BINDING AFFINITY PREDICTED BY RF-SCORE:    0.00 PKD
ROOT
HETATM    1  O   UNL     1     -13.804   8.818  73.253  1.00  0.00    -1.115 OA 
HETATM    2  H   UNL     1     -14.027   7.905  73.111  1.00  0.00     0.000 HD 
HETATM    3 SI   UNL     1     -13.538   9.535  71.986  1.00  0.00    -0.323 Si 
HETATM    4  C   UNL     1     -11.835   6.675  69.961  1.00  0.00    -0.238 C  
HETATM    5  O   UNL     1     -11.327   7.769  70.719  1.00  0.00    -0.276 OA 
HETATM    6  O   UNL     1     -13.192  10.946  72.205  1.00  0.00    -0.613 OA 
HETATM    7  H   UNL     1     -13.022  11.406  71.393  1.00  0.00     0.000 HD 
ENDROOT
BRANCH   5   8
HETATM    8 SI   UNL     1      -9.898   7.546  71.585  1.00  0.00    -0.158 Si 
HETATM    9  C   UNL     1     -10.296   7.471  73.413  1.00  0.00    -0.350 C  
HETATM   10  C   UNL     1      -8.725   8.967  71.231  1.00  0.00    -0.215 C  
BRANCH   8  11
HETATM   11  O   UNL     1      -9.194   6.109  71.090  1.00  0.00    -0.152 OA 
HETATM   12 SI   UNL     1      -7.900   5.607  70.138  1.00  0.00    -0.072 Si 
HETATM   13  C   UNL     1      -8.078   6.201  68.356  1.00  0.00    -0.108 C  
HETATM   14  C   UNL     1      -7.737   3.735  70.090  1.00  0.00    -0.048 C  
HETATM   15  C   UNL     1      -6.282   6.314  70.802  1.00  0.00    -0.039 C  
ENDBRANCH   8  11
ENDBRANCH   5   8
TORSDOF 2
ENDMDL
MODEL      114
REMARK 921   NORMALIZED FREE ENERGY PREDICTED BY IDOCK:   -3.26 KCAL/MOL
REMARK 922        TOTAL FREE ENERGY PREDICTED BY IDOCK:   -3.88 KCAL/MOL
REMARK 923 INTER-LIGAND FREE ENERGY PREDICTED BY IDOCK:   -3.65 KCAL/MOL
REMARK 924 INTRA-LIGAND FREE ENERGY PREDICTED BY IDOCK:   -0.23 KCAL/MOL
REMARK 927      BINDING AFFINITY PREDICTED BY RF-SCORE:    0.00 PKD
ROOT
HETATM    1  O   UNL     1     -13.800   8.806  73.206  1.00  0.00    -1.115 OA 
HETATM    2  H   UNL     1     -14.012   7.881  73.148  1.00  0.00     0.000 HD 
HETATM    3 SI   UNL     1     -13.470   9.390  71.887  1.00  0.00    -0.303 Si 
HETATM    4  C   UNL     1     -11.654   6.350  70.262  1.00  0.00    -0.383 C  
HETATM    5  O   UNL     1     -11.189   7.521  70.927  1.00  0.00    -0.259 OA 
HETATM    6  O   UNL     1     -13.141  10.819  71.976  1.00  0.00    -0.483 OA 
HETATM    7  H   UNL     1     -12.929  11.194  71.130  1.00  0.00     0.000 HD 
ENDROOT
BRANCH   5   8
HETATM    8 SI   UNL     1      -9.807   7.402  71.884  1.00  0.00    -0.157 Si 
HETATM    9  C   UNL     1     -10.284   7.642  73.679  1.00  0.00    -0.176 C  
HETATM   10  C   UNL     1      -8.569   8.709  71.358  1.00  0.00    -0.192 C  
BRANCH   8  11
HETATM   11  O   UNL     1      -9.137   5.882  71.665  1.00  0.00    -0.143 OA 
HETATM   12 SI   UNL     1      -8.853   4.493  72.573  1.00  0.00    -0.104 Si 
HETATM   13  C   UNL     1      -7.722   4.844  74.042  1.00  0.00    -0.098 C  
HETATM   14  C   UNL     1      -8.043   3.135  71.556  1.00  0.00    -0.060 C  
HETATM   15  C   UNL     1     -10.471   3.816  73.263  1.00  0.00    -0.177 C  
ENDBRANCH   8  11
ENDBRANCH   5   8
TORSDOF 2
ENDMDL
MODEL      115
REMARK 921   NORMALIZED FREE ENERGY PREDICTED BY IDOCK:   -3.26 KCAL/MOL
REMARK 922        TOTAL FREE ENERGY PREDICTED BY IDOCK:   -3.87 KCAL/MOL
REMARK 923 INTER-LIGAND FREE ENERGY PREDICTED BY IDOCK:   -3.68 KCAL/MOL
REMARK 924 INTRA-LIGAND FREE ENERGY PREDICTED BY IDOCK:   -0.19 KCAL/MOL
REMARK 927      BINDING AFFINITY PREDICTED BY RF-SCORE:    0.00 PKD
ROOT
HETATM    1  O   UNL     1      -7.561  12.652  69.019  1.00  0.00    -0.307 OA 
HETATM    2  H   UNL     1      -7.989  11.808  68.933  1.00  0.00     0.000 HD 
HETATM    3 SI   UNL     1      -8.385  13.625  69.770  1.00  0.00    -0.306 Si 
HETATM    4  C   UNL     1     -11.929  12.562  68.548  1.00  0.00    -0.219 C  
HETATM    5  O   UNL     1     -11.028  13.591  68.149  1.00  0.00    -0.240 OA 
HETATM    6  O   UNL     1      -7.724  14.931  69.902  1.00  0.00    -0.386 OA 
HETATM    7  H   UNL     1      -8.252  15.555  70.384  1.00  0.00     0.000 HD 
ENDROOT
BRANCH   5   8
HETATM    8 SI   UNL     1     -10.961  14.006  66.517  1.00  0.00    -0.282 Si 
HETATM    9  C   UNL     1     -12.530  13.428  65.674  1.00  0.00    -0.464 C  
HETATM   10  C   UNL     1      -9.462  13.202  65.729  1.00  0.00     0.047 C  
BRANCH   8  11
HETATM   11  O   UNL     1     -10.825  15.672  66.397  1.00  0.00    -0.306 OA 
HETATM   12 SI   UNL     1      -9.896  16.907  67.063  1.00  0.00    -0.232 Si 
HETATM   13  C   UNL     1     -10.108  17.001  68.936  1.00  0.00    -0.307 C  
HETATM   14  C   UNL     1     -10.348  18.592  66.364  1.00  0.00    -0.432 C  
HETATM   15  C   UNL     1      -8.065  16.609  66.724  1.00  0.00    -0.246 C  
ENDBRANCH   8  11
ENDBRANCH   5   8
TORSDOF 2
ENDMDL
MODEL      116
REMARK 921   NORMALIZED FREE ENERGY PREDICTED BY IDOCK:   -3.26 KCAL/MOL
REMARK 922        TOTAL FREE ENERGY PREDICTED BY IDOCK:   -3.87 KCAL/MOL
REMARK 923 INTER-LIGAND FREE ENERGY PREDICTED BY IDOCK:   -3.66 KCAL/MOL
REMARK 924 INTRA-LIGAND FREE ENERGY PREDICTED BY IDOCK:   -0.22 KCAL/MOL
REMARK 927      BINDING AFFINITY PREDICTED BY RF-SCORE:    0.00 PKD
ROOT
HETATM    1  O   UNL     1     -13.984   8.258  70.973  1.00  0.00    -0.592 OA 
HETATM    2  H   UNL     1     -13.531   8.374  70.146  1.00  0.00     0.000 HD 
HETATM    3 SI   UNL     1     -13.483   9.174  72.021  1.00  0.00    -0.302 Si 
HETATM    4  C   UNL     1      -9.709   9.272  71.057  1.00  0.00    -0.271 C  
HETATM    5  O   UNL     1     -10.450   8.530  72.022  1.00  0.00    -0.281 OA 
HETATM    6  O   UNL     1     -14.183   8.994  73.301  1.00  0.00    -1.192 OA 
HETATM    7  H   UNL     1     -13.862   9.582  73.974  1.00  0.00     0.000 HD 
ENDROOT
BRANCH   5   8
HETATM    8 SI   UNL     1      -9.977   6.945  72.345  1.00  0.00    -0.162 Si 
HETATM    9  C   UNL     1     -11.493   5.846  72.364  1.00  0.00    -0.306 C  
HETATM   10  C   UNL     1      -9.104   6.880  74.004  1.00  0.00    -0.195 C  
BRANCH   8  11
HETATM   11  O   UNL     1      -8.922   6.448  71.142  1.00  0.00    -0.145 OA 
HETATM   12 SI   UNL     1      -7.291   6.064  70.984  1.00  0.00    -0.062 Si 
HETATM   13  C   UNL     1      -6.187   7.528  71.428  1.00  0.00    -0.035 C  
HETATM   14  C   UNL     1      -6.851   5.544  69.231  1.00  0.00    -0.061 C  
HETATM   15  C   UNL     1      -6.833   4.648  72.142  1.00  0.00    -0.055 C  
ENDBRANCH   8  11
ENDBRANCH   5   8
TORSDOF 2
ENDMDL
MODEL      117
REMARK 921   NORMALIZED FREE ENERGY PREDICTED BY IDOCK:   -3.25 KCAL/MOL
REMARK 922        TOTAL FREE ENERGY PREDICTED BY IDOCK:   -3.87 KCAL/MOL
REMARK 923 INTER-LIGAND FREE ENERGY PREDICTED BY IDOCK:   -3.64 KCAL/MOL
REMARK 924 INTRA-LIGAND FREE ENERGY PREDICTED BY IDOCK:   -0.23 KCAL/MOL
REMARK 927      BINDING AFFINITY PREDICTED BY RF-SCORE:    0.00 PKD
ROOT
HETATM    1  O   UNL     1     -12.755  10.122  70.165  1.00  0.00    -0.547 OA 
HETATM    2  H   UNL     1     -13.059   9.373  70.664  1.00  0.00     0.000 HD 
HETATM    3 SI   UNL     1     -12.506   9.786  68.745  1.00  0.00    -0.341 Si 
HETATM    4  C   UNL     1     -11.158   6.154  69.159  1.00  0.00    -0.378 C  
HETATM    5  O   UNL     1     -10.520   7.418  69.000  1.00  0.00    -0.207 OA 
HETATM    6  O   UNL     1     -12.036  10.944  67.972  1.00  0.00    -0.744 OA 
HETATM    7  H   UNL     1     -11.876  10.729  67.061  1.00  0.00     0.000 HD 
ENDROOT
BRANCH   5   8
HETATM    8 SI   UNL     1      -9.067   7.687  69.809  1.00  0.00    -0.137 Si 
HETATM    9  C   UNL     1      -9.022   9.459  70.415  1.00  0.00    -0.250 C  
HETATM   10  C   UNL     1      -7.634   7.360  68.645  1.00  0.00    -0.110 C  
BRANCH   8  11
HETATM   11  O   UNL     1      -8.978   6.633  71.109  1.00  0.00    -0.144 OA 
HETATM   12 SI   UNL     1      -9.093   6.697  72.787  1.00  0.00    -0.132 Si 
HETATM   13  C   UNL     1      -7.770   7.818  73.531  1.00  0.00    -0.140 C  
HETATM   14  C   UNL     1      -8.898   5.002  73.577  1.00  0.00    -0.115 C  
HETATM   15  C   UNL     1     -10.768   7.390  73.305  1.00  0.00    -0.391 C  
ENDBRANCH   8  11
ENDBRANCH   5   8
TORSDOF 2
ENDMDL
MODEL      118
REMARK 921   NORMALIZED FREE ENERGY PREDICTED BY IDOCK:   -3.23 KCAL/MOL
REMARK 922        TOTAL FREE ENERGY PREDICTED BY IDOCK:   -3.85 KCAL/MOL
REMARK 923 INTER-LIGAND FREE ENERGY PREDICTED BY IDOCK:   -3.64 KCAL/MOL
REMARK 924 INTRA-LIGAND FREE ENERGY PREDICTED BY IDOCK:   -0.21 KCAL/MOL
REMARK 927      BINDING AFFINITY PREDICTED BY RF-SCORE:    0.00 PKD
ROOT
HETATM    1  O   UNL     1     -10.828  15.635  71.033  1.00  0.00    -0.297 OA 
HETATM    2  H   UNL     1     -10.185  16.165  71.489  1.00  0.00     0.000 HD 
HETATM    3 SI   UNL     1     -10.287  14.316  70.635  1.00  0.00    -0.421 Si 
HETATM    4  C   UNL     1      -6.621  15.338  69.799  1.00  0.00    -0.177 C  
HETATM    5  O   UNL     1      -7.783  15.133  68.999  1.00  0.00    -0.148 OA 
HETATM    6  O   UNL     1     -11.281  13.495  69.930  1.00  0.00    -0.471 OA 
HETATM    7  H   UNL     1     -10.934  12.649  69.674  1.00  0.00     0.000 HD 
ENDROOT
BRANCH   5   8
HETATM    8 SI   UNL     1      -8.006  16.115  67.647  1.00  0.00    -0.128 Si 
HETATM    9  C   UNL     1      -8.979  15.168  66.358  1.00  0.00    -0.279 C  
HETATM   10  C   UNL     1      -6.336  16.623  66.962  1.00  0.00    -0.187 C  
BRANCH   8  11
HETATM   11  O   UNL     1      -8.853  17.483  68.117  1.00  0.00    -0.247 OA 
HETATM   12 SI   UNL     1      -8.655  19.154  68.084  1.00  0.00    -0.262 Si 
HETATM   13  C   UNL     1      -7.132  19.692  69.058  1.00  0.00    -0.352 C  
HETATM   14  C   UNL     1     -10.134  20.057  68.814  1.00  0.00    -0.308 C  
HETATM   15  C   UNL     1      -8.425  19.754  66.311  1.00  0.00    -0.361 C  
ENDBRANCH   8  11
ENDBRANCH   5   8
TORSDOF 2
ENDMDL
MODEL      119
REMARK 921   NORMALIZED FREE ENERGY PREDICTED BY IDOCK:   -3.23 KCAL/MOL
REMARK 922        TOTAL FREE ENERGY PREDICTED BY IDOCK:   -3.84 KCAL/MOL
REMARK 923 INTER-LIGAND FREE ENERGY PREDICTED BY IDOCK:   -3.61 KCAL/MOL
REMARK 924 INTRA-LIGAND FREE ENERGY PREDICTED BY IDOCK:   -0.23 KCAL/MOL
REMARK 927      BINDING AFFINITY PREDICTED BY RF-SCORE:    0.00 PKD
ROOT
HETATM    1  O   UNL     1      -7.567  14.759  70.166  1.00  0.00    -0.361 OA 
HETATM    2  H   UNL     1      -7.072  15.565  70.259  1.00  0.00     0.000 HD 
HETATM    3 SI   UNL     1      -7.351  14.117  68.850  1.00  0.00    -0.091 Si 
HETATM    4  C   UNL     1      -7.015  17.294  66.619  1.00  0.00    -0.237 C  
HETATM    5  O   UNL     1      -8.097  16.411  66.902  1.00  0.00    -0.179 OA 
HETATM    6  O   UNL     1      -8.116  12.871  68.705  1.00  0.00    -0.324 OA 
HETATM    7  H   UNL     1      -7.977  12.459  67.861  1.00  0.00     0.000 HD 
ENDROOT
BRANCH   5   8
HETATM    8 SI   UNL     1      -9.651  17.057  66.998  1.00  0.00    -0.223 Si 
HETATM    9  C   UNL     1      -9.606  18.845  66.443  1.00  0.00    -0.351 C  
HETATM   10  C   UNL     1     -10.269  16.938  68.765  1.00  0.00    -0.311 C  
BRANCH   8  11
HETATM   11  O   UNL     1     -10.660  16.169  65.997  1.00  0.00    -0.319 OA 
HETATM   12 SI   UNL     1     -11.216  14.587  65.860  1.00  0.00    -0.295 Si 
HETATM   13  C   UNL     1      -9.795  13.372  65.603  1.00  0.00    -0.163 C  
HETATM   14  C   UNL     1     -12.401  14.374  64.416  1.00  0.00    -0.403 C  
HETATM   15  C   UNL     1     -12.116  14.068  67.433  1.00  0.00    -0.349 C  
ENDBRANCH   8  11
ENDBRANCH   5   8
TORSDOF 2
ENDMDL
MODEL      120
REMARK 921   NORMALIZED FREE ENERGY PREDICTED BY IDOCK:   -3.21 KCAL/MOL
REMARK 922        TOTAL FREE ENERGY PREDICTED BY IDOCK:   -3.83 KCAL/MOL
REMARK 923 INTER-LIGAND FREE ENERGY PREDICTED BY IDOCK:   -3.64 KCAL/MOL
REMARK 924 INTRA-LIGAND FREE ENERGY PREDICTED BY IDOCK:   -0.19 KCAL/MOL
REMARK 927      BINDING AFFINITY PREDICTED BY RF-SCORE:    0.00 PKD
ROOT
HETATM    1  O   UNL     1      -6.981  10.594  70.436  1.00  0.00    -0.412 OA 
HETATM    2  H   UNL     1      -7.583   9.949  70.789  1.00  0.00     0.000 HD 
HETATM    3 SI   UNL     1      -7.602  11.932  70.310  1.00  0.00    -0.295 Si 
HETATM    4  C   UNL     1     -11.227  10.882  69.344  1.00  0.00    -0.272 C  
HETATM    5  O   UNL     1     -10.099  11.304  68.583  1.00  0.00    -0.197 OA 
HETATM    6  O   UNL     1      -6.671  12.930  69.764  1.00  0.00    -0.335 OA 
HETATM    7  H   UNL     1      -7.069  13.788  69.684  1.00  0.00     0.000 HD 
ENDROOT
BRANCH   5   8
HETATM    8 SI   UNL     1      -9.858  10.618  67.063  1.00  0.00    -0.160 Si 
HETATM    9  C   UNL     1     -10.168   8.774  67.168  1.00  0.00    -0.276 C  
HETATM   10  C   UNL     1      -8.101  10.953  66.498  1.00  0.00    -0.154 C  
BRANCH   8  11
HETATM   11  O   UNL     1     -10.931  11.321  65.985  1.00  0.00    -0.257 OA 
HETATM   12 SI   UNL     1     -10.887  12.398  64.692  1.00  0.00    -0.266 Si 
HETATM   13  C   UNL     1     -10.219  14.083  65.216  1.00  0.00    -0.360 C  
HETATM   14  C   UNL     1     -12.589  12.679  63.945  1.00  0.00    -0.337 C  
HETATM   15  C   UNL     1      -9.755  11.747  63.332  1.00  0.00    -0.318 C  
ENDBRANCH   8  11
ENDBRANCH   5   8
TORSDOF 2
ENDMDL
MODEL      121
REMARK 921   NORMALIZED FREE ENERGY PREDICTED BY IDOCK:   -3.21 KCAL/MOL
REMARK 922        TOTAL FREE ENERGY PREDICTED BY IDOCK:   -3.82 KCAL/MOL
REMARK 923 INTER-LIGAND FREE ENERGY PREDICTED BY IDOCK:   -3.61 KCAL/MOL
REMARK 924 INTRA-LIGAND FREE ENERGY PREDICTED BY IDOCK:   -0.21 KCAL/MOL
REMARK 927      BINDING AFFINITY PREDICTED BY RF-SCORE:    0.00 PKD
ROOT
HETATM    1  O   UNL     1     -11.596   4.477  65.070  1.00  0.00    -1.101 OA 
HETATM    2  H   UNL     1     -12.339   4.939  65.441  1.00  0.00     0.000 HD 
HETATM    3 SI   UNL     1     -10.849   3.706  66.089  1.00  0.00    -0.403 Si 
HETATM    4  C   UNL     1     -11.226   6.106  69.134  1.00  0.00    -0.339 C  
HETATM    5  O   UNL     1     -10.190   5.899  68.178  1.00  0.00    -0.152 OA 
HETATM    6  O   UNL     1      -9.699   2.992  65.515  1.00  0.00    -0.366 OA 
HETATM    7  H   UNL     1      -9.220   2.497  66.168  1.00  0.00     0.000 HD 
ENDROOT
BRANCH   5   8
HETATM    8 SI   UNL     1      -9.294   7.233  67.670  1.00  0.00    -0.126 Si 
HETATM    9  C   UNL     1     -10.465   8.625  67.228  1.00  0.00    -0.289 C  
HETATM   10  C   UNL     1      -8.255   6.758  66.183  1.00  0.00    -0.124 C  
BRANCH   8  11
HETATM   11  O   UNL     1      -8.286   7.706  68.923  1.00  0.00    -0.125 OA 
HETATM   12 SI   UNL     1      -8.141   8.990  70.001  1.00  0.00    -0.079 Si 
HETATM   13  C   UNL     1      -7.885  10.628  69.099  1.00  0.00    -0.142 C  
HETATM   14  C   UNL     1      -6.693   8.768  71.179  1.00  0.00    -0.075 C  
HETATM   15  C   UNL     1      -9.709   9.161  71.034  1.00  0.00    -0.289 C  
ENDBRANCH   8  11
ENDBRANCH   5   8
TORSDOF 2
ENDMDL
MODEL      122
REMARK 921   NORMALIZED FREE ENERGY PREDICTED BY IDOCK:   -3.20 KCAL/MOL
REMARK 922        TOTAL FREE ENERGY PREDICTED BY IDOCK:   -3.81 KCAL/MOL
REMARK 923 INTER-LIGAND FREE ENERGY PREDICTED BY IDOCK:   -3.60 KCAL/MOL
REMARK 924 INTRA-LIGAND FREE ENERGY PREDICTED BY IDOCK:   -0.21 KCAL/MOL
REMARK 927      BINDING AFFINITY PREDICTED BY RF-SCORE:    0.00 PKD
ROOT
HETATM    1  O   UNL     1     -12.874  11.083  70.886  1.00  0.00    -0.338 OA 
HETATM    2  H   UNL     1     -13.320  10.742  71.652  1.00  0.00     0.000 HD 
HETATM    3 SI   UNL     1     -12.939  10.153  69.737  1.00  0.00    -0.509 Si 
HETATM    4  C   UNL     1     -12.722   6.756  71.634  1.00  0.00    -0.312 C  
HETATM    5  O   UNL     1     -11.757   7.561  70.962  1.00  0.00    -0.285 OA 
HETATM    6  O   UNL     1     -12.250  10.681  68.551  1.00  0.00    -0.822 OA 
HETATM    7  H   UNL     1     -12.291  10.084  67.814  1.00  0.00     0.000 HD 
ENDROOT
BRANCH   5   8
HETATM    8 SI   UNL     1     -10.193   7.623  71.587  1.00  0.00    -0.177 Si 
HETATM    9  C   UNL     1     -10.277   7.545  73.456  1.00  0.00    -0.324 C  
HETATM   10  C   UNL     1      -9.363   9.212  71.037  1.00  0.00    -0.263 C  
BRANCH   8  11
HETATM   11  O   UNL     1      -9.331   6.313  70.995  1.00  0.00    -0.160 OA 
HETATM   12 SI   UNL     1      -8.663   4.883  71.579  1.00  0.00    -0.108 Si 
HETATM   13  C   UNL     1      -7.360   5.216  72.903  1.00  0.00    -0.091 C  
HETATM   14  C   UNL     1      -7.837   3.879  70.221  1.00  0.00    -0.047 C  
HETATM   15  C   UNL     1      -9.996   3.807  72.367  1.00  0.00    -0.164 C  
ENDBRANCH   8  11
ENDBRANCH   5   8
TORSDOF 2
ENDMDL
MODEL      123
REMARK 921   NORMALIZED FREE ENERGY PREDICTED BY IDOCK:   -3.19 KCAL/MOL
REMARK 922        TOTAL FREE ENERGY PREDICTED BY IDOCK:   -3.80 KCAL/MOL
REMARK 923 INTER-LIGAND FREE ENERGY PREDICTED BY IDOCK:   -3.59 KCAL/MOL
REMARK 924 INTRA-LIGAND FREE ENERGY PREDICTED BY IDOCK:   -0.21 KCAL/MOL
REMARK 927      BINDING AFFINITY PREDICTED BY RF-SCORE:    0.00 PKD
ROOT
HETATM    1  O   UNL     1     -10.981   8.720  67.509  1.00  0.00    -0.482 OA 
HETATM    2  H   UNL     1     -11.376   9.364  68.085  1.00  0.00     0.000 HD 
HETATM    3 SI   UNL     1     -11.667   7.410  67.577  1.00  0.00    -0.501 Si 
HETATM    4  C   UNL     1     -12.610   7.361  71.358  1.00  0.00    -0.370 C  
HETATM    5  O   UNL     1     -11.537   6.791  70.613  1.00  0.00    -0.326 OA 
HETATM    6  O   UNL     1     -11.056   6.414  66.687  1.00  0.00    -0.656 OA 
HETATM    7  H   UNL     1     -11.497   5.574  66.730  1.00  0.00     0.000 HD 
ENDROOT
BRANCH   5   8
HETATM    8 SI   UNL     1     -10.018   6.703  71.338  1.00  0.00    -0.174 Si 
HETATM    9  C   UNL     1     -10.060   7.634  72.962  1.00  0.00    -0.304 C  
HETATM   10  C   UNL     1      -8.734   7.448  70.192  1.00  0.00    -0.143 C  
BRANCH   8  11
HETATM   11  O   UNL     1      -9.651   5.090  71.610  1.00  0.00    -0.147 OA 
HETATM   12 SI   UNL     1      -9.328   4.079  72.916  1.00  0.00    -0.105 Si 
HETATM   13  C   UNL     1      -7.805   4.648  73.873  1.00  0.00    -0.101 C  
HETATM   14  C   UNL     1      -9.022   2.303  72.380  1.00  0.00    -0.073 C  
HETATM   15  C   UNL     1     -10.778   4.080  74.122  1.00  0.00    -0.211 C  
ENDBRANCH   8  11
ENDBRANCH   5   8
TORSDOF 2
ENDMDL
MODEL      124
REMARK 921   NORMALIZED FREE ENERGY PREDICTED BY IDOCK:   -3.19 KCAL/MOL
REMARK 922        TOTAL FREE ENERGY PREDICTED BY IDOCK:   -3.80 KCAL/MOL
REMARK 923 INTER-LIGAND FREE ENERGY PREDICTED BY IDOCK:   -3.54 KCAL/MOL
REMARK 924 INTRA-LIGAND FREE ENERGY PREDICTED BY IDOCK:   -0.25 KCAL/MOL
REMARK 927      BINDING AFFINITY PREDICTED BY RF-SCORE:    0.00 PKD
ROOT
HETATM    1  O   UNL     1     -11.246  11.582  64.000  1.00  0.00    -0.369 OA 
HETATM    2  H   UNL     1     -11.109  10.641  63.991  1.00  0.00     0.000 HD 
HETATM    3 SI   UNL     1      -9.974  12.333  64.083  1.00  0.00    -0.257 Si 
HETATM    4  C   UNL     1      -7.942   9.928  66.378  1.00  0.00    -0.111 C  
HETATM    5  O   UNL     1      -8.690  11.114  66.629  1.00  0.00    -0.154 OA 
HETATM    6  O   UNL     1     -10.185  13.788  64.098  1.00  0.00    -0.705 OA 
HETATM    7  H   UNL     1      -9.369  14.270  64.151  1.00  0.00     0.000 HD 
ENDROOT
BRANCH   5   8
HETATM    8 SI   UNL     1      -9.543  11.230  68.078  1.00  0.00    -0.151 Si 
HETATM    9  C   UNL     1      -8.553  10.408  69.438  1.00  0.00    -0.130 C  
HETATM   10  C   UNL     1     -11.212  10.395  67.890  1.00  0.00    -0.263 C  
BRANCH   8  11
HETATM   11  O   UNL     1      -9.771  12.852  68.434  1.00  0.00    -0.223 OA 
HETATM   12 SI   UNL     1     -11.053  13.915  68.680  1.00  0.00    -0.212 Si 
HETATM   13  C   UNL     1     -12.159  14.033  67.156  1.00  0.00    -0.401 C  
HETATM   14  C   UNL     1     -10.465  15.655  69.081  1.00  0.00    -0.236 C  
HETATM   15  C   UNL     1     -12.132  13.323  70.109  1.00  0.00    -0.333 C  
ENDBRANCH   8  11
ENDBRANCH   5   8
TORSDOF 2
ENDMDL
MODEL      125
REMARK 921   NORMALIZED FREE ENERGY PREDICTED BY IDOCK:   -3.19 KCAL/MOL
REMARK 922        TOTAL FREE ENERGY PREDICTED BY IDOCK:   -3.80 KCAL/MOL
REMARK 923 INTER-LIGAND FREE ENERGY PREDICTED BY IDOCK:   -3.62 KCAL/MOL
REMARK 924 INTRA-LIGAND FREE ENERGY PREDICTED BY IDOCK:   -0.18 KCAL/MOL
REMARK 927      BINDING AFFINITY PREDICTED BY RF-SCORE:    0.00 PKD
ROOT
HETATM    1  O   UNL     1     -12.919  15.210  69.816  1.00  0.00    -0.587 OA 
HETATM    2  H   UNL     1     -13.338  15.577  69.046  1.00  0.00     0.000 HD 
HETATM    3 SI   UNL     1     -11.479  15.544  69.885  1.00  0.00    -0.217 Si 
HETATM    4  C   UNL     1     -10.603  15.444  66.090  1.00  0.00    -0.316 C  
HETATM    5  O   UNL     1     -10.463  14.500  67.147  1.00  0.00    -0.264 OA 
HETATM    6  O   UNL     1     -10.831  14.975  71.075  1.00  0.00    -0.545 OA 
HETATM    7  H   UNL     1      -9.907  15.190  71.119  1.00  0.00     0.000 HD 
ENDROOT
BRANCH   5   8
HETATM    8 SI   UNL     1     -10.676  12.866  66.794  1.00  0.00    -0.242 Si 
HETATM    9  C   UNL     1     -11.915  12.698  65.401  1.00  0.00    -0.446 C  
HETATM   10  C   UNL     1     -11.289  11.971  68.325  1.00  0.00    -0.286 C  
BRANCH   8  11
HETATM   11  O   UNL     1      -9.199  12.224  66.331  1.00  0.00    -0.227 OA 
HETATM   12 SI   UNL     1      -8.435  10.725  66.304  1.00  0.00    -0.126 Si 
HETATM   13  C   UNL     1      -8.273   9.998  68.038  1.00  0.00    -0.116 C  
HETATM   14  C   UNL     1      -6.705  10.823  65.575  1.00  0.00     0.014 C  
HETATM   15  C   UNL     1      -9.430   9.498  65.276  1.00  0.00    -0.258 C  
ENDBRANCH   8  11
ENDBRANCH   5   8
TORSDOF 2
ENDMDL
MODEL      126
REMARK 921   NORMALIZED FREE ENERGY PREDICTED BY IDOCK:   -3.18 KCAL/MOL
REMARK 922        TOTAL FREE ENERGY PREDICTED BY IDOCK:   -3.79 KCAL/MOL
REMARK 923 INTER-LIGAND FREE ENERGY PREDICTED BY IDOCK:   -3.59 KCAL/MOL
REMARK 924 INTRA-LIGAND FREE ENERGY PREDICTED BY IDOCK:   -0.20 KCAL/MOL
REMARK 927      BINDING AFFINITY PREDICTED BY RF-SCORE:    0.00 PKD
ROOT
HETATM    1  O   UNL     1     -13.223   7.441  70.859  1.00  0.00    -0.604 OA 
HETATM    2  H   UNL     1     -13.675   7.801  70.105  1.00  0.00     0.000 HD 
HETATM    3 SI   UNL     1     -12.737   8.495  71.778  1.00  0.00    -0.281 Si 
HETATM    4  C   UNL     1     -11.788  11.240  69.180  1.00  0.00    -0.355 C  
HETATM    5  O   UNL     1     -11.032  10.250  69.872  1.00  0.00    -0.260 OA 
HETATM    6  O   UNL     1     -12.037   7.939  72.944  1.00  0.00    -0.617 OA 
HETATM    7  H   UNL     1     -11.725   8.615  73.533  1.00  0.00     0.000 HD 
ENDROOT
BRANCH   5   8
HETATM    8 SI   UNL     1      -9.742   9.523  69.069  1.00  0.00    -0.147 Si 
HETATM    9  C   UNL     1      -8.135  10.150  69.798  1.00  0.00    -0.154 C  
HETATM   10  C   UNL     1      -9.833   9.933  67.241  1.00  0.00    -0.182 C  
BRANCH   8  11
HETATM   11  O   UNL     1      -9.855   7.863  69.271  1.00  0.00    -0.171 OA 
HETATM   12 SI   UNL     1      -9.671   6.470  68.345  1.00  0.00    -0.131 Si 
HETATM   13  C   UNL     1     -10.880   6.435  66.897  1.00  0.00    -0.357 C  
HETATM   14  C   UNL     1      -9.956   4.907  69.350  1.00  0.00    -0.212 C  
HETATM   15  C   UNL     1      -7.932   6.387  67.622  1.00  0.00    -0.114 C  
ENDBRANCH   8  11
ENDBRANCH   5   8
TORSDOF 2
ENDMDL
MODEL      127
REMARK 921   NORMALIZED FREE ENERGY PREDICTED BY IDOCK:   -3.17 KCAL/MOL
REMARK 922        TOTAL FREE ENERGY PREDICTED BY IDOCK:   -3.78 KCAL/MOL
REMARK 923 INTER-LIGAND FREE ENERGY PREDICTED BY IDOCK:   -3.54 KCAL/MOL
REMARK 924 INTRA-LIGAND FREE ENERGY PREDICTED BY IDOCK:   -0.24 KCAL/MOL
REMARK 927      BINDING AFFINITY PREDICTED BY RF-SCORE:    0.00 PKD
ROOT
HETATM    1  O   UNL     1     -12.679  10.584  70.808  1.00  0.00    -0.344 OA 
HETATM    2  H   UNL     1     -12.914   9.976  71.499  1.00  0.00     0.000 HD 
HETATM    3 SI   UNL     1     -12.765   9.968  69.464  1.00  0.00    -0.506 Si 
HETATM    4  C   UNL     1     -11.593   6.354  70.324  1.00  0.00    -0.383 C  
HETATM    5  O   UNL     1     -10.926   7.493  69.789  1.00  0.00    -0.244 OA 
HETATM    6  O   UNL     1     -12.402  10.909  68.395  1.00  0.00    -0.803 OA 
HETATM    7  H   UNL     1     -12.457  10.514  67.534  1.00  0.00     0.000 HD 
ENDROOT
BRANCH   5   8
HETATM    8 SI   UNL     1      -9.317   7.754  70.219  1.00  0.00    -0.146 Si 
HETATM    9  C   UNL     1      -8.455   6.101  70.392  1.00  0.00    -0.133 C  
HETATM   10  C   UNL     1      -9.249   8.697  71.839  1.00  0.00    -0.275 C  
BRANCH   8  11
HETATM   11  O   UNL     1      -8.585   8.662  69.016  1.00  0.00    -0.127 OA 
HETATM   12 SI   UNL     1      -8.453   8.649  67.338  1.00  0.00    -0.110 Si 
HETATM   13  C   UNL     1      -7.639   7.064  66.718  1.00  0.00    -0.090 C  
HETATM   14  C   UNL     1      -7.432  10.091  66.696  1.00  0.00    -0.104 C  
HETATM   15  C   UNL     1     -10.160   8.747  66.544  1.00  0.00    -0.279 C  
ENDBRANCH   8  11
ENDBRANCH   5   8
TORSDOF 2
ENDMDL
MODEL      128
REMARK 921   NORMALIZED FREE ENERGY PREDICTED BY IDOCK:   -3.17 KCAL/MOL
REMARK 922        TOTAL FREE ENERGY PREDICTED BY IDOCK:   -3.78 KCAL/MOL
REMARK 923 INTER-LIGAND FREE ENERGY PREDICTED BY IDOCK:   -3.61 KCAL/MOL
REMARK 924 INTRA-LIGAND FREE ENERGY PREDICTED BY IDOCK:   -0.17 KCAL/MOL
REMARK 927      BINDING AFFINITY PREDICTED BY RF-SCORE:    0.00 PKD
ROOT
HETATM    1  O   UNL     1     -12.173  10.393  68.816  1.00  0.00    -0.750 OA 
HETATM    2  H   UNL     1     -12.427  10.190  67.923  1.00  0.00     0.000 HD 
HETATM    3 SI   UNL     1     -12.829  11.621  69.320  1.00  0.00    -0.181 Si 
HETATM    4  C   UNL     1     -12.897  13.722  66.040  1.00  0.00    -0.240 C  
HETATM    5  O   UNL     1     -12.020  13.696  67.163  1.00  0.00    -0.382 OA 
HETATM    6  O   UNL     1     -12.436  11.936  70.701  1.00  0.00    -0.318 OA 
HETATM    7  H   UNL     1     -12.856  12.723  71.024  1.00  0.00     0.000 HD 
ENDROOT
BRANCH   5   8
HETATM    8 SI   UNL     1     -10.377  13.967  66.901  1.00  0.00    -0.243 Si 
HETATM    9  C   UNL     1     -10.038  13.937  65.060  1.00  0.00    -0.290 C  
HETATM   10  C   UNL     1      -9.379  12.638  67.770  1.00  0.00    -0.198 C  
BRANCH   8  11
HETATM   11  O   UNL     1      -9.977  15.465  67.536  1.00  0.00    -0.224 OA 
HETATM   12 SI   UNL     1      -9.543  16.123  69.023  1.00  0.00    -0.178 Si 
HETATM   13  C   UNL     1     -10.896  15.872  70.314  1.00  0.00    -0.340 C  
HETATM   14  C   UNL     1      -9.211  17.970  68.912  1.00  0.00    -0.136 C  
HETATM   15  C   UNL     1      -7.984  15.291  69.680  1.00  0.00    -0.130 C  
ENDBRANCH   8  11
ENDBRANCH   5   8
TORSDOF 2
ENDMDL
MODEL      129
REMARK 921   NORMALIZED FREE ENERGY PREDICTED BY IDOCK:   -3.17 KCAL/MOL
REMARK 922        TOTAL FREE ENERGY PREDICTED BY IDOCK:   -3.78 KCAL/MOL
REMARK 923 INTER-LIGAND FREE ENERGY PREDICTED BY IDOCK:   -3.57 KCAL/MOL
REMARK 924 INTRA-LIGAND FREE ENERGY PREDICTED BY IDOCK:   -0.20 KCAL/MOL
REMARK 927      BINDING AFFINITY PREDICTED BY RF-SCORE:    0.00 PKD
ROOT
HETATM    1  O   UNL     1      -8.306  20.014  67.499  1.00  0.00    -0.316 OA 
HETATM    2  H   UNL     1      -7.371  19.895  67.381  1.00  0.00     0.000 HD 
HETATM    3 SI   UNL     1      -8.752  19.639  68.859  1.00  0.00    -0.308 Si 
HETATM    4  C   UNL     1      -6.356  16.640  69.530  1.00  0.00    -0.227 C  
HETATM    5  O   UNL     1      -7.706  16.729  69.082  1.00  0.00    -0.237 OA 
HETATM    6  O   UNL     1     -10.199  19.823  69.042  1.00  0.00    -0.586 OA 
HETATM    7  H   UNL     1     -10.485  19.582  69.914  1.00  0.00     0.000 HD 
ENDROOT
BRANCH   5   8
HETATM    8 SI   UNL     1      -8.247  15.604  67.949  1.00  0.00    -0.133 Si 
HETATM    9  C   UNL     1      -6.829  14.474  67.483  1.00  0.00    -0.143 C  
HETATM   10  C   UNL     1      -8.890  16.503  66.434  1.00  0.00    -0.310 C  
BRANCH   8  11
HETATM   11  O   UNL     1      -9.491  14.714  68.635  1.00  0.00    -0.204 OA 
HETATM   12 SI   UNL     1     -10.708  13.665  68.135  1.00  0.00    -0.213 Si 
HETATM   13  C   UNL     1     -11.895  14.504  66.931  1.00  0.00    -0.377 C  
HETATM   14  C   UNL     1     -11.732  13.026  69.576  1.00  0.00    -0.317 C  
HETATM   15  C   UNL     1      -9.968  12.177  67.243  1.00  0.00    -0.203 C  
ENDBRANCH   8  11
ENDBRANCH   5   8
TORSDOF 2
ENDMDL
MODEL      130
REMARK 921   NORMALIZED FREE ENERGY PREDICTED BY IDOCK:   -3.17 KCAL/MOL
REMARK 922        TOTAL FREE ENERGY PREDICTED BY IDOCK:   -3.78 KCAL/MOL
REMARK 923 INTER-LIGAND FREE ENERGY PREDICTED BY IDOCK:   -3.58 KCAL/MOL
REMARK 924 INTRA-LIGAND FREE ENERGY PREDICTED BY IDOCK:   -0.19 KCAL/MOL
REMARK 927      BINDING AFFINITY PREDICTED BY RF-SCORE:    0.00 PKD
ROOT
HETATM    1  O   UNL     1     -12.118  12.394  65.035  1.00  0.00    -0.412 OA 
HETATM    2  H   UNL     1     -12.557  11.553  64.977  1.00  0.00     0.000 HD 
HETATM    3 SI   UNL     1     -10.679  12.301  64.700  1.00  0.00    -0.260 Si 
HETATM    4  C   UNL     1      -9.887   8.788  66.190  1.00  0.00    -0.227 C  
HETATM    5  O   UNL     1      -9.715  10.116  66.678  1.00  0.00    -0.176 OA 
HETATM    6  O   UNL     1     -10.000  13.601  64.791  1.00  0.00    -0.613 OA 
HETATM    7  H   UNL     1      -9.077  13.541  64.576  1.00  0.00     0.000 HD 
ENDROOT
BRANCH   5   8
HETATM    8 SI   UNL     1      -9.923  10.394  68.328  1.00  0.00    -0.139 Si 
HETATM    9  C   UNL     1     -11.026  11.889  68.562  1.00  0.00    -0.235 C  
HETATM   10  C   UNL     1      -8.251  10.684  69.127  1.00  0.00    -0.139 C  
BRANCH   8  11
HETATM   11  O   UNL     1     -10.637   9.040  69.010  1.00  0.00    -0.223 OA 
HETATM   12 SI   UNL     1     -11.051   8.476  70.541  1.00  0.00    -0.217 Si 
HETATM   13  C   UNL     1      -9.535   8.308  71.651  1.00  0.00    -0.195 C  
HETATM   14  C   UNL     1     -11.885   6.792  70.475  1.00  0.00    -0.362 C  
HETATM   15  C   UNL     1     -12.232   9.677  71.387  1.00  0.00    -0.385 C  
ENDBRANCH   8  11
ENDBRANCH   5   8
TORSDOF 2
ENDMDL
MODEL      131
REMARK 921   NORMALIZED FREE ENERGY PREDICTED BY IDOCK:   -3.17 KCAL/MOL
REMARK 922        TOTAL FREE ENERGY PREDICTED BY IDOCK:   -3.77 KCAL/MOL
REMARK 923 INTER-LIGAND FREE ENERGY PREDICTED BY IDOCK:   -3.58 KCAL/MOL
REMARK 924 INTRA-LIGAND FREE ENERGY PREDICTED BY IDOCK:   -0.19 KCAL/MOL
REMARK 927      BINDING AFFINITY PREDICTED BY RF-SCORE:    0.00 PKD
ROOT
HETATM    1  O   UNL     1     -11.979   5.845  72.471  1.00  0.00    -0.472 OA 
HETATM    2  H   UNL     1     -12.713   5.881  71.870  1.00  0.00     0.000 HD 
HETATM    3 SI   UNL     1     -11.922   7.027  73.359  1.00  0.00    -0.499 Si 
HETATM    4  C   UNL     1     -13.194   9.760  70.892  1.00  0.00    -0.203 C  
HETATM    5  O   UNL     1     -11.894   9.352  71.308  1.00  0.00    -0.308 OA 
HETATM    6  O   UNL     1     -10.786   6.972  74.290  1.00  0.00    -0.523 OA 
HETATM    7  H   UNL     1     -10.749   7.730  74.860  1.00  0.00     0.000 HD 
ENDROOT
BRANCH   5   8
HETATM    8 SI   UNL     1     -10.643   9.397  70.180  1.00  0.00    -0.178 Si 
HETATM    9  C   UNL     1      -9.009   9.183  71.069  1.00  0.00    -0.214 C  
HETATM   10  C   UNL     1     -10.681  11.038  69.271  1.00  0.00    -0.222 C  
BRANCH   8  11
HETATM   11  O   UNL     1     -10.869   8.150  69.084  1.00  0.00    -0.149 OA 
HETATM   12 SI   UNL     1     -10.103   7.521  67.723  1.00  0.00    -0.143 Si 
HETATM   13  C   UNL     1      -9.991   8.797  66.338  1.00  0.00    -0.275 C  
HETATM   14  C   UNL     1     -11.003   6.022  67.032  1.00  0.00    -0.276 C  
HETATM   15  C   UNL     1      -8.341   6.998  68.143  1.00  0.00    -0.123 C  
ENDBRANCH   8  11
ENDBRANCH   5   8
TORSDOF 2
ENDMDL
MODEL      132
REMARK 921   NORMALIZED FREE ENERGY PREDICTED BY IDOCK:   -3.16 KCAL/MOL
REMARK 922        TOTAL FREE ENERGY PREDICTED BY IDOCK:   -3.77 KCAL/MOL
REMARK 923 INTER-LIGAND FREE ENERGY PREDICTED BY IDOCK:   -3.62 KCAL/MOL
REMARK 924 INTRA-LIGAND FREE ENERGY PREDICTED BY IDOCK:   -0.14 KCAL/MOL
REMARK 927      BINDING AFFINITY PREDICTED BY RF-SCORE:    0.00 PKD
ROOT
HETATM    1  O   UNL     1      -9.434  12.345  63.533  1.00  0.00    -0.668 OA 
HETATM    2  H   UNL     1      -9.664  13.248  63.348  1.00  0.00     0.000 HD 
HETATM    3 SI   UNL     1     -10.626  11.492  63.738  1.00  0.00    -0.242 Si 
HETATM    4  C   UNL     1     -12.961  14.050  65.523  1.00  0.00    -0.316 C  
HETATM    5  O   UNL     1     -12.105  13.015  65.999  1.00  0.00    -0.415 OA 
HETATM    6  O   UNL     1     -10.270  10.095  64.025  1.00  0.00    -0.461 OA 
HETATM    7  H   UNL     1     -11.035   9.548  64.157  1.00  0.00     0.000 HD 
ENDROOT
BRANCH   5   8
HETATM    8 SI   UNL     1     -11.291  13.256  67.455  1.00  0.00    -0.242 Si 
HETATM    9  C   UNL     1      -9.813  14.366  67.153  1.00  0.00    -0.254 C  
HETATM   10  C   UNL     1     -10.735  11.601  68.141  1.00  0.00    -0.213 C  
BRANCH   8  11
HETATM   11  O   UNL     1     -12.343  13.981  68.539  1.00  0.00    -0.265 OA 
HETATM   12 SI   UNL     1     -12.456  14.237  70.198  1.00  0.00    -0.267 Si 
HETATM   13  C   UNL     1     -12.507  12.608  71.149  1.00  0.00    -0.228 C  
HETATM   14  C   UNL     1     -13.999  15.205  70.664  1.00  0.00     0.162 C  
HETATM   15  C   UNL     1     -10.958  15.199  70.819  1.00  0.00    -0.214 C  
ENDBRANCH   8  11
ENDBRANCH   5   8
TORSDOF 2
ENDMDL
MODEL      133
REMARK 921   NORMALIZED FREE ENERGY PREDICTED BY IDOCK:   -3.16 KCAL/MOL
REMARK 922        TOTAL FREE ENERGY PREDICTED BY IDOCK:   -3.76 KCAL/MOL
REMARK 923 INTER-LIGAND FREE ENERGY PREDICTED BY IDOCK:   -3.52 KCAL/MOL
REMARK 924 INTRA-LIGAND FREE ENERGY PREDICTED BY IDOCK:   -0.24 KCAL/MOL
REMARK 927      BINDING AFFINITY PREDICTED BY RF-SCORE:    0.00 PKD
ROOT
HETATM    1  O   UNL     1     -12.876   6.670  72.347  1.00  0.00    -0.527 OA 
HETATM    2  H   UNL     1     -13.621   7.102  71.945  1.00  0.00     0.000 HD 
HETATM    3 SI   UNL     1     -12.092   7.585  73.206  1.00  0.00    -0.524 Si 
HETATM    4  C   UNL     1     -12.458  10.879  71.157  1.00  0.00    -0.405 C  
HETATM    5  O   UNL     1     -11.438   9.888  71.236  1.00  0.00    -0.365 OA 
HETATM    6  O   UNL     1     -10.939   6.918  73.827  1.00  0.00    -0.519 OA 
HETATM    7  H   UNL     1     -10.437   7.505  74.378  1.00  0.00     0.000 HD 
ENDROOT
BRANCH   5   8
HETATM    8 SI   UNL     1     -10.580   9.511  69.834  1.00  0.00    -0.179 Si 
HETATM    9  C   UNL     1     -11.231  10.552  68.420  1.00  0.00    -0.279 C  
HETATM   10  C   UNL     1     -10.783   7.687  69.449  1.00  0.00    -0.184 C  
BRANCH   8  11
HETATM   11  O   UNL     1      -8.959   9.846  70.096  1.00  0.00    -0.216 OA 
HETATM   12 SI   UNL     1      -7.491   9.023  70.094  1.00  0.00    -0.046 Si 
HETATM   13  C   UNL     1      -7.472   7.636  71.373  1.00  0.00    -0.079 C  
HETATM   14  C   UNL     1      -6.041  10.157  70.475  1.00  0.00    -0.108 C  
HETATM   15  C   UNL     1      -7.183   8.232  68.410  1.00  0.00    -0.092 C  
ENDBRANCH   8  11
ENDBRANCH   5   8
TORSDOF 2
ENDMDL
MODEL      134
REMARK 921   NORMALIZED FREE ENERGY PREDICTED BY IDOCK:   -3.15 KCAL/MOL
REMARK 922        TOTAL FREE ENERGY PREDICTED BY IDOCK:   -3.76 KCAL/MOL
REMARK 923 INTER-LIGAND FREE ENERGY PREDICTED BY IDOCK:   -3.53 KCAL/MOL
REMARK 924 INTRA-LIGAND FREE ENERGY PREDICTED BY IDOCK:   -0.23 KCAL/MOL
REMARK 927      BINDING AFFINITY PREDICTED BY RF-SCORE:    0.00 PKD
ROOT
HETATM    1  O   UNL     1     -12.428  16.303  70.567  1.00  0.00    -0.425 OA 
HETATM    2  H   UNL     1     -11.860  17.049  70.415  1.00  0.00     0.000 HD 
HETATM    3 SI   UNL     1     -11.698  15.148  71.137  1.00  0.00    -0.241 Si 
HETATM    4  C   UNL     1      -8.292  15.550  69.289  1.00  0.00    -0.257 C  
HETATM    5  O   UNL     1      -9.440  14.741  69.051  1.00  0.00    -0.208 OA 
HETATM    6  O   UNL     1     -12.577  13.994  71.373  1.00  0.00    -0.341 OA 
HETATM    7  H   UNL     1     -12.109  13.253  71.738  1.00  0.00     0.000 HD 
ENDROOT
BRANCH   5   8
HETATM    8 SI   UNL     1      -9.884  14.433  67.455  1.00  0.00    -0.205 Si 
HETATM    9  C   UNL     1      -9.107  15.724  66.343  1.00  0.00    -0.322 C  
HETATM   10  C   UNL     1     -11.753  14.481  67.305  1.00  0.00    -0.406 C  
BRANCH   8  11
HETATM   11  O   UNL     1      -9.333  12.907  67.035  1.00  0.00    -0.219 OA 
HETATM   12 SI   UNL     1      -9.977  11.430  66.548  1.00  0.00    -0.188 Si 
HETATM   13  C   UNL     1     -11.138  10.716  67.852  1.00  0.00    -0.308 C  
HETATM   14  C   UNL     1      -8.642  10.146  66.224  1.00  0.00    -0.131 C  
HETATM   15  C   UNL     1     -10.978  11.639  64.964  1.00  0.00    -0.273 C  
ENDBRANCH   8  11
ENDBRANCH   5   8
TORSDOF 2
ENDMDL
MODEL      135
REMARK 921   NORMALIZED FREE ENERGY PREDICTED BY IDOCK:   -3.14 KCAL/MOL
REMARK 922        TOTAL FREE ENERGY PREDICTED BY IDOCK:   -3.75 KCAL/MOL
REMARK 923 INTER-LIGAND FREE ENERGY PREDICTED BY IDOCK:   -3.58 KCAL/MOL
REMARK 924 INTRA-LIGAND FREE ENERGY PREDICTED BY IDOCK:   -0.17 KCAL/MOL
REMARK 927      BINDING AFFINITY PREDICTED BY RF-SCORE:    0.00 PKD
ROOT
HETATM    1  O   UNL     1      -8.176  12.278  68.879  1.00  0.00    -0.344 OA 
HETATM    2  H   UNL     1      -9.125  12.228  68.880  1.00  0.00     0.000 HD 
HETATM    3 SI   UNL     1      -7.656  13.101  69.994  1.00  0.00    -0.307 Si 
HETATM    4  C   UNL     1     -10.453  15.808  70.170  1.00  0.00    -0.278 C  
HETATM    5  O   UNL     1      -9.166  15.774  69.559  1.00  0.00    -0.260 OA 
HETATM    6  O   UNL     1      -6.189  13.179  69.993  1.00  0.00    -0.239 OA 
HETATM    7  H   UNL     1      -5.855  13.707  70.708  1.00  0.00     0.000 HD 
ENDROOT
BRANCH   5   8
HETATM    8 SI   UNL     1      -8.958  16.570  68.088  1.00  0.00    -0.181 Si 
HETATM    9  C   UNL     1     -10.619  17.190  67.487  1.00  0.00    -0.323 C  
HETATM   10  C   UNL     1      -8.211  15.388  66.838  1.00  0.00    -0.246 C  
BRANCH   8  11
HETATM   11  O   UNL     1      -7.915  17.861  68.325  1.00  0.00    -0.270 OA 
HETATM   12 SI   UNL     1      -7.510  19.304  67.560  1.00  0.00    -0.218 Si 
HETATM   13  C   UNL     1      -6.838  19.003  65.822  1.00  0.00    -0.277 C  
HETATM   14  C   UNL     1      -6.202  20.266  68.507  1.00  0.00    -0.301 C  
HETATM   15  C   UNL     1      -9.031  20.406  67.387  1.00  0.00    -0.334 C  
ENDBRANCH   8  11
ENDBRANCH   5   8
TORSDOF 2
ENDMDL
MODEL      136
REMARK 921   NORMALIZED FREE ENERGY PREDICTED BY IDOCK:   -3.14 KCAL/MOL
REMARK 922        TOTAL FREE ENERGY PREDICTED BY IDOCK:   -3.74 KCAL/MOL
REMARK 923 INTER-LIGAND FREE ENERGY PREDICTED BY IDOCK:   -3.53 KCAL/MOL
REMARK 924 INTRA-LIGAND FREE ENERGY PREDICTED BY IDOCK:   -0.21 KCAL/MOL
REMARK 927      BINDING AFFINITY PREDICTED BY RF-SCORE:    0.00 PKD
ROOT
HETATM    1  O   UNL     1     -10.645   7.385  66.332  1.00  0.00    -0.461 OA 
HETATM    2  H   UNL     1     -10.736   8.126  66.920  1.00  0.00     0.000 HD 
HETATM    3 SI   UNL     1     -11.663   6.341  66.585  1.00  0.00    -0.519 Si 
HETATM    4  C   UNL     1     -11.952   6.631  70.459  1.00  0.00    -0.316 C  
HETATM    5  O   UNL     1     -11.228   5.757  69.599  1.00  0.00    -0.353 OA 
HETATM    6  O   UNL     1     -11.522   5.194  65.677  1.00  0.00    -0.787 OA 
HETATM    7  H   UNL     1     -12.174   4.523  65.838  1.00  0.00     0.000 HD 
ENDROOT
BRANCH   5   8
HETATM    8 SI   UNL     1      -9.704   5.231  70.092  1.00  0.00    -0.133 Si 
HETATM    9  C   UNL     1      -8.983   4.119  68.769  1.00  0.00    -0.113 C  
HETATM   10  C   UNL     1      -9.858   4.302  71.713  1.00  0.00    -0.180 C  
BRANCH   8  11
HETATM   11  O   UNL     1      -8.724   6.573  70.312  1.00  0.00    -0.147 OA 
HETATM   12 SI   UNL     1      -8.032   7.426  71.587  1.00  0.00    -0.088 Si 
HETATM   13  C   UNL     1      -9.345   8.122  72.750  1.00  0.00    -0.274 C  
HETATM   14  C   UNL     1      -6.990   8.872  70.990  1.00  0.00    -0.085 C  
HETATM   15  C   UNL     1      -6.924   6.294  72.610  1.00  0.00    -0.075 C  
ENDBRANCH   8  11
ENDBRANCH   5   8
TORSDOF 2
ENDMDL
MODEL      137
REMARK 921   NORMALIZED FREE ENERGY PREDICTED BY IDOCK:   -3.14 KCAL/MOL
REMARK 922        TOTAL FREE ENERGY PREDICTED BY IDOCK:   -3.74 KCAL/MOL
REMARK 923 INTER-LIGAND FREE ENERGY PREDICTED BY IDOCK:   -3.54 KCAL/MOL
REMARK 924 INTRA-LIGAND FREE ENERGY PREDICTED BY IDOCK:   -0.20 KCAL/MOL
REMARK 927      BINDING AFFINITY PREDICTED BY RF-SCORE:    0.00 PKD
ROOT
HETATM    1  O   UNL     1     -10.119   7.817  68.550  1.00  0.00    -0.187 OA 
HETATM    2  H   UNL     1      -9.703   8.190  69.319  1.00  0.00     0.000 HD 
HETATM    3 SI   UNL     1      -9.440   8.213  67.296  1.00  0.00    -0.132 Si 
HETATM    4  C   UNL     1      -8.384  11.842  68.241  1.00  0.00    -0.159 C  
HETATM    5  O   UNL     1      -9.483  11.306  67.509  1.00  0.00    -0.167 OA 
HETATM    6  O   UNL     1     -10.084   7.637  66.107  1.00  0.00    -0.456 OA 
HETATM    7  H   UNL     1      -9.649   7.891  65.303  1.00  0.00     0.000 HD 
ENDROOT
BRANCH   5   8
HETATM    8 SI   UNL     1     -10.979  12.070  67.639  1.00  0.00    -0.192 Si 
HETATM    9  C   UNL     1     -10.710  13.883  68.023  1.00  0.00    -0.247 C  
HETATM   10  C   UNL     1     -11.980  11.256  69.000  1.00  0.00    -0.325 C  
BRANCH   8  11
HETATM   11  O   UNL     1     -11.789  11.906  66.181  1.00  0.00    -0.528 OA 
HETATM   12 SI   UNL     1     -11.674  12.494  64.608  1.00  0.00    -0.297 Si 
HETATM   13  C   UNL     1     -11.841  14.373  64.556  1.00  0.00    -0.449 C  
HETATM   14  C   UNL     1     -13.004  11.783  63.486  1.00  0.00    -0.082 C  
HETATM   15  C   UNL     1      -9.995  12.062  63.866  1.00  0.00    -0.318 C  
ENDBRANCH   8  11
ENDBRANCH   5   8
TORSDOF 2
ENDMDL
MODEL      138
REMARK 921   NORMALIZED FREE ENERGY PREDICTED BY IDOCK:   -3.13 KCAL/MOL
REMARK 922        TOTAL FREE ENERGY PREDICTED BY IDOCK:   -3.73 KCAL/MOL
REMARK 923 INTER-LIGAND FREE ENERGY PREDICTED BY IDOCK:   -3.53 KCAL/MOL
REMARK 924 INTRA-LIGAND FREE ENERGY PREDICTED BY IDOCK:   -0.20 KCAL/MOL
REMARK 927      BINDING AFFINITY PREDICTED BY RF-SCORE:    0.00 PKD
ROOT
HETATM    1  O   UNL     1     -12.628  15.712  69.588  1.00  0.00    -0.575 OA 
HETATM    2  H   UNL     1     -13.015  16.199  68.870  1.00  0.00     0.000 HD 
HETATM    3 SI   UNL     1     -11.168  15.930  69.692  1.00  0.00    -0.209 Si 
HETATM    4  C   UNL     1     -10.279  16.234  65.911  1.00  0.00    -0.364 C  
HETATM    5  O   UNL     1     -10.213  15.160  66.845  1.00  0.00    -0.252 OA 
HETATM    6  O   UNL     1     -10.569  15.176  70.802  1.00  0.00    -0.524 OA 
HETATM    7  H   UNL     1      -9.632  15.316  70.869  1.00  0.00     0.000 HD 
ENDROOT
BRANCH   5   8
HETATM    8 SI   UNL     1     -10.540  13.601  66.295  1.00  0.00    -0.266 Si 
HETATM    9  C   UNL     1     -10.042  13.470  64.495  1.00  0.00    -0.149 C  
HETATM   10  C   UNL     1     -12.370  13.241  66.493  1.00  0.00    -0.248 C  
BRANCH   8  11
HETATM   11  O   UNL     1      -9.658  12.515  67.216  1.00  0.00    -0.197 OA 
HETATM   12 SI   UNL     1      -9.876  11.006  67.930  1.00  0.00    -0.155 Si 
HETATM   13  C   UNL     1     -11.275  11.033  69.195  1.00  0.00    -0.255 C  
HETATM   14  C   UNL     1      -8.330  10.410  68.818  1.00  0.00    -0.134 C  
HETATM   15  C   UNL     1     -10.328   9.721  66.625  1.00  0.00    -0.206 C  
ENDBRANCH   8  11
ENDBRANCH   5   8
TORSDOF 2
ENDMDL
MODEL      139
REMARK 921   NORMALIZED FREE ENERGY PREDICTED BY IDOCK:   -3.13 KCAL/MOL
REMARK 922        TOTAL FREE ENERGY PREDICTED BY IDOCK:   -3.73 KCAL/MOL
REMARK 923 INTER-LIGAND FREE ENERGY PREDICTED BY IDOCK:   -3.58 KCAL/MOL
REMARK 924 INTRA-LIGAND FREE ENERGY PREDICTED BY IDOCK:   -0.15 KCAL/MOL
REMARK 927      BINDING AFFINITY PREDICTED BY RF-SCORE:    0.00 PKD
ROOT
HETATM    1  O   UNL     1     -11.039  12.219  69.679  1.00  0.00    -0.461 OA 
HETATM    2  H   UNL     1     -11.090  12.356  70.617  1.00  0.00     0.000 HD 
HETATM    3 SI   UNL     1     -12.192  11.450  69.159  1.00  0.00    -0.253 Si 
HETATM    4  C   UNL     1     -12.772   9.035  72.162  1.00  0.00    -0.401 C  
HETATM    5  O   UNL     1     -12.087   8.899  70.920  1.00  0.00    -0.270 OA 
HETATM    6  O   UNL     1     -12.112  11.237  67.707  1.00  0.00    -0.631 OA 
HETATM    7  H   UNL     1     -12.851  10.744  67.374  1.00  0.00     0.000 HD 
ENDROOT
BRANCH   5   8
HETATM    8 SI   UNL     1     -10.684   7.966  70.879  1.00  0.00    -0.207 Si 
HETATM    9  C   UNL     1      -9.235   9.014  71.434  1.00  0.00    -0.223 C  
HETATM   10  C   UNL     1     -10.404   7.337  69.134  1.00  0.00    -0.205 C  
BRANCH   8  11
HETATM   11  O   UNL     1     -10.881   6.663  71.914  1.00  0.00    -0.226 OA 
HETATM   12 SI   UNL     1      -9.969   5.375  72.498  1.00  0.00    -0.153 Si 
HETATM   13  C   UNL     1      -9.381   4.251  71.101  1.00  0.00    -0.150 C  
HETATM   14  C   UNL     1     -10.939   4.307  73.704  1.00  0.00    -0.282 C  
HETATM   15  C   UNL     1      -8.432   6.008  73.389  1.00  0.00    -0.116 C  
ENDBRANCH   8  11
ENDBRANCH   5   8
TORSDOF 2
ENDMDL
MODEL      140
REMARK 921   NORMALIZED FREE ENERGY PREDICTED BY IDOCK:   -3.13 KCAL/MOL
REMARK 922        TOTAL FREE ENERGY PREDICTED BY IDOCK:   -3.73 KCAL/MOL
REMARK 923 INTER-LIGAND FREE ENERGY PREDICTED BY IDOCK:   -3.55 KCAL/MOL
REMARK 924 INTRA-LIGAND FREE ENERGY PREDICTED BY IDOCK:   -0.18 KCAL/MOL
REMARK 927      BINDING AFFINITY PREDICTED BY RF-SCORE:    0.00 PKD
ROOT
HETATM    1  O   UNL     1     -13.153  14.064  64.972  1.00  0.00    -0.742 OA 
HETATM    2  H   UNL     1     -13.473  13.177  65.083  1.00  0.00     0.000 HD 
HETATM    3 SI   UNL     1     -11.818  14.104  64.336  1.00  0.00    -0.341 Si 
HETATM    4  C   UNL     1     -10.251  10.899  65.902  1.00  0.00    -0.257 C  
HETATM    5  O   UNL     1     -10.167  12.284  66.227  1.00  0.00    -0.221 OA 
HETATM    6  O   UNL     1     -11.322  15.477  64.164  1.00  0.00    -0.720 OA 
HETATM    7  H   UNL     1     -10.466  15.503  63.756  1.00  0.00     0.000 HD 
ENDROOT
BRANCH   5   8
HETATM    8 SI   UNL     1     -10.063  12.718  67.852  1.00  0.00    -0.192 Si 
HETATM    9  C   UNL     1     -11.594  12.117  68.746  1.00  0.00    -0.327 C  
HETATM   10  C   UNL     1      -9.916  14.583  67.991  1.00  0.00    -0.222 C  
BRANCH   8  11
HETATM   11  O   UNL     1      -8.696  12.003  68.507  1.00  0.00    -0.163 OA 
HETATM   12 SI   UNL     1      -7.048  11.912  68.180  1.00  0.00    -0.063 Si 
HETATM   13  C   UNL     1      -6.718  11.132  66.493  1.00  0.00    -0.128 C  
HETATM   14  C   UNL     1      -6.126  10.888  69.459  1.00  0.00    -0.061 C  
HETATM   15  C   UNL     1      -6.285  13.636  68.156  1.00  0.00    -0.117 C  
ENDBRANCH   8  11
ENDBRANCH   5   8
TORSDOF 2
ENDMDL
MODEL      141
REMARK 921   NORMALIZED FREE ENERGY PREDICTED BY IDOCK:   -3.13 KCAL/MOL
REMARK 922        TOTAL FREE ENERGY PREDICTED BY IDOCK:   -3.73 KCAL/MOL
REMARK 923 INTER-LIGAND FREE ENERGY PREDICTED BY IDOCK:   -3.50 KCAL/MOL
REMARK 924 INTRA-LIGAND FREE ENERGY PREDICTED BY IDOCK:   -0.23 KCAL/MOL
REMARK 927      BINDING AFFINITY PREDICTED BY RF-SCORE:    0.00 PKD
ROOT
HETATM    1  O   UNL     1     -13.416  15.594  70.481  1.00  0.00    -0.821 OA 
HETATM    2  H   UNL     1     -13.638  15.856  69.595  1.00  0.00     0.000 HD 
HETATM    3 SI   UNL     1     -11.987  15.820  70.793  1.00  0.00    -0.257 Si 
HETATM    4  C   UNL     1     -10.423  15.008  67.318  1.00  0.00    -0.265 C  
HETATM    5  O   UNL     1     -10.591  14.250  68.513  1.00  0.00    -0.243 OA 
HETATM    6  O   UNL     1     -11.644  15.414  72.163  1.00  0.00    -0.418 OA 
HETATM    7  H   UNL     1     -10.727  15.560  72.363  1.00  0.00     0.000 HD 
ENDROOT
BRANCH   5   8
HETATM    8 SI   UNL     1     -10.913  12.601  68.374  1.00  0.00    -0.198 Si 
HETATM    9  C   UNL     1     -11.644  12.260  66.685  1.00  0.00    -0.375 C  
HETATM   10  C   UNL     1     -12.111  12.084  69.721  1.00  0.00    -0.248 C  
BRANCH   8  11
HETATM   11  O   UNL     1      -9.474  11.761  68.559  1.00  0.00    -0.200 OA 
HETATM   12 SI   UNL     1      -8.025  11.558  67.729  1.00  0.00    -0.103 Si 
HETATM   13  C   UNL     1      -8.304  10.820  66.015  1.00  0.00    -0.163 C  
HETATM   14  C   UNL     1      -6.838  10.420  68.642  1.00  0.00    -0.058 C  
HETATM   15  C   UNL     1      -7.166  13.219  67.488  1.00  0.00    -0.150 C  
ENDBRANCH   8  11
ENDBRANCH   5   8
TORSDOF 2
ENDMDL
MODEL      142
REMARK 921   NORMALIZED FREE ENERGY PREDICTED BY IDOCK:   -3.12 KCAL/MOL
REMARK 922        TOTAL FREE ENERGY PREDICTED BY IDOCK:   -3.72 KCAL/MOL
REMARK 923 INTER-LIGAND FREE ENERGY PREDICTED BY IDOCK:   -3.47 KCAL/MOL
REMARK 924 INTRA-LIGAND FREE ENERGY PREDICTED BY IDOCK:   -0.25 KCAL/MOL
REMARK 927      BINDING AFFINITY PREDICTED BY RF-SCORE:    0.00 PKD
ROOT
HETATM    1  O   UNL     1     -12.767  10.577  68.989  1.00  0.00    -0.601 OA 
HETATM    2  H   UNL     1     -13.390  10.393  68.296  1.00  0.00     0.000 HD 
HETATM    3 SI   UNL     1     -12.313  11.986  68.977  1.00  0.00    -0.277 Si 
HETATM    4  C   UNL     1     -12.267  12.624  65.133  1.00  0.00    -0.481 C  
HETATM    5  O   UNL     1     -11.256  12.279  66.076  1.00  0.00    -0.302 OA 
HETATM    6  O   UNL     1     -11.349  12.271  70.049  1.00  0.00    -0.511 OA 
HETATM    7  H   UNL     1     -11.058  13.175  70.041  1.00  0.00     0.000 HD 
ENDROOT
BRANCH   5   8
HETATM    8 SI   UNL     1     -10.015  11.252  65.579  1.00  0.00    -0.196 Si 
HETATM    9  C   UNL     1      -9.943  11.242  63.708  1.00  0.00    -0.342 C  
HETATM   10  C   UNL     1     -10.338   9.522  66.229  1.00  0.00    -0.156 C  
BRANCH   8  11
HETATM   11  O   UNL     1      -8.570  11.821  66.207  1.00  0.00    -0.158 OA 
HETATM   12 SI   UNL     1      -7.307  11.253  67.164  1.00  0.00    -0.087 Si 
HETATM   13  C   UNL     1      -7.913  10.732  68.874  1.00  0.00    -0.143 C  
HETATM   14  C   UNL     1      -5.969  12.548  67.416  1.00  0.00    -0.147 C  
HETATM   15  C   UNL     1      -6.510   9.740  66.370  1.00  0.00    -0.071 C  
ENDBRANCH   8  11
ENDBRANCH   5   8
TORSDOF 2
ENDMDL
MODEL      143
REMARK 921   NORMALIZED FREE ENERGY PREDICTED BY IDOCK:   -3.11 KCAL/MOL
REMARK 922        TOTAL FREE ENERGY PREDICTED BY IDOCK:   -3.71 KCAL/MOL
REMARK 923 INTER-LIGAND FREE ENERGY PREDICTED BY IDOCK:   -3.51 KCAL/MOL
REMARK 924 INTRA-LIGAND FREE ENERGY PREDICTED BY IDOCK:   -0.20 KCAL/MOL
REMARK 927      BINDING AFFINITY PREDICTED BY RF-SCORE:    0.00 PKD
ROOT
HETATM    1  O   UNL     1     -10.050  11.121  65.102  1.00  0.00    -0.248 OA 
HETATM    2  H   UNL     1     -10.871  10.696  65.320  1.00  0.00     0.000 HD 
HETATM    3 SI   UNL     1      -9.041  10.977  66.175  1.00  0.00    -0.156 Si 
HETATM    4  C   UNL     1     -11.371  11.157  69.293  1.00  0.00    -0.281 C  
HETATM    5  O   UNL     1     -10.562  12.120  68.624  1.00  0.00    -0.223 OA 
HETATM    6  O   UNL     1      -7.770  11.634  65.838  1.00  0.00    -0.348 OA 
HETATM    7  H   UNL     1      -7.123  11.542  66.526  1.00  0.00     0.000 HD 
ENDROOT
BRANCH   5   8
HETATM    8 SI   UNL     1     -11.115  13.710  68.540  1.00  0.00    -0.217 Si 
HETATM    9  C   UNL     1     -12.227  14.048  70.008  1.00  0.00    -0.352 C  
HETATM   10  C   UNL     1     -12.056  13.960  66.937  1.00  0.00    -0.430 C  
BRANCH   8  11
HETATM   11  O   UNL     1      -9.791  14.737  68.573  1.00  0.00    -0.206 OA 
HETATM   12 SI   UNL     1      -9.285  16.156  67.823  1.00  0.00    -0.187 Si 
HETATM   13  C   UNL     1      -9.146  15.941  65.954  1.00  0.00    -0.269 C  
HETATM   14  C   UNL     1      -7.606  16.728  68.447  1.00  0.00    -0.205 C  
HETATM   15  C   UNL     1     -10.524  17.543  68.134  1.00  0.00    -0.386 C  
ENDBRANCH   8  11
ENDBRANCH   5   8
TORSDOF 2
ENDMDL
MODEL      144
REMARK 921   NORMALIZED FREE ENERGY PREDICTED BY IDOCK:   -3.11 KCAL/MOL
REMARK 922        TOTAL FREE ENERGY PREDICTED BY IDOCK:   -3.71 KCAL/MOL
REMARK 923 INTER-LIGAND FREE ENERGY PREDICTED BY IDOCK:   -3.63 KCAL/MOL
REMARK 924 INTRA-LIGAND FREE ENERGY PREDICTED BY IDOCK:   -0.08 KCAL/MOL
REMARK 927      BINDING AFFINITY PREDICTED BY RF-SCORE:    0.00 PKD
ROOT
HETATM    1  O   UNL     1     -10.490  16.665  66.674  1.00  0.00    -0.298 OA 
HETATM    2  H   UNL     1     -10.139  16.137  65.967  1.00  0.00     0.000 HD 
HETATM    3 SI   UNL     1      -9.707  16.527  67.922  1.00  0.00    -0.214 Si 
HETATM    4  C   UNL     1      -8.722  12.766  67.662  1.00  0.00    -0.180 C  
HETATM    5  O   UNL     1      -9.757  13.457  68.356  1.00  0.00    -0.221 OA 
HETATM    6  O   UNL     1     -10.251  17.344  69.015  1.00  0.00    -0.330 OA 
HETATM    7  H   UNL     1      -9.749  17.255  69.816  1.00  0.00     0.000 HD 
ENDROOT
BRANCH   5   8
HETATM    8 SI   UNL     1     -11.257  12.703  68.511  1.00  0.00    -0.199 Si 
HETATM    9  C   UNL     1     -12.356  13.749  69.607  1.00  0.00    -0.232 C  
HETATM   10  C   UNL     1     -11.025  10.998  69.255  1.00  0.00    -0.252 C  
BRANCH   8  11
HETATM   11  O   UNL     1     -11.938  12.556  66.987  1.00  0.00    -0.498 OA 
HETATM   12 SI   UNL     1     -11.425  12.360  65.396  1.00  0.00    -0.284 Si 
HETATM   13  C   UNL     1     -10.339  13.797  64.835  1.00  0.00    -0.398 C  
HETATM   14  C   UNL     1     -12.866  12.245  64.194  1.00  0.00    -0.267 C  
HETATM   15  C   UNL     1     -10.399  10.787  65.225  1.00  0.00    -0.258 C  
ENDBRANCH   8  11
ENDBRANCH   5   8
TORSDOF 2
ENDMDL
MODEL      145
REMARK 921   NORMALIZED FREE ENERGY PREDICTED BY IDOCK:   -3.11 KCAL/MOL
REMARK 922        TOTAL FREE ENERGY PREDICTED BY IDOCK:   -3.71 KCAL/MOL
REMARK 923 INTER-LIGAND FREE ENERGY PREDICTED BY IDOCK:   -3.52 KCAL/MOL
REMARK 924 INTRA-LIGAND FREE ENERGY PREDICTED BY IDOCK:   -0.18 KCAL/MOL
REMARK 927      BINDING AFFINITY PREDICTED BY RF-SCORE:    0.00 PKD
ROOT
HETATM    1  O   UNL     1     -11.988  10.829  67.940  1.00  0.00    -0.753 OA 
HETATM    2  H   UNL     1     -12.593  10.772  67.210  1.00  0.00     0.000 HD 
HETATM    3 SI   UNL     1     -11.081  11.994  67.828  1.00  0.00    -0.190 Si 
HETATM    4  C   UNL     1     -10.586  12.068  63.964  1.00  0.00    -0.377 C  
HETATM    5  O   UNL     1      -9.813  11.535  65.036  1.00  0.00    -0.245 OA 
HETATM    6  O   UNL     1     -10.145  12.083  68.958  1.00  0.00    -0.406 OA 
HETATM    7  H   UNL     1      -9.563  12.830  68.886  1.00  0.00     0.000 HD 
ENDROOT
BRANCH   5   8
HETATM    8 SI   UNL     1      -8.969  10.100  64.776  1.00  0.00    -0.140 Si 
HETATM    9  C   UNL     1      -7.227  10.286  65.438  1.00  0.00    -0.143 C  
HETATM   10  C   UNL     1      -8.932   9.720  62.940  1.00  0.00    -0.257 C  
BRANCH   8  11
HETATM   11  O   UNL     1      -9.761   8.863  65.583  1.00  0.00    -0.210 OA 
HETATM   12 SI   UNL     1      -9.370   7.546  66.555  1.00  0.00    -0.131 Si 
HETATM   13  C   UNL     1      -8.257   6.321  65.649  1.00  0.00    -0.143 C  
HETATM   14  C   UNL     1     -10.895   6.603  67.121  1.00  0.00    -0.401 C  
HETATM   15  C   UNL     1      -8.437   8.116  68.091  1.00  0.00    -0.126 C  
ENDBRANCH   8  11
ENDBRANCH   5   8
TORSDOF 2
ENDMDL
MODEL      146
REMARK 921   NORMALIZED FREE ENERGY PREDICTED BY IDOCK:   -3.10 KCAL/MOL
REMARK 922        TOTAL FREE ENERGY PREDICTED BY IDOCK:   -3.70 KCAL/MOL
REMARK 923 INTER-LIGAND FREE ENERGY PREDICTED BY IDOCK:   -3.43 KCAL/MOL
REMARK 924 INTRA-LIGAND FREE ENERGY PREDICTED BY IDOCK:   -0.27 KCAL/MOL
REMARK 927      BINDING AFFINITY PREDICTED BY RF-SCORE:    0.00 PKD
ROOT
HETATM    1  O   UNL     1      -9.136   5.408  64.794  1.00  0.00    -0.348 OA 
HETATM    2  H   UNL     1      -8.453   6.063  64.868  1.00  0.00     0.000 HD 
HETATM    3 SI   UNL     1     -10.409   5.852  65.405  1.00  0.00    -0.397 Si 
HETATM    4  C   UNL     1      -9.013   7.900  68.411  1.00  0.00    -0.133 C  
HETATM    5  O   UNL     1      -9.507   6.570  68.283  1.00  0.00    -0.121 OA 
HETATM    6  O   UNL     1     -11.466   4.837  65.292  1.00  0.00    -1.008 OA 
HETATM    7  H   UNL     1     -12.283   5.123  65.684  1.00  0.00     0.000 HD 
ENDROOT
BRANCH   5   8
HETATM    8 SI   UNL     1      -8.794   5.359  69.215  1.00  0.00    -0.095 Si 
HETATM    9  C   UNL     1      -7.002   5.803  69.528  1.00  0.00    -0.063 C  
HETATM   10  C   UNL     1      -8.912   3.722  68.307  1.00  0.00    -0.125 C  
BRANCH   8  11
HETATM   11  O   UNL     1      -9.621   5.249  70.668  1.00  0.00    -0.159 OA 
HETATM   12 SI   UNL     1     -10.413   6.274  71.742  1.00  0.00    -0.191 Si 
HETATM   13  C   UNL     1      -9.246   7.584  72.439  1.00  0.00    -0.147 C  
HETATM   14  C   UNL     1     -11.145   5.344  73.203  1.00  0.00    -0.308 C  
HETATM   15  C   UNL     1     -11.816   7.184  70.871  1.00  0.00    -0.339 C  
ENDBRANCH   8  11
ENDBRANCH   5   8
TORSDOF 2
ENDMDL
MODEL      147
REMARK 921   NORMALIZED FREE ENERGY PREDICTED BY IDOCK:   -3.10 KCAL/MOL
REMARK 922        TOTAL FREE ENERGY PREDICTED BY IDOCK:   -3.70 KCAL/MOL
REMARK 923 INTER-LIGAND FREE ENERGY PREDICTED BY IDOCK:   -3.52 KCAL/MOL
REMARK 924 INTRA-LIGAND FREE ENERGY PREDICTED BY IDOCK:   -0.18 KCAL/MOL
REMARK 927      BINDING AFFINITY PREDICTED BY RF-SCORE:    0.00 PKD
ROOT
HETATM    1  O   UNL     1      -9.154   4.405  64.611  1.00  0.00    -0.144 OA 
HETATM    2  H   UNL     1      -8.398   4.925  64.365  1.00  0.00     0.000 HD 
HETATM    3 SI   UNL     1     -10.403   5.198  64.619  1.00  0.00    -0.385 Si 
HETATM    4  C   UNL     1      -9.005   8.607  65.885  1.00  0.00    -0.200 C  
HETATM    5  O   UNL     1      -9.660   7.521  66.534  1.00  0.00    -0.192 OA 
HETATM    6  O   UNL     1     -11.572   4.394  65.001  1.00  0.00    -1.067 OA 
HETATM    7  H   UNL     1     -12.374   4.903  65.005  1.00  0.00     0.000 HD 
ENDROOT
BRANCH   5   8
HETATM    8 SI   UNL     1      -9.195   7.132  68.107  1.00  0.00    -0.130 Si 
HETATM    9  C   UNL     1      -7.344   7.361  68.273  1.00  0.00    -0.100 C  
HETATM   10  C   UNL     1      -9.668   5.355  68.477  1.00  0.00    -0.137 C  
BRANCH   8  11
HETATM   11  O   UNL     1      -9.998   8.152  69.167  1.00  0.00    -0.182 OA 
HETATM   12 SI   UNL     1     -10.247   8.295  70.825  1.00  0.00    -0.181 Si 
HETATM   13  C   UNL     1     -11.124   6.779  71.528  1.00  0.00    -0.251 C  
HETATM   14  C   UNL     1     -11.292   9.796  71.259  1.00  0.00    -0.375 C  
HETATM   15  C   UNL     1      -8.599   8.454  71.726  1.00  0.00    -0.176 C  
ENDBRANCH   8  11
ENDBRANCH   5   8
TORSDOF 2
ENDMDL
MODEL      148
REMARK 921   NORMALIZED FREE ENERGY PREDICTED BY IDOCK:   -3.08 KCAL/MOL
REMARK 922        TOTAL FREE ENERGY PREDICTED BY IDOCK:   -3.67 KCAL/MOL
REMARK 923 INTER-LIGAND FREE ENERGY PREDICTED BY IDOCK:   -3.46 KCAL/MOL
REMARK 924 INTRA-LIGAND FREE ENERGY PREDICTED BY IDOCK:   -0.21 KCAL/MOL
REMARK 927      BINDING AFFINITY PREDICTED BY RF-SCORE:    0.00 PKD
ROOT
HETATM    1  O   UNL     1     -11.857  14.881  71.902  1.00  0.00    -0.360 OA 
HETATM    2  H   UNL     1     -11.135  15.464  72.105  1.00  0.00     0.000 HD 
HETATM    3 SI   UNL     1     -11.396  13.587  71.352  1.00  0.00    -0.443 Si 
HETATM    4  C   UNL     1      -8.317  14.808  69.300  1.00  0.00    -0.047 C  
HETATM    5  O   UNL     1      -9.665  14.507  68.949  1.00  0.00    -0.213 OA 
HETATM    6  O   UNL     1     -12.513  12.685  71.037  1.00  0.00    -0.368 OA 
HETATM    7  H   UNL     1     -12.217  11.854  70.684  1.00  0.00     0.000 HD 
ENDROOT
BRANCH   5   8
HETATM    8 SI   UNL     1     -10.404  15.431  67.749  1.00  0.00    -0.227 Si 
HETATM    9  C   UNL     1     -12.148  14.806  67.482  1.00  0.00    -0.096 C  
HETATM   10  C   UNL     1      -9.413  15.300  66.162  1.00  0.00    -0.326 C  
BRANCH   8  11
HETATM   11  O   UNL     1     -10.437  17.029  68.252  1.00  0.00    -0.324 OA 
HETATM   12 SI   UNL     1      -9.712  18.491  67.838  1.00  0.00    -0.266 Si 
HETATM   13  C   UNL     1      -7.836  18.411  68.019  1.00  0.00    -0.274 C  
HETATM   14  C   UNL     1     -10.318  19.912  68.909  1.00  0.00    -0.185 C  
HETATM   15  C   UNL     1     -10.081  18.921  66.039  1.00  0.00    -0.329 C  
ENDBRANCH   8  11
ENDBRANCH   5   8
TORSDOF 2
ENDMDL
MODEL      149
REMARK 921   NORMALIZED FREE ENERGY PREDICTED BY IDOCK:   -3.07 KCAL/MOL
REMARK 922        TOTAL FREE ENERGY PREDICTED BY IDOCK:   -3.67 KCAL/MOL
REMARK 923 INTER-LIGAND FREE ENERGY PREDICTED BY IDOCK:   -3.43 KCAL/MOL
REMARK 924 INTRA-LIGAND FREE ENERGY PREDICTED BY IDOCK:   -0.24 KCAL/MOL
REMARK 927      BINDING AFFINITY PREDICTED BY RF-SCORE:    0.00 PKD
ROOT
HETATM    1  O   UNL     1      -9.483   7.813  65.957  1.00  0.00    -0.382 OA 
HETATM    2  H   UNL     1      -9.131   8.559  65.485  1.00  0.00     0.000 HD 
HETATM    3 SI   UNL     1     -10.960   7.844  66.036  1.00  0.00    -0.379 Si 
HETATM    4  C   UNL     1     -11.517  11.687  66.361  1.00  0.00    -0.165 C  
HETATM    5  O   UNL     1     -11.462  10.626  67.310  1.00  0.00    -0.412 OA 
HETATM    6  O   UNL     1     -11.505   6.691  66.765  1.00  0.00    -0.776 OA 
HETATM    7  H   UNL     1     -12.453   6.711  66.816  1.00  0.00     0.000 HD 
ENDROOT
BRANCH   5   8
HETATM    8 SI   UNL     1     -10.781  10.940  68.820  1.00  0.00    -0.156 Si 
HETATM    9  C   UNL     1     -10.420   9.315  69.677  1.00  0.00    -0.224 C  
HETATM   10  C   UNL     1     -11.973  11.965  69.842  1.00  0.00    -0.325 C  
BRANCH   8  11
HETATM   11  O   UNL     1      -9.361  11.800  68.595  1.00  0.00    -0.173 OA 
HETATM   12 SI   UNL     1      -7.793  11.515  68.052  1.00  0.00    -0.095 Si 
HETATM   13  C   UNL     1      -6.914  10.227  69.115  1.00  0.00    -0.066 C  
HETATM   14  C   UNL     1      -6.740  13.072  68.074  1.00  0.00    -0.114 C  
HETATM   15  C   UNL     1      -7.819  10.856  66.285  1.00  0.00    -0.158 C  
ENDBRANCH   8  11
ENDBRANCH   5   8
TORSDOF 2
ENDMDL
MODEL      150
REMARK 921   NORMALIZED FREE ENERGY PREDICTED BY IDOCK:   -3.07 KCAL/MOL
REMARK 922        TOTAL FREE ENERGY PREDICTED BY IDOCK:   -3.67 KCAL/MOL
REMARK 923 INTER-LIGAND FREE ENERGY PREDICTED BY IDOCK:   -3.51 KCAL/MOL
REMARK 924 INTRA-LIGAND FREE ENERGY PREDICTED BY IDOCK:   -0.16 KCAL/MOL
REMARK 927      BINDING AFFINITY PREDICTED BY RF-SCORE:    0.00 PKD
ROOT
HETATM    1  O   UNL     1     -10.187  18.609  66.607  1.00  0.00    -0.356 OA 
HETATM    2  H   UNL     1     -11.124  18.454  66.577  1.00  0.00     0.000 HD 
HETATM    3 SI   UNL     1      -9.435  17.667  65.748  1.00  0.00    -0.255 Si 
HETATM    4  C   UNL     1     -11.608  14.469  66.224  1.00  0.00    -0.360 C  
HETATM    5  O   UNL     1     -10.401  14.925  66.827  1.00  0.00    -0.262 OA 
HETATM    6  O   UNL     1      -7.986  17.906  65.793  1.00  0.00    -0.540 OA 
HETATM    7  H   UNL     1      -7.503  17.302  65.242  1.00  0.00     0.000 HD 
ENDROOT
BRANCH   5   8
HETATM    8 SI   UNL     1     -10.140  14.579  68.456  1.00  0.00    -0.195 Si 
HETATM    9  C   UNL     1     -11.787  14.534  69.344  1.00  0.00    -0.325 C  
HETATM   10  C   UNL     1      -9.031  15.894  69.204  1.00  0.00    -0.256 C  
BRANCH   8  11
HETATM   11  O   UNL     1      -9.385  13.087  68.569  1.00  0.00    -0.176 OA 
HETATM   12 SI   UNL     1      -9.773  11.465  68.348  1.00  0.00    -0.154 Si 
HETATM   13  C   UNL     1     -11.156  10.918  69.509  1.00  0.00    -0.268 C  
HETATM   14  C   UNL     1      -8.302  10.335  68.659  1.00  0.00    -0.122 C  
HETATM   15  C   UNL     1     -10.373  11.166  66.585  1.00  0.00    -0.241 C  
ENDBRANCH   8  11
ENDBRANCH   5   8
TORSDOF 2
ENDMDL
MODEL      151
REMARK 921   NORMALIZED FREE ENERGY PREDICTED BY IDOCK:   -3.07 KCAL/MOL
REMARK 922        TOTAL FREE ENERGY PREDICTED BY IDOCK:   -3.66 KCAL/MOL
REMARK 923 INTER-LIGAND FREE ENERGY PREDICTED BY IDOCK:   -3.49 KCAL/MOL
REMARK 924 INTRA-LIGAND FREE ENERGY PREDICTED BY IDOCK:   -0.17 KCAL/MOL
REMARK 927      BINDING AFFINITY PREDICTED BY RF-SCORE:    0.00 PKD
ROOT
HETATM    1  O   UNL     1     -13.464  10.005  70.760  1.00  0.00    -0.553 OA 
HETATM    2  H   UNL     1     -12.818  10.638  71.051  1.00  0.00     0.000 HD 
HETATM    3 SI   UNL     1     -13.410   8.749  71.540  1.00  0.00    -0.305 Si 
HETATM    4  C   UNL     1      -9.568   8.524  72.152  1.00  0.00    -0.312 C  
HETATM    5  O   UNL     1     -10.440   7.925  71.197  1.00  0.00    -0.204 OA 
HETATM    6  O   UNL     1     -14.409   7.769  71.090  1.00  0.00    -0.648 OA 
HETATM    7  H   UNL     1     -14.374   6.963  71.591  1.00  0.00     0.000 HD 
ENDROOT
BRANCH   5   8
HETATM    8 SI   UNL     1      -9.863   7.677  69.633  1.00  0.00    -0.167 Si 
HETATM    9  C   UNL     1     -10.797   6.253  68.855  1.00  0.00    -0.333 C  
HETATM   10  C   UNL     1      -8.028   7.297  69.697  1.00  0.00    -0.127 C  
BRANCH   8  11
HETATM   11  O   UNL     1     -10.109   9.079  68.746  1.00  0.00    -0.186 OA 
HETATM   12 SI   UNL     1      -9.441   9.850  67.408  1.00  0.00    -0.136 Si 
HETATM   13  C   UNL     1      -7.624  10.274  67.686  1.00  0.00    -0.090 C  
HETATM   14  C   UNL     1     -10.334  11.452  66.994  1.00  0.00    -0.223 C  
HETATM   15  C   UNL     1      -9.527   8.730  65.893  1.00  0.00    -0.208 C  
ENDBRANCH   8  11
ENDBRANCH   5   8
TORSDOF 2
ENDMDL
MODEL      152
REMARK 921   NORMALIZED FREE ENERGY PREDICTED BY IDOCK:   -3.06 KCAL/MOL
REMARK 922        TOTAL FREE ENERGY PREDICTED BY IDOCK:   -3.66 KCAL/MOL
REMARK 923 INTER-LIGAND FREE ENERGY PREDICTED BY IDOCK:   -3.47 KCAL/MOL
REMARK 924 INTRA-LIGAND FREE ENERGY PREDICTED BY IDOCK:   -0.19 KCAL/MOL
REMARK 927      BINDING AFFINITY PREDICTED BY RF-SCORE:    0.00 PKD
ROOT
HETATM    1  O   UNL     1     -10.512  17.856  67.683  1.00  0.00    -0.370 OA 
HETATM    2  H   UNL     1     -11.402  18.003  67.388  1.00  0.00     0.000 HD 
HETATM    3 SI   UNL     1      -9.585  17.589  66.560  1.00  0.00    -0.227 Si 
HETATM    4  C   UNL     1     -11.964  15.591  64.209  1.00  0.00    -0.153 C  
HETATM    5  O   UNL     1     -10.973  15.199  65.155  1.00  0.00    -0.366 OA 
HETATM    6  O   UNL     1      -8.207  17.360  67.016  1.00  0.00    -0.202 OA 
HETATM    7  H   UNL     1      -7.613  17.189  66.296  1.00  0.00     0.000 HD 
ENDROOT
BRANCH   5   8
HETATM    8 SI   UNL     1     -11.235  13.796  66.053  1.00  0.00    -0.290 Si 
HETATM    9  C   UNL     1     -12.463  12.711  65.147  1.00  0.00    -0.463 C  
HETATM   10  C   UNL     1     -11.895  14.254  67.747  1.00  0.00    -0.379 C  
BRANCH   8  11
HETATM   11  O   UNL     1      -9.774  12.994  66.224  1.00  0.00    -0.266 OA 
HETATM   12 SI   UNL     1      -9.225  11.474  66.696  1.00  0.00    -0.157 Si 
HETATM   13  C   UNL     1      -9.717  11.080  68.474  1.00  0.00    -0.189 C  
HETATM   14  C   UNL     1      -7.353  11.332  66.588  1.00  0.00    -0.131 C  
HETATM   15  C   UNL     1      -9.973  10.135  65.600  1.00  0.00    -0.279 C  
ENDBRANCH   8  11
ENDBRANCH   5   8
TORSDOF 2
ENDMDL
MODEL      153
REMARK 921   NORMALIZED FREE ENERGY PREDICTED BY IDOCK:   -3.06 KCAL/MOL
REMARK 922        TOTAL FREE ENERGY PREDICTED BY IDOCK:   -3.65 KCAL/MOL
REMARK 923 INTER-LIGAND FREE ENERGY PREDICTED BY IDOCK:   -3.40 KCAL/MOL
REMARK 924 INTRA-LIGAND FREE ENERGY PREDICTED BY IDOCK:   -0.25 KCAL/MOL
REMARK 927      BINDING AFFINITY PREDICTED BY RF-SCORE:    0.00 PKD
ROOT
HETATM    1  O   UNL     1     -10.751  10.220  70.570  1.00  0.00    -0.387 OA 
HETATM    2  H   UNL     1     -10.330   9.601  71.155  1.00  0.00     0.000 HD 
HETATM    3 SI   UNL     1     -11.976   9.664  69.952  1.00  0.00    -0.292 Si 
HETATM    4  C   UNL     1     -10.872   5.951  69.533  1.00  0.00    -0.372 C  
HETATM    5  O   UNL     1     -10.898   7.067  68.647  1.00  0.00    -0.204 OA 
HETATM    6  O   UNL     1     -12.628  10.621  69.047  1.00  0.00    -0.746 OA 
HETATM    7  H   UNL     1     -13.414  10.265  68.651  1.00  0.00     0.000 HD 
ENDROOT
BRANCH   5   8
HETATM    8 SI   UNL     1      -9.669   7.207  67.502  1.00  0.00    -0.130 Si 
HETATM    9  C   UNL     1      -9.566   5.618  66.517  1.00  0.00    -0.155 C  
HETATM   10  C   UNL     1      -8.042   7.543  68.371  1.00  0.00    -0.125 C  
BRANCH   8  11
HETATM   11  O   UNL     1     -10.031   8.490  66.487  1.00  0.00    -0.259 OA 
HETATM   12 SI   UNL     1      -9.358   9.967  66.041  1.00  0.00    -0.141 Si 
HETATM   13  C   UNL     1      -9.167  11.118  67.524  1.00  0.00    -0.153 C  
HETATM   14  C   UNL     1     -10.404  10.868  64.765  1.00  0.00    -0.323 C  
HETATM   15  C   UNL     1      -7.639   9.712  65.308  1.00  0.00    -0.113 C  
ENDBRANCH   8  11
ENDBRANCH   5   8
TORSDOF 2
ENDMDL
MODEL      154
REMARK 921   NORMALIZED FREE ENERGY PREDICTED BY IDOCK:   -3.05 KCAL/MOL
REMARK 922        TOTAL FREE ENERGY PREDICTED BY IDOCK:   -3.64 KCAL/MOL
REMARK 923 INTER-LIGAND FREE ENERGY PREDICTED BY IDOCK:   -3.41 KCAL/MOL
REMARK 924 INTRA-LIGAND FREE ENERGY PREDICTED BY IDOCK:   -0.23 KCAL/MOL
REMARK 927      BINDING AFFINITY PREDICTED BY RF-SCORE:    0.00 PKD
ROOT
HETATM    1  O   UNL     1      -9.813  14.044  65.203  1.00  0.00    -0.570 OA 
HETATM    2  H   UNL     1      -9.721  14.266  66.122  1.00  0.00     0.000 HD 
HETATM    3 SI   UNL     1     -11.115  13.407  64.907  1.00  0.00    -0.292 Si 
HETATM    4  C   UNL     1     -11.608  11.367  68.189  1.00  0.00    -0.294 C  
HETATM    5  O   UNL     1     -11.117  11.028  66.895  1.00  0.00    -0.280 OA 
HETATM    6  O   UNL     1     -11.257  13.062  63.485  1.00  0.00    -0.582 OA 
HETATM    7  H   UNL     1     -12.093  12.654  63.295  1.00  0.00     0.000 HD 
ENDROOT
BRANCH   5   8
HETATM    8 SI   UNL     1      -9.869   9.902  66.783  1.00  0.00    -0.150 Si 
HETATM    9  C   UNL     1      -9.173   9.930  65.045  1.00  0.00    -0.240 C  
HETATM   10  C   UNL     1     -10.528   8.195  67.194  1.00  0.00    -0.326 C  
BRANCH   8  11
HETATM   11  O   UNL     1      -8.677  10.317  67.887  1.00  0.00    -0.121 OA 
HETATM   12 SI   UNL     1      -7.934   9.650  69.241  1.00  0.00    -0.074 Si 
HETATM   13  C   UNL     1      -9.177   9.317  70.621  1.00  0.00    -0.264 C  
HETATM   14  C   UNL     1      -6.603  10.775  69.947  1.00  0.00    -0.149 C  
HETATM   15  C   UNL     1      -7.129   8.001  68.806  1.00  0.00    -0.071 C  
ENDBRANCH   8  11
ENDBRANCH   5   8
TORSDOF 2
ENDMDL
MODEL      155
REMARK 921   NORMALIZED FREE ENERGY PREDICTED BY IDOCK:   -3.05 KCAL/MOL
REMARK 922        TOTAL FREE ENERGY PREDICTED BY IDOCK:   -3.64 KCAL/MOL
REMARK 923 INTER-LIGAND FREE ENERGY PREDICTED BY IDOCK:   -3.39 KCAL/MOL
REMARK 924 INTRA-LIGAND FREE ENERGY PREDICTED BY IDOCK:   -0.25 KCAL/MOL
REMARK 927      BINDING AFFINITY PREDICTED BY RF-SCORE:    0.00 PKD
ROOT
HETATM    1  O   UNL     1     -12.657  12.616  70.885  1.00  0.00    -0.338 OA 
HETATM    2  H   UNL     1     -13.269  12.219  70.276  1.00  0.00     0.000 HD 
HETATM    3 SI   UNL     1     -12.292  13.997  70.495  1.00  0.00    -0.252 Si 
HETATM    4  C   UNL     1     -12.296  13.603  66.618  1.00  0.00    -0.331 C  
HETATM    5  O   UNL     1     -11.263  13.579  67.600  1.00  0.00    -0.261 OA 
HETATM    6  O   UNL     1     -11.345  14.611  71.436  1.00  0.00    -0.528 OA 
HETATM    7  H   UNL     1     -11.111  15.496  71.186  1.00  0.00     0.000 HD 
ENDROOT
BRANCH   5   8
HETATM    8 SI   UNL     1      -9.962  12.534  67.365  1.00  0.00    -0.190 Si 
HETATM    9  C   UNL     1     -10.078  11.787  65.652  1.00  0.00    -0.243 C  
HETATM   10  C   UNL     1     -10.000  11.186  68.669  1.00  0.00    -0.205 C  
BRANCH   8  11
HETATM   11  O   UNL     1      -8.541  13.411  67.515  1.00  0.00    -0.176 OA 
HETATM   12 SI   UNL     1      -8.070  15.017  67.690  1.00  0.00    -0.120 Si 
HETATM   13  C   UNL     1      -8.633  16.068  66.228  1.00  0.00    -0.328 C  
HETATM   14  C   UNL     1      -6.204  15.198  67.824  1.00  0.00    -0.152 C  
HETATM   15  C   UNL     1      -8.839  15.762  69.242  1.00  0.00    -0.262 C  
ENDBRANCH   8  11
ENDBRANCH   5   8
TORSDOF 2
ENDMDL
MODEL      156
REMARK 921   NORMALIZED FREE ENERGY PREDICTED BY IDOCK:   -3.04 KCAL/MOL
REMARK 922        TOTAL FREE ENERGY PREDICTED BY IDOCK:   -3.64 KCAL/MOL
REMARK 923 INTER-LIGAND FREE ENERGY PREDICTED BY IDOCK:   -3.43 KCAL/MOL
REMARK 924 INTRA-LIGAND FREE ENERGY PREDICTED BY IDOCK:   -0.20 KCAL/MOL
REMARK 927      BINDING AFFINITY PREDICTED BY RF-SCORE:    0.00 PKD
ROOT
HETATM    1  O   UNL     1      -7.499  14.125  69.687  1.00  0.00    -0.347 OA 
HETATM    2  H   UNL     1      -7.826  13.318  70.067  1.00  0.00     0.000 HD 
HETATM    3 SI   UNL     1      -8.440  15.253  69.867  1.00  0.00    -0.203 Si 
HETATM    4  C   UNL     1     -11.820  13.346  69.531  1.00  0.00    -0.332 C  
HETATM    5  O   UNL     1     -11.037  14.109  68.618  1.00  0.00    -0.241 OA 
HETATM    6  O   UNL     1      -7.933  16.501  69.277  1.00  0.00    -0.224 OA 
HETATM    7  H   UNL     1      -8.537  17.224  69.393  1.00  0.00     0.000 HD 
ENDROOT
BRANCH   5   8
HETATM    8 SI   UNL     1     -10.993  13.626  67.004  1.00  0.00    -0.262 Si 
HETATM    9  C   UNL     1      -9.553  14.465  66.153  1.00  0.00    -0.283 C  
HETATM   10  C   UNL     1     -12.607  14.092  66.169  1.00  0.00    -0.367 C  
BRANCH   8  11
HETATM   11  O   UNL     1     -10.802  11.961  66.952  1.00  0.00    -0.239 OA 
HETATM   12 SI   UNL     1      -9.812  10.836  66.187  1.00  0.00    -0.178 Si 
HETATM   13  C   UNL     1      -9.970  10.935  64.310  1.00  0.00    -0.333 C  
HETATM   14  C   UNL     1     -10.223   9.071  66.691  1.00  0.00    -0.263 C  
HETATM   15  C   UNL     1      -8.002  11.154  66.612  1.00  0.00    -0.159 C  
ENDBRANCH   8  11
ENDBRANCH   5   8
TORSDOF 2
ENDMDL
MODEL      157
REMARK 921   NORMALIZED FREE ENERGY PREDICTED BY IDOCK:   -3.03 KCAL/MOL
REMARK 922        TOTAL FREE ENERGY PREDICTED BY IDOCK:   -3.62 KCAL/MOL
REMARK 923 INTER-LIGAND FREE ENERGY PREDICTED BY IDOCK:   -3.37 KCAL/MOL
REMARK 924 INTRA-LIGAND FREE ENERGY PREDICTED BY IDOCK:   -0.25 KCAL/MOL
REMARK 927      BINDING AFFINITY PREDICTED BY RF-SCORE:    0.00 PKD
ROOT
HETATM    1  O   UNL     1     -13.095  15.818  70.098  1.00  0.00    -0.673 OA 
HETATM    2  H   UNL     1     -13.495  16.491  69.560  1.00  0.00     0.000 HD 
HETATM    3 SI   UNL     1     -11.898  16.311  70.816  1.00  0.00    -0.310 Si 
HETATM    4  C   UNL     1     -10.477  18.743  68.124  1.00  0.00    -0.315 C  
HETATM    5  O   UNL     1     -10.171  17.398  68.482  1.00  0.00    -0.324 OA 
HETATM    6  O   UNL     1     -11.279  15.269  71.648  1.00  0.00    -0.460 OA 
HETATM    7  H   UNL     1     -10.511  15.586  72.109  1.00  0.00     0.000 HD 
ENDROOT
BRANCH   5   8
HETATM    8 SI   UNL     1      -9.729  16.327  67.258  1.00  0.00    -0.217 Si 
HETATM    9  C   UNL     1     -10.687  16.744  65.704  1.00  0.00    -0.192 C  
HETATM   10  C   UNL     1     -10.100  14.571  67.801  1.00  0.00    -0.225 C  
BRANCH   8  11
HETATM   11  O   UNL     1      -8.084  16.486  66.979  1.00  0.00    -0.168 OA 
HETATM   12 SI   UNL     1      -6.662  16.567  67.875  1.00  0.00    -0.113 Si 
HETATM   13  C   UNL     1      -6.665  18.043  69.050  1.00  0.00    -0.251 C  
HETATM   14  C   UNL     1      -5.142  16.727  66.780  1.00  0.00    -0.028 C  
HETATM   15  C   UNL     1      -6.459  15.016  68.928  1.00  0.00    -0.091 C  
ENDBRANCH   8  11
ENDBRANCH   5   8
TORSDOF 2
ENDMDL
MODEL      158
REMARK 921   NORMALIZED FREE ENERGY PREDICTED BY IDOCK:   -3.00 KCAL/MOL
REMARK 922        TOTAL FREE ENERGY PREDICTED BY IDOCK:   -3.58 KCAL/MOL
REMARK 923 INTER-LIGAND FREE ENERGY PREDICTED BY IDOCK:   -3.42 KCAL/MOL
REMARK 924 INTRA-LIGAND FREE ENERGY PREDICTED BY IDOCK:   -0.16 KCAL/MOL
REMARK 927      BINDING AFFINITY PREDICTED BY RF-SCORE:    0.00 PKD
ROOT
HETATM    1  O   UNL     1     -11.859   6.405  69.311  1.00  0.00    -0.548 OA 
HETATM    2  H   UNL     1     -12.699   6.847  69.348  1.00  0.00     0.000 HD 
HETATM    3 SI   UNL     1     -11.020   6.693  70.495  1.00  0.00    -0.211 Si 
HETATM    4  C   UNL     1     -12.039  10.400  71.131  1.00  0.00    -0.386 C  
HETATM    5  O   UNL     1     -10.936   9.793  70.464  1.00  0.00    -0.271 OA 
HETATM    6  O   UNL     1      -9.720   6.010  70.438  1.00  0.00    -0.165 OA 
HETATM    7  H   UNL     1      -9.182   6.195  71.198  1.00  0.00     0.000 HD 
ENDROOT
BRANCH   5   8
HETATM    8 SI   UNL     1     -10.312  10.554  69.096  1.00  0.00    -0.158 Si 
HETATM    9  C   UNL     1     -10.889   9.638  67.569  1.00  0.00    -0.198 C  
HETATM   10  C   UNL     1      -8.438  10.560  69.184  1.00  0.00    -0.147 C  
BRANCH   8  11
HETATM   11  O   UNL     1     -10.871  12.134  69.064  1.00  0.00    -0.216 OA 
HETATM   12 SI   UNL     1     -10.850  13.451  68.017  1.00  0.00    -0.215 Si 
HETATM   13  C   UNL     1      -9.087  14.005  67.634  1.00  0.00    -0.192 C  
HETATM   14  C   UNL     1     -11.761  14.935  68.726  1.00  0.00    -0.325 C  
HETATM   15  C   UNL     1     -11.662  13.001  66.376  1.00  0.00    -0.390 C  
ENDBRANCH   8  11
ENDBRANCH   5   8
TORSDOF 2
ENDMDL
MODEL      159
REMARK 921   NORMALIZED FREE ENERGY PREDICTED BY IDOCK:   -2.98 KCAL/MOL
REMARK 922        TOTAL FREE ENERGY PREDICTED BY IDOCK:   -3.56 KCAL/MOL
REMARK 923 INTER-LIGAND FREE ENERGY PREDICTED BY IDOCK:   -3.36 KCAL/MOL
REMARK 924 INTRA-LIGAND FREE ENERGY PREDICTED BY IDOCK:   -0.21 KCAL/MOL
REMARK 927      BINDING AFFINITY PREDICTED BY RF-SCORE:    0.00 PKD
ROOT
HETATM    1  O   UNL     1     -12.642  15.269  69.302  1.00  0.00    -0.585 OA 
HETATM    2  H   UNL     1     -13.026  15.588  68.494  1.00  0.00     0.000 HD 
HETATM    3 SI   UNL     1     -11.190  15.544  69.380  1.00  0.00    -0.212 Si 
HETATM    4  C   UNL     1     -10.235  15.086  65.630  1.00  0.00    -0.360 C  
HETATM    5  O   UNL     1     -10.162  14.229  66.766  1.00  0.00    -0.264 OA 
HETATM    6  O   UNL     1     -10.595  15.051  70.630  1.00  0.00    -0.517 OA 
HETATM    7  H   UNL     1      -9.663  15.227  70.680  1.00  0.00     0.000 HD 
ENDROOT
BRANCH   5   8
HETATM    8 SI   UNL     1     -10.442  12.582  66.546  1.00  0.00    -0.224 Si 
HETATM    9  C   UNL     1     -11.222  12.314  64.865  1.00  0.00    -0.319 C  
HETATM   10  C   UNL     1     -11.578  11.955  67.900  1.00  0.00    -0.323 C  
BRANCH   8  11
HETATM   11  O   UNL     1      -8.975  11.776  66.634  1.00  0.00    -0.186 OA 
HETATM   12 SI   UNL     1      -7.755  11.510  67.762  1.00  0.00    -0.097 Si 
HETATM   13  C   UNL     1      -6.966  13.128  68.326  1.00  0.00    -0.105 C  
HETATM   14  C   UNL     1      -6.380  10.425  67.078  1.00  0.00    -0.072 C  
HETATM   15  C   UNL     1      -8.452  10.665  69.297  1.00  0.00    -0.091 C  
ENDBRANCH   8  11
ENDBRANCH   5   8
TORSDOF 2
ENDMDL
MODEL      160
REMARK 921   NORMALIZED FREE ENERGY PREDICTED BY IDOCK:   -2.98 KCAL/MOL
REMARK 922        TOTAL FREE ENERGY PREDICTED BY IDOCK:   -3.56 KCAL/MOL
REMARK 923 INTER-LIGAND FREE ENERGY PREDICTED BY IDOCK:   -3.43 KCAL/MOL
REMARK 924 INTRA-LIGAND FREE ENERGY PREDICTED BY IDOCK:   -0.13 KCAL/MOL
REMARK 927      BINDING AFFINITY PREDICTED BY RF-SCORE:    0.00 PKD
ROOT
HETATM    1  O   UNL     1     -11.308   9.197  70.460  1.00  0.00    -0.261 OA 
HETATM    2  H   UNL     1     -10.575   8.933  69.916  1.00  0.00     0.000 HD 
HETATM    3 SI   UNL     1     -12.550   9.381  69.678  1.00  0.00    -0.432 Si 
HETATM    4  C   UNL     1     -11.044  10.814  66.383  1.00  0.00     0.057 C  
HETATM    5  O   UNL     1     -11.641  11.420  67.525  1.00  0.00    -0.497 OA 
HETATM    6  O   UNL     1     -13.684   9.791  70.519  1.00  0.00    -0.547 OA 
HETATM    7  H   UNL     1     -14.481   9.908  70.017  1.00  0.00     0.000 HD 
ENDROOT
BRANCH   5   8
HETATM    8 SI   UNL     1     -11.044  12.907  68.046  1.00  0.00    -0.207 Si 
HETATM    9  C   UNL     1      -9.229  12.723  68.469  1.00  0.00    -0.061 C  
HETATM   10  C   UNL     1     -12.009  13.476  69.550  1.00  0.00    -0.334 C  
BRANCH   8  11
HETATM   11  O   UNL     1     -11.236  14.021  66.809  1.00  0.00    -0.301 OA 
HETATM   12 SI   UNL     1     -10.683  15.559  66.408  1.00  0.00    -0.269 Si 
HETATM   13  C   UNL     1     -11.171  16.834  67.710  1.00  0.00    -0.026 C  
HETATM   14  C   UNL     1     -11.368  16.152  64.760  1.00  0.00    -0.249 C  
HETATM   15  C   UNL     1      -8.801  15.572  66.292  1.00  0.00    -0.303 C  
ENDBRANCH   8  11
ENDBRANCH   5   8
TORSDOF 2
ENDMDL
MODEL      161
REMARK 921   NORMALIZED FREE ENERGY PREDICTED BY IDOCK:   -2.98 KCAL/MOL
REMARK 922        TOTAL FREE ENERGY PREDICTED BY IDOCK:   -3.56 KCAL/MOL
REMARK 923 INTER-LIGAND FREE ENERGY PREDICTED BY IDOCK:   -3.31 KCAL/MOL
REMARK 924 INTRA-LIGAND FREE ENERGY PREDICTED BY IDOCK:   -0.25 KCAL/MOL
REMARK 927      BINDING AFFINITY PREDICTED BY RF-SCORE:    0.00 PKD
ROOT
HETATM    1  O   UNL     1     -10.978  15.837  64.442  1.00  0.00    -0.790 OA 
HETATM    2  H   UNL     1     -11.566  16.358  64.976  1.00  0.00     0.000 HD 
HETATM    3 SI   UNL     1     -11.231  14.386  64.580  1.00  0.00    -0.317 Si 
HETATM    4  C   UNL     1     -12.214  14.248  68.348  1.00  0.00    -0.162 C  
HETATM    5  O   UNL     1     -10.999  13.997  67.648  1.00  0.00    -0.262 OA 
HETATM    6  O   UNL     1     -10.320  13.580  63.755  1.00  0.00    -0.549 OA 
HETATM    7  H   UNL     1     -10.482  12.648  63.844  1.00  0.00     0.000 HD 
ENDROOT
BRANCH   5   8
HETATM    8 SI   UNL     1      -9.546  14.419  68.392  1.00  0.00    -0.174 Si 
HETATM    9  C   UNL     1      -9.913  15.448  69.912  1.00  0.00    -0.216 C  
HETATM   10  C   UNL     1      -8.486  15.390  67.187  1.00  0.00    -0.214 C  
BRANCH   8  11
HETATM   11  O   UNL     1      -8.744  13.014  68.828  1.00  0.00    -0.005 OA 
HETATM   12 SI   UNL     1      -8.951  11.351  68.673  1.00  0.00    -0.134 Si 
HETATM   13  C   UNL     1     -10.543  10.769  69.501  1.00  0.00    -0.196 C  
HETATM   14  C   UNL     1      -7.534  10.385  69.443  1.00  0.00    -0.135 C  
HETATM   15  C   UNL     1      -9.060  10.869  66.853  1.00  0.00    -0.154 C  
ENDBRANCH   8  11
ENDBRANCH   5   8
TORSDOF 2
ENDMDL
MODEL      162
REMARK 921   NORMALIZED FREE ENERGY PREDICTED BY IDOCK:   -2.97 KCAL/MOL
REMARK 922        TOTAL FREE ENERGY PREDICTED BY IDOCK:   -3.55 KCAL/MOL
REMARK 923 INTER-LIGAND FREE ENERGY PREDICTED BY IDOCK:   -3.35 KCAL/MOL
REMARK 924 INTRA-LIGAND FREE ENERGY PREDICTED BY IDOCK:   -0.20 KCAL/MOL
REMARK 927      BINDING AFFINITY PREDICTED BY RF-SCORE:    0.00 PKD
ROOT
HETATM    1  O   UNL     1     -11.727  13.986  70.359  1.00  0.00    -0.403 OA 
HETATM    2  H   UNL     1     -12.205  13.226  70.052  1.00  0.00     0.000 HD 
HETATM    3 SI   UNL     1     -12.122  15.223  69.650  1.00  0.00    -0.250 Si 
HETATM    4  C   UNL     1     -12.775  13.760  66.098  1.00  0.00    -0.283 C  
HETATM    5  O   UNL     1     -11.661  14.423  66.690  1.00  0.00    -0.371 OA 
HETATM    6  O   UNL     1     -11.382  16.401  70.125  1.00  0.00    -0.412 OA 
HETATM    7  H   UNL     1     -11.636  17.194  69.669  1.00  0.00     0.000 HD 
ENDROOT
BRANCH   5   8
HETATM    8 SI   UNL     1     -10.111  13.947  66.231  1.00  0.00    -0.246 Si 
HETATM    9  C   UNL     1      -8.970  15.429  66.301  1.00  0.00    -0.306 C  
HETATM   10  C   UNL     1     -10.163  13.245  64.492  1.00  0.00    -0.310 C  
BRANCH   8  11
HETATM   11  O   UNL     1      -9.582  12.763  67.292  1.00  0.00    -0.199 OA 
HETATM   12 SI   UNL     1      -8.246  11.759  67.487  1.00  0.00    -0.117 Si 
HETATM   13  C   UNL     1      -8.015  10.615  66.004  1.00  0.00    -0.159 C  
HETATM   14  C   UNL     1      -8.391  10.672  69.014  1.00  0.00    -0.152 C  
HETATM   15  C   UNL     1      -6.671  12.783  67.650  1.00  0.00    -0.147 C  
ENDBRANCH   8  11
ENDBRANCH   5   8
TORSDOF 2
ENDMDL
MODEL      163
REMARK 921   NORMALIZED FREE ENERGY PREDICTED BY IDOCK:   -2.97 KCAL/MOL
REMARK 922        TOTAL FREE ENERGY PREDICTED BY IDOCK:   -3.55 KCAL/MOL
REMARK 923 INTER-LIGAND FREE ENERGY PREDICTED BY IDOCK:   -3.34 KCAL/MOL
REMARK 924 INTRA-LIGAND FREE ENERGY PREDICTED BY IDOCK:   -0.21 KCAL/MOL
REMARK 927      BINDING AFFINITY PREDICTED BY RF-SCORE:    0.00 PKD
ROOT
HETATM    1  O   UNL     1      -6.634  13.417  68.487  1.00  0.00    -0.075 OA 
HETATM    2  H   UNL     1      -6.313  14.226  68.869  1.00  0.00     0.000 HD 
HETATM    3 SI   UNL     1      -6.518  13.408  67.011  1.00  0.00    -0.166 Si 
HETATM    4  C   UNL     1      -7.257  17.162  66.275  1.00  0.00    -0.273 C  
HETATM    5  O   UNL     1      -8.061  15.987  66.246  1.00  0.00    -0.270 OA 
HETATM    6  O   UNL     1      -7.015  12.157  66.420  1.00  0.00    -0.319 OA 
HETATM    7  H   UNL     1      -6.941  12.152  65.474  1.00  0.00     0.000 HD 
ENDROOT
BRANCH   5   8
HETATM    8 SI   UNL     1      -9.676  16.111  66.713  1.00  0.00    -0.211 Si 
HETATM    9  C   UNL     1     -10.651  16.923  65.336  1.00  0.00    -0.162 C  
HETATM   10  C   UNL     1      -9.795  17.128  68.285  1.00  0.00    -0.288 C  
BRANCH   8  11
HETATM   11  O   UNL     1     -10.266  14.570  67.004  1.00  0.00    -0.258 OA 
HETATM   12 SI   UNL     1     -11.084  13.360  66.166  1.00  0.00    -0.277 Si 
HETATM   13  C   UNL     1     -12.769  13.954  65.559  1.00  0.00    -0.499 C  
HETATM   14  C   UNL     1     -11.377  11.836  67.227  1.00  0.00    -0.315 C  
HETATM   15  C   UNL     1     -10.098  12.830  64.648  1.00  0.00    -0.232 C  
ENDBRANCH   8  11
ENDBRANCH   5   8
TORSDOF 2
ENDMDL
MODEL      164
REMARK 921   NORMALIZED FREE ENERGY PREDICTED BY IDOCK:   -2.97 KCAL/MOL
REMARK 922        TOTAL FREE ENERGY PREDICTED BY IDOCK:   -3.55 KCAL/MOL
REMARK 923 INTER-LIGAND FREE ENERGY PREDICTED BY IDOCK:   -3.31 KCAL/MOL
REMARK 924 INTRA-LIGAND FREE ENERGY PREDICTED BY IDOCK:   -0.24 KCAL/MOL
REMARK 927      BINDING AFFINITY PREDICTED BY RF-SCORE:    0.00 PKD
ROOT
HETATM    1  O   UNL     1     -12.175  10.692  68.250  1.00  0.00    -0.799 OA 
HETATM    2  H   UNL     1     -11.871  10.080  67.590  1.00  0.00     0.000 HD 
HETATM    3 SI   UNL     1     -11.070  11.210  69.087  1.00  0.00    -0.169 Si 
HETATM    4  C   UNL     1      -8.829   8.028  69.254  1.00  0.00    -0.141 C  
HETATM    5  O   UNL     1      -9.796   8.586  70.139  1.00  0.00    -0.175 OA 
HETATM    6  O   UNL     1     -11.540  12.157  70.109  1.00  0.00    -0.504 OA 
HETATM    7  H   UNL     1     -10.831  12.489  70.645  1.00  0.00     0.000 HD 
ENDROOT
BRANCH   5   8
HETATM    8 SI   UNL     1     -10.769   7.535  71.027  1.00  0.00    -0.216 Si 
HETATM    9  C   UNL     1     -11.265   6.094  69.939  1.00  0.00    -0.414 C  
HETATM   10  C   UNL     1     -12.290   8.451  71.631  1.00  0.00    -0.320 C  
BRANCH   8  11
HETATM   11  O   UNL     1      -9.892   6.985  72.345  1.00  0.00    -0.154 OA 
HETATM   12 SI   UNL     1      -8.287   6.675  72.744  1.00  0.00    -0.111 Si 
HETATM   13  C   UNL     1      -7.535   5.359  71.621  1.00  0.00    -0.091 C  
HETATM   14  C   UNL     1      -8.100   6.073  74.516  1.00  0.00    -0.111 C  
HETATM   15  C   UNL     1      -7.248   8.236  72.549  1.00  0.00    -0.103 C  
ENDBRANCH   8  11
ENDBRANCH   5   8
TORSDOF 2
ENDMDL
MODEL      165
REMARK 921   NORMALIZED FREE ENERGY PREDICTED BY IDOCK:   -2.96 KCAL/MOL
REMARK 922        TOTAL FREE ENERGY PREDICTED BY IDOCK:   -3.55 KCAL/MOL
REMARK 923 INTER-LIGAND FREE ENERGY PREDICTED BY IDOCK:   -3.33 KCAL/MOL
REMARK 924 INTRA-LIGAND FREE ENERGY PREDICTED BY IDOCK:   -0.22 KCAL/MOL
REMARK 927      BINDING AFFINITY PREDICTED BY RF-SCORE:    0.00 PKD
ROOT
HETATM    1  O   UNL     1     -11.558   4.571  65.205  1.00  0.00    -1.102 OA 
HETATM    2  H   UNL     1     -11.105   4.172  64.471  1.00  0.00     0.000 HD 
HETATM    3 SI   UNL     1     -10.953   5.861  65.604  1.00  0.00    -0.455 Si 
HETATM    4  C   UNL     1      -7.201   5.064  64.923  1.00  0.00    -0.063 C  
HETATM    5  O   UNL     1      -8.003   5.045  66.100  1.00  0.00    -0.105 OA 
HETATM    6  O   UNL     1     -11.653   6.478  66.740  1.00  0.00    -0.731 OA 
HETATM    7  H   UNL     1     -11.265   7.306  66.996  1.00  0.00     0.000 HD 
ENDROOT
BRANCH   5   8
HETATM    8 SI   UNL     1      -7.694   3.861  67.260  1.00  0.00    -0.071 Si 
HETATM    9  C   UNL     1      -6.141   2.929  66.784  1.00  0.00    -0.024 C  
HETATM   10  C   UNL     1      -9.154   2.689  67.361  1.00  0.00    -0.174 C  
BRANCH   8  11
HETATM   11  O   UNL     1      -7.481   4.612  68.743  1.00  0.00    -0.063 OA 
HETATM   12 SI   UNL     1      -8.396   5.497  69.844  1.00  0.00    -0.089 Si 
HETATM   13  C   UNL     1      -9.067   7.083  69.072  1.00  0.00    -0.135 C  
HETATM   14  C   UNL     1      -7.399   5.992  71.359  1.00  0.00    -0.084 C  
HETATM   15  C   UNL     1      -9.879   4.490  70.428  1.00  0.00    -0.232 C  
ENDBRANCH   8  11
ENDBRANCH   5   8
TORSDOF 2
ENDMDL
MODEL      166
REMARK 921   NORMALIZED FREE ENERGY PREDICTED BY IDOCK:   -2.96 KCAL/MOL
REMARK 922        TOTAL FREE ENERGY PREDICTED BY IDOCK:   -3.54 KCAL/MOL
REMARK 923 INTER-LIGAND FREE ENERGY PREDICTED BY IDOCK:   -3.32 KCAL/MOL
REMARK 924 INTRA-LIGAND FREE ENERGY PREDICTED BY IDOCK:   -0.22 KCAL/MOL
REMARK 927      BINDING AFFINITY PREDICTED BY RF-SCORE:    0.00 PKD
ROOT
HETATM    1  O   UNL     1      -7.747   8.779  69.725  1.00  0.00    -0.079 OA 
HETATM    2  H   UNL     1      -8.510   8.274  69.472  1.00  0.00     0.000 HD 
HETATM    3 SI   UNL     1      -8.109  10.091  70.307  1.00  0.00    -0.119 Si 
HETATM    4  C   UNL     1     -11.239  10.925  68.142  1.00  0.00    -0.301 C  
HETATM    5  O   UNL     1      -9.869  11.308  68.063  1.00  0.00    -0.168 OA 
HETATM    6  O   UNL     1      -6.928  10.873  70.699  1.00  0.00    -0.441 OA 
HETATM    7  H   UNL     1      -7.160  11.714  71.072  1.00  0.00     0.000 HD 
ENDROOT
BRANCH   5   8
HETATM    8 SI   UNL     1      -9.181  11.506  66.537  1.00  0.00    -0.160 Si 
HETATM    9  C   UNL     1      -9.737  10.104  65.428  1.00  0.00    -0.291 C  
HETATM   10  C   UNL     1      -7.311  11.514  66.691  1.00  0.00    -0.069 C  
BRANCH   8  11
HETATM   11  O   UNL     1      -9.692  12.973  65.909  1.00  0.00    -0.252 OA 
HETATM   12 SI   UNL     1     -11.015  14.004  66.045  1.00  0.00    -0.283 Si 
HETATM   13  C   UNL     1     -12.614  13.154  65.515  1.00  0.00    -0.408 C  
HETATM   14  C   UNL     1     -10.825  15.547  64.987  1.00  0.00    -0.450 C  
HETATM   15  C   UNL     1     -11.241  14.551  67.835  1.00  0.00    -0.295 C  
ENDBRANCH   8  11
ENDBRANCH   5   8
TORSDOF 2
ENDMDL
MODEL      167
REMARK 921   NORMALIZED FREE ENERGY PREDICTED BY IDOCK:   -2.96 KCAL/MOL
REMARK 922        TOTAL FREE ENERGY PREDICTED BY IDOCK:   -3.54 KCAL/MOL
REMARK 923 INTER-LIGAND FREE ENERGY PREDICTED BY IDOCK:   -3.40 KCAL/MOL
REMARK 924 INTRA-LIGAND FREE ENERGY PREDICTED BY IDOCK:   -0.14 KCAL/MOL
REMARK 927      BINDING AFFINITY PREDICTED BY RF-SCORE:    0.00 PKD
ROOT
HETATM    1  O   UNL     1     -14.075   9.015  70.834  1.00  0.00    -0.576 OA 
HETATM    2  H   UNL     1     -13.789   9.405  70.016  1.00  0.00     0.000 HD 
HETATM    3 SI   UNL     1     -13.284   9.491  71.991  1.00  0.00    -0.299 Si 
HETATM    4  C   UNL     1      -9.792   9.837  70.297  1.00  0.00    -0.240 C  
HETATM    5  O   UNL     1     -10.393   8.819  71.093  1.00  0.00    -0.209 OA 
HETATM    6  O   UNL     1     -13.725   8.887  73.255  1.00  0.00    -1.085 OA 
HETATM    7  H   UNL     1     -13.218   9.193  73.997  1.00  0.00     0.000 HD 
ENDROOT
BRANCH   5   8
HETATM    8 SI   UNL     1     -10.025   7.212  70.746  1.00  0.00    -0.179 Si 
HETATM    9  C   UNL     1     -10.717   6.776  69.061  1.00  0.00    -0.246 C  
HETATM   10  C   UNL     1     -10.768   6.103  72.063  1.00  0.00    -0.233 C  
BRANCH   8  11
HETATM   11  O   UNL     1      -8.359   7.034  70.746  1.00  0.00    -0.126 OA 
HETATM   12 SI   UNL     1      -7.220   5.867  70.328  1.00  0.00    -0.055 Si 
HETATM   13  C   UNL     1      -7.447   4.286  71.332  1.00  0.00    -0.059 C  
HETATM   14  C   UNL     1      -5.459   6.461  70.611  1.00  0.00    -0.018 C  
HETATM   15  C   UNL     1      -7.392   5.403  68.509  1.00  0.00    -0.075 C  
ENDBRANCH   8  11
ENDBRANCH   5   8
TORSDOF 2
ENDMDL
MODEL      168
REMARK 921   NORMALIZED FREE ENERGY PREDICTED BY IDOCK:   -2.96 KCAL/MOL
REMARK 922        TOTAL FREE ENERGY PREDICTED BY IDOCK:   -3.54 KCAL/MOL
REMARK 923 INTER-LIGAND FREE ENERGY PREDICTED BY IDOCK:   -3.32 KCAL/MOL
REMARK 924 INTRA-LIGAND FREE ENERGY PREDICTED BY IDOCK:   -0.22 KCAL/MOL
REMARK 927      BINDING AFFINITY PREDICTED BY RF-SCORE:    0.00 PKD
ROOT
HETATM    1  O   UNL     1      -9.889   6.860  74.562  1.00  0.00    -0.433 OA 
HETATM    2  H   UNL     1     -10.814   6.657  74.482  1.00  0.00     0.000 HD 
HETATM    3 SI   UNL     1      -9.606   8.294  74.334  1.00  0.00    -0.376 Si 
HETATM    4  C   UNL     1     -12.256   9.053  71.580  1.00  0.00    -0.348 C  
HETATM    5  O   UNL     1     -10.866   8.744  71.536  1.00  0.00    -0.254 OA 
HETATM    6  O   UNL     1      -8.175   8.607  74.457  1.00  0.00    -0.411 OA 
HETATM    7  H   UNL     1      -7.994   9.528  74.310  1.00  0.00     0.000 HD 
ENDROOT
BRANCH   5   8
HETATM    8 SI   UNL     1     -10.294   7.815  70.252  1.00  0.00    -0.193 Si 
HETATM    9  C   UNL     1     -11.516   6.441  69.897  1.00  0.00    -0.415 C  
HETATM   10  C   UNL     1      -8.618   7.099  70.697  1.00  0.00    -0.143 C  
BRANCH   8  11
HETATM   11  O   UNL     1     -10.136   8.804  68.908  1.00  0.00    -0.187 OA 
HETATM   12 SI   UNL     1      -9.703  10.394  68.564  1.00  0.00    -0.141 Si 
HETATM   13  C   UNL     1     -10.858  11.625  69.408  1.00  0.00    -0.096 C  
HETATM   14  C   UNL     1      -9.747  10.758  66.720  1.00  0.00    -0.187 C  
HETATM   15  C   UNL     1      -7.959  10.750  69.185  1.00  0.00    -0.134 C  
ENDBRANCH   8  11
ENDBRANCH   5   8
TORSDOF 2
ENDMDL
MODEL      169
REMARK 921   NORMALIZED FREE ENERGY PREDICTED BY IDOCK:   -2.93 KCAL/MOL
REMARK 922        TOTAL FREE ENERGY PREDICTED BY IDOCK:   -3.51 KCAL/MOL
REMARK 923 INTER-LIGAND FREE ENERGY PREDICTED BY IDOCK:   -3.29 KCAL/MOL
REMARK 924 INTRA-LIGAND FREE ENERGY PREDICTED BY IDOCK:   -0.22 KCAL/MOL
REMARK 927      BINDING AFFINITY PREDICTED BY RF-SCORE:    0.00 PKD
ROOT
HETATM    1  O   UNL     1      -6.913  12.733  67.619  1.00  0.00    -0.116 OA 
HETATM    2  H   UNL     1      -6.736  13.034  66.736  1.00  0.00     0.000 HD 
HETATM    3 SI   UNL     1      -8.210  12.029  67.723  1.00  0.00    -0.112 Si 
HETATM    4  C   UNL     1     -10.290  14.107  65.166  1.00  0.00    -0.405 C  
HETATM    5  O   UNL     1     -10.167  14.148  66.585  1.00  0.00    -0.261 OA 
HETATM    6  O   UNL     1      -8.484  11.563  69.090  1.00  0.00    -0.372 OA 
HETATM    7  H   UNL     1      -9.316  11.111  69.157  1.00  0.00     0.000 HD 
ENDROOT
BRANCH   5   8
HETATM    8 SI   UNL     1     -10.244  15.647  67.352  1.00  0.00    -0.234 Si 
HETATM    9  C   UNL     1     -11.655  15.634  68.581  1.00  0.00    -0.382 C  
HETATM   10  C   UNL     1     -10.507  16.991  66.070  1.00  0.00    -0.274 C  
BRANCH   8  11
HETATM   11  O   UNL     1      -8.792  15.914  68.145  1.00  0.00    -0.173 OA 
HETATM   12 SI   UNL     1      -7.551  17.051  68.144  1.00  0.00    -0.157 Si 
HETATM   13  C   UNL     1      -6.716  17.165  66.456  1.00  0.00    -0.255 C  
HETATM   14  C   UNL     1      -6.215  16.645  69.403  1.00  0.00    -0.205 C  
HETATM   15  C   UNL     1      -8.229  18.764  68.548  1.00  0.00    -0.346 C  
ENDBRANCH   8  11
ENDBRANCH   5   8
TORSDOF 2
ENDMDL
MODEL      170
REMARK 921   NORMALIZED FREE ENERGY PREDICTED BY IDOCK:   -2.93 KCAL/MOL
REMARK 922        TOTAL FREE ENERGY PREDICTED BY IDOCK:   -3.51 KCAL/MOL
REMARK 923 INTER-LIGAND FREE ENERGY PREDICTED BY IDOCK:   -3.37 KCAL/MOL
REMARK 924 INTRA-LIGAND FREE ENERGY PREDICTED BY IDOCK:   -0.14 KCAL/MOL
REMARK 927      BINDING AFFINITY PREDICTED BY RF-SCORE:    0.00 PKD
ROOT
HETATM    1  O   UNL     1      -9.284  13.724  66.114  1.00  0.00    -0.478 OA 
HETATM    2  H   UNL     1      -9.227  14.054  67.003  1.00  0.00     0.000 HD 
HETATM    3 SI   UNL     1     -10.651  13.273  65.769  1.00  0.00    -0.260 Si 
HETATM    4  C   UNL     1     -11.750  11.820  69.213  1.00  0.00    -0.335 C  
HETATM    5  O   UNL     1     -11.226  11.228  68.028  1.00  0.00    -0.240 OA 
HETATM    6  O   UNL     1     -10.739  12.760  64.394  1.00  0.00    -0.329 OA 
HETATM    7  H   UNL     1     -11.615  12.471  64.173  1.00  0.00     0.000 HD 
ENDROOT
BRANCH   5   8
HETATM    8 SI   UNL     1     -10.189   9.909  68.184  1.00  0.00    -0.146 Si 
HETATM    9  C   UNL     1      -8.541  10.501  68.848  1.00  0.00    -0.153 C  
HETATM   10  C   UNL     1      -9.964   9.090  66.512  1.00  0.00    -0.285 C  
BRANCH   8  11
HETATM   11  O   UNL     1     -10.878   8.814  69.250  1.00  0.00    -0.187 OA 
HETATM   12 SI   UNL     1     -10.400   7.857  70.549  1.00  0.00    -0.191 Si 
HETATM   13  C   UNL     1      -9.069   6.618  70.045  1.00  0.00    -0.151 C  
HETATM   14  C   UNL     1     -11.832   6.876  71.273  1.00  0.00    -0.341 C  
HETATM   15  C   UNL     1      -9.675   8.926  71.923  1.00  0.00    -0.279 C  
ENDBRANCH   8  11
ENDBRANCH   5   8
TORSDOF 2
ENDMDL
MODEL      171
REMARK 921   NORMALIZED FREE ENERGY PREDICTED BY IDOCK:   -2.92 KCAL/MOL
REMARK 922        TOTAL FREE ENERGY PREDICTED BY IDOCK:   -3.49 KCAL/MOL
REMARK 923 INTER-LIGAND FREE ENERGY PREDICTED BY IDOCK:   -3.28 KCAL/MOL
REMARK 924 INTRA-LIGAND FREE ENERGY PREDICTED BY IDOCK:   -0.21 KCAL/MOL
REMARK 927      BINDING AFFINITY PREDICTED BY RF-SCORE:    0.00 PKD
ROOT
HETATM    1  O   UNL     1     -11.262   5.104  65.486  1.00  0.00    -0.775 OA 
HETATM    2  H   UNL     1     -11.942   5.727  65.715  1.00  0.00     0.000 HD 
HETATM    3 SI   UNL     1     -11.025   4.112  66.558  1.00  0.00    -0.340 Si 
HETATM    4  C   UNL     1     -11.611   6.370  69.679  1.00  0.00    -0.282 C  
HETATM    5  O   UNL     1     -10.438   5.944  68.990  1.00  0.00    -0.209 OA 
HETATM    6  O   UNL     1      -9.973   3.149  66.205  1.00  0.00    -0.376 OA 
HETATM    7  H   UNL     1      -9.821   2.512  66.893  1.00  0.00     0.000 HD 
ENDROOT
BRANCH   5   8
HETATM    8 SI   UNL     1      -9.143   7.017  68.879  1.00  0.00    -0.130 Si 
HETATM    9  C   UNL     1      -7.543   6.045  68.871  1.00  0.00    -0.091 C  
HETATM   10  C   UNL     1      -9.182   8.197  70.336  1.00  0.00    -0.151 C  
BRANCH   8  11
HETATM   11  O   UNL     1      -9.294   7.888  67.455  1.00  0.00    -0.140 OA 
HETATM   12 SI   UNL     1      -9.432   9.495  66.976  1.00  0.00    -0.133 Si 
HETATM   13  C   UNL     1     -10.973  10.306  67.703  1.00  0.00    -0.294 C  
HETATM   14  C   UNL     1      -9.536   9.672  65.107  1.00  0.00    -0.254 C  
HETATM   15  C   UNL     1      -7.944  10.489  67.571  1.00  0.00    -0.107 C  
ENDBRANCH   8  11
ENDBRANCH   5   8
TORSDOF 2
ENDMDL
MODEL      172
REMARK 921   NORMALIZED FREE ENERGY PREDICTED BY IDOCK:   -2.92 KCAL/MOL
REMARK 922        TOTAL FREE ENERGY PREDICTED BY IDOCK:   -3.49 KCAL/MOL
REMARK 923 INTER-LIGAND FREE ENERGY PREDICTED BY IDOCK:   -3.35 KCAL/MOL
REMARK 924 INTRA-LIGAND FREE ENERGY PREDICTED BY IDOCK:   -0.14 KCAL/MOL
REMARK 927      BINDING AFFINITY PREDICTED BY RF-SCORE:    0.00 PKD
ROOT
HETATM    1  O   UNL     1      -8.427   7.038  70.636  1.00  0.00    -0.135 OA 
HETATM    2  H   UNL     1      -7.946   6.995  69.818  1.00  0.00     0.000 HD 
HETATM    3 SI   UNL     1      -9.849   6.662  70.472  1.00  0.00    -0.165 Si 
HETATM    4  C   UNL     1     -10.512   8.141  66.929  1.00  0.00    -0.309 C  
HETATM    5  O   UNL     1     -10.762   8.619  68.247  1.00  0.00    -0.164 OA 
HETATM    6  O   UNL     1     -10.593   6.729  71.738  1.00  0.00    -0.211 OA 
HETATM    7  H   UNL     1     -11.505   6.488  71.633  1.00  0.00     0.000 HD 
ENDROOT
BRANCH   5   8
HETATM    8 SI   UNL     1     -10.616  10.273  68.539  1.00  0.00    -0.162 Si 
HETATM    9  C   UNL     1      -8.801  10.731  68.570  1.00  0.00    -0.149 C  
HETATM   10  C   UNL     1     -11.423  10.692  70.179  1.00  0.00    -0.329 C  
BRANCH   8  11
HETATM   11  O   UNL     1     -11.397  11.101  67.309  1.00  0.00    -0.397 OA 
HETATM   12 SI   UNL     1     -10.990  11.980  65.932  1.00  0.00    -0.241 Si 
HETATM   13  C   UNL     1      -9.936  13.486  66.356  1.00  0.00    -0.295 C  
HETATM   14  C   UNL     1     -12.508  12.600  65.012  1.00  0.00    -0.487 C  
HETATM   15  C   UNL     1      -9.987  10.913  64.744  1.00  0.00    -0.307 C  
ENDBRANCH   8  11
ENDBRANCH   5   8
TORSDOF 2
ENDMDL
MODEL      173
REMARK 921   NORMALIZED FREE ENERGY PREDICTED BY IDOCK:   -2.91 KCAL/MOL
REMARK 922        TOTAL FREE ENERGY PREDICTED BY IDOCK:   -3.49 KCAL/MOL
REMARK 923 INTER-LIGAND FREE ENERGY PREDICTED BY IDOCK:   -3.28 KCAL/MOL
REMARK 924 INTRA-LIGAND FREE ENERGY PREDICTED BY IDOCK:   -0.21 KCAL/MOL
REMARK 927      BINDING AFFINITY PREDICTED BY RF-SCORE:    0.00 PKD
ROOT
HETATM    1  O   UNL     1     -13.014   7.524  71.021  1.00  0.00    -0.546 OA 
HETATM    2  H   UNL     1     -12.604   7.504  70.164  1.00  0.00     0.000 HD 
HETATM    3 SI   UNL     1     -12.780   8.804  71.727  1.00  0.00    -0.281 Si 
HETATM    4  C   UNL     1      -9.163   9.576  70.501  1.00  0.00    -0.225 C  
HETATM    5  O   UNL     1      -9.685   8.986  71.689  1.00  0.00    -0.300 OA 
HETATM    6  O   UNL     1     -13.414   8.833  73.052  1.00  0.00    -0.873 OA 
HETATM    7  H   UNL     1     -13.264   9.654  73.505  1.00  0.00     0.000 HD 
ENDROOT
BRANCH   5   8
HETATM    8 SI   UNL     1      -8.810   7.741  72.414  1.00  0.00    -0.107 Si 
HETATM    9  C   UNL     1      -7.999   8.390  73.971  1.00  0.00    -0.146 C  
HETATM   10  C   UNL     1      -7.512   7.110  71.216  1.00  0.00    -0.080 C  
BRANCH   8  11
HETATM   11  O   UNL     1      -9.867   6.497  72.792  1.00  0.00    -0.167 OA 
HETATM   12 SI   UNL     1      -9.941   4.823  72.640  1.00  0.00    -0.139 Si 
HETATM   13  C   UNL     1      -9.863   4.286  70.833  1.00  0.00    -0.189 C  
HETATM   14  C   UNL     1     -11.522   4.113  73.367  1.00  0.00    -0.136 C  
HETATM   15  C   UNL     1      -8.482   4.017  73.524  1.00  0.00    -0.088 C  
ENDBRANCH   8  11
ENDBRANCH   5   8
TORSDOF 2
ENDMDL
MODEL      174
REMARK 921   NORMALIZED FREE ENERGY PREDICTED BY IDOCK:   -2.91 KCAL/MOL
REMARK 922        TOTAL FREE ENERGY PREDICTED BY IDOCK:   -3.49 KCAL/MOL
REMARK 923 INTER-LIGAND FREE ENERGY PREDICTED BY IDOCK:   -3.30 KCAL/MOL
REMARK 924 INTRA-LIGAND FREE ENERGY PREDICTED BY IDOCK:   -0.19 KCAL/MOL
REMARK 927      BINDING AFFINITY PREDICTED BY RF-SCORE:    0.00 PKD
ROOT
HETATM    1  O   UNL     1     -13.109   8.030  71.432  1.00  0.00    -0.409 OA 
HETATM    2  H   UNL     1     -12.438   8.695  71.532  1.00  0.00     0.000 HD 
HETATM    3 SI   UNL     1     -13.292   7.226  72.660  1.00  0.00    -0.489 Si 
HETATM    4  C   UNL     1      -9.606   7.103  73.916  1.00  0.00    -0.278 C  
HETATM    5  O   UNL     1     -10.412   6.195  73.170  1.00  0.00    -0.209 OA 
HETATM    6  O   UNL     1     -14.329   6.197  72.505  1.00  0.00    -0.694 OA 
HETATM    7  H   UNL     1     -14.447   5.681  73.293  1.00  0.00     0.000 HD 
ENDROOT
BRANCH   5   8
HETATM    8 SI   UNL     1      -9.676   5.276  71.964  1.00  0.00    -0.143 Si 
HETATM    9  C   UNL     1     -10.147   3.479  72.191  1.00  0.00    -0.135 C  
HETATM   10  C   UNL     1      -7.814   5.481  72.072  1.00  0.00    -0.106 C  
BRANCH   8  11
HETATM   11  O   UNL     1     -10.209   5.827  70.474  1.00  0.00    -0.194 OA 
HETATM   12 SI   UNL     1      -9.617   6.734  69.186  1.00  0.00    -0.137 Si 
HETATM   13  C   UNL     1      -9.141   8.478  69.726  1.00  0.00    -0.153 C  
HETATM   14  C   UNL     1     -10.874   6.901  67.798  1.00  0.00    -0.241 C  
HETATM   15  C   UNL     1      -8.068   5.928  68.472  1.00  0.00    -0.106 C  
ENDBRANCH   8  11
ENDBRANCH   5   8
TORSDOF 2
ENDMDL
MODEL      175
REMARK 921   NORMALIZED FREE ENERGY PREDICTED BY IDOCK:   -2.90 KCAL/MOL
REMARK 922        TOTAL FREE ENERGY PREDICTED BY IDOCK:   -3.47 KCAL/MOL
REMARK 923 INTER-LIGAND FREE ENERGY PREDICTED BY IDOCK:   -3.22 KCAL/MOL
REMARK 924 INTRA-LIGAND FREE ENERGY PREDICTED BY IDOCK:   -0.25 KCAL/MOL
REMARK 927      BINDING AFFINITY PREDICTED BY RF-SCORE:    0.00 PKD
ROOT
HETATM    1  O   UNL     1      -7.550   9.815  63.799  1.00  0.00    -0.121 OA 
HETATM    2  H   UNL     1      -6.810   9.532  64.323  1.00  0.00     0.000 HD 
HETATM    3 SI   UNL     1      -7.739  11.283  63.841  1.00  0.00    -0.351 Si 
HETATM    4  C   UNL     1      -6.679  11.975  67.526  1.00  0.00    -0.120 C  
HETATM    5  O   UNL     1      -7.943  11.803  66.891  1.00  0.00    -0.160 OA 
HETATM    6  O   UNL     1      -8.885  11.721  63.031  1.00  0.00    -0.625 OA 
HETATM    7  H   UNL     1      -9.006  12.662  63.058  1.00  0.00     0.000 HD 
ENDROOT
BRANCH   5   8
HETATM    8 SI   UNL     1      -9.168  11.024  67.746  1.00  0.00    -0.139 Si 
HETATM    9  C   UNL     1      -8.398   9.855  68.990  1.00  0.00    -0.130 C  
HETATM   10  C   UNL     1     -10.260  10.078  66.551  1.00  0.00    -0.224 C  
BRANCH   8  11
HETATM   11  O   UNL     1     -10.085  12.183  68.537  1.00  0.00    -0.209 OA 
HETATM   12 SI   UNL     1     -10.750  13.694  68.212  1.00  0.00    -0.212 Si 
HETATM   13  C   UNL     1      -9.419  14.959  67.778  1.00  0.00    -0.203 C  
HETATM   14  C   UNL     1     -11.714  14.375  69.675  1.00  0.00    -0.309 C  
HETATM   15  C   UNL     1     -11.924  13.593  66.739  1.00  0.00    -0.414 C  
ENDBRANCH   8  11
ENDBRANCH   5   8
TORSDOF 2
ENDMDL
MODEL      176
REMARK 921   NORMALIZED FREE ENERGY PREDICTED BY IDOCK:   -2.90 KCAL/MOL
REMARK 922        TOTAL FREE ENERGY PREDICTED BY IDOCK:   -3.47 KCAL/MOL
REMARK 923 INTER-LIGAND FREE ENERGY PREDICTED BY IDOCK:   -3.48 KCAL/MOL
REMARK 924 INTRA-LIGAND FREE ENERGY PREDICTED BY IDOCK:    0.01 KCAL/MOL
REMARK 927      BINDING AFFINITY PREDICTED BY RF-SCORE:    0.00 PKD
ROOT
HETATM    1  O   UNL     1      -7.969  10.255  65.238  1.00  0.00    -0.142 OA 
HETATM    2  H   UNL     1      -7.833  10.528  66.138  1.00  0.00     0.000 HD 
HETATM    3 SI   UNL     1      -7.828  11.376  64.283  1.00  0.00    -0.347 Si 
HETATM    4  C   UNL     1      -9.325  14.260  66.433  1.00  0.00    -0.245 C  
HETATM    5  O   UNL     1      -9.864  13.424  65.414  1.00  0.00    -0.221 OA 
HETATM    6  O   UNL     1      -8.040  10.954  62.891  1.00  0.00    -0.342 OA 
HETATM    7  H   UNL     1      -7.950  11.673  62.278  1.00  0.00     0.000 HD 
ENDROOT
BRANCH   5   8
HETATM    8 SI   UNL     1     -11.477  12.950  65.537  1.00  0.00    -0.289 Si 
HETATM    9  C   UNL     1     -11.874  11.760  64.147  1.00  0.00    -0.256 C  
HETATM   10  C   UNL     1     -12.581  14.463  65.437  1.00  0.00    -0.330 C  
BRANCH   8  11
HETATM   11  O   UNL     1     -11.699  12.199  67.019  1.00  0.00    -0.477 OA 
HETATM   12 SI   UNL     1     -10.907  11.072  67.985  1.00  0.00    -0.164 Si 
HETATM   13  C   UNL     1     -10.720   9.413  67.106  1.00  0.00    -0.163 C  
HETATM   14  C   UNL     1     -11.821  10.751  69.596  1.00  0.00    -0.320 C  
HETATM   15  C   UNL     1      -9.172  11.675  68.412  1.00  0.00    -0.182 C  
ENDBRANCH   8  11
ENDBRANCH   5   8
TORSDOF 2
ENDMDL
MODEL      177
REMARK 921   NORMALIZED FREE ENERGY PREDICTED BY IDOCK:   -2.90 KCAL/MOL
REMARK 922        TOTAL FREE ENERGY PREDICTED BY IDOCK:   -3.47 KCAL/MOL
REMARK 923 INTER-LIGAND FREE ENERGY PREDICTED BY IDOCK:   -3.26 KCAL/MOL
REMARK 924 INTRA-LIGAND FREE ENERGY PREDICTED BY IDOCK:   -0.21 KCAL/MOL
REMARK 927      BINDING AFFINITY PREDICTED BY RF-SCORE:    0.00 PKD
ROOT
HETATM    1  O   UNL     1     -11.857  11.492  67.432  1.00  0.00    -0.607 OA 
HETATM    2  H   UNL     1     -12.404  10.738  67.243  1.00  0.00     0.000 HD 
HETATM    3 SI   UNL     1     -10.581  11.462  66.683  1.00  0.00    -0.200 Si 
HETATM    4  C   UNL     1      -9.902   7.626  66.699  1.00  0.00    -0.213 C  
HETATM    5  O   UNL     1      -9.434   8.702  67.507  1.00  0.00    -0.144 OA 
HETATM    6  O   UNL     1      -9.736  12.628  66.976  1.00  0.00    -0.215 OA 
HETATM    7  H   UNL     1      -8.917  12.609  66.495  1.00  0.00     0.000 HD 
ENDROOT
BRANCH   5   8
HETATM    8 SI   UNL     1      -9.165   8.413  69.145  1.00  0.00    -0.139 Si 
HETATM    9  C   UNL     1      -8.464   9.961  69.933  1.00  0.00    -0.191 C  
HETATM   10  C   UNL     1      -7.968   6.983  69.340  1.00  0.00    -0.118 C  
BRANCH   8  11
HETATM   11  O   UNL     1     -10.627   8.015  69.862  1.00  0.00    -0.236 OA 
HETATM   12 SI   UNL     1     -11.530   8.469  71.208  1.00  0.00    -0.237 Si 
HETATM   13  C   UNL     1     -10.590   8.153  72.813  1.00  0.00    -0.316 C  
HETATM   14  C   UNL     1     -13.157   7.535  71.319  1.00  0.00    -0.266 C  
HETATM   15  C   UNL     1     -11.922  10.313  71.145  1.00  0.00    -0.376 C  
ENDBRANCH   8  11
ENDBRANCH   5   8
TORSDOF 2
ENDMDL
MODEL      178
REMARK 921   NORMALIZED FREE ENERGY PREDICTED BY IDOCK:   -2.89 KCAL/MOL
REMARK 922        TOTAL FREE ENERGY PREDICTED BY IDOCK:   -3.47 KCAL/MOL
REMARK 923 INTER-LIGAND FREE ENERGY PREDICTED BY IDOCK:   -3.30 KCAL/MOL
REMARK 924 INTRA-LIGAND FREE ENERGY PREDICTED BY IDOCK:   -0.17 KCAL/MOL
REMARK 927      BINDING AFFINITY PREDICTED BY RF-SCORE:    0.00 PKD
ROOT
HETATM    1  O   UNL     1      -8.244  12.178  68.676  1.00  0.00    -0.268 OA 
HETATM    2  H   UNL     1      -7.812  12.612  69.403  1.00  0.00     0.000 HD 
HETATM    3 SI   UNL     1      -7.430  12.206  67.441  1.00  0.00    -0.094 Si 
HETATM    4  C   UNL     1      -5.773  15.711  67.829  1.00  0.00    -0.137 C  
HETATM    5  O   UNL     1      -6.906  15.244  67.103  1.00  0.00    -0.254 OA 
HETATM    6  O   UNL     1      -8.098  11.536  66.317  1.00  0.00    -0.321 OA 
HETATM    7  H   UNL     1      -7.576  11.554  65.524  1.00  0.00     0.000 HD 
ENDROOT
BRANCH   5   8
HETATM    8 SI   UNL     1      -8.239  16.265  66.958  1.00  0.00    -0.139 Si 
HETATM    9  C   UNL     1      -8.906  16.648  68.665  1.00  0.00    -0.249 C  
HETATM   10  C   UNL     1      -9.555  15.430  65.915  1.00  0.00    -0.351 C  
BRANCH   8  11
HETATM   11  O   UNL     1      -7.746  17.678  66.202  1.00  0.00    -0.354 OA 
HETATM   12 SI   UNL     1      -7.807  19.337  66.480  1.00  0.00    -0.220 Si 
HETATM   13  C   UNL     1      -9.586  19.954  66.605  1.00  0.00    -0.411 C  
HETATM   14  C   UNL     1      -6.969  20.317  65.112  1.00  0.00    -0.210 C  
HETATM   15  C   UNL     1      -6.954  19.763  68.107  1.00  0.00    -0.289 C  
ENDBRANCH   8  11
ENDBRANCH   5   8
TORSDOF 2
ENDMDL
MODEL      179
REMARK 921   NORMALIZED FREE ENERGY PREDICTED BY IDOCK:   -2.89 KCAL/MOL
REMARK 922        TOTAL FREE ENERGY PREDICTED BY IDOCK:   -3.46 KCAL/MOL
REMARK 923 INTER-LIGAND FREE ENERGY PREDICTED BY IDOCK:   -3.86 KCAL/MOL
REMARK 924 INTRA-LIGAND FREE ENERGY PREDICTED BY IDOCK:    0.40 KCAL/MOL
REMARK 927      BINDING AFFINITY PREDICTED BY RF-SCORE:    0.00 PKD
ROOT
HETATM    1  O   UNL     1     -11.602  14.938  71.217  1.00  0.00    -0.358 OA 
HETATM    2  H   UNL     1     -10.988  14.237  71.400  1.00  0.00     0.000 HD 
HETATM    3 SI   UNL     1     -12.916  14.429  70.764  1.00  0.00    -0.290 Si 
HETATM    4  C   UNL     1     -11.746  11.328  68.716  1.00  0.00    -0.338 C  
HETATM    5  O   UNL     1     -12.105  12.658  68.352  1.00  0.00    -0.272 OA 
HETATM    6  O   UNL     1     -13.867  15.514  70.480  1.00  0.00    -0.827 OA 
HETATM    7  H   UNL     1     -14.710  15.187  70.190  1.00  0.00     0.000 HD 
ENDROOT
BRANCH   5   8
HETATM    8 SI   UNL     1     -11.280  13.388  67.076  1.00  0.00    -0.262 Si 
HETATM    9  C   UNL     1     -10.507  14.983  67.679  1.00  0.00    -0.247 C  
HETATM   10  C   UNL     1     -12.478  13.733  65.674  1.00  0.00    -0.503 C  
BRANCH   8  11
HETATM   11  O   UNL     1     -10.089  12.337  66.542  1.00  0.00    -0.209 OA 
HETATM   12 SI   UNL     1      -8.618  11.727  67.086  1.00  0.00    -0.131 Si 
HETATM   13  C   UNL     1      -7.358  13.103  67.370  1.00  0.00    -0.111 C  
HETATM   14  C   UNL     1      -7.857  10.516  65.865  1.00  0.00    -0.151 C  
HETATM   15  C   UNL     1      -8.844  10.831  68.729  1.00  0.00    -0.163 C  
ENDBRANCH   8  11
ENDBRANCH   5   8
TORSDOF 2
ENDMDL
MODEL      180
REMARK 921   NORMALIZED FREE ENERGY PREDICTED BY IDOCK:   -2.88 KCAL/MOL
REMARK 922        TOTAL FREE ENERGY PREDICTED BY IDOCK:   -3.45 KCAL/MOL
REMARK 923 INTER-LIGAND FREE ENERGY PREDICTED BY IDOCK:   -3.26 KCAL/MOL
REMARK 924 INTRA-LIGAND FREE ENERGY PREDICTED BY IDOCK:   -0.20 KCAL/MOL
REMARK 927      BINDING AFFINITY PREDICTED BY RF-SCORE:    0.00 PKD
ROOT
HETATM    1  O   UNL     1     -12.517  14.219  66.904  1.00  0.00    -0.581 OA 
HETATM    2  H   UNL     1     -13.065  13.513  66.582  1.00  0.00     0.000 HD 
HETATM    3 SI   UNL     1     -11.484  14.619  65.922  1.00  0.00    -0.311 Si 
HETATM    4  C   UNL     1     -10.682  11.141  64.360  1.00  0.00    -0.318 C  
HETATM    5  O   UNL     1     -10.058  11.921  65.376  1.00  0.00    -0.240 OA 
HETATM    6  O   UNL     1     -10.635  15.711  66.420  1.00  0.00    -0.301 OA 
HETATM    7  H   UNL     1      -9.973  15.968  65.790  1.00  0.00     0.000 HD 
ENDROOT
BRANCH   5   8
HETATM    8 SI   UNL     1      -9.355  11.118  66.681  1.00  0.00    -0.158 Si 
HETATM    9  C   UNL     1      -9.656  12.108  68.242  1.00  0.00    -0.210 C  
HETATM   10  C   UNL     1      -7.515  10.923  66.377  1.00  0.00    -0.145 C  
BRANCH   8  11
HETATM   11  O   UNL     1     -10.059   9.603  66.816  1.00  0.00    -0.208 OA 
HETATM   12 SI   UNL     1      -9.574   8.011  67.064  1.00  0.00    -0.139 Si 
HETATM   13  C   UNL     1      -8.419   7.417  65.695  1.00  0.00    -0.130 C  
HETATM   14  C   UNL     1     -11.031   6.825  67.121  1.00  0.00    -0.388 C  
HETATM   15  C   UNL     1      -8.635   7.856  68.692  1.00  0.00    -0.128 C  
ENDBRANCH   8  11
ENDBRANCH   5   8
TORSDOF 2
ENDMDL
MODEL      181
REMARK 921   NORMALIZED FREE ENERGY PREDICTED BY IDOCK:   -2.88 KCAL/MOL
REMARK 922        TOTAL FREE ENERGY PREDICTED BY IDOCK:   -3.45 KCAL/MOL
REMARK 923 INTER-LIGAND FREE ENERGY PREDICTED BY IDOCK:   -3.26 KCAL/MOL
REMARK 924 INTRA-LIGAND FREE ENERGY PREDICTED BY IDOCK:   -0.19 KCAL/MOL
REMARK 927      BINDING AFFINITY PREDICTED BY RF-SCORE:    0.00 PKD
ROOT
HETATM    1  O   UNL     1     -11.649   6.564  66.910  1.00  0.00    -0.725 OA 
HETATM    2  H   UNL     1     -12.079   5.739  67.103  1.00  0.00     0.000 HD 
HETATM    3 SI   UNL     1     -10.298   6.373  66.337  1.00  0.00    -0.175 Si 
HETATM    4  C   UNL     1      -9.189   3.207  68.319  1.00  0.00    -0.192 C  
HETATM    5  O   UNL     1      -8.947   4.600  68.493  1.00  0.00    -0.102 OA 
HETATM    6  O   UNL     1      -9.632   7.649  66.040  1.00  0.00    -0.418 OA 
HETATM    7  H   UNL     1      -8.766   7.527  65.672  1.00  0.00     0.000 HD 
ENDROOT
BRANCH   5   8
HETATM    8 SI   UNL     1      -8.845   5.203  70.064  1.00  0.00    -0.095 Si 
HETATM    9  C   UNL     1      -7.581   6.584  70.108  1.00  0.00    -0.096 C  
HETATM   10  C   UNL     1      -8.345   3.823  71.231  1.00  0.00    -0.072 C  
BRANCH   8  11
HETATM   11  O   UNL     1     -10.351   5.788  70.508  1.00  0.00    -0.214 OA 
HETATM   12 SI   UNL     1     -11.131   6.315  71.904  1.00  0.00    -0.213 Si 
HETATM   13  C   UNL     1     -11.208   4.956  73.211  1.00  0.00    -0.345 C  
HETATM   14  C   UNL     1     -12.897   6.866  71.565  1.00  0.00    -0.333 C  
HETATM   15  C   UNL     1     -10.205   7.770  72.665  1.00  0.00    -0.279 C  
ENDBRANCH   8  11
ENDBRANCH   5   8
TORSDOF 2
ENDMDL
MODEL      182
REMARK 921   NORMALIZED FREE ENERGY PREDICTED BY IDOCK:   -2.88 KCAL/MOL
REMARK 922        TOTAL FREE ENERGY PREDICTED BY IDOCK:   -3.45 KCAL/MOL
REMARK 923 INTER-LIGAND FREE ENERGY PREDICTED BY IDOCK:   -3.29 KCAL/MOL
REMARK 924 INTRA-LIGAND FREE ENERGY PREDICTED BY IDOCK:   -0.16 KCAL/MOL
REMARK 927      BINDING AFFINITY PREDICTED BY RF-SCORE:    0.00 PKD
ROOT
HETATM    1  O   UNL     1     -13.985   8.392  72.010  1.00  0.00    -0.385 OA 
HETATM    2  H   UNL     1     -13.473   9.160  72.237  1.00  0.00     0.000 HD 
HETATM    3 SI   UNL     1     -13.616   7.212  72.824  1.00  0.00    -0.482 Si 
HETATM    4  C   UNL     1      -9.787   7.833  73.181  1.00  0.00    -0.298 C  
HETATM    5  O   UNL     1     -10.565   7.021  72.306  1.00  0.00    -0.205 OA 
HETATM    6  O   UNL     1     -14.408   6.024  72.473  1.00  0.00    -0.671 OA 
HETATM    7  H   UNL     1     -14.171   5.266  72.995  1.00  0.00     0.000 HD 
ENDROOT
BRANCH   5   8
HETATM    8 SI   UNL     1     -10.042   6.832  70.715  1.00  0.00    -0.180 Si 
HETATM    9  C   UNL     1      -9.370   8.464  70.093  1.00  0.00    -0.163 C  
HETATM   10  C   UNL     1     -11.479   6.269  69.649  1.00  0.00    -0.355 C  
BRANCH   8  11
HETATM   11  O   UNL     1      -8.839   5.665  70.685  1.00  0.00    -0.135 OA 
HETATM   12 SI   UNL     1      -8.690   4.024  70.343  1.00  0.00    -0.068 Si 
HETATM   13  C   UNL     1      -9.759   2.976  71.490  1.00  0.00    -0.153 C  
HETATM   14  C   UNL     1      -6.918   3.420  70.522  1.00  0.00    -0.034 C  
HETATM   15  C   UNL     1      -9.250   3.668  68.578  1.00  0.00    -0.161 C  
ENDBRANCH   8  11
ENDBRANCH   5   8
TORSDOF 2
ENDMDL
MODEL      183
REMARK 921   NORMALIZED FREE ENERGY PREDICTED BY IDOCK:   -2.87 KCAL/MOL
REMARK 922        TOTAL FREE ENERGY PREDICTED BY IDOCK:   -3.45 KCAL/MOL
REMARK 923 INTER-LIGAND FREE ENERGY PREDICTED BY IDOCK:   -3.24 KCAL/MOL
REMARK 924 INTRA-LIGAND FREE ENERGY PREDICTED BY IDOCK:   -0.20 KCAL/MOL
REMARK 927      BINDING AFFINITY PREDICTED BY RF-SCORE:    0.00 PKD
ROOT
HETATM    1  O   UNL     1     -11.620   4.502  65.102  1.00  0.00    -1.102 OA 
HETATM    2  H   UNL     1     -12.045   3.980  65.771  1.00  0.00     0.000 HD 
HETATM    3 SI   UNL     1     -10.157   4.278  65.059  1.00  0.00    -0.148 Si 
HETATM    4  C   UNL     1      -9.464   3.764  68.859  1.00  0.00    -0.153 C  
HETATM    5  O   UNL     1      -9.345   4.887  67.989  1.00  0.00    -0.118 OA 
HETATM    6  O   UNL     1      -9.499   5.087  64.024  1.00  0.00    -0.354 OA 
HETATM    7  H   UNL     1      -8.561   4.944  63.997  1.00  0.00     0.000 HD 
ENDROOT
BRANCH   5   8
HETATM    8 SI   UNL     1      -9.692   6.416  68.606  1.00  0.00    -0.125 Si 
HETATM    9  C   UNL     1      -8.384   6.882  69.862  1.00  0.00    -0.139 C  
HETATM   10  C   UNL     1     -11.388   6.396  69.407  1.00  0.00    -0.377 C  
BRANCH   8  11
HETATM   11  O   UNL     1      -9.690   7.514  67.339  1.00  0.00    -0.144 OA 
HETATM   12 SI   UNL     1      -8.887   8.928  66.906  1.00  0.00    -0.113 Si 
HETATM   13  C   UNL     1      -9.167  10.300  68.171  1.00  0.00    -0.136 C  
HETATM   14  C   UNL     1      -9.453   9.583  65.237  1.00  0.00    -0.258 C  
HETATM   15  C   UNL     1      -7.028   8.628  66.812  1.00  0.00    -0.077 C  
ENDBRANCH   8  11
ENDBRANCH   5   8
TORSDOF 2
ENDMDL
MODEL      184
REMARK 921   NORMALIZED FREE ENERGY PREDICTED BY IDOCK:   -2.87 KCAL/MOL
REMARK 922        TOTAL FREE ENERGY PREDICTED BY IDOCK:   -3.45 KCAL/MOL
REMARK 923 INTER-LIGAND FREE ENERGY PREDICTED BY IDOCK:   -3.23 KCAL/MOL
REMARK 924 INTRA-LIGAND FREE ENERGY PREDICTED BY IDOCK:   -0.22 KCAL/MOL
REMARK 927      BINDING AFFINITY PREDICTED BY RF-SCORE:    0.00 PKD
ROOT
HETATM    1  O   UNL     1     -12.140  14.348  66.016  1.00  0.00    -0.396 OA 
HETATM    2  H   UNL     1     -12.647  13.550  66.115  1.00  0.00     0.000 HD 
HETATM    3 SI   UNL     1     -11.234  14.296  64.848  1.00  0.00    -0.301 Si 
HETATM    4  C   UNL     1     -10.249  10.528  64.948  1.00  0.00    -0.300 C  
HETATM    5  O   UNL     1      -9.616  11.714  65.421  1.00  0.00    -0.226 OA 
HETATM    6  O   UNL     1     -10.450  15.530  64.695  1.00  0.00    -0.588 OA 
HETATM    7  H   UNL     1      -9.868  15.498  63.946  1.00  0.00     0.000 HD 
ENDROOT
BRANCH   5   8
HETATM    8 SI   UNL     1      -8.738  11.633  66.857  1.00  0.00    -0.143 Si 
HETATM    9  C   UNL     1      -8.006  13.317  67.223  1.00  0.00    -0.125 C  
HETATM   10  C   UNL     1      -7.377  10.353  66.685  1.00  0.00    -0.114 C  
BRANCH   8  11
HETATM   11  O   UNL     1      -9.776  11.177  68.092  1.00  0.00    -0.169 OA 
HETATM   12 SI   UNL     1      -9.992   9.871  69.131  1.00  0.00    -0.154 Si 
HETATM   13  C   UNL     1     -10.327   8.276  68.181  1.00  0.00    -0.202 C  
HETATM   14  C   UNL     1     -11.433  10.134  70.309  1.00  0.00    -0.306 C  
HETATM   15  C   UNL     1      -8.441   9.589  70.165  1.00  0.00    -0.205 C  
ENDBRANCH   8  11
ENDBRANCH   5   8
TORSDOF 2
ENDMDL
MODEL      185
REMARK 921   NORMALIZED FREE ENERGY PREDICTED BY IDOCK:   -2.86 KCAL/MOL
REMARK 922        TOTAL FREE ENERGY PREDICTED BY IDOCK:   -3.43 KCAL/MOL
REMARK 923 INTER-LIGAND FREE ENERGY PREDICTED BY IDOCK:   -3.26 KCAL/MOL
REMARK 924 INTRA-LIGAND FREE ENERGY PREDICTED BY IDOCK:   -0.17 KCAL/MOL
REMARK 927      BINDING AFFINITY PREDICTED BY RF-SCORE:    0.00 PKD
ROOT
HETATM    1  O   UNL     1     -11.559   6.603  67.301  1.00  0.00    -0.747 OA 
HETATM    2  H   UNL     1     -11.751   7.188  66.577  1.00  0.00     0.000 HD 
HETATM    3 SI   UNL     1     -12.034   7.138  68.597  1.00  0.00    -0.447 Si 
HETATM    4  C   UNL     1     -11.387  10.936  68.014  1.00  0.00    -0.312 C  
HETATM    5  O   UNL     1     -10.650   9.912  68.676  1.00  0.00    -0.201 OA 
HETATM    6  O   UNL     1     -11.736   6.234  69.717  1.00  0.00    -0.495 OA 
HETATM    7  H   UNL     1     -12.041   6.577  70.548  1.00  0.00     0.000 HD 
ENDROOT
BRANCH   5   8
HETATM    8 SI   UNL     1      -8.967   9.959  68.597  1.00  0.00    -0.113 Si 
HETATM    9  C   UNL     1      -8.381   8.742  67.301  1.00  0.00    -0.104 C  
HETATM   10  C   UNL     1      -8.251   9.522  70.274  1.00  0.00    -0.187 C  
BRANCH   8  11
HETATM   11  O   UNL     1      -8.498  11.513  68.181  1.00  0.00    -0.140 OA 
HETATM   12 SI   UNL     1      -7.071  12.390  68.008  1.00  0.00    -0.068 Si 
HETATM   13  C   UNL     1      -6.105  12.468  69.626  1.00  0.00    -0.133 C  
HETATM   14  C   UNL     1      -7.388  14.160  67.458  1.00  0.00    -0.175 C  
HETATM   15  C   UNL     1      -5.951  11.576  66.728  1.00  0.00    -0.139 C  
ENDBRANCH   8  11
ENDBRANCH   5   8
TORSDOF 2
ENDMDL
MODEL      186
REMARK 921   NORMALIZED FREE ENERGY PREDICTED BY IDOCK:   -2.86 KCAL/MOL
REMARK 922        TOTAL FREE ENERGY PREDICTED BY IDOCK:   -3.43 KCAL/MOL
REMARK 923 INTER-LIGAND FREE ENERGY PREDICTED BY IDOCK:   -3.23 KCAL/MOL
REMARK 924 INTRA-LIGAND FREE ENERGY PREDICTED BY IDOCK:   -0.20 KCAL/MOL
REMARK 927      BINDING AFFINITY PREDICTED BY RF-SCORE:    0.00 PKD
ROOT
HETATM    1  O   UNL     1     -13.641   7.490  70.797  1.00  0.00    -0.579 OA 
HETATM    2  H   UNL     1     -14.091   7.889  70.062  1.00  0.00     0.000 HD 
HETATM    3 SI   UNL     1     -13.130   8.497  71.755  1.00  0.00    -0.291 Si 
HETATM    4  C   UNL     1     -12.148  11.329  69.265  1.00  0.00    -0.303 C  
HETATM    5  O   UNL     1     -11.406  10.298  69.911  1.00  0.00    -0.254 OA 
HETATM    6  O   UNL     1     -12.433   7.880  72.892  1.00  0.00    -0.581 OA 
HETATM    7  H   UNL     1     -12.105   8.526  73.506  1.00  0.00     0.000 HD 
ENDROOT
BRANCH   5   8
HETATM    8 SI   UNL     1     -10.134   9.581  69.069  1.00  0.00    -0.160 Si 
HETATM    9  C   UNL     1     -10.453   9.736  67.230  1.00  0.00    -0.261 C  
HETATM   10  C   UNL     1     -10.000   7.775  69.557  1.00  0.00    -0.187 C  
BRANCH   8  11
HETATM   11  O   UNL     1      -8.714  10.372  69.475  1.00  0.00    -0.157 OA 
HETATM   12 SI   UNL     1      -7.452  11.166  68.694  1.00  0.00    -0.075 Si 
HETATM   13  C   UNL     1      -6.541  10.019  67.504  1.00  0.00    -0.068 C  
HETATM   14  C   UNL     1      -6.181  11.841  69.903  1.00  0.00    -0.141 C  
HETATM   15  C   UNL     1      -8.113  12.612  67.679  1.00  0.00    -0.173 C  
ENDBRANCH   8  11
ENDBRANCH   5   8
TORSDOF 2
ENDMDL
MODEL      187
REMARK 921   NORMALIZED FREE ENERGY PREDICTED BY IDOCK:   -2.86 KCAL/MOL
REMARK 922        TOTAL FREE ENERGY PREDICTED BY IDOCK:   -3.43 KCAL/MOL
REMARK 923 INTER-LIGAND FREE ENERGY PREDICTED BY IDOCK:   -3.18 KCAL/MOL
REMARK 924 INTRA-LIGAND FREE ENERGY PREDICTED BY IDOCK:   -0.25 KCAL/MOL
REMARK 927      BINDING AFFINITY PREDICTED BY RF-SCORE:    0.00 PKD
ROOT
HETATM    1  O   UNL     1     -11.189   7.336  66.827  1.00  0.00    -0.504 OA 
HETATM    2  H   UNL     1     -11.243   6.594  67.419  1.00  0.00     0.000 HD 
HETATM    3 SI   UNL     1      -9.831   7.505  66.262  1.00  0.00    -0.177 Si 
HETATM    4  C   UNL     1      -7.702   6.401  69.333  1.00  0.00    -0.101 C  
HETATM    5  O   UNL     1      -8.100   7.673  68.829  1.00  0.00    -0.123 OA 
HETATM    6  O   UNL     1      -9.746   8.653  65.348  1.00  0.00    -0.405 OA 
HETATM    7  H   UNL     1      -8.876   8.761  64.986  1.00  0.00     0.000 HD 
ENDROOT
BRANCH   5   8
HETATM    8 SI   UNL     1      -8.439   8.900  69.934  1.00  0.00    -0.100 Si 
HETATM    9  C   UNL     1      -9.593  10.140  69.136  1.00  0.00    -0.212 C  
HETATM   10  C   UNL     1      -6.840   9.735  70.450  1.00  0.00    -0.135 C  
BRANCH   8  11
HETATM   11  O   UNL     1      -9.168   8.218  71.280  1.00  0.00    -0.144 OA 
HETATM   12 SI   UNL     1     -10.708   7.745  71.768  1.00  0.00    -0.206 Si 
HETATM   13  C   UNL     1     -11.909   9.201  71.782  1.00  0.00    -0.383 C  
HETATM   14  C   UNL     1     -10.707   7.004  73.496  1.00  0.00    -0.332 C  
HETATM   15  C   UNL     1     -11.407   6.456  70.583  1.00  0.00    -0.357 C  
ENDBRANCH   8  11
ENDBRANCH   5   8
TORSDOF 2
ENDMDL
MODEL      188
REMARK 921   NORMALIZED FREE ENERGY PREDICTED BY IDOCK:   -2.84 KCAL/MOL
REMARK 922        TOTAL FREE ENERGY PREDICTED BY IDOCK:   -3.41 KCAL/MOL
REMARK 923 INTER-LIGAND FREE ENERGY PREDICTED BY IDOCK:   -3.21 KCAL/MOL
REMARK 924 INTRA-LIGAND FREE ENERGY PREDICTED BY IDOCK:   -0.20 KCAL/MOL
REMARK 927      BINDING AFFINITY PREDICTED BY RF-SCORE:    0.00 PKD
ROOT
HETATM    1  O   UNL     1     -11.452  11.710  67.943  1.00  0.00    -0.279 OA 
HETATM    2  H   UNL     1     -10.959  11.405  67.191  1.00  0.00     0.000 HD 
HETATM    3 SI   UNL     1     -10.613  12.474  68.893  1.00  0.00    -0.196 Si 
HETATM    4  C   UNL     1      -7.268  10.507  68.537  1.00  0.00    -0.085 C  
HETATM    5  O   UNL     1      -8.335  10.454  69.481  1.00  0.00    -0.162 OA 
HETATM    6  O   UNL     1     -11.375  12.946  70.057  1.00  0.00    -0.504 OA 
HETATM    7  H   UNL     1     -10.837  13.436  70.666  1.00  0.00     0.000 HD 
ENDROOT
BRANCH   5   8
HETATM    8 SI   UNL     1      -8.753   8.957  70.131  1.00  0.00    -0.111 Si 
HETATM    9  C   UNL     1      -7.493   8.481  71.432  1.00  0.00    -0.102 C  
HETATM   10  C   UNL     1      -8.797   7.672  68.765  1.00  0.00    -0.131 C  
BRANCH   8  11
HETATM   11  O   UNL     1     -10.274   9.083  70.824  1.00  0.00    -0.207 OA 
HETATM   12 SI   UNL     1     -11.359   8.103  71.656  1.00  0.00    -0.234 Si 
HETATM   13  C   UNL     1     -11.891   6.620  70.618  1.00  0.00    -0.383 C  
HETATM   14  C   UNL     1     -12.919   9.030  72.148  1.00  0.00    -0.424 C  
HETATM   15  C   UNL     1     -10.565   7.428  73.228  1.00  0.00    -0.392 C  
ENDBRANCH   8  11
ENDBRANCH   5   8
TORSDOF 2
ENDMDL
MODEL      189
REMARK 921   NORMALIZED FREE ENERGY PREDICTED BY IDOCK:   -2.83 KCAL/MOL
REMARK 922        TOTAL FREE ENERGY PREDICTED BY IDOCK:   -3.40 KCAL/MOL
REMARK 923 INTER-LIGAND FREE ENERGY PREDICTED BY IDOCK:   -3.17 KCAL/MOL
REMARK 924 INTRA-LIGAND FREE ENERGY PREDICTED BY IDOCK:   -0.22 KCAL/MOL
REMARK 927      BINDING AFFINITY PREDICTED BY RF-SCORE:    0.00 PKD
ROOT
HETATM    1  O   UNL     1     -12.607  10.633  69.278  1.00  0.00    -0.715 OA 
HETATM    2  H   UNL     1     -12.967  10.194  68.516  1.00  0.00     0.000 HD 
HETATM    3 SI   UNL     1     -12.887  12.086  69.272  1.00  0.00    -0.112 Si 
HETATM    4  C   UNL     1     -12.641  12.785  65.447  1.00  0.00    -0.320 C  
HETATM    5  O   UNL     1     -11.725  12.939  66.527  1.00  0.00    -0.354 OA 
HETATM    6  O   UNL     1     -12.330  12.766  70.450  1.00  0.00    -0.318 OA 
HETATM    7  H   UNL     1     -12.510  13.698  70.447  1.00  0.00     0.000 HD 
ENDROOT
BRANCH   5   8
HETATM    8 SI   UNL     1     -10.090  12.649  66.235  1.00  0.00    -0.220 Si 
HETATM    9  C   UNL     1      -9.144  14.257  66.403  1.00  0.00    -0.141 C  
HETATM   10  C   UNL     1      -9.879  11.945  64.510  1.00  0.00    -0.178 C  
BRANCH   8  11
HETATM   11  O   UNL     1      -9.537  11.537  67.360  1.00  0.00    -0.167 OA 
HETATM   12 SI   UNL     1      -8.832  10.009  67.372  1.00  0.00    -0.121 Si 
HETATM   13  C   UNL     1      -9.949   8.722  66.563  1.00  0.00    -0.290 C  
HETATM   14  C   UNL     1      -8.463   9.412  69.116  1.00  0.00    -0.134 C  
HETATM   15  C   UNL     1      -7.210  10.026  66.409  1.00  0.00    -0.103 C  
ENDBRANCH   8  11
ENDBRANCH   5   8
TORSDOF 2
ENDMDL
MODEL      190
REMARK 921   NORMALIZED FREE ENERGY PREDICTED BY IDOCK:   -2.83 KCAL/MOL
REMARK 922        TOTAL FREE ENERGY PREDICTED BY IDOCK:   -3.39 KCAL/MOL
REMARK 923 INTER-LIGAND FREE ENERGY PREDICTED BY IDOCK:   -3.19 KCAL/MOL
REMARK 924 INTRA-LIGAND FREE ENERGY PREDICTED BY IDOCK:   -0.21 KCAL/MOL
REMARK 927      BINDING AFFINITY PREDICTED BY RF-SCORE:    0.00 PKD
ROOT
HETATM    1  O   UNL     1      -9.256  15.804  65.900  1.00  0.00    -0.340 OA 
HETATM    2  H   UNL     1      -8.995  15.758  66.813  1.00  0.00     0.000 HD 
HETATM    3 SI   UNL     1     -10.716  15.636  65.724  1.00  0.00    -0.271 Si 
HETATM    4  C   UNL     1     -11.423  13.054  68.555  1.00  0.00    -0.304 C  
HETATM    5  O   UNL     1     -11.212  12.929  67.152  1.00  0.00    -0.265 OA 
HETATM    6  O   UNL     1     -11.119  15.707  64.313  1.00  0.00    -0.738 OA 
HETATM    7  H   UNL     1     -12.056  15.599  64.200  1.00  0.00     0.000 HD 
ENDROOT
BRANCH   5   8
HETATM    8 SI   UNL     1     -10.387  11.572  66.586  1.00  0.00    -0.195 Si 
HETATM    9  C   UNL     1     -10.733  11.364  64.758  1.00  0.00    -0.298 C  
HETATM   10  C   UNL     1     -10.953  10.056  67.534  1.00  0.00    -0.212 C  
BRANCH   8  11
HETATM   11  O   UNL     1      -8.746  11.804  66.838  1.00  0.00    -0.176 OA 
HETATM   12 SI   UNL     1      -7.470  11.014  67.598  1.00  0.00    -0.083 Si 
HETATM   13  C   UNL     1      -7.784  10.808  69.447  1.00  0.00    -0.102 C  
HETATM   14  C   UNL     1      -5.846  11.942  67.407  1.00  0.00    -0.115 C  
HETATM   15  C   UNL     1      -7.241   9.287  66.876  1.00  0.00    -0.086 C  
ENDBRANCH   8  11
ENDBRANCH   5   8
TORSDOF 2
ENDMDL
MODEL      191
REMARK 921   NORMALIZED FREE ENERGY PREDICTED BY IDOCK:   -2.83 KCAL/MOL
REMARK 922        TOTAL FREE ENERGY PREDICTED BY IDOCK:   -3.39 KCAL/MOL
REMARK 923 INTER-LIGAND FREE ENERGY PREDICTED BY IDOCK:   -3.20 KCAL/MOL
REMARK 924 INTRA-LIGAND FREE ENERGY PREDICTED BY IDOCK:   -0.19 KCAL/MOL
REMARK 927      BINDING AFFINITY PREDICTED BY RF-SCORE:    0.00 PKD
ROOT
HETATM    1  O   UNL     1      -9.125  19.878  67.762  1.00  0.00    -0.321 OA 
HETATM    2  H   UNL     1      -8.849  19.651  68.642  1.00  0.00     0.000 HD 
HETATM    3 SI   UNL     1     -10.563  19.605  67.537  1.00  0.00    -0.329 Si 
HETATM    4  C   UNL     1     -10.964  16.386  69.696  1.00  0.00    -0.329 C  
HETATM    5  O   UNL     1     -10.760  16.607  68.303  1.00  0.00    -0.321 OA 
HETATM    6  O   UNL     1     -10.990  19.955  66.175  1.00  0.00    -0.319 OA 
HETATM    7  H   UNL     1     -11.912  19.780  66.031  1.00  0.00     0.000 HD 
ENDROOT
BRANCH   5   8
HETATM    8 SI   UNL     1      -9.808  15.508  67.450  1.00  0.00    -0.210 Si 
HETATM    9  C   UNL     1     -10.771  14.883  65.971  1.00  0.00    -0.323 C  
HETATM   10  C   UNL     1      -9.342  14.081  68.575  1.00  0.00    -0.182 C  
BRANCH   8  11
HETATM   11  O   UNL     1      -8.417  16.291  66.942  1.00  0.00    -0.184 OA 
HETATM   12 SI   UNL     1      -6.857  16.574  67.508  1.00  0.00    -0.101 Si 
HETATM   13  C   UNL     1      -6.873  17.532  69.133  1.00  0.00    -0.232 C  
HETATM   14  C   UNL     1      -5.827  17.563  66.286  1.00  0.00    -0.209 C  
HETATM   15  C   UNL     1      -5.969  14.942  67.831  1.00  0.00    -0.146 C  
ENDBRANCH   8  11
ENDBRANCH   5   8
TORSDOF 2
ENDMDL
MODEL      192
REMARK 921   NORMALIZED FREE ENERGY PREDICTED BY IDOCK:   -2.83 KCAL/MOL
REMARK 922        TOTAL FREE ENERGY PREDICTED BY IDOCK:   -3.39 KCAL/MOL
REMARK 923 INTER-LIGAND FREE ENERGY PREDICTED BY IDOCK:   -3.20 KCAL/MOL
REMARK 924 INTRA-LIGAND FREE ENERGY PREDICTED BY IDOCK:   -0.19 KCAL/MOL
REMARK 927      BINDING AFFINITY PREDICTED BY RF-SCORE:    0.00 PKD
ROOT
HETATM    1  O   UNL     1     -11.344  14.762  71.379  1.00  0.00    -0.528 OA 
HETATM    2  H   UNL     1     -10.775  14.197  71.888  1.00  0.00     0.000 HD 
HETATM    3 SI   UNL     1     -12.630  14.111  71.045  1.00  0.00    -0.265 Si 
HETATM    4  C   UNL     1     -11.398  10.448  70.547  1.00  0.00    -0.341 C  
HETATM    5  O   UNL     1     -11.673  11.515  69.644  1.00  0.00    -0.294 OA 
HETATM    6  O   UNL     1     -13.510  14.985  70.256  1.00  0.00    -0.620 OA 
HETATM    7  H   UNL     1     -14.335  14.567  70.042  1.00  0.00     0.000 HD 
ENDROOT
BRANCH   5   8
HETATM    8 SI   UNL     1     -10.710  11.667  68.268  1.00  0.00    -0.173 Si 
HETATM    9  C   UNL     1     -11.319  10.473  66.961  1.00  0.00     0.185 C  
HETATM   10  C   UNL     1      -8.926  11.295  68.711  1.00  0.00    -0.111 C  
BRANCH   8  11
HETATM   11  O   UNL     1     -10.827  13.242  67.708  1.00  0.00    -0.244 OA 
HETATM   12 SI   UNL     1     -11.112  14.039  66.253  1.00  0.00    -0.286 Si 
HETATM   13  C   UNL     1      -9.803  13.614  64.962  1.00  0.00    -0.055 C  
HETATM   14  C   UNL     1     -11.112  15.908  66.456  1.00  0.00    -0.028 C  
HETATM   15  C   UNL     1     -12.783  13.531  65.542  1.00  0.00    -0.440 C  
ENDBRANCH   8  11
ENDBRANCH   5   8
TORSDOF 2
ENDMDL
MODEL      193
REMARK 921   NORMALIZED FREE ENERGY PREDICTED BY IDOCK:   -2.82 KCAL/MOL
REMARK 922        TOTAL FREE ENERGY PREDICTED BY IDOCK:   -3.39 KCAL/MOL
REMARK 923 INTER-LIGAND FREE ENERGY PREDICTED BY IDOCK:   -3.19 KCAL/MOL
REMARK 924 INTRA-LIGAND FREE ENERGY PREDICTED BY IDOCK:   -0.20 KCAL/MOL
REMARK 927      BINDING AFFINITY PREDICTED BY RF-SCORE:    0.00 PKD
ROOT
HETATM    1  O   UNL     1      -7.134  15.741  69.909  1.00  0.00    -0.126 OA 
HETATM    2  H   UNL     1      -7.950  15.766  70.394  1.00  0.00     0.000 HD 
HETATM    3 SI   UNL     1      -6.542  17.087  69.737  1.00  0.00    -0.199 Si 
HETATM    4  C   UNL     1      -9.798  19.189  69.338  1.00  0.00    -0.077 C  
HETATM    5  O   UNL     1      -8.875  18.634  68.405  1.00  0.00    -0.321 OA 
HETATM    6  O   UNL     1      -5.279  17.049  68.986  1.00  0.00    -0.131 OA 
HETATM    7  H   UNL     1      -4.899  17.912  68.876  1.00  0.00     0.000 HD 
ENDROOT
BRANCH   5   8
HETATM    8 SI   UNL     1      -9.472  18.057  66.938  1.00  0.00    -0.245 Si 
HETATM    9  C   UNL     1      -8.036  17.537  65.855  1.00  0.00    -0.036 C  
HETATM   10  C   UNL     1     -10.469  19.404  66.096  1.00  0.00    -0.508 C  
BRANCH   8  11
HETATM   11  O   UNL     1     -10.464  16.743  67.247  1.00  0.00    -0.317 OA 
HETATM   12 SI   UNL     1     -10.702  15.184  66.658  1.00  0.00    -0.267 Si 
HETATM   13  C   UNL     1     -11.189  15.198  64.835  1.00  0.00    -0.417 C  
HETATM   14  C   UNL     1     -12.055  14.272  67.592  1.00  0.00    -0.297 C  
HETATM   15  C   UNL     1      -9.115  14.177  66.804  1.00  0.00    -0.247 C  
ENDBRANCH   8  11
ENDBRANCH   5   8
TORSDOF 2
ENDMDL
MODEL      194
REMARK 921   NORMALIZED FREE ENERGY PREDICTED BY IDOCK:   -2.82 KCAL/MOL
REMARK 922        TOTAL FREE ENERGY PREDICTED BY IDOCK:   -3.39 KCAL/MOL
REMARK 923 INTER-LIGAND FREE ENERGY PREDICTED BY IDOCK:   -3.20 KCAL/MOL
REMARK 924 INTRA-LIGAND FREE ENERGY PREDICTED BY IDOCK:   -0.19 KCAL/MOL
REMARK 927      BINDING AFFINITY PREDICTED BY RF-SCORE:    0.00 PKD
ROOT
HETATM    1  O   UNL     1      -7.415   9.737  68.109  1.00  0.00    -0.080 OA 
HETATM    2  H   UNL     1      -8.073   9.377  67.525  1.00  0.00     0.000 HD 
HETATM    3 SI   UNL     1      -7.940   9.960  69.474  1.00  0.00    -0.075 Si 
HETATM    4  C   UNL     1     -11.586  11.026  68.609  1.00  0.00    -0.316 C  
HETATM    5  O   UNL     1     -10.403  11.758  68.914  1.00  0.00    -0.200 OA 
HETATM    6  O   UNL     1      -6.924  10.518  70.378  1.00  0.00    -0.342 OA 
HETATM    7  H   UNL     1      -7.260  10.661  71.254  1.00  0.00     0.000 HD 
ENDROOT
BRANCH   5   8
HETATM    8 SI   UNL     1     -10.148  13.228  68.129  1.00  0.00    -0.192 Si 
HETATM    9  C   UNL     1      -8.379  13.774  68.411  1.00  0.00    -0.152 C  
HETATM   10  C   UNL     1     -11.341  14.510  68.801  1.00  0.00    -0.274 C  
BRANCH   8  11
HETATM   11  O   UNL     1     -10.430  13.013  66.491  1.00  0.00    -0.271 OA 
HETATM   12 SI   UNL     1     -11.193  13.827  65.231  1.00  0.00    -0.293 Si 
HETATM   13  C   UNL     1     -13.032  14.068  65.575  1.00  0.00    -0.316 C  
HETATM   14  C   UNL     1     -11.045  12.906  63.599  1.00  0.00    -0.324 C  
HETATM   15  C   UNL     1     -10.438  15.539  65.002  1.00  0.00    -0.362 C  
ENDBRANCH   8  11
ENDBRANCH   5   8
TORSDOF 2
ENDMDL
MODEL      195
REMARK 921   NORMALIZED FREE ENERGY PREDICTED BY IDOCK:   -2.81 KCAL/MOL
REMARK 922        TOTAL FREE ENERGY PREDICTED BY IDOCK:   -3.38 KCAL/MOL
REMARK 923 INTER-LIGAND FREE ENERGY PREDICTED BY IDOCK:   -3.13 KCAL/MOL
REMARK 924 INTRA-LIGAND FREE ENERGY PREDICTED BY IDOCK:   -0.25 KCAL/MOL
REMARK 927      BINDING AFFINITY PREDICTED BY RF-SCORE:    0.00 PKD
ROOT
HETATM    1  O   UNL     1     -12.393  10.828  68.524  1.00  0.00    -0.825 OA 
HETATM    2  H   UNL     1     -12.397  10.255  67.766  1.00  0.00     0.000 HD 
HETATM    3 SI   UNL     1     -12.403  12.259  68.145  1.00  0.00    -0.321 Si 
HETATM    4  C   UNL     1     -10.206  12.102  64.932  1.00  0.00    -0.280 C  
HETATM    5  O   UNL     1      -9.926  12.435  66.289  1.00  0.00    -0.235 OA 
HETATM    6  O   UNL     1     -12.398  13.146  69.317  1.00  0.00    -0.177 OA 
HETATM    7  H   UNL     1     -12.404  14.064  69.075  1.00  0.00     0.000 HD 
ENDROOT
BRANCH   5   8
HETATM    8 SI   UNL     1      -8.427  12.001  66.926  1.00  0.00    -0.136 Si 
HETATM    9  C   UNL     1      -7.578  10.822  65.744  1.00  0.00    -0.079 C  
HETATM   10  C   UNL     1      -8.671  11.186  68.597  1.00  0.00    -0.153 C  
BRANCH   8  11
HETATM   11  O   UNL     1      -7.507  13.388  67.114  1.00  0.00    -0.095 OA 
HETATM   12 SI   UNL     1      -7.745  15.010  67.494  1.00  0.00    -0.104 Si 
HETATM   13  C   UNL     1      -8.873  15.858  66.242  1.00  0.00    -0.351 C  
HETATM   14  C   UNL     1      -6.131  15.974  67.536  1.00  0.00    -0.159 C  
HETATM   15  C   UNL     1      -8.565  15.176  69.185  1.00  0.00    -0.218 C  
ENDBRANCH   8  11
ENDBRANCH   5   8
TORSDOF 2
ENDMDL
MODEL      196
REMARK 921   NORMALIZED FREE ENERGY PREDICTED BY IDOCK:   -2.79 KCAL/MOL
REMARK 922        TOTAL FREE ENERGY PREDICTED BY IDOCK:   -3.36 KCAL/MOL
REMARK 923 INTER-LIGAND FREE ENERGY PREDICTED BY IDOCK:   -3.22 KCAL/MOL
REMARK 924 INTRA-LIGAND FREE ENERGY PREDICTED BY IDOCK:   -0.14 KCAL/MOL
REMARK 927      BINDING AFFINITY PREDICTED BY RF-SCORE:    0.00 PKD
ROOT
HETATM    1  O   UNL     1      -8.157  11.423  68.993  1.00  0.00    -0.304 OA 
HETATM    2  H   UNL     1      -9.091  11.345  68.835  1.00  0.00     0.000 HD 
HETATM    3 SI   UNL     1      -7.846  12.431  70.031  1.00  0.00    -0.160 Si 
HETATM    4  C   UNL     1     -10.633  15.043  69.266  1.00  0.00    -0.247 C  
HETATM    5  O   UNL     1      -9.258  14.951  68.904  1.00  0.00    -0.191 OA 
HETATM    6  O   UNL     1      -6.401  12.553  70.274  1.00  0.00    -0.361 OA 
HETATM    7  H   UNL     1      -6.201  13.199  70.940  1.00  0.00     0.000 HD 
ENDROOT
BRANCH   5   8
HETATM    8 SI   UNL     1      -8.792  15.505  67.382  1.00  0.00    -0.163 Si 
HETATM    9  C   UNL     1      -9.599  14.440  66.070  1.00  0.00    -0.262 C  
HETATM   10  C   UNL     1      -6.925  15.423  67.232  1.00  0.00    -0.145 C  
BRANCH   8  11
HETATM   11  O   UNL     1      -9.293  17.096  67.219  1.00  0.00    -0.236 OA 
HETATM   12 SI   UNL     1      -8.627  18.638  67.324  1.00  0.00    -0.245 Si 
HETATM   13  C   UNL     1      -7.923  18.975  69.042  1.00  0.00    -0.214 C  
HETATM   14  C   UNL     1      -9.891  19.983  66.965  1.00  0.00    -0.430 C  
HETATM   15  C   UNL     1      -7.211  18.829  66.094  1.00  0.00    -0.263 C  
ENDBRANCH   8  11
ENDBRANCH   5   8
TORSDOF 2
ENDMDL
MODEL      197
REMARK 921   NORMALIZED FREE ENERGY PREDICTED BY IDOCK:   -2.79 KCAL/MOL
REMARK 922        TOTAL FREE ENERGY PREDICTED BY IDOCK:   -3.36 KCAL/MOL
REMARK 923 INTER-LIGAND FREE ENERGY PREDICTED BY IDOCK:   -3.13 KCAL/MOL
REMARK 924 INTRA-LIGAND FREE ENERGY PREDICTED BY IDOCK:   -0.23 KCAL/MOL
REMARK 927      BINDING AFFINITY PREDICTED BY RF-SCORE:    0.00 PKD
ROOT
HETATM    1  O   UNL     1     -13.029   7.042  70.575  1.00  0.00    -0.551 OA 
HETATM    2  H   UNL     1     -13.104   7.027  69.628  1.00  0.00     0.000 HD 
HETATM    3 SI   UNL     1     -12.856   8.413  71.103  1.00  0.00    -0.306 Si 
HETATM    4  C   UNL     1     -10.692   9.947  68.249  1.00  0.00    -0.234 C  
HETATM    5  O   UNL     1     -10.374   9.388  69.521  1.00  0.00    -0.196 OA 
HETATM    6  O   UNL     1     -12.740   8.436  72.568  1.00  0.00    -0.533 OA 
HETATM    7  H   UNL     1     -12.629   9.316  72.907  1.00  0.00     0.000 HD 
ENDROOT
BRANCH   5   8
HETATM    8 SI   UNL     1      -8.944   8.510  69.673  1.00  0.00    -0.128 Si 
HETATM    9  C   UNL     1      -9.182   7.170  70.960  1.00  0.00    -0.158 C  
HETATM   10  C   UNL     1      -7.554   9.663  70.181  1.00  0.00    -0.158 C  
BRANCH   8  11
HETATM   11  O   UNL     1      -8.580   7.822  68.188  1.00  0.00    -0.123 OA 
HETATM   12 SI   UNL     1      -9.028   6.475  67.286  1.00  0.00    -0.114 Si 
HETATM   13  C   UNL     1      -8.629   4.869  68.192  1.00  0.00    -0.102 C  
HETATM   14  C   UNL     1      -8.153   6.411  65.623  1.00  0.00    -0.131 C  
HETATM   15  C   UNL     1     -10.886   6.487  66.964  1.00  0.00    -0.395 C  
ENDBRANCH   8  11
ENDBRANCH   5   8
TORSDOF 2
ENDMDL
MODEL      198
REMARK 921   NORMALIZED FREE ENERGY PREDICTED BY IDOCK:   -2.78 KCAL/MOL
REMARK 922        TOTAL FREE ENERGY PREDICTED BY IDOCK:   -3.35 KCAL/MOL
REMARK 923 INTER-LIGAND FREE ENERGY PREDICTED BY IDOCK:   -3.09 KCAL/MOL
REMARK 924 INTRA-LIGAND FREE ENERGY PREDICTED BY IDOCK:   -0.25 KCAL/MOL
REMARK 927      BINDING AFFINITY PREDICTED BY RF-SCORE:    0.00 PKD
ROOT
HETATM    1  O   UNL     1      -6.573  11.871  70.349  1.00  0.00    -0.496 OA 
HETATM    2  H   UNL     1      -7.118  12.342  70.968  1.00  0.00     0.000 HD 
HETATM    3 SI   UNL     1      -6.355  12.633  69.099  1.00  0.00    -0.063 Si 
HETATM    4  C   UNL     1      -9.824  14.378  68.784  1.00  0.00    -0.214 C  
HETATM    5  O   UNL     1      -9.266  13.206  68.198  1.00  0.00    -0.206 OA 
HETATM    6  O   UNL     1      -5.512  11.904  68.141  1.00  0.00    -0.043 OA 
HETATM    7  H   UNL     1      -5.372  12.393  67.339  1.00  0.00     0.000 HD 
ENDROOT
BRANCH   5   8
HETATM    8 SI   UNL     1     -10.282  11.890  67.920  1.00  0.00    -0.171 Si 
HETATM    9  C   UNL     1     -11.815  12.065  68.980  1.00  0.00    -0.315 C  
HETATM   10  C   UNL     1      -9.376  10.302  68.340  1.00  0.00    -0.143 C  
BRANCH   8  11
HETATM   11  O   UNL     1     -10.703  11.876  66.297  1.00  0.00    -0.251 OA 
HETATM   12 SI   UNL     1     -11.233  12.965  65.129  1.00  0.00    -0.280 Si 
HETATM   13  C   UNL     1     -12.880  13.750  65.610  1.00  0.00    -0.408 C  
HETATM   14  C   UNL     1     -11.472  12.147  63.453  1.00  0.00    -0.416 C  
HETATM   15  C   UNL     1      -9.987  14.365  64.921  1.00  0.00    -0.089 C  
ENDBRANCH   8  11
ENDBRANCH   5   8
TORSDOF 2
ENDMDL
MODEL      199
REMARK 921   NORMALIZED FREE ENERGY PREDICTED BY IDOCK:   -2.78 KCAL/MOL
REMARK 922        TOTAL FREE ENERGY PREDICTED BY IDOCK:   -3.34 KCAL/MOL
REMARK 923 INTER-LIGAND FREE ENERGY PREDICTED BY IDOCK:   -3.15 KCAL/MOL
REMARK 924 INTRA-LIGAND FREE ENERGY PREDICTED BY IDOCK:   -0.20 KCAL/MOL
REMARK 927      BINDING AFFINITY PREDICTED BY RF-SCORE:    0.00 PKD
ROOT
HETATM    1  O   UNL     1     -11.429   4.219  64.722  1.00  0.00    -0.995 OA 
HETATM    2  H   UNL     1     -11.813   3.595  65.327  1.00  0.00     0.000 HD 
HETATM    3 SI   UNL     1      -9.950   4.169  64.727  1.00  0.00    -0.139 Si 
HETATM    4  C   UNL     1      -9.334   3.410  68.499  1.00  0.00    -0.168 C  
HETATM    5  O   UNL     1      -9.318   4.610  67.731  1.00  0.00    -0.127 OA 
HETATM    6  O   UNL     1      -9.355   5.135  63.792  1.00  0.00    -0.342 OA 
HETATM    7  H   UNL     1      -8.406   5.103  63.796  1.00  0.00     0.000 HD 
ENDROOT
BRANCH   5   8
HETATM    8 SI   UNL     1      -9.865   6.030  68.454  1.00  0.00    -0.119 Si 
HETATM    9  C   UNL     1     -10.603   5.620  70.125  1.00  0.00    -0.309 C  
HETATM   10  C   UNL     1     -11.151   6.837  67.353  1.00  0.00    -0.295 C  
BRANCH   8  11
HETATM   11  O   UNL     1      -8.563   7.069  68.641  1.00  0.00    -0.121 OA 
HETATM   12 SI   UNL     1      -8.288   8.722  68.794  1.00  0.00    -0.106 Si 
HETATM   13  C   UNL     1      -8.904   9.671  67.285  1.00  0.00    -0.132 C  
HETATM   14  C   UNL     1      -6.463   9.122  69.000  1.00  0.00    -0.047 C  
HETATM   15  C   UNL     1      -9.205   9.404  70.295  1.00  0.00    -0.245 C  
ENDBRANCH   8  11
ENDBRANCH   5   8
TORSDOF 2
ENDMDL
MODEL      200
REMARK 921   NORMALIZED FREE ENERGY PREDICTED BY IDOCK:   -2.78 KCAL/MOL
REMARK 922        TOTAL FREE ENERGY PREDICTED BY IDOCK:   -3.34 KCAL/MOL
REMARK 923 INTER-LIGAND FREE ENERGY PREDICTED BY IDOCK:   -3.15 KCAL/MOL
REMARK 924 INTRA-LIGAND FREE ENERGY PREDICTED BY IDOCK:   -0.19 KCAL/MOL
REMARK 927      BINDING AFFINITY PREDICTED BY RF-SCORE:    0.00 PKD
ROOT
HETATM    1  O   UNL     1      -8.692  11.053  69.333  1.00  0.00    -0.379 OA 
HETATM    2  H   UNL     1      -8.837  11.432  70.192  1.00  0.00     0.000 HD 
HETATM    3 SI   UNL     1      -9.928  11.019  68.520  1.00  0.00    -0.149 Si 
HETATM    4  C   UNL     1     -12.539  10.312  71.324  1.00  0.00    -0.418 C  
HETATM    5  O   UNL     1     -11.866   9.477  70.386  1.00  0.00    -0.228 OA 
HETATM    6  O   UNL     1      -9.705  10.431  67.191  1.00  0.00    -0.165 OA 
HETATM    7  H   UNL     1     -10.497  10.409  66.669  1.00  0.00     0.000 HD 
ENDROOT
BRANCH   5   8
HETATM    8 SI   UNL     1     -11.430   7.922  70.868  1.00  0.00    -0.250 Si 
HETATM    9  C   UNL     1     -10.823   6.966  69.377  1.00  0.00    -0.249 C  
HETATM   10  C   UNL     1     -12.915   7.066  71.631  1.00  0.00    -0.352 C  
BRANCH   8  11
HETATM   11  O   UNL     1     -10.210   8.041  72.011  1.00  0.00    -0.196 OA 
HETATM   12 SI   UNL     1      -9.271   7.013  72.956  1.00  0.00    -0.128 Si 
HETATM   13  C   UNL     1     -10.334   5.969  74.114  1.00  0.00    -0.288 C  
HETATM   14  C   UNL     1      -8.041   7.954  74.021  1.00  0.00    -0.226 C  
HETATM   15  C   UNL     1      -8.300   5.820  71.864  1.00  0.00    -0.119 C  
ENDBRANCH   8  11
ENDBRANCH   5   8
TORSDOF 2
ENDMDL
MODEL      201
REMARK 921   NORMALIZED FREE ENERGY PREDICTED BY IDOCK:   -2.77 KCAL/MOL
REMARK 922        TOTAL FREE ENERGY PREDICTED BY IDOCK:   -3.33 KCAL/MOL
REMARK 923 INTER-LIGAND FREE ENERGY PREDICTED BY IDOCK:   -3.06 KCAL/MOL
REMARK 924 INTRA-LIGAND FREE ENERGY PREDICTED BY IDOCK:   -0.27 KCAL/MOL
REMARK 927      BINDING AFFINITY PREDICTED BY RF-SCORE:    0.00 PKD
ROOT
HETATM    1  O   UNL     1     -11.535   6.708  66.887  1.00  0.00    -0.777 OA 
HETATM    2  H   UNL     1     -11.819   7.343  66.239  1.00  0.00     0.000 HD 
HETATM    3 SI   UNL     1     -11.947   7.083  68.258  1.00  0.00    -0.474 Si 
HETATM    4  C   UNL     1     -11.595  10.955  68.013  1.00  0.00    -0.215 C  
HETATM    5  O   UNL     1     -10.745   9.929  68.519  1.00  0.00    -0.214 OA 
HETATM    6  O   UNL     1     -11.507   6.101  69.260  1.00  0.00    -0.455 OA 
HETATM    7  H   UNL     1     -11.771   6.341  70.140  1.00  0.00     0.000 HD 
ENDROOT
BRANCH   5   8
HETATM    8 SI   UNL     1      -9.080  10.106  68.330  1.00  0.00    -0.119 Si 
HETATM    9  C   UNL     1      -8.227   9.599  69.918  1.00  0.00    -0.174 C  
HETATM   10  C   UNL     1      -8.684  11.893  67.919  1.00  0.00    -0.167 C  
BRANCH   8  11
HETATM   11  O   UNL     1      -8.579   9.122  67.069  1.00  0.00    -0.122 OA 
HETATM   12 SI   UNL     1      -7.590   7.780  66.841  1.00  0.00    -0.080 Si 
HETATM   13  C   UNL     1      -5.808   8.138  67.346  1.00  0.00    -0.043 C  
HETATM   14  C   UNL     1      -7.561   7.216  65.048  1.00  0.00    -0.104 C  
HETATM   15  C   UNL     1      -8.189   6.335  67.894  1.00  0.00    -0.114 C  
ENDBRANCH   8  11
ENDBRANCH   5   8
TORSDOF 2
ENDMDL
MODEL      202
REMARK 921   NORMALIZED FREE ENERGY PREDICTED BY IDOCK:   -2.75 KCAL/MOL
REMARK 922        TOTAL FREE ENERGY PREDICTED BY IDOCK:   -3.31 KCAL/MOL
REMARK 923 INTER-LIGAND FREE ENERGY PREDICTED BY IDOCK:   -3.23 KCAL/MOL
REMARK 924 INTRA-LIGAND FREE ENERGY PREDICTED BY IDOCK:   -0.08 KCAL/MOL
REMARK 927      BINDING AFFINITY PREDICTED BY RF-SCORE:    0.00 PKD
ROOT
HETATM    1  O   UNL     1     -10.584  18.922  66.407  1.00  0.00    -0.410 OA 
HETATM    2  H   UNL     1     -11.475  18.693  66.169  1.00  0.00     0.000 HD 
HETATM    3 SI   UNL     1      -9.587  18.328  65.488  1.00  0.00    -0.212 Si 
HETATM    4  C   UNL     1     -11.337  14.929  64.735  1.00  0.00    -0.397 C  
HETATM    5  O   UNL     1     -10.310  15.316  65.643  1.00  0.00    -0.311 OA 
HETATM    6  O   UNL     1      -8.209  18.682  65.855  1.00  0.00    -0.488 OA 
HETATM    7  H   UNL     1      -7.570  18.301  65.266  1.00  0.00     0.000 HD 
ENDROOT
BRANCH   5   8
HETATM    8 SI   UNL     1     -10.249  14.564  67.150  1.00  0.00    -0.237 Si 
HETATM    9  C   UNL     1     -11.415  13.099  67.150  1.00  0.00    -0.334 C  
HETATM   10  C   UNL     1     -10.742  15.791  68.480  1.00  0.00    -0.274 C  
BRANCH   8  11
HETATM   11  O   UNL     1      -8.678  14.049  67.425  1.00  0.00    -0.184 OA 
HETATM   12 SI   UNL     1      -7.272  14.635  68.139  1.00  0.00    -0.089 Si 
HETATM   13  C   UNL     1      -6.669  16.211  67.294  1.00  0.00    -0.198 C  
HETATM   14  C   UNL     1      -5.867  13.388  68.067  1.00  0.00    -0.124 C  
HETATM   15  C   UNL     1      -7.582  15.057  69.951  1.00  0.00     0.027 C  
ENDBRANCH   8  11
ENDBRANCH   5   8
TORSDOF 2
ENDMDL
MODEL      203
REMARK 921   NORMALIZED FREE ENERGY PREDICTED BY IDOCK:   -2.75 KCAL/MOL
REMARK 922        TOTAL FREE ENERGY PREDICTED BY IDOCK:   -3.31 KCAL/MOL
REMARK 923 INTER-LIGAND FREE ENERGY PREDICTED BY IDOCK:   -3.08 KCAL/MOL
REMARK 924 INTRA-LIGAND FREE ENERGY PREDICTED BY IDOCK:   -0.23 KCAL/MOL
REMARK 927      BINDING AFFINITY PREDICTED BY RF-SCORE:    0.00 PKD
ROOT
HETATM    1  O   UNL     1      -8.906  16.063  65.572  1.00  0.00    -0.211 OA 
HETATM    2  H   UNL     1      -8.456  16.212  66.396  1.00  0.00     0.000 HD 
HETATM    3 SI   UNL     1     -10.372  16.227  65.696  1.00  0.00    -0.261 Si 
HETATM    4  C   UNL     1     -10.887  14.817  69.291  1.00  0.00    -0.264 C  
HETATM    5  O   UNL     1     -11.032  14.250  67.992  1.00  0.00    -0.241 OA 
HETATM    6  O   UNL     1     -11.069  15.996  64.423  1.00  0.00    -0.877 OA 
HETATM    7  H   UNL     1     -12.009  16.101  64.502  1.00  0.00     0.000 HD 
ENDROOT
BRANCH   5   8
HETATM    8 SI   UNL     1     -10.634  12.627  67.778  1.00  0.00    -0.199 Si 
HETATM    9  C   UNL     1     -10.457  12.276  65.948  1.00  0.00    -0.256 C  
HETATM   10  C   UNL     1     -11.977  11.550  68.523  1.00  0.00    -0.224 C  
BRANCH   8  11
HETATM   11  O   UNL     1      -9.184  12.327  68.563  1.00  0.00    -0.175 OA 
HETATM   12 SI   UNL     1      -7.540  12.580  68.303  1.00  0.00    -0.083 Si 
HETATM   13  C   UNL     1      -6.942  11.706  66.741  1.00  0.00    -0.080 C  
HETATM   14  C   UNL     1      -6.491  11.952  69.732  1.00  0.00    -0.077 C  
HETATM   15  C   UNL     1      -7.184  14.418  68.085  1.00  0.00    -0.128 C  
ENDBRANCH   8  11
ENDBRANCH   5   8
TORSDOF 2
ENDMDL
MODEL      204
REMARK 921   NORMALIZED FREE ENERGY PREDICTED BY IDOCK:   -2.73 KCAL/MOL
REMARK 922        TOTAL FREE ENERGY PREDICTED BY IDOCK:   -3.28 KCAL/MOL
REMARK 923 INTER-LIGAND FREE ENERGY PREDICTED BY IDOCK:   -3.13 KCAL/MOL
REMARK 924 INTRA-LIGAND FREE ENERGY PREDICTED BY IDOCK:   -0.15 KCAL/MOL
REMARK 927      BINDING AFFINITY PREDICTED BY RF-SCORE:    0.00 PKD
ROOT
HETATM    1  O   UNL     1     -13.045  10.257  69.980  1.00  0.00    -0.541 OA 
HETATM    2  H   UNL     1     -13.495   9.561  70.444  1.00  0.00     0.000 HD 
HETATM    3 SI   UNL     1     -12.393   9.776  68.741  1.00  0.00    -0.435 Si 
HETATM    4  C   UNL     1     -11.290   6.229  69.916  1.00  0.00    -0.434 C  
HETATM    5  O   UNL     1     -10.612   7.478  69.820  1.00  0.00    -0.232 OA 
HETATM    6  O   UNL     1     -11.696  10.853  68.023  1.00  0.00    -0.572 OA 
HETATM    7  H   UNL     1     -11.278  10.544  67.228  1.00  0.00     0.000 HD 
ENDROOT
BRANCH   5   8
HETATM    8 SI   UNL     1      -9.458   7.854  70.989  1.00  0.00    -0.146 Si 
HETATM    9  C   UNL     1     -10.327   8.415  72.549  1.00  0.00    -0.301 C  
HETATM   10  C   UNL     1      -8.334   9.209  70.344  1.00  0.00    -0.185 C  
BRANCH   8  11
HETATM   11  O   UNL     1      -8.549   6.480  71.299  1.00  0.00    -0.126 OA 
HETATM   12 SI   UNL     1      -6.938   6.077  71.573  1.00  0.00    -0.056 Si 
HETATM   13  C   UNL     1      -5.848   6.536  70.103  1.00  0.00    -0.019 C  
HETATM   14  C   UNL     1      -6.711   4.237  71.885  1.00  0.00    -0.027 C  
HETATM   15  C   UNL     1      -6.273   7.006  73.073  1.00  0.00    -0.057 C  
ENDBRANCH   8  11
ENDBRANCH   5   8
TORSDOF 2
ENDMDL
MODEL      205
REMARK 921   NORMALIZED FREE ENERGY PREDICTED BY IDOCK:   -2.72 KCAL/MOL
REMARK 922        TOTAL FREE ENERGY PREDICTED BY IDOCK:   -3.27 KCAL/MOL
REMARK 923 INTER-LIGAND FREE ENERGY PREDICTED BY IDOCK:   -3.05 KCAL/MOL
REMARK 924 INTRA-LIGAND FREE ENERGY PREDICTED BY IDOCK:   -0.22 KCAL/MOL
REMARK 927      BINDING AFFINITY PREDICTED BY RF-SCORE:    0.00 PKD
ROOT
HETATM    1  O   UNL     1      -9.354  14.570  65.775  1.00  0.00    -0.520 OA 
HETATM    2  H   UNL     1      -9.198  14.674  66.706  1.00  0.00     0.000 HD 
HETATM    3 SI   UNL     1     -10.721  14.082  65.486  1.00  0.00    -0.271 Si 
HETATM    4  C   UNL     1     -11.230  11.716  68.539  1.00  0.00    -0.256 C  
HETATM    5  O   UNL     1     -10.835  11.493  67.189  1.00  0.00    -0.239 OA 
HETATM    6  O   UNL     1     -10.962  13.920  64.045  1.00  0.00    -0.567 OA 
HETATM    7  H   UNL     1     -11.839  13.607  63.860  1.00  0.00     0.000 HD 
ENDROOT
BRANCH   5   8
HETATM    8 SI   UNL     1      -9.697  10.289  66.877  1.00  0.00    -0.155 Si 
HETATM    9  C   UNL     1      -9.055  10.493  65.130  1.00  0.00    -0.197 C  
HETATM   10  C   UNL     1     -10.496   8.606  67.086  1.00  0.00    -0.289 C  
BRANCH   8  11
HETATM   11  O   UNL     1      -8.440  10.448  67.974  1.00  0.00    -0.117 OA 
HETATM   12 SI   UNL     1      -7.123  11.462  68.235  1.00  0.00    -0.064 Si 
HETATM   13  C   UNL     1      -5.926  11.434  66.778  1.00  0.00    -0.143 C  
HETATM   14  C   UNL     1      -6.149  10.979  69.769  1.00  0.00    -0.097 C  
HETATM   15  C   UNL     1      -7.699  13.245  68.450  1.00  0.00    -0.138 C  
ENDBRANCH   8  11
ENDBRANCH   5   8
TORSDOF 2
ENDMDL
MODEL      206
REMARK 921   NORMALIZED FREE ENERGY PREDICTED BY IDOCK:   -2.72 KCAL/MOL
REMARK 922        TOTAL FREE ENERGY PREDICTED BY IDOCK:   -3.27 KCAL/MOL
REMARK 923 INTER-LIGAND FREE ENERGY PREDICTED BY IDOCK:   -3.08 KCAL/MOL
REMARK 924 INTRA-LIGAND FREE ENERGY PREDICTED BY IDOCK:   -0.19 KCAL/MOL
REMARK 927      BINDING AFFINITY PREDICTED BY RF-SCORE:    0.00 PKD
ROOT
HETATM    1  O   UNL     1     -11.657   4.579  64.956  1.00  0.00    -1.101 OA 
HETATM    2  H   UNL     1     -11.837   4.839  65.852  1.00  0.00     0.000 HD 
HETATM    3 SI   UNL     1     -11.348   3.136  64.842  1.00  0.00    -0.412 Si 
HETATM    4  C   UNL     1      -9.428   2.612  68.192  1.00  0.00    -0.158 C  
HETATM    5  O   UNL     1      -9.004   2.836  66.850  1.00  0.00    -0.135 OA 
HETATM    6  O   UNL     1     -11.068   2.733  63.456  1.00  0.00    -0.408 OA 
HETATM    7  H   UNL     1     -10.870   1.807  63.383  1.00  0.00     0.000 HD 
ENDROOT
BRANCH   5   8
HETATM    8 SI   UNL     1      -7.619   3.761  66.593  1.00  0.00    -0.070 Si 
HETATM    9  C   UNL     1      -7.472   4.151  64.768  1.00  0.00    -0.073 C  
HETATM   10  C   UNL     1      -6.114   2.808  67.180  1.00  0.00    -0.024 C  
BRANCH   8  11
HETATM   11  O   UNL     1      -7.755   5.180  67.475  1.00  0.00    -0.090 OA 
HETATM   12 SI   UNL     1      -8.798   6.496  67.581  1.00  0.00    -0.114 Si 
HETATM   13  C   UNL     1      -8.901   7.434  65.946  1.00  0.00    -0.120 C  
HETATM   14  C   UNL     1      -8.259   7.725  68.897  1.00  0.00    -0.127 C  
HETATM   15  C   UNL     1     -10.543   5.920  68.004  1.00  0.00    -0.252 C  
ENDBRANCH   8  11
ENDBRANCH   5   8
TORSDOF 2
ENDMDL
MODEL      207
REMARK 921   NORMALIZED FREE ENERGY PREDICTED BY IDOCK:   -2.71 KCAL/MOL
REMARK 922        TOTAL FREE ENERGY PREDICTED BY IDOCK:   -3.26 KCAL/MOL
REMARK 923 INTER-LIGAND FREE ENERGY PREDICTED BY IDOCK:   -3.09 KCAL/MOL
REMARK 924 INTRA-LIGAND FREE ENERGY PREDICTED BY IDOCK:   -0.17 KCAL/MOL
REMARK 927      BINDING AFFINITY PREDICTED BY RF-SCORE:    0.00 PKD
ROOT
HETATM    1  O   UNL     1      -8.062  13.240  68.752  1.00  0.00    -0.309 OA 
HETATM    2  H   UNL     1      -8.365  13.346  69.646  1.00  0.00     0.000 HD 
HETATM    3 SI   UNL     1      -9.180  13.100  67.793  1.00  0.00    -0.160 Si 
HETATM    4  C   UNL     1     -11.686  11.091  69.999  1.00  0.00    -0.355 C  
HETATM    5  O   UNL     1     -10.746  10.710  68.999  1.00  0.00    -0.193 OA 
HETATM    6  O   UNL     1      -8.712  12.934  66.410  1.00  0.00    -0.424 OA 
HETATM    7  H   UNL     1      -9.429  12.844  65.794  1.00  0.00     0.000 HD 
ENDROOT
BRANCH   5   8
HETATM    8 SI   UNL     1      -9.935   9.244  69.182  1.00  0.00    -0.155 Si 
HETATM    9  C   UNL     1      -8.211   9.575  69.834  1.00  0.00    -0.161 C  
HETATM   10  C   UNL     1      -9.848   8.368  67.526  1.00  0.00    -0.181 C  
BRANCH   8  11
HETATM   11  O   UNL     1     -10.788   8.295  70.268  1.00  0.00    -0.237 OA 
HETATM   12 SI   UNL     1     -10.622   6.806  71.034  1.00  0.00    -0.204 Si 
HETATM   13  C   UNL     1     -10.522   5.392  69.788  1.00  0.00    -0.307 C  
HETATM   14  C   UNL     1     -12.062   6.436  72.186  1.00  0.00    -0.268 C  
HETATM   15  C   UNL     1      -9.037   6.764  72.054  1.00  0.00    -0.138 C  
ENDBRANCH   8  11
ENDBRANCH   5   8
TORSDOF 2
ENDMDL
MODEL      208
REMARK 921   NORMALIZED FREE ENERGY PREDICTED BY IDOCK:   -2.70 KCAL/MOL
REMARK 922        TOTAL FREE ENERGY PREDICTED BY IDOCK:   -3.25 KCAL/MOL
REMARK 923 INTER-LIGAND FREE ENERGY PREDICTED BY IDOCK:   -3.08 KCAL/MOL
REMARK 924 INTRA-LIGAND FREE ENERGY PREDICTED BY IDOCK:   -0.17 KCAL/MOL
REMARK 927      BINDING AFFINITY PREDICTED BY RF-SCORE:    0.00 PKD
ROOT
HETATM    1  O   UNL     1      -8.791  11.662  69.014  1.00  0.00    -0.375 OA 
HETATM    2  H   UNL     1      -8.206  11.841  69.740  1.00  0.00     0.000 HD 
HETATM    3 SI   UNL     1      -8.061  11.451  67.744  1.00  0.00    -0.102 Si 
HETATM    4  C   UNL     1      -5.146  13.988  68.235  1.00  0.00    -0.111 C  
HETATM    5  O   UNL     1      -6.388  14.053  67.541  1.00  0.00    -0.284 OA 
HETATM    6  O   UNL     1      -8.967  11.174  66.619  1.00  0.00    -0.160 OA 
HETATM    7  H   UNL     1      -8.499  11.039  65.805  1.00  0.00     0.000 HD 
ENDROOT
BRANCH   5   8
HETATM    8 SI   UNL     1      -7.212  15.524  67.514  1.00  0.00    -0.102 Si 
HETATM    9  C   UNL     1      -6.078  16.848  66.830  1.00  0.00    -0.188 C  
HETATM   10  C   UNL     1      -7.757  15.966  69.253  1.00  0.00    -0.222 C  
BRANCH   8  11
HETATM   11  O   UNL     1      -8.562  15.360  66.534  1.00  0.00    -0.273 OA 
HETATM   12 SI   UNL     1     -10.101  16.026  66.396  1.00  0.00    -0.234 Si 
HETATM   13  C   UNL     1     -11.125  15.735  67.954  1.00  0.00    -0.326 C  
HETATM   14  C   UNL     1     -11.061  15.301  64.952  1.00  0.00    -0.424 C  
HETATM   15  C   UNL     1      -9.990  17.891  66.142  1.00  0.00    -0.283 C  
ENDBRANCH   8  11
ENDBRANCH   5   8
TORSDOF 2
ENDMDL
MODEL      209
REMARK 921   NORMALIZED FREE ENERGY PREDICTED BY IDOCK:   -2.70 KCAL/MOL
REMARK 922        TOTAL FREE ENERGY PREDICTED BY IDOCK:   -3.25 KCAL/MOL
REMARK 923 INTER-LIGAND FREE ENERGY PREDICTED BY IDOCK:   -3.06 KCAL/MOL
REMARK 924 INTRA-LIGAND FREE ENERGY PREDICTED BY IDOCK:   -0.19 KCAL/MOL
REMARK 927      BINDING AFFINITY PREDICTED BY RF-SCORE:    0.00 PKD
ROOT
HETATM    1  O   UNL     1     -10.883   6.098  66.429  1.00  0.00    -0.536 OA 
HETATM    2  H   UNL     1     -11.797   6.142  66.685  1.00  0.00     0.000 HD 
HETATM    3 SI   UNL     1     -10.044   5.438  67.454  1.00  0.00    -0.123 Si 
HETATM    4  C   UNL     1     -11.836   6.697  70.676  1.00  0.00    -0.383 C  
HETATM    5  O   UNL     1     -10.678   7.135  69.971  1.00  0.00    -0.234 OA 
HETATM    6  O   UNL     1      -8.630   5.371  67.059  1.00  0.00    -0.110 OA 
HETATM    7  H   UNL     1      -8.092   4.948  67.717  1.00  0.00     0.000 HD 
ENDROOT
BRANCH   5   8
HETATM    8 SI   UNL     1     -10.354   8.788  69.914  1.00  0.00    -0.177 Si 
HETATM    9  C   UNL     1      -8.682   9.111  70.693  1.00  0.00    -0.229 C  
HETATM   10  C   UNL     1     -11.695   9.720  70.836  1.00  0.00    -0.347 C  
BRANCH   8  11
HETATM   11  O   UNL     1     -10.344   9.273  68.310  1.00  0.00    -0.200 OA 
HETATM   12 SI   UNL     1      -9.855  10.605  67.405  1.00  0.00    -0.154 Si 
HETATM   13  C   UNL     1     -10.759  12.174  67.934  1.00  0.00    -0.207 C  
HETATM   14  C   UNL     1     -10.173  10.369  65.567  1.00  0.00    -0.246 C  
HETATM   15  C   UNL     1      -8.010  10.918  67.639  1.00  0.00    -0.114 C  
ENDBRANCH   8  11
ENDBRANCH   5   8
TORSDOF 2
ENDMDL
MODEL      210
REMARK 921   NORMALIZED FREE ENERGY PREDICTED BY IDOCK:   -2.70 KCAL/MOL
REMARK 922        TOTAL FREE ENERGY PREDICTED BY IDOCK:   -3.25 KCAL/MOL
REMARK 923 INTER-LIGAND FREE ENERGY PREDICTED BY IDOCK:   -3.08 KCAL/MOL
REMARK 924 INTRA-LIGAND FREE ENERGY PREDICTED BY IDOCK:   -0.17 KCAL/MOL
REMARK 927      BINDING AFFINITY PREDICTED BY RF-SCORE:    0.00 PKD
ROOT
HETATM    1  O   UNL     1      -9.674  10.857  69.641  1.00  0.00    -0.428 OA 
HETATM    2  H   UNL     1      -8.862  11.051  70.095  1.00  0.00     0.000 HD 
HETATM    3 SI   UNL     1      -9.455  10.523  68.216  1.00  0.00    -0.135 Si 
HETATM    4  C   UNL     1      -6.487  12.922  67.430  1.00  0.00    -0.120 C  
HETATM    5  O   UNL     1      -7.894  13.010  67.221  1.00  0.00    -0.171 OA 
HETATM    6  O   UNL     1     -10.711  10.223  67.513  1.00  0.00    -0.255 OA 
HETATM    7  H   UNL     1     -10.570  10.009  66.599  1.00  0.00     0.000 HD 
ENDROOT
BRANCH   5   8
HETATM    8 SI   UNL     1      -8.631  14.519  67.369  1.00  0.00    -0.139 Si 
HETATM    9  C   UNL     1      -7.345  15.856  67.113  1.00  0.00    -0.223 C  
HETATM   10  C   UNL     1      -9.402  14.673  69.071  1.00  0.00    -0.118 C  
BRANCH   8  11
HETATM   11  O   UNL     1      -9.829  14.642  66.203  1.00  0.00    -0.281 OA 
HETATM   12 SI   UNL     1     -11.056  13.688  65.559  1.00  0.00    -0.288 Si 
HETATM   13  C   UNL     1     -10.372  12.115  64.772  1.00  0.00    -0.288 C  
HETATM   14  C   UNL     1     -12.039  14.593  64.236  1.00  0.00    -0.415 C  
HETATM   15  C   UNL     1     -12.257  13.157  66.913  1.00  0.00    -0.222 C  
ENDBRANCH   8  11
ENDBRANCH   5   8
TORSDOF 2
ENDMDL
MODEL      211
REMARK 921   NORMALIZED FREE ENERGY PREDICTED BY IDOCK:   -2.69 KCAL/MOL
REMARK 922        TOTAL FREE ENERGY PREDICTED BY IDOCK:   -3.24 KCAL/MOL
REMARK 923 INTER-LIGAND FREE ENERGY PREDICTED BY IDOCK:   -2.98 KCAL/MOL
REMARK 924 INTRA-LIGAND FREE ENERGY PREDICTED BY IDOCK:   -0.25 KCAL/MOL
REMARK 927      BINDING AFFINITY PREDICTED BY RF-SCORE:    0.00 PKD
ROOT
HETATM    1  O   UNL     1     -10.457   8.592  66.467  1.00  0.00    -0.323 OA 
HETATM    2  H   UNL     1     -10.398   9.446  66.878  1.00  0.00     0.000 HD 
HETATM    3 SI   UNL     1     -11.306   7.656  67.238  1.00  0.00    -0.414 Si 
HETATM    4  C   UNL     1     -10.428   8.803  70.856  1.00  0.00    -0.221 C  
HETATM    5  O   UNL     1      -9.960   7.741  70.030  1.00  0.00    -0.184 OA 
HETATM    6  O   UNL     1     -11.396   6.333  66.603  1.00  0.00    -0.741 OA 
HETATM    7  H   UNL     1     -11.941   5.733  67.097  1.00  0.00     0.000 HD 
ENDROOT
BRANCH   5   8
HETATM    8 SI   UNL     1      -8.338   7.297  70.141  1.00  0.00    -0.114 Si 
HETATM    9  C   UNL     1      -7.292   8.840  70.320  1.00  0.00    -0.058 C  
HETATM   10  C   UNL     1      -7.843   6.350  68.599  1.00  0.00    -0.102 C  
BRANCH   8  11
HETATM   11  O   UNL     1      -8.145   6.313  71.483  1.00  0.00    -0.108 OA 
HETATM   12 SI   UNL     1      -8.879   6.072  72.978  1.00  0.00    -0.120 Si 
HETATM   13  C   UNL     1      -8.820   7.630  74.040  1.00  0.00    -0.252 C  
HETATM   14  C   UNL     1      -8.057   4.695  73.959  1.00  0.00    -0.101 C  
HETATM   15  C   UNL     1     -10.696   5.619  72.753  1.00  0.00    -0.242 C  
ENDBRANCH   8  11
ENDBRANCH   5   8
TORSDOF 2
ENDMDL
MODEL      212
REMARK 921   NORMALIZED FREE ENERGY PREDICTED BY IDOCK:   -2.68 KCAL/MOL
REMARK 922        TOTAL FREE ENERGY PREDICTED BY IDOCK:   -3.23 KCAL/MOL
REMARK 923 INTER-LIGAND FREE ENERGY PREDICTED BY IDOCK:   -3.08 KCAL/MOL
REMARK 924 INTRA-LIGAND FREE ENERGY PREDICTED BY IDOCK:   -0.15 KCAL/MOL
REMARK 927      BINDING AFFINITY PREDICTED BY RF-SCORE:    0.00 PKD
ROOT
HETATM    1  O   UNL     1     -12.426  14.401  67.991  1.00  0.00    -0.585 OA 
HETATM    2  H   UNL     1     -13.089  13.851  67.592  1.00  0.00     0.000 HD 
HETATM    3 SI   UNL     1     -11.631  15.142  66.986  1.00  0.00    -0.318 Si 
HETATM    4  C   UNL     1     -11.502  12.469  64.155  1.00  0.00    -0.385 C  
HETATM    5  O   UNL     1     -10.593  12.840  65.187  1.00  0.00    -0.287 OA 
HETATM    6  O   UNL     1     -10.605  15.994  67.604  1.00  0.00    -0.296 OA 
HETATM    7  H   UNL     1     -10.095  16.469  66.959  1.00  0.00     0.000 HD 
ENDROOT
BRANCH   5   8
HETATM    8 SI   UNL     1      -9.663  11.633  65.905  1.00  0.00    -0.194 Si 
HETATM    9  C   UNL     1     -10.762  10.578  66.993  1.00  0.00    -0.250 C  
HETATM   10  C   UNL     1      -8.298  12.418  66.923  1.00  0.00    -0.117 C  
BRANCH   8  11
HETATM   11  O   UNL     1      -8.982  10.695  64.694  1.00  0.00    -0.191 OA 
HETATM   12 SI   UNL     1      -7.850   9.457  64.552  1.00  0.00    -0.102 Si 
HETATM   13  C   UNL     1      -6.151   9.997  65.169  1.00  0.00    -0.107 C  
HETATM   14  C   UNL     1      -7.643   8.886  62.773  1.00  0.00    -0.109 C  
HETATM   15  C   UNL     1      -8.371   7.967  65.583  1.00  0.00    -0.141 C  
ENDBRANCH   8  11
ENDBRANCH   5   8
TORSDOF 2
ENDMDL
MODEL      213
REMARK 921   NORMALIZED FREE ENERGY PREDICTED BY IDOCK:   -2.68 KCAL/MOL
REMARK 922        TOTAL FREE ENERGY PREDICTED BY IDOCK:   -3.23 KCAL/MOL
REMARK 923 INTER-LIGAND FREE ENERGY PREDICTED BY IDOCK:   -3.04 KCAL/MOL
REMARK 924 INTRA-LIGAND FREE ENERGY PREDICTED BY IDOCK:   -0.19 KCAL/MOL
REMARK 927      BINDING AFFINITY PREDICTED BY RF-SCORE:    0.00 PKD
ROOT
HETATM    1  O   UNL     1     -10.942  11.267  69.928  1.00  0.00    -0.447 OA 
HETATM    2  H   UNL     1     -10.135  11.445  70.396  1.00  0.00     0.000 HD 
HETATM    3 SI   UNL     1     -11.900  10.480  70.737  1.00  0.00    -0.223 Si 
HETATM    4  C   UNL     1      -9.402   8.202  72.674  1.00  0.00    -0.272 C  
HETATM    5  O   UNL     1     -10.191   8.009  71.503  1.00  0.00    -0.186 OA 
HETATM    6  O   UNL     1     -13.148  10.204  70.012  1.00  0.00    -0.550 OA 
HETATM    7  H   UNL     1     -13.762   9.700  70.531  1.00  0.00     0.000 HD 
ENDROOT
BRANCH   5   8
HETATM    8 SI   UNL     1      -9.556   7.068  70.257  1.00  0.00    -0.158 Si 
HETATM    9  C   UNL     1     -10.491   5.448  70.175  1.00  0.00    -0.290 C  
HETATM   10  C   UNL     1      -7.735   6.755  70.578  1.00  0.00    -0.104 C  
BRANCH   8  11
HETATM   11  O   UNL     1      -9.730   7.906  68.816  1.00  0.00    -0.154 OA 
HETATM   12 SI   UNL     1      -9.067   7.893  67.269  1.00  0.00    -0.123 Si 
HETATM   13  C   UNL     1      -7.211   8.227  67.307  1.00  0.00    -0.084 C  
HETATM   14  C   UNL     1      -9.846   9.190  66.153  1.00  0.00    -0.293 C  
HETATM   15  C   UNL     1      -9.315   6.207  66.462  1.00  0.00    -0.153 C  
ENDBRANCH   8  11
ENDBRANCH   5   8
TORSDOF 2
ENDMDL
MODEL      214
REMARK 921   NORMALIZED FREE ENERGY PREDICTED BY IDOCK:   -2.68 KCAL/MOL
REMARK 922        TOTAL FREE ENERGY PREDICTED BY IDOCK:   -3.23 KCAL/MOL
REMARK 923 INTER-LIGAND FREE ENERGY PREDICTED BY IDOCK:   -2.97 KCAL/MOL
REMARK 924 INTRA-LIGAND FREE ENERGY PREDICTED BY IDOCK:   -0.25 KCAL/MOL
REMARK 927      BINDING AFFINITY PREDICTED BY RF-SCORE:    0.00 PKD
ROOT
HETATM    1  O   UNL     1      -6.967   9.550  68.002  1.00  0.00    -0.077 OA 
HETATM    2  H   UNL     1      -6.434   8.766  68.065  1.00  0.00     0.000 HD 
HETATM    3 SI   UNL     1      -7.505   9.969  69.316  1.00  0.00    -0.064 Si 
HETATM    4  C   UNL     1      -8.113   6.471  70.921  1.00  0.00    -0.123 C  
HETATM    5  O   UNL     1      -8.962   7.396  70.247  1.00  0.00    -0.146 OA 
HETATM    6  O   UNL     1      -8.330  11.181  69.219  1.00  0.00    -0.364 OA 
HETATM    7  H   UNL     1      -8.675  11.450  70.062  1.00  0.00     0.000 HD 
ENDROOT
BRANCH   5   8
HETATM    8 SI   UNL     1     -10.193   6.785  69.271  1.00  0.00    -0.155 Si 
HETATM    9  C   UNL     1      -9.857   4.977  68.921  1.00  0.00    -0.175 C  
HETATM   10  C   UNL     1     -10.259   7.758  67.669  1.00  0.00    -0.219 C  
BRANCH   8  11
HETATM   11  O   UNL     1     -11.649   6.953  70.083  1.00  0.00    -0.322 OA 
HETATM   12 SI   UNL     1     -12.304   7.913  71.300  1.00  0.00    -0.283 Si 
HETATM   13  C   UNL     1     -11.356   7.721  72.920  1.00  0.00    -0.349 C  
HETATM   14  C   UNL     1     -14.102   7.487  71.650  1.00  0.00    -0.440 C  
HETATM   15  C   UNL     1     -12.222   9.734  70.818  1.00  0.00    -0.256 C  
ENDBRANCH   8  11
ENDBRANCH   5   8
TORSDOF 2
ENDMDL
MODEL      215
REMARK 921   NORMALIZED FREE ENERGY PREDICTED BY IDOCK:   -2.67 KCAL/MOL
REMARK 922        TOTAL FREE ENERGY PREDICTED BY IDOCK:   -3.22 KCAL/MOL
REMARK 923 INTER-LIGAND FREE ENERGY PREDICTED BY IDOCK:   -3.07 KCAL/MOL
REMARK 924 INTRA-LIGAND FREE ENERGY PREDICTED BY IDOCK:   -0.15 KCAL/MOL
REMARK 927      BINDING AFFINITY PREDICTED BY RF-SCORE:    0.00 PKD
ROOT
HETATM    1  O   UNL     1      -6.167  11.593  66.110  1.00  0.00    -0.426 OA 
HETATM    2  H   UNL     1      -6.568  12.227  66.693  1.00  0.00     0.000 HD 
HETATM    3 SI   UNL     1      -7.059  11.218  64.990  1.00  0.00    -0.340 Si 
HETATM    4  C   UNL     1     -10.495  11.331  66.824  1.00  0.00    -0.248 C  
HETATM    5  O   UNL     1      -9.597  10.273  66.499  1.00  0.00    -0.169 OA 
HETATM    6  O   UNL     1      -6.439  10.237  64.088  1.00  0.00    -0.185 OA 
HETATM    7  H   UNL     1      -7.011   9.996  63.370  1.00  0.00     0.000 HD 
ENDROOT
BRANCH   5   8
HETATM    8 SI   UNL     1      -9.442   8.995  67.587  1.00  0.00    -0.131 Si 
HETATM    9  C   UNL     1      -7.699   8.982  68.272  1.00  0.00    -0.095 C  
HETATM   10  C   UNL     1      -9.809   7.379  66.708  1.00  0.00    -0.220 C  
BRANCH   8  11
HETATM   11  O   UNL     1     -10.546   9.215  68.828  1.00  0.00    -0.218 OA 
HETATM   12 SI   UNL     1     -10.812   8.641  70.387  1.00  0.00    -0.199 Si 
HETATM   13  C   UNL     1     -11.078   6.773  70.403  1.00  0.00    -0.308 C  
HETATM   14  C   UNL     1     -12.321   9.428  71.186  1.00  0.00    -0.308 C  
HETATM   15  C   UNL     1      -9.321   9.001  71.484  1.00  0.00    -0.224 C  
ENDBRANCH   8  11
ENDBRANCH   5   8
TORSDOF 2
ENDMDL
MODEL      216
REMARK 921   NORMALIZED FREE ENERGY PREDICTED BY IDOCK:   -2.67 KCAL/MOL
REMARK 922        TOTAL FREE ENERGY PREDICTED BY IDOCK:   -3.22 KCAL/MOL
REMARK 923 INTER-LIGAND FREE ENERGY PREDICTED BY IDOCK:   -3.01 KCAL/MOL
REMARK 924 INTRA-LIGAND FREE ENERGY PREDICTED BY IDOCK:   -0.21 KCAL/MOL
REMARK 927      BINDING AFFINITY PREDICTED BY RF-SCORE:    0.00 PKD
ROOT
HETATM    1  O   UNL     1     -10.857  11.141  70.146  1.00  0.00    -0.457 OA 
HETATM    2  H   UNL     1     -10.748  10.810  71.029  1.00  0.00     0.000 HD 
HETATM    3 SI   UNL     1     -11.942  10.448  69.417  1.00  0.00    -0.239 Si 
HETATM    4  C   UNL     1     -11.518   6.857  70.868  1.00  0.00    -0.323 C  
HETATM    5  O   UNL     1     -11.073   7.482  69.667  1.00  0.00    -0.198 OA 
HETATM    6  O   UNL     1     -12.111  10.960  68.049  1.00  0.00    -0.780 OA 
HETATM    7  H   UNL     1     -12.808  10.515  67.581  1.00  0.00     0.000 HD 
ENDROOT
BRANCH   5   8
HETATM    8 SI   UNL     1      -9.569   7.043  69.047  1.00  0.00    -0.140 Si 
HETATM    9  C   UNL     1      -8.586   6.173  70.382  1.00  0.00    -0.134 C  
HETATM   10  C   UNL     1      -8.661   8.578  68.464  1.00  0.00    -0.139 C  
BRANCH   8  11
HETATM   11  O   UNL     1      -9.809   6.014  67.746  1.00  0.00    -0.112 OA 
HETATM   12 SI   UNL     1      -8.880   5.116  66.668  1.00  0.00    -0.113 Si 
HETATM   13  C   UNL     1      -7.731   6.219  65.657  1.00  0.00    -0.093 C  
HETATM   14  C   UNL     1      -9.939   4.149  65.453  1.00  0.00    -0.205 C  
HETATM   15  C   UNL     1      -7.796   3.886  67.600  1.00  0.00    -0.082 C  
ENDBRANCH   8  11
ENDBRANCH   5   8
TORSDOF 2
ENDMDL
MODEL      217
REMARK 921   NORMALIZED FREE ENERGY PREDICTED BY IDOCK:   -2.67 KCAL/MOL
REMARK 922        TOTAL FREE ENERGY PREDICTED BY IDOCK:   -3.22 KCAL/MOL
REMARK 923 INTER-LIGAND FREE ENERGY PREDICTED BY IDOCK:   -3.04 KCAL/MOL
REMARK 924 INTRA-LIGAND FREE ENERGY PREDICTED BY IDOCK:   -0.18 KCAL/MOL
REMARK 927      BINDING AFFINITY PREDICTED BY RF-SCORE:    0.00 PKD
ROOT
HETATM    1  O   UNL     1     -11.233  16.238  70.428  1.00  0.00    -0.373 OA 
HETATM    2  H   UNL     1     -10.588  16.933  70.487  1.00  0.00     0.000 HD 
HETATM    3 SI   UNL     1     -10.748  14.970  71.019  1.00  0.00    -0.271 Si 
HETATM    4  C   UNL     1      -6.986  15.186  70.028  1.00  0.00    -0.082 C  
HETATM    5  O   UNL     1      -8.108  14.521  69.455  1.00  0.00     0.018 OA 
HETATM    6  O   UNL     1     -11.745  13.894  70.927  1.00  0.00    -0.514 OA 
HETATM    7  H   UNL     1     -11.434  13.081  71.306  1.00  0.00     0.000 HD 
ENDROOT
BRANCH   5   8
HETATM    8 SI   UNL     1      -8.193  14.398  67.776  1.00  0.00    -0.119 Si 
HETATM    9  C   UNL     1      -7.124  12.968  67.212  1.00  0.00    -0.044 C  
HETATM   10  C   UNL     1      -7.601  16.000  67.002  1.00  0.00    -0.230 C  
BRANCH   8  11
HETATM   11  O   UNL     1      -9.789  14.128  67.343  1.00  0.00    -0.233 OA 
HETATM   12 SI   UNL     1     -10.767  14.302  65.984  1.00  0.00    -0.277 Si 
HETATM   13  C   UNL     1     -10.856  16.100  65.419  1.00  0.00    -0.307 C  
HETATM   14  C   UNL     1     -12.529  13.727  66.300  1.00  0.00    -0.391 C  
HETATM   15  C   UNL     1     -10.078  13.298  64.545  1.00  0.00    -0.216 C  
ENDBRANCH   8  11
ENDBRANCH   5   8
TORSDOF 2
ENDMDL
MODEL      218
REMARK 921   NORMALIZED FREE ENERGY PREDICTED BY IDOCK:   -2.67 KCAL/MOL
REMARK 922        TOTAL FREE ENERGY PREDICTED BY IDOCK:   -3.21 KCAL/MOL
REMARK 923 INTER-LIGAND FREE ENERGY PREDICTED BY IDOCK:   -3.02 KCAL/MOL
REMARK 924 INTRA-LIGAND FREE ENERGY PREDICTED BY IDOCK:   -0.19 KCAL/MOL
REMARK 927      BINDING AFFINITY PREDICTED BY RF-SCORE:    0.00 PKD
ROOT
HETATM    1  O   UNL     1     -10.783   7.376  66.541  1.00  0.00    -0.478 OA 
HETATM    2  H   UNL     1     -11.530   7.858  66.875  1.00  0.00     0.000 HD 
HETATM    3 SI   UNL     1      -9.640   7.391  67.481  1.00  0.00    -0.130 Si 
HETATM    4  C   UNL     1     -10.038  10.980  68.942  1.00  0.00    -0.199 C  
HETATM    5  O   UNL     1      -9.220  10.433  67.912  1.00  0.00    -0.137 OA 
HETATM    6  O   UNL     1      -8.483   6.645  66.964  1.00  0.00    -0.112 OA 
HETATM    7  H   UNL     1      -7.750   6.654  67.566  1.00  0.00     0.000 HD 
ENDROOT
BRANCH   5   8
HETATM    8 SI   UNL     1      -8.890  11.385  66.561  1.00  0.00    -0.147 Si 
HETATM    9  C   UNL     1      -7.780  10.430  65.395  1.00  0.00    -0.136 C  
HETATM   10  C   UNL     1      -8.051  12.972  67.106  1.00  0.00    -0.107 C  
BRANCH   8  11
HETATM   11  O   UNL     1     -10.338  11.755  65.803  1.00  0.00    -0.236 OA 
HETATM   12 SI   UNL     1     -11.369  13.076  65.642  1.00  0.00    -0.283 Si 
HETATM   13  C   UNL     1     -12.030  13.648  67.314  1.00  0.00    -0.381 C  
HETATM   14  C   UNL     1     -12.854  12.688  64.556  1.00  0.00    -0.270 C  
HETATM   15  C   UNL     1     -10.453  14.535  64.875  1.00  0.00    -0.409 C  
ENDBRANCH   8  11
ENDBRANCH   5   8
TORSDOF 2
ENDMDL
MODEL      219
REMARK 921   NORMALIZED FREE ENERGY PREDICTED BY IDOCK:   -2.66 KCAL/MOL
REMARK 922        TOTAL FREE ENERGY PREDICTED BY IDOCK:   -3.21 KCAL/MOL
REMARK 923 INTER-LIGAND FREE ENERGY PREDICTED BY IDOCK:   -3.02 KCAL/MOL
REMARK 924 INTRA-LIGAND FREE ENERGY PREDICTED BY IDOCK:   -0.19 KCAL/MOL
REMARK 927      BINDING AFFINITY PREDICTED BY RF-SCORE:    0.00 PKD
ROOT
HETATM    1  O   UNL     1     -11.599   4.653  65.251  1.00  0.00    -1.093 OA 
HETATM    2  H   UNL     1     -11.752   4.547  66.183  1.00  0.00     0.000 HD 
HETATM    3 SI   UNL     1     -10.212   4.311  64.867  1.00  0.00    -0.161 Si 
HETATM    4  C   UNL     1      -8.324   5.593  68.026  1.00  0.00    -0.100 C  
HETATM    5  O   UNL     1      -8.569   6.157  66.741  1.00  0.00    -0.109 OA 
HETATM    6  O   UNL     1      -9.975   4.476  63.426  1.00  0.00    -0.371 OA 
HETATM    7  H   UNL     1      -9.084   4.256  63.180  1.00  0.00     0.000 HD 
ENDROOT
BRANCH   5   8
HETATM    8 SI   UNL     1      -8.821   7.820  66.632  1.00  0.00    -0.113 Si 
HETATM    9  C   UNL     1     -10.647   8.178  66.837  1.00  0.00    -0.241 C  
HETATM   10  C   UNL     1      -8.218   8.436  64.967  1.00  0.00    -0.153 C  
BRANCH   8  11
HETATM   11  O   UNL     1      -7.948   8.571  67.851  1.00  0.00    -0.106 OA 
HETATM   12 SI   UNL     1      -8.232   9.627  69.130  1.00  0.00    -0.089 Si 
HETATM   13  C   UNL     1      -8.922  11.276  68.528  1.00  0.00    -0.166 C  
HETATM   14  C   UNL     1      -6.668   9.997  70.105  1.00  0.00    -0.128 C  
HETATM   15  C   UNL     1      -9.498   8.893  70.320  1.00  0.00    -0.187 C  
ENDBRANCH   8  11
ENDBRANCH   5   8
TORSDOF 2
ENDMDL
MODEL      220
REMARK 921   NORMALIZED FREE ENERGY PREDICTED BY IDOCK:   -2.66 KCAL/MOL
REMARK 922        TOTAL FREE ENERGY PREDICTED BY IDOCK:   -3.21 KCAL/MOL
REMARK 923 INTER-LIGAND FREE ENERGY PREDICTED BY IDOCK:   -3.00 KCAL/MOL
REMARK 924 INTRA-LIGAND FREE ENERGY PREDICTED BY IDOCK:   -0.20 KCAL/MOL
REMARK 927      BINDING AFFINITY PREDICTED BY RF-SCORE:    0.00 PKD
ROOT
HETATM    1  O   UNL     1     -11.540  13.462  70.450  1.00  0.00    -0.520 OA 
HETATM    2  H   UNL     1     -11.719  12.647  69.996  1.00  0.00     0.000 HD 
HETATM    3 SI   UNL     1     -12.430  14.559  70.008  1.00  0.00    -0.270 Si 
HETATM    4  C   UNL     1     -12.772  13.645  66.236  1.00  0.00    -0.167 C  
HETATM    5  O   UNL     1     -11.947  14.564  66.946  1.00  0.00    -0.403 OA 
HETATM    6  O   UNL     1     -12.151  15.820  70.710  1.00  0.00    -0.375 OA 
HETATM    7  H   UNL     1     -12.722  16.524  70.427  1.00  0.00     0.000 HD 
ENDROOT
BRANCH   5   8
HETATM    8 SI   UNL     1     -10.375  14.818  66.393  1.00  0.00    -0.256 Si 
HETATM    9  C   UNL     1     -10.348  16.338  65.299  1.00  0.00    -0.219 C  
HETATM   10  C   UNL     1      -9.800  13.313  65.432  1.00  0.00    -0.108 C  
BRANCH   8  11
HETATM   11  O   UNL     1      -9.375  15.046  67.718  1.00  0.00    -0.184 OA 
HETATM   12 SI   UNL     1      -7.726  15.138  68.045  1.00  0.00    -0.104 Si 
HETATM   13  C   UNL     1      -6.834  13.545  67.572  1.00  0.00    -0.143 C  
HETATM   14  C   UNL     1      -7.381  15.453  69.866  1.00  0.00    -0.041 C  
HETATM   15  C   UNL     1      -6.937  16.535  67.054  1.00  0.00    -0.215 C  
ENDBRANCH   8  11
ENDBRANCH   5   8
TORSDOF 2
ENDMDL
MODEL      221
REMARK 921   NORMALIZED FREE ENERGY PREDICTED BY IDOCK:   -2.66 KCAL/MOL
REMARK 922        TOTAL FREE ENERGY PREDICTED BY IDOCK:   -3.21 KCAL/MOL
REMARK 923 INTER-LIGAND FREE ENERGY PREDICTED BY IDOCK:   -3.01 KCAL/MOL
REMARK 924 INTRA-LIGAND FREE ENERGY PREDICTED BY IDOCK:   -0.19 KCAL/MOL
REMARK 927      BINDING AFFINITY PREDICTED BY RF-SCORE:    0.00 PKD
ROOT
HETATM    1  O   UNL     1     -11.172  17.609  68.526  1.00  0.00    -0.110 OA 
HETATM    2  H   UNL     1     -10.412  18.113  68.257  1.00  0.00     0.000 HD 
HETATM    3 SI   UNL     1     -10.954  16.904  69.808  1.00  0.00    -0.273 Si 
HETATM    4  C   UNL     1      -7.181  16.010  69.430  1.00  0.00    -0.213 C  
HETATM    5  O   UNL     1      -8.383  15.280  69.202  1.00  0.00    -0.200 OA 
HETATM    6  O   UNL     1     -12.129  16.124  70.223  1.00  0.00    -0.393 OA 
HETATM    7  H   UNL     1     -11.989  15.672  71.046  1.00  0.00     0.000 HD 
ENDROOT
BRANCH   5   8
HETATM    8 SI   UNL     1      -8.422  14.184  67.923  1.00  0.00    -0.126 Si 
HETATM    9  C   UNL     1      -6.685  13.570  67.589  1.00  0.00    -0.167 C  
HETATM   10  C   UNL     1      -9.120  15.027  66.400  1.00  0.00    -0.277 C  
BRANCH   8  11
HETATM   11  O   UNL     1      -9.413  12.901  68.350  1.00  0.00    -0.215 OA 
HETATM   12 SI   UNL     1     -10.472  11.830  67.601  1.00  0.00    -0.180 Si 
HETATM   13  C   UNL     1     -11.905  12.736  66.773  1.00  0.00    -0.382 C  
HETATM   14  C   UNL     1     -11.214  10.601  68.815  1.00  0.00    -0.279 C  
HETATM   15  C   UNL     1      -9.579  10.852  66.259  1.00  0.00    -0.200 C  
ENDBRANCH   8  11
ENDBRANCH   5   8
TORSDOF 2
ENDMDL
MODEL      222
REMARK 921   NORMALIZED FREE ENERGY PREDICTED BY IDOCK:   -2.65 KCAL/MOL
REMARK 922        TOTAL FREE ENERGY PREDICTED BY IDOCK:   -3.20 KCAL/MOL
REMARK 923 INTER-LIGAND FREE ENERGY PREDICTED BY IDOCK:   -2.95 KCAL/MOL
REMARK 924 INTRA-LIGAND FREE ENERGY PREDICTED BY IDOCK:   -0.25 KCAL/MOL
REMARK 927      BINDING AFFINITY PREDICTED BY RF-SCORE:    0.00 PKD
ROOT
HETATM    1  O   UNL     1     -11.909   9.241  69.999  1.00  0.00    -0.464 OA 
HETATM    2  H   UNL     1     -11.110   9.748  70.082  1.00  0.00     0.000 HD 
HETATM    3 SI   UNL     1     -11.829   7.946  70.711  1.00  0.00    -0.274 Si 
HETATM    4  C   UNL     1      -8.077   7.094  70.101  1.00  0.00    -0.130 C  
HETATM    5  O   UNL     1      -9.284   6.696  69.457  1.00  0.00    -0.143 OA 
HETATM    6  O   UNL     1     -13.066   7.162  70.583  1.00  0.00    -0.582 OA 
HETATM    7  H   UNL     1     -13.015   6.332  71.040  1.00  0.00     0.000 HD 
ENDROOT
BRANCH   5   8
HETATM    8 SI   UNL     1      -9.259   6.458  67.788  1.00  0.00    -0.118 Si 
HETATM    9  C   UNL     1     -11.012   6.527  67.134  1.00  0.00    -0.408 C  
HETATM   10  C   UNL     1      -8.486   4.792  67.407  1.00  0.00    -0.104 C  
BRANCH   8  11
HETATM   11  O   UNL     1      -8.337   7.671  67.091  1.00  0.00    -0.118 OA 
HETATM   12 SI   UNL     1      -8.468   9.316  66.762  1.00  0.00    -0.113 Si 
HETATM   13  C   UNL     1      -9.920   9.680  65.614  1.00  0.00    -0.251 C  
HETATM   14  C   UNL     1      -6.921  10.002  65.942  1.00  0.00    -0.113 C  
HETATM   15  C   UNL     1      -8.759  10.283  68.354  1.00  0.00    -0.129 C  
ENDBRANCH   8  11
ENDBRANCH   5   8
TORSDOF 2
ENDMDL
MODEL      223
REMARK 921   NORMALIZED FREE ENERGY PREDICTED BY IDOCK:   -2.65 KCAL/MOL
REMARK 922        TOTAL FREE ENERGY PREDICTED BY IDOCK:   -3.20 KCAL/MOL
REMARK 923 INTER-LIGAND FREE ENERGY PREDICTED BY IDOCK:   -2.98 KCAL/MOL
REMARK 924 INTRA-LIGAND FREE ENERGY PREDICTED BY IDOCK:   -0.22 KCAL/MOL
REMARK 927      BINDING AFFINITY PREDICTED BY RF-SCORE:    0.00 PKD
ROOT
HETATM    1  O   UNL     1      -8.660   6.911  64.120  1.00  0.00    -0.335 OA 
HETATM    2  H   UNL     1      -8.031   6.494  64.697  1.00  0.00     0.000 HD 
HETATM    3 SI   UNL     1      -8.223   8.260  63.694  1.00  0.00    -0.125 Si 
HETATM    4  C   UNL     1      -6.430   9.426  66.951  1.00  0.00    -0.067 C  
HETATM    5  O   UNL     1      -7.734   9.652  66.422  1.00  0.00    -0.100 OA 
HETATM    6  O   UNL     1      -9.197   8.906  62.803  1.00  0.00    -0.482 OA 
HETATM    7  H   UNL     1      -8.916   9.771  62.530  1.00  0.00     0.000 HD 
ENDROOT
BRANCH   5   8
HETATM    8 SI   UNL     1      -9.026   9.761  67.498  1.00  0.00    -0.123 Si 
HETATM    9  C   UNL     1      -8.401  10.404  69.141  1.00  0.00    -0.158 C  
HETATM   10  C   UNL     1      -9.804   8.068  67.713  1.00  0.00    -0.165 C  
BRANCH   8  11
HETATM   11  O   UNL     1     -10.161  10.816  66.861  1.00  0.00    -0.210 OA 
HETATM   12 SI   UNL     1     -10.827  12.317  67.233  1.00  0.00    -0.211 Si 
HETATM   13  C   UNL     1     -11.701  12.293  68.905  1.00  0.00    -0.328 C  
HETATM   14  C   UNL     1     -12.086  12.871  65.951  1.00  0.00    -0.444 C  
HETATM   15  C   UNL     1      -9.478  13.630  67.327  1.00  0.00    -0.230 C  
ENDBRANCH   8  11
ENDBRANCH   5   8
TORSDOF 2
ENDMDL
MODEL      224
REMARK 921   NORMALIZED FREE ENERGY PREDICTED BY IDOCK:   -2.65 KCAL/MOL
REMARK 922        TOTAL FREE ENERGY PREDICTED BY IDOCK:   -3.19 KCAL/MOL
REMARK 923 INTER-LIGAND FREE ENERGY PREDICTED BY IDOCK:   -2.97 KCAL/MOL
REMARK 924 INTRA-LIGAND FREE ENERGY PREDICTED BY IDOCK:   -0.23 KCAL/MOL
REMARK 927      BINDING AFFINITY PREDICTED BY RF-SCORE:    0.00 PKD
ROOT
HETATM    1  O   UNL     1      -6.198   9.098  70.177  1.00  0.00    -0.039 OA 
HETATM    2  H   UNL     1      -6.087   8.240  70.569  1.00  0.00     0.000 HD 
HETATM    3 SI   UNL     1      -6.609  10.118  71.167  1.00  0.00    -0.094 Si 
HETATM    4  C   UNL     1      -8.884   7.933  73.454  1.00  0.00    -0.263 C  
HETATM    5  O   UNL     1      -9.155   8.828  72.379  1.00  0.00    -0.366 OA 
HETATM    6  O   UNL     1      -6.782  11.446  70.562  1.00  0.00    -0.488 OA 
HETATM    7  H   UNL     1      -7.045  12.101  71.197  1.00  0.00     0.000 HD 
ENDROOT
BRANCH   5   8
HETATM    8 SI   UNL     1     -10.430   8.466  71.339  1.00  0.00    -0.184 Si 
HETATM    9  C   UNL     1     -10.350   9.602  69.853  1.00  0.00    -0.249 C  
HETATM   10  C   UNL     1     -12.057   8.690  72.245  1.00  0.00    -0.373 C  
BRANCH   8  11
HETATM   11  O   UNL     1     -10.282   6.870  70.851  1.00  0.00    -0.197 OA 
HETATM   12 SI   UNL     1      -9.854   6.016  69.465  1.00  0.00    -0.139 Si 
HETATM   13  C   UNL     1     -11.006   6.411  68.024  1.00  0.00    -0.311 C  
HETATM   14  C   UNL     1      -9.910   4.156  69.732  1.00  0.00    -0.150 C  
HETATM   15  C   UNL     1      -8.107   6.473  68.924  1.00  0.00    -0.115 C  
ENDBRANCH   8  11
ENDBRANCH   5   8
TORSDOF 2
ENDMDL
MODEL      225
REMARK 921   NORMALIZED FREE ENERGY PREDICTED BY IDOCK:   -2.64 KCAL/MOL
REMARK 922        TOTAL FREE ENERGY PREDICTED BY IDOCK:   -3.18 KCAL/MOL
REMARK 923 INTER-LIGAND FREE ENERGY PREDICTED BY IDOCK:   -2.94 KCAL/MOL
REMARK 924 INTRA-LIGAND FREE ENERGY PREDICTED BY IDOCK:   -0.24 KCAL/MOL
REMARK 927      BINDING AFFINITY PREDICTED BY RF-SCORE:    0.00 PKD
ROOT
HETATM    1  O   UNL     1      -8.364  13.554  68.743  1.00  0.00    -0.324 OA 
HETATM    2  H   UNL     1      -8.892  13.737  69.511  1.00  0.00     0.000 HD 
HETATM    3 SI   UNL     1      -9.110  12.789  67.718  1.00  0.00    -0.152 Si 
HETATM    4  C   UNL     1     -11.287  10.539  70.037  1.00  0.00    -0.318 C  
HETATM    5  O   UNL     1     -10.061  10.325  69.343  1.00  0.00    -0.212 OA 
HETATM    6  O   UNL     1      -8.293  12.505  66.530  1.00  0.00    -0.405 OA 
HETATM    7  H   UNL     1      -8.772  12.015  65.873  1.00  0.00     0.000 HD 
ENDROOT
BRANCH   5   8
HETATM    8 SI   UNL     1      -8.889   9.356  70.069  1.00  0.00    -0.114 Si 
HETATM    9  C   UNL     1      -9.433   8.940  71.812  1.00  0.00    -0.264 C  
HETATM   10  C   UNL     1      -7.252  10.270  70.097  1.00  0.00    -0.129 C  
BRANCH   8  11
HETATM   11  O   UNL     1      -8.726   7.952  69.167  1.00  0.00    -0.137 OA 
HETATM   12 SI   UNL     1      -9.717   6.854  68.366  1.00  0.00    -0.135 Si 
HETATM   13  C   UNL     1     -10.930   6.022  69.548  1.00  0.00    -0.397 C  
HETATM   14  C   UNL     1      -8.731   5.491  67.526  1.00  0.00    -0.107 C  
HETATM   15  C   UNL     1     -10.738   7.730  67.045  1.00  0.00    -0.246 C  
ENDBRANCH   8  11
ENDBRANCH   5   8
TORSDOF 2
ENDMDL
MODEL      226
REMARK 921   NORMALIZED FREE ENERGY PREDICTED BY IDOCK:   -2.63 KCAL/MOL
REMARK 922        TOTAL FREE ENERGY PREDICTED BY IDOCK:   -3.18 KCAL/MOL
REMARK 923 INTER-LIGAND FREE ENERGY PREDICTED BY IDOCK:   -3.19 KCAL/MOL
REMARK 924 INTRA-LIGAND FREE ENERGY PREDICTED BY IDOCK:    0.01 KCAL/MOL
REMARK 927      BINDING AFFINITY PREDICTED BY RF-SCORE:    0.00 PKD
ROOT
HETATM    1  O   UNL     1     -11.160  19.120  67.787  1.00  0.00    -0.301 OA 
HETATM    2  H   UNL     1     -11.974  18.631  67.802  1.00  0.00     0.000 HD 
HETATM    3 SI   UNL     1     -10.388  18.886  66.546  1.00  0.00    -0.291 Si 
HETATM    4  C   UNL     1     -11.234  15.131  65.947  1.00  0.00    -0.280 C  
HETATM    5  O   UNL     1     -10.125  15.797  66.544  1.00  0.00    -0.260 OA 
HETATM    6  O   UNL     1      -9.128  19.643  66.522  1.00  0.00    -0.337 OA 
HETATM    7  H   UNL     1      -8.632  19.492  65.727  1.00  0.00     0.000 HD 
ENDROOT
BRANCH   5   8
HETATM    8 SI   UNL     1      -9.368  15.066  67.861  1.00  0.00    -0.171 Si 
HETATM    9  C   UNL     1      -9.273  16.293  69.271  1.00  0.00    -0.192 C  
HETATM   10  C   UNL     1      -7.647  14.510  67.362  1.00  0.00    -0.184 C  
BRANCH   8  11
HETATM   11  O   UNL     1     -10.271  13.731  68.321  1.00  0.00    -0.232 OA 
HETATM   12 SI   UNL     1     -10.360  12.090  67.955  1.00  0.00    -0.169 Si 
HETATM   13  C   UNL     1     -10.760  11.806  66.133  1.00  0.00    -0.277 C  
HETATM   14  C   UNL     1     -11.683  11.211  68.962  1.00  0.00    -0.339 C  
HETATM   15  C   UNL     1      -8.710  11.248  68.303  1.00  0.00    -0.158 C  
ENDBRANCH   8  11
ENDBRANCH   5   8
TORSDOF 2
ENDMDL
MODEL      227
REMARK 921   NORMALIZED FREE ENERGY PREDICTED BY IDOCK:   -2.63 KCAL/MOL
REMARK 922        TOTAL FREE ENERGY PREDICTED BY IDOCK:   -3.18 KCAL/MOL
REMARK 923 INTER-LIGAND FREE ENERGY PREDICTED BY IDOCK:   -3.04 KCAL/MOL
REMARK 924 INTRA-LIGAND FREE ENERGY PREDICTED BY IDOCK:   -0.14 KCAL/MOL
REMARK 927      BINDING AFFINITY PREDICTED BY RF-SCORE:    0.00 PKD
ROOT
HETATM    1  O   UNL     1      -9.701  17.920  66.695  1.00  0.00    -0.292 OA 
HETATM    2  H   UNL     1      -8.975  17.682  66.130  1.00  0.00     0.000 HD 
HETATM    3 SI   UNL     1      -9.496  17.475  68.091  1.00  0.00    -0.237 Si 
HETATM    4  C   UNL     1      -7.636  14.114  67.440  1.00  0.00    -0.158 C  
HETATM    5  O   UNL     1      -8.996  14.438  67.715  1.00  0.00    -0.179 OA 
HETATM    6  O   UNL     1     -10.620  17.843  68.965  1.00  0.00    -0.393 OA 
HETATM    7  H   UNL     1     -10.488  17.557  69.861  1.00  0.00     0.000 HD 
ENDROOT
BRANCH   5   8
HETATM    8 SI   UNL     1     -10.201  13.523  66.973  1.00  0.00    -0.227 Si 
HETATM    9  C   UNL     1     -10.639  14.306  65.329  1.00  0.00    -0.381 C  
HETATM   10  C   UNL     1     -11.709  13.457  68.086  1.00  0.00    -0.362 C  
BRANCH   8  11
HETATM   11  O   UNL     1      -9.619  11.970  66.733  1.00  0.00    -0.198 OA 
HETATM   12 SI   UNL     1      -9.364  10.572  67.635  1.00  0.00    -0.139 Si 
HETATM   13  C   UNL     1      -8.153  10.871  69.051  1.00  0.00    -0.126 C  
HETATM   14  C   UNL     1      -8.671   9.171  66.592  1.00  0.00    -0.127 C  
HETATM   15  C   UNL     1     -10.983   9.980  68.401  1.00  0.00    -0.217 C  
ENDBRANCH   8  11
ENDBRANCH   5   8
TORSDOF 2
ENDMDL
MODEL      228
REMARK 921   NORMALIZED FREE ENERGY PREDICTED BY IDOCK:   -2.63 KCAL/MOL
REMARK 922        TOTAL FREE ENERGY PREDICTED BY IDOCK:   -3.17 KCAL/MOL
REMARK 923 INTER-LIGAND FREE ENERGY PREDICTED BY IDOCK:   -3.00 KCAL/MOL
REMARK 924 INTRA-LIGAND FREE ENERGY PREDICTED BY IDOCK:   -0.17 KCAL/MOL
REMARK 927      BINDING AFFINITY PREDICTED BY RF-SCORE:    0.00 PKD
ROOT
HETATM    1  O   UNL     1     -10.384   8.140  67.890  1.00  0.00    -0.210 OA 
HETATM    2  H   UNL     1     -10.567   8.850  68.493  1.00  0.00     0.000 HD 
HETATM    3 SI   UNL     1     -11.524   7.205  67.759  1.00  0.00    -0.400 Si 
HETATM    4  C   UNL     1     -12.870   7.298  71.414  1.00  0.00    -0.382 C  
HETATM    5  O   UNL     1     -12.017   6.398  70.711  1.00  0.00    -0.338 OA 
HETATM    6  O   UNL     1     -11.240   6.106  66.826  1.00  0.00    -0.664 OA 
HETATM    7  H   UNL     1     -11.971   5.506  66.742  1.00  0.00     0.000 HD 
ENDROOT
BRANCH   5   8
HETATM    8 SI   UNL     1     -10.752   5.673  71.556  1.00  0.00    -0.196 Si 
HETATM    9  C   UNL     1      -9.968   4.360  70.475  1.00  0.00    -0.185 C  
HETATM   10  C   UNL     1     -11.412   4.908  73.136  1.00  0.00    -0.278 C  
BRANCH   8  11
HETATM   11  O   UNL     1      -9.623   6.851  71.939  1.00  0.00    -0.156 OA 
HETATM   12 SI   UNL     1      -8.049   6.937  72.527  1.00  0.00    -0.097 Si 
HETATM   13  C   UNL     1      -7.905   6.159  74.240  1.00  0.00    -0.098 C  
HETATM   14  C   UNL     1      -7.439   8.710  72.665  1.00  0.00     0.068 C  
HETATM   15  C   UNL     1      -6.870   6.004  71.390  1.00  0.00    -0.067 C  
ENDBRANCH   8  11
ENDBRANCH   5   8
TORSDOF 2
ENDMDL
MODEL      229
REMARK 921   NORMALIZED FREE ENERGY PREDICTED BY IDOCK:   -2.63 KCAL/MOL
REMARK 922        TOTAL FREE ENERGY PREDICTED BY IDOCK:   -3.17 KCAL/MOL
REMARK 923 INTER-LIGAND FREE ENERGY PREDICTED BY IDOCK:   -2.97 KCAL/MOL
REMARK 924 INTRA-LIGAND FREE ENERGY PREDICTED BY IDOCK:   -0.20 KCAL/MOL
REMARK 927      BINDING AFFINITY PREDICTED BY RF-SCORE:    0.00 PKD
ROOT
HETATM    1  O   UNL     1      -6.309   9.216  69.961  1.00  0.00    -0.036 OA 
HETATM    2  H   UNL     1      -6.332   8.322  70.282  1.00  0.00     0.000 HD 
HETATM    3 SI   UNL     1      -6.713  10.195  70.995  1.00  0.00    -0.100 Si 
HETATM    4  C   UNL     1      -9.438   8.110  72.842  1.00  0.00    -0.275 C  
HETATM    5  O   UNL     1      -9.496   9.113  71.831  1.00  0.00    -0.332 OA 
HETATM    6  O   UNL     1      -6.679  11.578  70.498  1.00  0.00    -0.477 OA 
HETATM    7  H   UNL     1      -6.938  12.206  71.161  1.00  0.00     0.000 HD 
ENDROOT
BRANCH   5   8
HETATM    8 SI   UNL     1     -10.684   8.982  70.643  1.00  0.00    -0.189 Si 
HETATM    9  C   UNL     1     -11.709  10.549  70.628  1.00  0.00    -0.357 C  
HETATM   10  C   UNL     1     -11.769   7.496  71.006  1.00  0.00    -0.292 C  
BRANCH   8  11
HETATM   11  O   UNL     1      -9.933   8.772  69.160  1.00  0.00    -0.181 OA 
HETATM   12 SI   UNL     1      -9.490   7.504  68.146  1.00  0.00    -0.138 Si 
HETATM   13  C   UNL     1      -8.279   6.330  68.991  1.00  0.00    -0.114 C  
HETATM   14  C   UNL     1      -8.671   8.111  66.566  1.00  0.00    -0.143 C  
HETATM   15  C   UNL     1     -11.005   6.490  67.661  1.00  0.00    -0.337 C  
ENDBRANCH   8  11
ENDBRANCH   5   8
TORSDOF 2
ENDMDL
MODEL      230
REMARK 921   NORMALIZED FREE ENERGY PREDICTED BY IDOCK:   -2.62 KCAL/MOL
REMARK 922        TOTAL FREE ENERGY PREDICTED BY IDOCK:   -3.17 KCAL/MOL
REMARK 923 INTER-LIGAND FREE ENERGY PREDICTED BY IDOCK:   -2.92 KCAL/MOL
REMARK 924 INTRA-LIGAND FREE ENERGY PREDICTED BY IDOCK:   -0.25 KCAL/MOL
REMARK 927      BINDING AFFINITY PREDICTED BY RF-SCORE:    0.00 PKD
ROOT
HETATM    1  O   UNL     1      -7.299  10.394  70.505  1.00  0.00    -0.449 OA 
HETATM    2  H   UNL     1      -7.664  10.620  71.352  1.00  0.00     0.000 HD 
HETATM    3 SI   UNL     1      -8.263  10.612  69.403  1.00  0.00    -0.111 Si 
HETATM    4  C   UNL     1     -11.566   9.621  71.218  1.00  0.00    -0.393 C  
HETATM    5  O   UNL     1     -10.685   8.919  70.345  1.00  0.00    -0.212 OA 
HETATM    6  O   UNL     1      -7.700  10.262  68.091  1.00  0.00    -0.090 OA 
HETATM    7  H   UNL     1      -8.319  10.402  67.385  1.00  0.00     0.000 HD 
ENDROOT
BRANCH   5   8
HETATM    8 SI   UNL     1     -10.446   7.272  70.605  1.00  0.00    -0.200 Si 
HETATM    9  C   UNL     1     -11.781   6.633  71.752  1.00  0.00    -0.318 C  
HETATM   10  C   UNL     1      -8.751   6.998  71.360  1.00  0.00    -0.125 C  
BRANCH   8  11
HETATM   11  O   UNL     1     -10.530   6.482  69.129  1.00  0.00    -0.187 OA 
HETATM   12 SI   UNL     1      -9.828   6.594  67.604  1.00  0.00    -0.124 Si 
HETATM   13  C   UNL     1     -10.185   8.262  66.797  1.00  0.00    -0.304 C  
HETATM   14  C   UNL     1     -10.455   5.262  66.435  1.00  0.00    -0.292 C  
HETATM   15  C   UNL     1      -7.954   6.424  67.728  1.00  0.00    -0.114 C  
ENDBRANCH   8  11
ENDBRANCH   5   8
TORSDOF 2
ENDMDL
MODEL      231
REMARK 921   NORMALIZED FREE ENERGY PREDICTED BY IDOCK:   -2.62 KCAL/MOL
REMARK 922        TOTAL FREE ENERGY PREDICTED BY IDOCK:   -3.16 KCAL/MOL
REMARK 923 INTER-LIGAND FREE ENERGY PREDICTED BY IDOCK:   -2.92 KCAL/MOL
REMARK 924 INTRA-LIGAND FREE ENERGY PREDICTED BY IDOCK:   -0.24 KCAL/MOL
REMARK 927      BINDING AFFINITY PREDICTED BY RF-SCORE:    0.00 PKD
ROOT
HETATM    1  O   UNL     1      -9.946  16.950  65.638  1.00  0.00    -0.552 OA 
HETATM    2  H   UNL     1      -9.220  16.395  65.378  1.00  0.00     0.000 HD 
HETATM    3 SI   UNL     1      -9.860  17.357  67.059  1.00  0.00    -0.241 Si 
HETATM    4  C   UNL     1      -8.331  14.112  68.578  1.00  0.00    -0.155 C  
HETATM    5  O   UNL     1      -9.662  14.612  68.487  1.00  0.00    -0.213 OA 
HETATM    6  O   UNL     1     -10.983  18.216  67.461  1.00  0.00    -0.324 OA 
HETATM    7  H   UNL     1     -10.928  18.477  68.372  1.00  0.00     0.000 HD 
ENDROOT
BRANCH   5   8
HETATM    8 SI   UNL     1     -10.916  13.509  68.261  1.00  0.00    -0.215 Si 
HETATM    9  C   UNL     1     -10.199  11.874  67.698  1.00  0.00    -0.201 C  
HETATM   10  C   UNL     1     -12.109  14.175  66.976  1.00  0.00    -0.414 C  
BRANCH   8  11
HETATM   11  O   UNL     1     -11.722  13.314  69.717  1.00  0.00    -0.298 OA 
HETATM   12 SI   UNL     1     -12.361  14.280  70.938  1.00  0.00    -0.254 Si 
HETATM   13  C   UNL     1     -11.030  15.343  71.750  1.00  0.00    -0.019 C  
HETATM   14  C   UNL     1     -13.172  13.265  72.296  1.00  0.00    -0.467 C  
HETATM   15  C   UNL     1     -13.659  15.454  70.236  1.00  0.00     0.430 C  
ENDBRANCH   8  11
ENDBRANCH   5   8
TORSDOF 2
ENDMDL
MODEL      232
REMARK 921   NORMALIZED FREE ENERGY PREDICTED BY IDOCK:   -2.61 KCAL/MOL
REMARK 922        TOTAL FREE ENERGY PREDICTED BY IDOCK:   -3.16 KCAL/MOL
REMARK 923 INTER-LIGAND FREE ENERGY PREDICTED BY IDOCK:   -3.04 KCAL/MOL
REMARK 924 INTRA-LIGAND FREE ENERGY PREDICTED BY IDOCK:   -0.12 KCAL/MOL
REMARK 927      BINDING AFFINITY PREDICTED BY RF-SCORE:    0.00 PKD
ROOT
HETATM    1  O   UNL     1      -8.883   6.775  72.500  1.00  0.00    -0.127 OA 
HETATM    2  H   UNL     1      -9.686   6.370  72.196  1.00  0.00     0.000 HD 
HETATM    3 SI   UNL     1      -9.133   8.036  73.234  1.00  0.00    -0.143 Si 
HETATM    4  C   UNL     1     -12.177   9.380  71.207  1.00  0.00    -0.345 C  
HETATM    5  O   UNL     1     -10.779   9.652  71.162  1.00  0.00    -0.329 OA 
HETATM    6  O   UNL     1      -7.890   8.664  73.704  1.00  0.00    -0.406 OA 
HETATM    7  H   UNL     1      -8.050   9.473  74.175  1.00  0.00     0.000 HD 
ENDROOT
BRANCH   5   8
HETATM    8 SI   UNL     1     -10.074   9.968  69.664  1.00  0.00    -0.157 Si 
HETATM    9  C   UNL     1      -8.216  10.064  69.869  1.00  0.00    -0.159 C  
HETATM   10  C   UNL     1     -10.740  11.586  68.989  1.00  0.00    -0.193 C  
BRANCH   8  11
HETATM   11  O   UNL     1     -10.473   8.723  68.614  1.00  0.00    -0.211 OA 
HETATM   12 SI   UNL     1     -10.422   7.042  68.585  1.00  0.00    -0.158 Si 
HETATM   13  C   UNL     1      -8.659   6.398  68.771  1.00  0.00    -0.123 C  
HETATM   14  C   UNL     1     -11.108   6.338  66.982  1.00  0.00    -0.297 C  
HETATM   15  C   UNL     1     -11.430   6.328  70.011  1.00  0.00    -0.390 C  
ENDBRANCH   8  11
ENDBRANCH   5   8
TORSDOF 2
ENDMDL
MODEL      233
REMARK 921   NORMALIZED FREE ENERGY PREDICTED BY IDOCK:   -2.61 KCAL/MOL
REMARK 922        TOTAL FREE ENERGY PREDICTED BY IDOCK:   -3.15 KCAL/MOL
REMARK 923 INTER-LIGAND FREE ENERGY PREDICTED BY IDOCK:   -3.01 KCAL/MOL
REMARK 924 INTRA-LIGAND FREE ENERGY PREDICTED BY IDOCK:   -0.14 KCAL/MOL
REMARK 927      BINDING AFFINITY PREDICTED BY RF-SCORE:    0.00 PKD
ROOT
HETATM    1  O   UNL     1     -13.464  10.005  70.760  1.00  0.00    -0.553 OA 
HETATM    2  H   UNL     1     -12.818  10.638  71.051  1.00  0.00     0.000 HD 
HETATM    3 SI   UNL     1     -13.410   8.749  71.540  1.00  0.00    -0.305 Si 
HETATM    4  C   UNL     1      -9.568   8.524  72.152  1.00  0.00    -0.312 C  
HETATM    5  O   UNL     1     -10.440   7.925  71.197  1.00  0.00    -0.204 OA 
HETATM    6  O   UNL     1     -14.409   7.769  71.090  1.00  0.00    -0.648 OA 
HETATM    7  H   UNL     1     -14.374   6.963  71.591  1.00  0.00     0.000 HD 
ENDROOT
BRANCH   5   8
HETATM    8 SI   UNL     1      -9.863   7.677  69.633  1.00  0.00    -0.167 Si 
HETATM    9  C   UNL     1     -10.327   9.147  68.569  1.00  0.00    -0.207 C  
HETATM   10  C   UNL     1     -10.609   6.105  68.934  1.00  0.00    -0.276 C  
BRANCH   8  11
HETATM   11  O   UNL     1      -8.196   7.519  69.699  1.00  0.00    -0.125 OA 
HETATM   12 SI   UNL     1      -6.967   6.797  68.804  1.00  0.00    -0.055 Si 
HETATM   13  C   UNL     1      -7.198   4.928  68.690  1.00  0.00    -0.058 C  
HETATM   14  C   UNL     1      -5.270   7.106  69.551  1.00  0.00    -0.015 C  
HETATM   15  C   UNL     1      -6.957   7.466  67.041  1.00  0.00    -0.082 C  
ENDBRANCH   8  11
ENDBRANCH   5   8
TORSDOF 2
ENDMDL
MODEL      234
REMARK 921   NORMALIZED FREE ENERGY PREDICTED BY IDOCK:   -2.61 KCAL/MOL
REMARK 922        TOTAL FREE ENERGY PREDICTED BY IDOCK:   -3.15 KCAL/MOL
REMARK 923 INTER-LIGAND FREE ENERGY PREDICTED BY IDOCK:   -2.94 KCAL/MOL
REMARK 924 INTRA-LIGAND FREE ENERGY PREDICTED BY IDOCK:   -0.21 KCAL/MOL
REMARK 927      BINDING AFFINITY PREDICTED BY RF-SCORE:    0.00 PKD
ROOT
HETATM    1  O   UNL     1      -8.500  12.363  66.309  1.00  0.00    -0.403 OA 
HETATM    2  H   UNL     1      -8.633  12.749  67.166  1.00  0.00     0.000 HD 
HETATM    3 SI   UNL     1      -9.763  11.874  65.711  1.00  0.00    -0.201 Si 
HETATM    4  C   UNL     1     -11.570  10.626  68.930  1.00  0.00    -0.249 C  
HETATM    5  O   UNL     1     -10.807   9.968  67.923  1.00  0.00    -0.253 OA 
HETATM    6  O   UNL     1      -9.558  11.275  64.385  1.00  0.00    -0.234 OA 
HETATM    7  H   UNL     1     -10.368  10.961  64.002  1.00  0.00     0.000 HD 
ENDROOT
BRANCH   5   8
HETATM    8 SI   UNL     1      -9.828   8.674  68.380  1.00  0.00    -0.149 Si 
HETATM    9  C   UNL     1      -8.088   8.973  67.757  1.00  0.00    -0.109 C  
HETATM   10  C   UNL     1     -10.515   7.085  67.658  1.00  0.00    -0.237 C  
BRANCH   8  11
HETATM   11  O   UNL     1      -9.830   8.570  70.053  1.00  0.00    -0.175 OA 
HETATM   12 SI   UNL     1     -10.386   7.520  71.244  1.00  0.00    -0.188 Si 
HETATM   13  C   UNL     1     -12.261   7.319  71.172  1.00  0.00    -0.340 C  
HETATM   14  C   UNL     1      -9.954   8.116  72.974  1.00  0.00    -0.233 C  
HETATM   15  C   UNL     1      -9.633   5.807  71.015  1.00  0.00    -0.167 C  
ENDBRANCH   8  11
ENDBRANCH   5   8
TORSDOF 2
ENDMDL
MODEL      235
REMARK 921   NORMALIZED FREE ENERGY PREDICTED BY IDOCK:   -2.60 KCAL/MOL
REMARK 922        TOTAL FREE ENERGY PREDICTED BY IDOCK:   -3.14 KCAL/MOL
REMARK 923 INTER-LIGAND FREE ENERGY PREDICTED BY IDOCK:   -3.02 KCAL/MOL
REMARK 924 INTRA-LIGAND FREE ENERGY PREDICTED BY IDOCK:   -0.12 KCAL/MOL
REMARK 927      BINDING AFFINITY PREDICTED BY RF-SCORE:    0.00 PKD
ROOT
HETATM    1  O   UNL     1     -11.808  12.815  66.715  1.00  0.00    -0.380 OA 
HETATM    2  H   UNL     1     -10.903  12.526  66.690  1.00  0.00     0.000 HD 
HETATM    3 SI   UNL     1     -12.059  13.955  65.805  1.00  0.00    -0.318 Si 
HETATM    4  C   UNL     1      -8.664  15.835  66.159  1.00  0.00    -0.258 C  
HETATM    5  O   UNL     1      -9.941  16.005  66.768  1.00  0.00    -0.243 OA 
HETATM    6  O   UNL     1     -13.458  14.403  65.844  1.00  0.00    -0.418 OA 
HETATM    7  H   UNL     1     -13.619  15.134  65.260  1.00  0.00     0.000 HD 
ENDROOT
BRANCH   5   8
HETATM    8 SI   UNL     1      -9.999  16.507  68.376  1.00  0.00    -0.209 Si 
HETATM    9  C   UNL     1      -9.950  18.377  68.436  1.00  0.00    -0.379 C  
HETATM   10  C   UNL     1      -8.541  15.785  69.309  1.00  0.00    -0.259 C  
BRANCH   8  11
HETATM   11  O   UNL     1     -11.425  15.947  69.057  1.00  0.00    -0.341 OA 
HETATM   12 SI   UNL     1     -11.904  14.884  70.270  1.00  0.00    -0.228 Si 
HETATM   13  C   UNL     1     -11.311  13.126  69.926  1.00  0.00     0.015 C  
HETATM   14  C   UNL     1     -13.773  14.817  70.458  1.00  0.00     0.291 C  
HETATM   15  C   UNL     1     -11.172  15.405  71.928  1.00  0.00    -0.295 C  
ENDBRANCH   8  11
ENDBRANCH   5   8
TORSDOF 2
ENDMDL
MODEL      236
REMARK 921   NORMALIZED FREE ENERGY PREDICTED BY IDOCK:   -2.60 KCAL/MOL
REMARK 922        TOTAL FREE ENERGY PREDICTED BY IDOCK:   -3.14 KCAL/MOL
REMARK 923 INTER-LIGAND FREE ENERGY PREDICTED BY IDOCK:   -2.92 KCAL/MOL
REMARK 924 INTRA-LIGAND FREE ENERGY PREDICTED BY IDOCK:   -0.22 KCAL/MOL
REMARK 927      BINDING AFFINITY PREDICTED BY RF-SCORE:    0.00 PKD
ROOT
HETATM    1  O   UNL     1     -10.153  10.312  70.147  1.00  0.00    -0.406 OA 
HETATM    2  H   UNL     1      -9.629   9.760  70.715  1.00  0.00     0.000 HD 
HETATM    3 SI   UNL     1     -11.513   9.767  69.933  1.00  0.00    -0.221 Si 
HETATM    4  C   UNL     1     -10.695   5.958  69.908  1.00  0.00    -0.336 C  
HETATM    5  O   UNL     1     -10.889   6.920  68.875  1.00  0.00    -0.229 OA 
HETATM    6  O   UNL     1     -12.324  10.621  69.054  1.00  0.00    -0.770 OA 
HETATM    7  H   UNL     1     -13.196  10.272  68.917  1.00  0.00     0.000 HD 
ENDROOT
BRANCH   5   8
HETATM    8 SI   UNL     1      -9.968   6.782  67.470  1.00  0.00    -0.125 Si 
HETATM    9  C   UNL     1     -10.128   8.360  66.475  1.00  0.00    -0.247 C  
HETATM   10  C   UNL     1     -10.572   5.316  66.469  1.00  0.00    -0.285 C  
BRANCH   8  11
HETATM   11  O   UNL     1      -8.368   6.537  67.905  1.00  0.00    -0.115 OA 
HETATM   12 SI   UNL     1      -7.225   5.303  67.840  1.00  0.00    -0.058 Si 
HETATM   13  C   UNL     1      -7.784   3.788  68.816  1.00  0.00    -0.053 C  
HETATM   14  C   UNL     1      -5.563   5.837  68.539  1.00  0.00    -0.008 C  
HETATM   15  C   UNL     1      -6.955   4.749  66.058  1.00  0.00    -0.066 C  
ENDBRANCH   8  11
ENDBRANCH   5   8
TORSDOF 2
ENDMDL
MODEL      237
REMARK 921   NORMALIZED FREE ENERGY PREDICTED BY IDOCK:   -2.59 KCAL/MOL
REMARK 922        TOTAL FREE ENERGY PREDICTED BY IDOCK:   -3.13 KCAL/MOL
REMARK 923 INTER-LIGAND FREE ENERGY PREDICTED BY IDOCK:   -2.90 KCAL/MOL
REMARK 924 INTRA-LIGAND FREE ENERGY PREDICTED BY IDOCK:   -0.24 KCAL/MOL
REMARK 927      BINDING AFFINITY PREDICTED BY RF-SCORE:    0.00 PKD
ROOT
HETATM    1  O   UNL     1     -10.809   9.475  69.588  1.00  0.00    -0.231 OA 
HETATM    2  H   UNL     1     -10.162   9.004  69.076  1.00  0.00     0.000 HD 
HETATM    3 SI   UNL     1     -12.046   9.741  68.821  1.00  0.00    -0.481 Si 
HETATM    4  C   UNL     1     -10.512  10.342  65.291  1.00  0.00    -0.029 C  
HETATM    5  O   UNL     1     -10.936  11.218  66.331  1.00  0.00    -0.279 OA 
HETATM    6  O   UNL     1     -13.047  10.469  69.613  1.00  0.00    -0.556 OA 
HETATM    7  H   UNL     1     -13.841  10.640  69.121  1.00  0.00     0.000 HD 
ENDROOT
BRANCH   5   8
HETATM    8 SI   UNL     1     -10.073  12.645  66.577  1.00  0.00    -0.218 Si 
HETATM    9  C   UNL     1     -10.477  13.320  68.275  1.00  0.00    -0.250 C  
HETATM   10  C   UNL     1     -10.534  13.890  65.252  1.00  0.00    -0.371 C  
BRANCH   8  11
HETATM   11  O   UNL     1      -8.436  12.301  66.470  1.00  0.00    -0.115 OA 
HETATM   12 SI   UNL     1      -7.204  11.737  67.467  1.00  0.00    -0.080 Si 
HETATM   13  C   UNL     1      -6.927  12.880  68.943  1.00  0.00    -0.084 C  
HETATM   14  C   UNL     1      -5.565  11.590  66.558  1.00  0.00    -0.119 C  
HETATM   15  C   UNL     1      -7.641  10.036  68.154  1.00  0.00    -0.084 C  
ENDBRANCH   8  11
ENDBRANCH   5   8
TORSDOF 2
ENDMDL
MODEL      238
REMARK 921   NORMALIZED FREE ENERGY PREDICTED BY IDOCK:   -2.59 KCAL/MOL
REMARK 922        TOTAL FREE ENERGY PREDICTED BY IDOCK:   -3.13 KCAL/MOL
REMARK 923 INTER-LIGAND FREE ENERGY PREDICTED BY IDOCK:   -2.93 KCAL/MOL
REMARK 924 INTRA-LIGAND FREE ENERGY PREDICTED BY IDOCK:   -0.20 KCAL/MOL
REMARK 927      BINDING AFFINITY PREDICTED BY RF-SCORE:    0.00 PKD
ROOT
HETATM    1  O   UNL     1      -6.920  11.313  65.772  1.00  0.00    -0.371 OA 
HETATM    2  H   UNL     1      -7.072  11.654  66.645  1.00  0.00     0.000 HD 
HETATM    3 SI   UNL     1      -8.160  11.257  64.967  1.00  0.00    -0.300 Si 
HETATM    4  C   UNL     1     -10.714  10.339  67.762  1.00  0.00    -0.275 C  
HETATM    5  O   UNL     1     -10.015   9.568  66.789  1.00  0.00    -0.201 OA 
HETATM    6  O   UNL     1      -7.925  10.729  63.615  1.00  0.00    -0.357 OA 
HETATM    7  H   UNL     1      -8.721  10.693  63.099  1.00  0.00     0.000 HD 
ENDROOT
BRANCH   5   8
HETATM    8 SI   UNL     1      -9.512   8.016  67.209  1.00  0.00    -0.132 Si 
HETATM    9  C   UNL     1      -7.976   7.583  66.229  1.00  0.00    -0.109 C  
HETATM   10  C   UNL     1     -10.886   6.793  66.843  1.00  0.00    -0.331 C  
BRANCH   8  11
HETATM   11  O   UNL     1      -9.171   7.993  68.850  1.00  0.00    -0.147 OA 
HETATM   12 SI   UNL     1      -9.493   7.020  70.185  1.00  0.00    -0.152 Si 
HETATM   13  C   UNL     1     -11.347   6.877  70.509  1.00  0.00    -0.327 C  
HETATM   14  C   UNL     1      -8.701   7.685  71.756  1.00  0.00    -0.116 C  
HETATM   15  C   UNL     1      -8.840   5.274  69.900  1.00  0.00    -0.112 C  
ENDBRANCH   8  11
ENDBRANCH   5   8
TORSDOF 2
ENDMDL
MODEL      239
REMARK 921   NORMALIZED FREE ENERGY PREDICTED BY IDOCK:   -2.59 KCAL/MOL
REMARK 922        TOTAL FREE ENERGY PREDICTED BY IDOCK:   -3.13 KCAL/MOL
REMARK 923 INTER-LIGAND FREE ENERGY PREDICTED BY IDOCK:   -2.95 KCAL/MOL
REMARK 924 INTRA-LIGAND FREE ENERGY PREDICTED BY IDOCK:   -0.18 KCAL/MOL
REMARK 927      BINDING AFFINITY PREDICTED BY RF-SCORE:    0.00 PKD
ROOT
HETATM    1  O   UNL     1     -11.714   7.533  73.209  1.00  0.00    -0.604 OA 
HETATM    2  H   UNL     1     -11.092   8.240  73.338  1.00  0.00     0.000 HD 
HETATM    3 SI   UNL     1     -11.080   6.200  73.314  1.00  0.00    -0.219 Si 
HETATM    4  C   UNL     1      -7.611   6.999  71.731  1.00  0.00    -0.088 C  
HETATM    5  O   UNL     1      -8.807   6.419  71.217  1.00  0.00    -0.138 OA 
HETATM    6  O   UNL     1     -12.042   5.107  73.114  1.00  0.00    -0.514 OA 
HETATM    7  H   UNL     1     -11.635   4.252  73.182  1.00  0.00     0.000 HD 
ENDROOT
BRANCH   5   8
HETATM    8 SI   UNL     1      -9.232   6.748  69.620  1.00  0.00    -0.137 Si 
HETATM    9  C   UNL     1     -11.049   6.366  69.380  1.00  0.00    -0.387 C  
HETATM   10  C   UNL     1      -8.187   5.701  68.467  1.00  0.00    -0.106 C  
BRANCH   8  11
HETATM   11  O   UNL     1      -8.940   8.370  69.314  1.00  0.00    -0.147 OA 
HETATM   12 SI   UNL     1      -8.669   9.367  67.986  1.00  0.00    -0.116 Si 
HETATM   13  C   UNL     1      -7.125   8.850  67.033  1.00  0.00    -0.078 C  
HETATM   14  C   UNL     1      -8.442  11.166  68.484  1.00  0.00    -0.156 C  
HETATM   15  C   UNL     1     -10.122   9.276  66.787  1.00  0.00    -0.261 C  
ENDBRANCH   8  11
ENDBRANCH   5   8
TORSDOF 2
ENDMDL
MODEL      240
REMARK 921   NORMALIZED FREE ENERGY PREDICTED BY IDOCK:   -2.59 KCAL/MOL
REMARK 922        TOTAL FREE ENERGY PREDICTED BY IDOCK:   -3.13 KCAL/MOL
REMARK 923 INTER-LIGAND FREE ENERGY PREDICTED BY IDOCK:   -2.94 KCAL/MOL
REMARK 924 INTRA-LIGAND FREE ENERGY PREDICTED BY IDOCK:   -0.19 KCAL/MOL
REMARK 927      BINDING AFFINITY PREDICTED BY RF-SCORE:    0.00 PKD
ROOT
HETATM    1  O   UNL     1     -10.186  10.319  65.036  1.00  0.00    -0.320 OA 
HETATM    2  H   UNL     1     -11.059  10.195  65.391  1.00  0.00     0.000 HD 
HETATM    3 SI   UNL     1      -9.624   9.069  64.479  1.00  0.00    -0.378 Si 
HETATM    4  C   UNL     1     -11.120   6.499  66.996  1.00  0.00    -0.339 C  
HETATM    5  O   UNL     1      -9.854   7.144  66.899  1.00  0.00    -0.181 OA 
HETATM    6  O   UNL     1      -8.274   9.260  63.930  1.00  0.00    -0.145 OA 
HETATM    7  H   UNL     1      -7.913   8.458  63.572  1.00  0.00     0.000 HD 
ENDROOT
BRANCH   5   8
HETATM    8 SI   UNL     1      -9.060   7.567  68.325  1.00  0.00    -0.128 Si 
HETATM    9  C   UNL     1      -8.702   9.404  68.304  1.00  0.00    -0.124 C  
HETATM   10  C   UNL     1      -7.463   6.592  68.463  1.00  0.00    -0.088 C  
BRANCH   8  11
HETATM   11  O   UNL     1     -10.055   7.189  69.619  1.00  0.00    -0.185 OA 
HETATM   12 SI   UNL     1     -10.599   7.915  71.037  1.00  0.00    -0.203 Si 
HETATM   13  C   UNL     1      -9.168   8.350  72.188  1.00  0.00    -0.243 C  
HETATM   14  C   UNL     1     -11.772   6.803  71.998  1.00  0.00    -0.306 C  
HETATM   15  C   UNL     1     -11.509   9.520  70.647  1.00  0.00    -0.297 C  
ENDBRANCH   8  11
ENDBRANCH   5   8
TORSDOF 2
ENDMDL
MODEL      241
REMARK 921   NORMALIZED FREE ENERGY PREDICTED BY IDOCK:   -2.58 KCAL/MOL
REMARK 922        TOTAL FREE ENERGY PREDICTED BY IDOCK:   -3.12 KCAL/MOL
REMARK 923 INTER-LIGAND FREE ENERGY PREDICTED BY IDOCK:   -2.95 KCAL/MOL
REMARK 924 INTRA-LIGAND FREE ENERGY PREDICTED BY IDOCK:   -0.17 KCAL/MOL
REMARK 927      BINDING AFFINITY PREDICTED BY RF-SCORE:    0.00 PKD
ROOT
HETATM    1  O   UNL     1      -7.405   7.560  65.131  1.00  0.00    -0.066 OA 
HETATM    2  H   UNL     1      -7.700   7.251  65.979  1.00  0.00     0.000 HD 
HETATM    3 SI   UNL     1      -6.505   8.730  65.241  1.00  0.00    -0.056 Si 
HETATM    4  C   UNL     1      -8.132  10.522  68.294  1.00  0.00    -0.115 C  
HETATM    5  O   UNL     1      -8.240  10.704  66.885  1.00  0.00    -0.118 OA 
HETATM    6  O   UNL     1      -6.048   9.208  63.928  1.00  0.00    -0.081 OA 
HETATM    7  H   UNL     1      -5.470   9.958  63.999  1.00  0.00     0.000 HD 
ENDROOT
BRANCH   5   8
HETATM    8 SI   UNL     1      -9.733  11.163  66.251  1.00  0.00    -0.182 Si 
HETATM    9  C   UNL     1     -11.086  10.652  67.439  1.00  0.00    -0.272 C  
HETATM   10  C   UNL     1      -9.983  10.340  64.584  1.00  0.00    -0.307 C  
BRANCH   8  11
HETATM   11  O   UNL     1      -9.739  12.828  66.054  1.00  0.00    -0.259 OA 
HETATM   12 SI   UNL     1     -10.864  14.066  65.872  1.00  0.00    -0.274 Si 
HETATM   13  C   UNL     1     -11.921  13.821  64.329  1.00  0.00    -0.443 C  
HETATM   14  C   UNL     1     -10.046  15.753  65.728  1.00  0.00    -0.371 C  
HETATM   15  C   UNL     1     -12.035  14.113  67.349  1.00  0.00    -0.404 C  
ENDBRANCH   8  11
ENDBRANCH   5   8
TORSDOF 2
ENDMDL
MODEL      242
REMARK 921   NORMALIZED FREE ENERGY PREDICTED BY IDOCK:   -2.57 KCAL/MOL
REMARK 922        TOTAL FREE ENERGY PREDICTED BY IDOCK:   -3.10 KCAL/MOL
REMARK 923 INTER-LIGAND FREE ENERGY PREDICTED BY IDOCK:   -2.93 KCAL/MOL
REMARK 924 INTRA-LIGAND FREE ENERGY PREDICTED BY IDOCK:   -0.17 KCAL/MOL
REMARK 927      BINDING AFFINITY PREDICTED BY RF-SCORE:    0.00 PKD
ROOT
HETATM    1  O   UNL     1     -12.327  10.526  68.433  1.00  0.00    -0.700 OA 
HETATM    2  H   UNL     1     -12.783  10.741  67.628  1.00  0.00     0.000 HD 
HETATM    3 SI   UNL     1     -12.401  11.618  69.429  1.00  0.00    -0.264 Si 
HETATM    4  C   UNL     1     -12.258  14.694  67.042  1.00  0.00    -0.073 C  
HETATM    5  O   UNL     1     -11.275  14.016  67.818  1.00  0.00    -0.263 OA 
HETATM    6  O   UNL     1     -11.695  11.286  70.675  1.00  0.00    -0.410 OA 
HETATM    7  H   UNL     1     -11.743  11.986  71.314  1.00  0.00     0.000 HD 
ENDROOT
BRANCH   5   8
HETATM    8 SI   UNL     1      -9.714  13.887  67.195  1.00  0.00    -0.206 Si 
HETATM    9  C   UNL     1      -9.390  15.335  66.053  1.00  0.00    -0.311 C  
HETATM   10  C   UNL     1      -9.545  12.269  66.262  1.00  0.00    -0.242 C  
BRANCH   8  11
HETATM   11  O   UNL     1      -8.628  13.908  68.472  1.00  0.00    -0.172 OA 
HETATM   12 SI   UNL     1      -7.050  14.412  68.769  1.00  0.00    -0.084 Si 
HETATM   13  C   UNL     1      -5.815  13.519  67.657  1.00  0.00    -0.067 C  
HETATM   14  C   UNL     1      -6.529  14.099  70.548  1.00  0.00    -0.004 C  
HETATM   15  C   UNL     1      -6.875  16.259  68.429  1.00  0.00    -0.137 C  
ENDBRANCH   8  11
ENDBRANCH   5   8
TORSDOF 2
ENDMDL
MODEL      243
REMARK 921   NORMALIZED FREE ENERGY PREDICTED BY IDOCK:   -2.56 KCAL/MOL
REMARK 922        TOTAL FREE ENERGY PREDICTED BY IDOCK:   -3.10 KCAL/MOL
REMARK 923 INTER-LIGAND FREE ENERGY PREDICTED BY IDOCK:   -2.88 KCAL/MOL
REMARK 924 INTRA-LIGAND FREE ENERGY PREDICTED BY IDOCK:   -0.22 KCAL/MOL
REMARK 927      BINDING AFFINITY PREDICTED BY RF-SCORE:    0.00 PKD
ROOT
HETATM    1  O   UNL     1     -12.191  15.571  68.413  1.00  0.00    -0.510 OA 
HETATM    2  H   UNL     1     -11.494  15.906  67.862  1.00  0.00     0.000 HD 
HETATM    3 SI   UNL     1     -11.674  14.916  69.636  1.00  0.00    -0.231 Si 
HETATM    4  C   UNL     1      -8.428  13.311  68.197  1.00  0.00    -0.173 C  
HETATM    5  O   UNL     1      -9.737  12.806  68.447  1.00  0.00    -0.223 OA 
HETATM    6  O   UNL     1     -12.752  14.397  70.489  1.00  0.00    -0.343 OA 
HETATM    7  H   UNL     1     -12.420  13.977  71.273  1.00  0.00     0.000 HD 
ENDROOT
BRANCH   5   8
HETATM    8 SI   UNL     1     -10.369  11.661  67.385  1.00  0.00    -0.186 Si 
HETATM    9  C   UNL     1      -9.090  11.271  66.074  1.00  0.00    -0.209 C  
HETATM   10  C   UNL     1     -11.929  12.338  66.593  1.00  0.00    -0.182 C  
BRANCH   8  11
HETATM   11  O   UNL     1     -10.743  10.278  68.254  1.00  0.00    -0.205 OA 
HETATM   12 SI   UNL     1     -10.183   8.698  68.399  1.00  0.00    -0.160 Si 
HETATM   13  C   UNL     1     -10.294   7.769  66.760  1.00  0.00    -0.277 C  
HETATM   14  C   UNL     1     -11.160   7.712  69.668  1.00  0.00    -0.062 C  
HETATM   15  C   UNL     1      -8.372   8.687  68.925  1.00  0.00    -0.124 C  
ENDBRANCH   8  11
ENDBRANCH   5   8
TORSDOF 2
ENDMDL
MODEL      244
REMARK 921   NORMALIZED FREE ENERGY PREDICTED BY IDOCK:   -2.56 KCAL/MOL
REMARK 922        TOTAL FREE ENERGY PREDICTED BY IDOCK:   -3.10 KCAL/MOL
REMARK 923 INTER-LIGAND FREE ENERGY PREDICTED BY IDOCK:   -2.92 KCAL/MOL
REMARK 924 INTRA-LIGAND FREE ENERGY PREDICTED BY IDOCK:   -0.18 KCAL/MOL
REMARK 927      BINDING AFFINITY PREDICTED BY RF-SCORE:    0.00 PKD
ROOT
HETATM    1  O   UNL     1      -9.285  14.918  69.939  1.00  0.00    -0.444 OA 
HETATM    2  H   UNL     1      -8.991  14.207  70.496  1.00  0.00     0.000 HD 
HETATM    3 SI   UNL     1     -10.759  14.964  69.817  1.00  0.00    -0.209 Si 
HETATM    4  C   UNL     1     -11.539  11.147  69.875  1.00  0.00    -0.337 C  
HETATM    5  O   UNL     1     -11.395  12.096  68.823  1.00  0.00    -0.242 OA 
HETATM    6  O   UNL     1     -11.214  16.064  68.954  1.00  0.00    -0.308 OA 
HETATM    7  H   UNL     1     -12.160  16.093  68.876  1.00  0.00     0.000 HD 
ENDROOT
BRANCH   5   8
HETATM    8 SI   UNL     1     -10.697  11.587  67.376  1.00  0.00    -0.185 Si 
HETATM    9  C   UNL     1     -11.596  12.392  65.945  1.00  0.00    -0.396 C  
HETATM   10  C   UNL     1     -10.811   9.719  67.251  1.00  0.00    -0.177 C  
BRANCH   8  11
HETATM   11  O   UNL     1      -9.085  12.045  67.373  1.00  0.00    -0.168 OA 
HETATM   12 SI   UNL     1      -7.584  11.359  67.703  1.00  0.00    -0.087 Si 
HETATM   13  C   UNL     1      -7.471  10.762  69.489  1.00  0.00    -0.110 C  
HETATM   14  C   UNL     1      -6.173  12.571  67.428  1.00  0.00    -0.158 C  
HETATM   15  C   UNL     1      -7.288   9.862  66.595  1.00  0.00    -0.099 C  
ENDBRANCH   8  11
ENDBRANCH   5   8
TORSDOF 2
ENDMDL
MODEL      245
REMARK 921   NORMALIZED FREE ENERGY PREDICTED BY IDOCK:   -2.55 KCAL/MOL
REMARK 922        TOTAL FREE ENERGY PREDICTED BY IDOCK:   -3.08 KCAL/MOL
REMARK 923 INTER-LIGAND FREE ENERGY PREDICTED BY IDOCK:   -2.88 KCAL/MOL
REMARK 924 INTRA-LIGAND FREE ENERGY PREDICTED BY IDOCK:   -0.20 KCAL/MOL
REMARK 927      BINDING AFFINITY PREDICTED BY RF-SCORE:    0.00 PKD
ROOT
HETATM    1  O   UNL     1     -13.575   7.441  70.875  1.00  0.00    -0.621 OA 
HETATM    2  H   UNL     1     -14.020   7.918  70.185  1.00  0.00     0.000 HD 
HETATM    3 SI   UNL     1     -12.667   8.307  71.661  1.00  0.00    -0.280 Si 
HETATM    4  C   UNL     1     -11.403  10.669  68.832  1.00  0.00    -0.274 C  
HETATM    5  O   UNL     1     -10.861   9.501  69.442  1.00  0.00    -0.228 OA 
HETATM    6  O   UNL     1     -11.978   7.568  72.729  1.00  0.00    -0.558 OA 
HETATM    7  H   UNL     1     -11.396   8.124  73.233  1.00  0.00     0.000 HD 
ENDROOT
BRANCH   5   8
HETATM    8 SI   UNL     1      -9.978   8.435  68.481  1.00  0.00    -0.156 Si 
HETATM    9  C   UNL     1      -9.879   9.117  66.740  1.00  0.00    -0.226 C  
HETATM   10  C   UNL     1     -10.816   6.757  68.477  1.00  0.00    -0.222 C  
BRANCH   8  11
HETATM   11  O   UNL     1      -8.439   8.285  69.128  1.00  0.00    -0.125 OA 
HETATM   12 SI   UNL     1      -6.842   8.395  68.607  1.00  0.00    -0.051 Si 
HETATM   13  C   UNL     1      -6.463   7.128  67.261  1.00  0.00    -0.057 C  
HETATM   14  C   UNL     1      -5.618   8.109  70.005  1.00  0.00    -0.022 C  
HETATM   15  C   UNL     1      -6.504  10.101  67.878  1.00  0.00    -0.062 C  
ENDBRANCH   8  11
ENDBRANCH   5   8
TORSDOF 2
ENDMDL
MODEL      246
REMARK 921   NORMALIZED FREE ENERGY PREDICTED BY IDOCK:   -2.54 KCAL/MOL
REMARK 922        TOTAL FREE ENERGY PREDICTED BY IDOCK:   -3.07 KCAL/MOL
REMARK 923 INTER-LIGAND FREE ENERGY PREDICTED BY IDOCK:   -2.85 KCAL/MOL
REMARK 924 INTRA-LIGAND FREE ENERGY PREDICTED BY IDOCK:   -0.22 KCAL/MOL
REMARK 927      BINDING AFFINITY PREDICTED BY RF-SCORE:    0.00 PKD
ROOT
HETATM    1  O   UNL     1     -11.871  16.647  63.916  1.00  0.00    -1.334 OA 
HETATM    2  H   UNL     1     -12.122  16.000  63.267  1.00  0.00     0.000 HD 
HETATM    3 SI   UNL     1     -10.433  16.569  64.259  1.00  0.00    -0.227 Si 
HETATM    4  C   UNL     1      -9.912  12.715  64.021  1.00  0.00    -0.145 C  
HETATM    5  O   UNL     1     -10.153  13.601  65.111  1.00  0.00    -0.324 OA 
HETATM    6  O   UNL     1     -10.044  17.570  65.263  1.00  0.00    -0.362 OA 
HETATM    7  H   UNL     1      -9.122  17.520  65.484  1.00  0.00     0.000 HD 
ENDROOT
BRANCH   5   8
HETATM    8 SI   UNL     1     -11.099  13.052  66.393  1.00  0.00    -0.262 Si 
HETATM    9  C   UNL     1     -10.985  11.186  66.484  1.00  0.00    -0.209 C  
HETATM   10  C   UNL     1     -12.878  13.585  66.129  1.00  0.00     0.003 C  
BRANCH   8  11
HETATM   11  O   UNL     1     -10.521  13.733  67.811  1.00  0.00    -0.235 OA 
HETATM   12 SI   UNL     1     -11.133  14.526  69.164  1.00  0.00    -0.206 Si 
HETATM   13  C   UNL     1     -12.019  16.123  68.689  1.00  0.00     0.076 C  
HETATM   14  C   UNL     1      -9.784  14.978  70.392  1.00  0.00     0.601 C  
HETATM   15  C   UNL     1     -12.387  13.435  70.054  1.00  0.00    -0.226 C  
ENDBRANCH   8  11
ENDBRANCH   5   8
TORSDOF 2
ENDMDL
MODEL      247
REMARK 921   NORMALIZED FREE ENERGY PREDICTED BY IDOCK:   -2.54 KCAL/MOL
REMARK 922        TOTAL FREE ENERGY PREDICTED BY IDOCK:   -3.07 KCAL/MOL
REMARK 923 INTER-LIGAND FREE ENERGY PREDICTED BY IDOCK:   -2.90 KCAL/MOL
REMARK 924 INTRA-LIGAND FREE ENERGY PREDICTED BY IDOCK:   -0.17 KCAL/MOL
REMARK 927      BINDING AFFINITY PREDICTED BY RF-SCORE:    0.00 PKD
ROOT
HETATM    1  O   UNL     1     -10.330   8.757  67.252  1.00  0.00    -0.248 OA 
HETATM    2  H   UNL     1     -10.297   9.645  67.589  1.00  0.00     0.000 HD 
HETATM    3 SI   UNL     1     -11.439   7.973  67.841  1.00  0.00    -0.455 Si 
HETATM    4  C   UNL     1     -11.432   9.439  71.451  1.00  0.00    -0.379 C  
HETATM    5  O   UNL     1     -10.870   8.263  70.875  1.00  0.00    -0.221 OA 
HETATM    6  O   UNL     1     -11.489   6.600  67.320  1.00  0.00    -0.766 OA 
HETATM    7  H   UNL     1     -12.201   6.097  67.698  1.00  0.00     0.000 HD 
ENDROOT
BRANCH   5   8
HETATM    8 SI   UNL     1      -9.386   7.719  71.458  1.00  0.00    -0.130 Si 
HETATM    9  C   UNL     1      -9.179   5.912  71.013  1.00  0.00    -0.150 C  
HETATM   10  C   UNL     1      -9.325   7.943  73.319  1.00  0.00    -0.286 C  
BRANCH   8  11
HETATM   11  O   UNL     1      -8.170   8.628  70.749  1.00  0.00    -0.114 OA 
HETATM   12 SI   UNL     1      -6.494   8.583  70.599  1.00  0.00    -0.034 Si 
HETATM   13  C   UNL     1      -5.644   8.652  72.282  1.00  0.00    -0.056 C  
HETATM   14  C   UNL     1      -5.834  10.019  69.580  1.00  0.00    -0.037 C  
HETATM   15  C   UNL     1      -5.951   6.982  69.765  1.00  0.00    -0.023 C  
ENDBRANCH   8  11
ENDBRANCH   5   8
TORSDOF 2
ENDMDL
MODEL      248
REMARK 921   NORMALIZED FREE ENERGY PREDICTED BY IDOCK:   -2.54 KCAL/MOL
REMARK 922        TOTAL FREE ENERGY PREDICTED BY IDOCK:   -3.07 KCAL/MOL
REMARK 923 INTER-LIGAND FREE ENERGY PREDICTED BY IDOCK:   -2.87 KCAL/MOL
REMARK 924 INTRA-LIGAND FREE ENERGY PREDICTED BY IDOCK:   -0.20 KCAL/MOL
REMARK 927      BINDING AFFINITY PREDICTED BY RF-SCORE:    0.00 PKD
ROOT
HETATM    1  O   UNL     1     -11.497   7.550  70.913  1.00  0.00    -0.274 OA 
HETATM    2  H   UNL     1     -10.785   7.173  70.410  1.00  0.00     0.000 HD 
HETATM    3 SI   UNL     1     -12.623   7.983  70.056  1.00  0.00    -0.453 Si 
HETATM    4  C   UNL     1     -10.636   9.217  66.940  1.00  0.00    -0.169 C  
HETATM    5  O   UNL     1     -11.200   9.886  68.064  1.00  0.00    -0.214 OA 
HETATM    6  O   UNL     1     -13.725   8.567  70.834  1.00  0.00    -0.531 OA 
HETATM    7  H   UNL     1     -14.447   8.844  70.284  1.00  0.00     0.000 HD 
ENDROOT
BRANCH   5   8
HETATM    8 SI   UNL     1     -10.385  11.222  68.691  1.00  0.00    -0.156 Si 
HETATM    9  C   UNL     1      -8.724  10.670  69.355  1.00  0.00    -0.023 C  
HETATM   10  C   UNL     1     -11.410  11.994  70.058  1.00  0.00     0.029 C  
BRANCH   8  11
HETATM   11  O   UNL     1     -10.169  12.340  67.460  1.00  0.00    -0.201 OA 
HETATM   12 SI   UNL     1     -11.120  13.271  66.431  1.00  0.00    -0.273 Si 
HETATM   13  C   UNL     1     -12.221  12.195  65.340  1.00  0.00    -0.058 C  
HETATM   14  C   UNL     1     -10.084  14.349  65.290  1.00  0.00    -0.356 C  
HETATM   15  C   UNL     1     -12.255  14.401  67.426  1.00  0.00    -0.195 C  
ENDBRANCH   8  11
ENDBRANCH   5   8
TORSDOF 2
ENDMDL
MODEL      249
REMARK 921   NORMALIZED FREE ENERGY PREDICTED BY IDOCK:   -2.54 KCAL/MOL
REMARK 922        TOTAL FREE ENERGY PREDICTED BY IDOCK:   -3.07 KCAL/MOL
REMARK 923 INTER-LIGAND FREE ENERGY PREDICTED BY IDOCK:   -2.83 KCAL/MOL
REMARK 924 INTRA-LIGAND FREE ENERGY PREDICTED BY IDOCK:   -0.24 KCAL/MOL
REMARK 927      BINDING AFFINITY PREDICTED BY RF-SCORE:    0.00 PKD
ROOT
HETATM    1  O   UNL     1     -11.648   6.439  66.624  1.00  0.00    -0.671 OA 
HETATM    2  H   UNL     1     -11.845   6.678  65.727  1.00  0.00     0.000 HD 
HETATM    3 SI   UNL     1     -11.572   7.617  67.516  1.00  0.00    -0.489 Si 
HETATM    4  C   UNL     1     -10.006  10.201  65.057  1.00  0.00    -0.305 C  
HETATM    5  O   UNL     1      -9.458   9.364  66.071  1.00  0.00    -0.200 OA 
HETATM    6  O   UNL     1     -11.266   7.247  68.905  1.00  0.00    -0.449 OA 
HETATM    7  H   UNL     1     -11.218   8.003  69.478  1.00  0.00     0.000 HD 
ENDROOT
BRANCH   5   8
HETATM    8 SI   UNL     1      -7.924   8.709  65.824  1.00  0.00    -0.087 Si 
HETATM    9  C   UNL     1      -6.919   8.898  67.392  1.00  0.00    -0.075 C  
HETATM   10  C   UNL     1      -7.087   9.598  64.401  1.00  0.00    -0.118 C  
BRANCH   8  11
HETATM   11  O   UNL     1      -8.094   7.086  65.442  1.00  0.00    -0.122 OA 
HETATM   12 SI   UNL     1      -7.726   5.592  66.123  1.00  0.00    -0.082 Si 
HETATM   13  C   UNL     1      -5.870   5.393  66.398  1.00  0.00    -0.018 C  
HETATM   14  C   UNL     1      -8.287   4.161  65.039  1.00  0.00    -0.110 C  
HETATM   15  C   UNL     1      -8.561   5.410  67.803  1.00  0.00    -0.104 C  
ENDBRANCH   8  11
ENDBRANCH   5   8
TORSDOF 2
ENDMDL
MODEL      250
REMARK 921   NORMALIZED FREE ENERGY PREDICTED BY IDOCK:   -2.52 KCAL/MOL
REMARK 922        TOTAL FREE ENERGY PREDICTED BY IDOCK:   -3.06 KCAL/MOL
REMARK 923 INTER-LIGAND FREE ENERGY PREDICTED BY IDOCK:   -2.89 KCAL/MOL
REMARK 924 INTRA-LIGAND FREE ENERGY PREDICTED BY IDOCK:   -0.16 KCAL/MOL
REMARK 927      BINDING AFFINITY PREDICTED BY RF-SCORE:    0.00 PKD
ROOT
HETATM    1  O   UNL     1     -11.092   5.603  66.046  1.00  0.00    -0.721 OA 
HETATM    2  H   UNL     1     -11.065   4.666  66.203  1.00  0.00     0.000 HD 
HETATM    3 SI   UNL     1      -9.741   6.205  66.009  1.00  0.00    -0.165 Si 
HETATM    4  C   UNL     1      -7.977   4.022  68.711  1.00  0.00    -0.071 C  
HETATM    5  O   UNL     1      -8.581   5.312  68.742  1.00  0.00    -0.092 OA 
HETATM    6  O   UNL     1      -9.783   7.654  65.766  1.00  0.00    -0.393 OA 
HETATM    7  H   UNL     1      -8.916   8.041  65.742  1.00  0.00     0.000 HD 
ENDROOT
BRANCH   5   8
HETATM    8 SI   UNL     1      -9.400   5.778  70.140  1.00  0.00    -0.134 Si 
HETATM    9  C   UNL     1     -11.164   6.221  69.697  1.00  0.00    -0.437 C  
HETATM   10  C   UNL     1      -8.531   7.251  70.911  1.00  0.00    -0.128 C  
BRANCH   8  11
HETATM   11  O   UNL     1      -9.383   4.496  71.219  1.00  0.00    -0.133 OA 
HETATM   12 SI   UNL     1      -9.600   4.242  72.869  1.00  0.00    -0.114 Si 
HETATM   13  C   UNL     1      -8.332   5.195  73.890  1.00  0.00    -0.111 C  
HETATM   14  C   UNL     1      -9.442   2.427  73.333  1.00  0.00    -0.083 C  
HETATM   15  C   UNL     1     -11.308   4.832  73.407  1.00  0.00    -0.312 C  
ENDBRANCH   8  11
ENDBRANCH   5   8
TORSDOF 2
ENDMDL
MODEL      251
REMARK 921   NORMALIZED FREE ENERGY PREDICTED BY IDOCK:   -2.51 KCAL/MOL
REMARK 922        TOTAL FREE ENERGY PREDICTED BY IDOCK:   -3.04 KCAL/MOL
REMARK 923 INTER-LIGAND FREE ENERGY PREDICTED BY IDOCK:   -2.88 KCAL/MOL
REMARK 924 INTRA-LIGAND FREE ENERGY PREDICTED BY IDOCK:   -0.16 KCAL/MOL
REMARK 927      BINDING AFFINITY PREDICTED BY RF-SCORE:    0.00 PKD
ROOT
HETATM    1  O   UNL     1      -6.062  10.730  69.371  1.00  0.00    -0.045 OA 
HETATM    2  H   UNL     1      -6.404   9.888  69.094  1.00  0.00     0.000 HD 
HETATM    3 SI   UNL     1      -6.922  11.379  70.385  1.00  0.00    -0.235 Si 
HETATM    4  C   UNL     1     -10.419  10.230  69.109  1.00  0.00    -0.224 C  
HETATM    5  O   UNL     1      -9.666  11.428  68.942  1.00  0.00    -0.179 OA 
HETATM    6  O   UNL     1      -6.393  12.682  70.814  1.00  0.00    -0.499 OA 
HETATM    7  H   UNL     1      -6.945  13.098  71.465  1.00  0.00     0.000 HD 
ENDROOT
BRANCH   5   8
HETATM    8 SI   UNL     1      -9.771  12.240  67.469  1.00  0.00    -0.173 Si 
HETATM    9  C   UNL     1      -9.362  14.047  67.736  1.00  0.00    -0.205 C  
HETATM   10  C   UNL     1     -11.505  12.058  66.778  1.00  0.00    -0.345 C  
BRANCH   8  11
HETATM   11  O   UNL     1      -8.675  11.553  66.403  1.00  0.00    -0.184 OA 
HETATM   12 SI   UNL     1      -8.652  10.349  65.228  1.00  0.00    -0.135 Si 
HETATM   13  C   UNL     1      -9.091   8.664  65.954  1.00  0.00    -0.205 C  
HETATM   14  C   UNL     1      -6.967  10.185  64.412  1.00  0.00    -0.106 C  
HETATM   15  C   UNL     1      -9.917  10.722  63.880  1.00  0.00    -0.343 C  
ENDBRANCH   8  11
ENDBRANCH   5   8
TORSDOF 2
ENDMDL
MODEL      252
REMARK 921   NORMALIZED FREE ENERGY PREDICTED BY IDOCK:   -2.50 KCAL/MOL
REMARK 922        TOTAL FREE ENERGY PREDICTED BY IDOCK:   -3.03 KCAL/MOL
REMARK 923 INTER-LIGAND FREE ENERGY PREDICTED BY IDOCK:   -2.76 KCAL/MOL
REMARK 924 INTRA-LIGAND FREE ENERGY PREDICTED BY IDOCK:   -0.27 KCAL/MOL
REMARK 927      BINDING AFFINITY PREDICTED BY RF-SCORE:    0.00 PKD
ROOT
HETATM    1  O   UNL     1      -8.474  13.950  69.090  1.00  0.00    -0.353 OA 
HETATM    2  H   UNL     1      -9.010  13.878  69.871  1.00  0.00     0.000 HD 
HETATM    3 SI   UNL     1      -9.249  13.710  67.853  1.00  0.00    -0.160 Si 
HETATM    4  C   UNL     1     -11.704  10.972  69.140  1.00  0.00    -0.333 C  
HETATM    5  O   UNL     1     -10.479  10.919  68.414  1.00  0.00    -0.167 OA 
HETATM    6  O   UNL     1      -8.420  13.820  66.644  1.00  0.00    -0.435 OA 
HETATM    7  H   UNL     1      -8.918  13.666  65.850  1.00  0.00     0.000 HD 
ENDROOT
BRANCH   5   8
HETATM    8 SI   UNL     1      -9.428   9.636  68.713  1.00  0.00    -0.134 Si 
HETATM    9  C   UNL     1     -10.290   8.378  69.798  1.00  0.00    -0.216 C  
HETATM   10  C   UNL     1      -7.883  10.279  69.560  1.00  0.00    -0.168 C  
BRANCH   8  11
HETATM   11  O   UNL     1      -9.008   8.940  67.247  1.00  0.00    -0.127 OA 
HETATM   12 SI   UNL     1      -8.575   9.439  65.699  1.00  0.00    -0.112 Si 
HETATM   13  C   UNL     1      -9.942  10.457  64.890  1.00  0.00    -0.339 C  
HETATM   14  C   UNL     1      -8.212   7.987  64.561  1.00  0.00    -0.094 C  
HETATM   15  C   UNL     1      -7.035  10.525  65.765  1.00  0.00    -0.125 C  
ENDBRANCH   8  11
ENDBRANCH   5   8
TORSDOF 2
ENDMDL
MODEL      253
REMARK 921   NORMALIZED FREE ENERGY PREDICTED BY IDOCK:   -2.50 KCAL/MOL
REMARK 922        TOTAL FREE ENERGY PREDICTED BY IDOCK:   -3.03 KCAL/MOL
REMARK 923 INTER-LIGAND FREE ENERGY PREDICTED BY IDOCK:   -2.81 KCAL/MOL
REMARK 924 INTRA-LIGAND FREE ENERGY PREDICTED BY IDOCK:   -0.22 KCAL/MOL
REMARK 927      BINDING AFFINITY PREDICTED BY RF-SCORE:    0.00 PKD
ROOT
HETATM    1  O   UNL     1     -10.541  13.979  64.325  1.00  0.00    -0.591 OA 
HETATM    2  H   UNL     1      -9.668  14.239  64.056  1.00  0.00     0.000 HD 
HETATM    3 SI   UNL     1     -10.927  14.570  65.626  1.00  0.00    -0.283 Si 
HETATM    4  C   UNL     1      -7.472  14.508  67.425  1.00  0.00    -0.169 C  
HETATM    5  O   UNL     1      -8.601  13.640  67.453  1.00  0.00    -0.187 OA 
HETATM    6  O   UNL     1     -12.278  14.168  66.042  1.00  0.00    -0.419 OA 
HETATM    7  H   UNL     1     -12.526  14.547  66.877  1.00  0.00     0.000 HD 
ENDROOT
BRANCH   5   8
HETATM    8 SI   UNL     1      -8.333  11.984  67.612  1.00  0.00    -0.120 Si 
HETATM    9  C   UNL     1      -9.912  11.160  68.190  1.00  0.00    -0.178 C  
HETATM   10  C   UNL     1      -6.954  11.690  68.848  1.00  0.00    -0.109 C  
BRANCH   8  11
HETATM   11  O   UNL     1      -7.880  11.373  66.118  1.00  0.00    -0.084 OA 
HETATM   12 SI   UNL     1      -8.346  10.139  65.073  1.00  0.00    -0.120 Si 
HETATM   13  C   UNL     1      -8.177   8.443  65.883  1.00  0.00    -0.123 C  
HETATM   14  C   UNL     1      -7.314  10.113  63.501  1.00  0.00    -0.127 C  
HETATM   15  C   UNL     1     -10.154  10.343  64.578  1.00  0.00    -0.295 C  
ENDBRANCH   8  11
ENDBRANCH   5   8
TORSDOF 2
ENDMDL
MODEL      254
REMARK 921   NORMALIZED FREE ENERGY PREDICTED BY IDOCK:   -2.50 KCAL/MOL
REMARK 922        TOTAL FREE ENERGY PREDICTED BY IDOCK:   -3.02 KCAL/MOL
REMARK 923 INTER-LIGAND FREE ENERGY PREDICTED BY IDOCK:   -2.96 KCAL/MOL
REMARK 924 INTRA-LIGAND FREE ENERGY PREDICTED BY IDOCK:   -0.06 KCAL/MOL
REMARK 927      BINDING AFFINITY PREDICTED BY RF-SCORE:    0.00 PKD
ROOT
HETATM    1  O   UNL     1     -10.883  12.710  64.855  1.00  0.00    -0.280 OA 
HETATM    2  H   UNL     1     -10.781  12.774  65.797  1.00  0.00     0.000 HD 
HETATM    3 SI   UNL     1     -11.668  11.521  64.454  1.00  0.00    -0.325 Si 
HETATM    4  C   UNL     1     -10.461   8.996  67.164  1.00  0.00    -0.263 C  
HETATM    5  O   UNL     1     -10.077   9.233  65.813  1.00  0.00    -0.268 OA 
HETATM    6  O   UNL     1     -11.826  11.423  62.996  1.00  0.00    -0.903 OA 
HETATM    7  H   UNL     1     -12.329  10.660  62.739  1.00  0.00     0.000 HD 
ENDROOT
BRANCH   5   8
HETATM    8 SI   UNL     1      -8.456   9.040  65.396  1.00  0.00    -0.110 Si 
HETATM    9  C   UNL     1      -8.304   8.992  63.531  1.00  0.00    -0.181 C  
HETATM   10  C   UNL     1      -7.803   7.449  66.145  1.00  0.00    -0.107 C  
BRANCH   8  11
HETATM   11  O   UNL     1      -7.591  10.338  66.010  1.00  0.00    -0.115 OA 
HETATM   12 SI   UNL     1      -6.827  10.770  67.446  1.00  0.00    -0.066 Si 
HETATM   13  C   UNL     1      -8.041  10.822  68.889  1.00  0.00    -0.145 C  
HETATM   14  C   UNL     1      -6.016  12.463  67.337  1.00  0.00    -0.154 C  
HETATM   15  C   UNL     1      -5.492   9.513  67.885  1.00  0.00    -0.040 C  
ENDBRANCH   8  11
ENDBRANCH   5   8
TORSDOF 2
ENDMDL
MODEL      255
REMARK 921   NORMALIZED FREE ENERGY PREDICTED BY IDOCK:   -2.48 KCAL/MOL
REMARK 922        TOTAL FREE ENERGY PREDICTED BY IDOCK:   -3.01 KCAL/MOL
REMARK 923 INTER-LIGAND FREE ENERGY PREDICTED BY IDOCK:   -2.81 KCAL/MOL
REMARK 924 INTRA-LIGAND FREE ENERGY PREDICTED BY IDOCK:   -0.20 KCAL/MOL
REMARK 927      BINDING AFFINITY PREDICTED BY RF-SCORE:    0.00 PKD
ROOT
HETATM    1  O   UNL     1     -11.827  10.268  71.791  1.00  0.00    -0.215 OA 
HETATM    2  H   UNL     1     -11.129  10.783  72.180  1.00  0.00     0.000 HD 
HETATM    3 SI   UNL     1     -11.313   9.087  71.062  1.00  0.00    -0.227 Si 
HETATM    4  C   UNL     1      -8.013  10.585  69.632  1.00  0.00    -0.063 C  
HETATM    5  O   UNL     1      -9.314  10.392  69.084  1.00  0.00    -0.186 OA 
HETATM    6  O   UNL     1     -12.392   8.291  70.461  1.00  0.00    -0.479 OA 
HETATM    7  H   UNL     1     -12.063   7.533  69.993  1.00  0.00     0.000 HD 
ENDROOT
BRANCH   5   8
HETATM    8 SI   UNL     1      -9.905  11.543  68.004  1.00  0.00    -0.158 Si 
HETATM    9  C   UNL     1     -11.141  10.729  66.857  1.00  0.00    -0.133 C  
HETATM   10  C   UNL     1      -8.481  12.268  67.022  1.00  0.00    -0.181 C  
BRANCH   8  11
HETATM   11  O   UNL     1     -10.651  12.761  68.882  1.00  0.00    -0.212 OA 
HETATM   12 SI   UNL     1     -10.626  14.442  68.968  1.00  0.00    -0.200 Si 
HETATM   13  C   UNL     1      -8.911  15.088  69.418  1.00  0.00    -0.112 C  
HETATM   14  C   UNL     1     -11.828  15.105  70.252  1.00  0.00    -0.311 C  
HETATM   15  C   UNL     1     -11.085  15.193  67.300  1.00  0.00    -0.332 C  
ENDBRANCH   8  11
ENDBRANCH   5   8
TORSDOF 2
ENDMDL
MODEL      256
REMARK 921   NORMALIZED FREE ENERGY PREDICTED BY IDOCK:   -2.48 KCAL/MOL
REMARK 922        TOTAL FREE ENERGY PREDICTED BY IDOCK:   -3.01 KCAL/MOL
REMARK 923 INTER-LIGAND FREE ENERGY PREDICTED BY IDOCK:   -2.80 KCAL/MOL
REMARK 924 INTRA-LIGAND FREE ENERGY PREDICTED BY IDOCK:   -0.20 KCAL/MOL
REMARK 927      BINDING AFFINITY PREDICTED BY RF-SCORE:    0.00 PKD
ROOT
HETATM    1  O   UNL     1      -6.662  13.190  70.168  1.00  0.00    -0.355 OA 
HETATM    2  H   UNL     1      -6.365  14.018  70.527  1.00  0.00     0.000 HD 
HETATM    3 SI   UNL     1      -6.233  12.999  68.765  1.00  0.00    -0.063 Si 
HETATM    4  C   UNL     1      -6.479  16.676  67.500  1.00  0.00    -0.156 C  
HETATM    5  O   UNL     1      -7.354  15.555  67.413  1.00  0.00    -0.173 OA 
HETATM    6  O   UNL     1      -6.693  11.718  68.210  1.00  0.00    -0.060 OA 
HETATM    7  H   UNL     1      -6.418  11.596  67.309  1.00  0.00     0.000 HD 
ENDROOT
BRANCH   5   8
HETATM    8 SI   UNL     1      -9.015  15.828  67.493  1.00  0.00    -0.175 Si 
HETATM    9  C   UNL     1      -9.667  16.142  65.766  1.00  0.00    -0.290 C  
HETATM   10  C   UNL     1      -9.352  17.307  68.596  1.00  0.00    -0.267 C  
BRANCH   8  11
HETATM   11  O   UNL     1      -9.748  14.470  68.146  1.00  0.00    -0.208 OA 
HETATM   12 SI   UNL     1     -11.303  13.927  68.493  1.00  0.00    -0.215 Si 
HETATM   13  C   UNL     1     -12.174  15.061  69.725  1.00  0.00    -0.285 C  
HETATM   14  C   UNL     1     -11.302  12.197  69.229  1.00  0.00    -0.266 C  
HETATM   15  C   UNL     1     -12.353  13.892  66.928  1.00  0.00    -0.292 C  
ENDBRANCH   8  11
ENDBRANCH   5   8
TORSDOF 2
ENDMDL
MODEL      257
REMARK 921   NORMALIZED FREE ENERGY PREDICTED BY IDOCK:   -2.48 KCAL/MOL
REMARK 922        TOTAL FREE ENERGY PREDICTED BY IDOCK:   -3.00 KCAL/MOL
REMARK 923 INTER-LIGAND FREE ENERGY PREDICTED BY IDOCK:   -2.84 KCAL/MOL
REMARK 924 INTRA-LIGAND FREE ENERGY PREDICTED BY IDOCK:   -0.16 KCAL/MOL
REMARK 927      BINDING AFFINITY PREDICTED BY RF-SCORE:    0.00 PKD
ROOT
HETATM    1  O   UNL     1     -10.937  11.083  70.121  1.00  0.00    -0.462 OA 
HETATM    2  H   UNL     1     -10.769  10.766  71.001  1.00  0.00     0.000 HD 
HETATM    3 SI   UNL     1     -12.122  10.440  69.510  1.00  0.00    -0.239 Si 
HETATM    4  C   UNL     1     -11.774   6.863  71.015  1.00  0.00    -0.345 C  
HETATM    5  O   UNL     1     -11.404   7.434  69.763  1.00  0.00    -0.154 OA 
HETATM    6  O   UNL     1     -12.383  10.931  68.149  1.00  0.00    -0.636 OA 
HETATM    7  H   UNL     1     -13.142  10.518  67.757  1.00  0.00     0.000 HD 
ENDROOT
BRANCH   5   8
HETATM    8 SI   UNL     1      -9.989   6.893  69.025  1.00  0.00    -0.146 Si 
HETATM    9  C   UNL     1      -8.552   7.936  69.619  1.00  0.00    -0.133 C  
HETATM   10  C   UNL     1     -10.165   7.027  67.162  1.00  0.00    -0.248 C  
BRANCH   8  11
HETATM   11  O   UNL     1      -9.748   5.289  69.446  1.00  0.00    -0.145 OA 
HETATM   12 SI   UNL     1      -8.608   4.080  69.183  1.00  0.00    -0.071 Si 
HETATM   13  C   UNL     1      -8.424   3.686  67.347  1.00  0.00    -0.096 C  
HETATM   14  C   UNL     1      -9.058   2.477  70.057  1.00  0.00    -0.113 C  
HETATM   15  C   UNL     1      -6.914   4.626  69.808  1.00  0.00    -0.052 C  
ENDBRANCH   8  11
ENDBRANCH   5   8
TORSDOF 2
ENDMDL
MODEL      258
REMARK 921   NORMALIZED FREE ENERGY PREDICTED BY IDOCK:   -2.46 KCAL/MOL
REMARK 922        TOTAL FREE ENERGY PREDICTED BY IDOCK:   -2.98 KCAL/MOL
REMARK 923 INTER-LIGAND FREE ENERGY PREDICTED BY IDOCK:   -2.77 KCAL/MOL
REMARK 924 INTRA-LIGAND FREE ENERGY PREDICTED BY IDOCK:   -0.21 KCAL/MOL
REMARK 927      BINDING AFFINITY PREDICTED BY RF-SCORE:    0.00 PKD
ROOT
HETATM    1  O   UNL     1      -6.310   6.894  72.411  1.00  0.00    -0.052 OA 
HETATM    2  H   UNL     1      -6.629   6.037  72.670  1.00  0.00     0.000 HD 
HETATM    3 SI   UNL     1      -6.768   7.963  73.328  1.00  0.00    -0.063 Si 
HETATM    4  C   UNL     1     -10.314   6.605  74.198  1.00  0.00    -0.321 C  
HETATM    5  O   UNL     1      -9.843   7.571  73.263  1.00  0.00    -0.234 OA 
HETATM    6  O   UNL     1      -6.276   9.289  72.928  1.00  0.00    -0.307 OA 
HETATM    7  H   UNL     1      -6.569   9.974  73.515  1.00  0.00     0.000 HD 
ENDROOT
BRANCH   5   8
HETATM    8 SI   UNL     1     -10.625   7.692  71.775  1.00  0.00    -0.201 Si 
HETATM    9  C   UNL     1     -11.194   9.458  71.523  1.00  0.00    -0.386 C  
HETATM   10  C   UNL     1     -12.092   6.523  71.744  1.00  0.00    -0.342 C  
BRANCH   8  11
HETATM   11  O   UNL     1      -9.545   7.258  70.569  1.00  0.00    -0.169 OA 
HETATM   12 SI   UNL     1      -9.497   7.202  68.887  1.00  0.00    -0.139 Si 
HETATM   13  C   UNL     1     -10.822   6.052  68.194  1.00  0.00    -0.281 C  
HETATM   14  C   UNL     1      -7.838   6.595  68.245  1.00  0.00    -0.110 C  
HETATM   15  C   UNL     1      -9.809   8.915  68.163  1.00  0.00    -0.167 C  
ENDBRANCH   8  11
ENDBRANCH   5   8
TORSDOF 2
ENDMDL
MODEL      259
REMARK 921   NORMALIZED FREE ENERGY PREDICTED BY IDOCK:   -2.46 KCAL/MOL
REMARK 922        TOTAL FREE ENERGY PREDICTED BY IDOCK:   -2.98 KCAL/MOL
REMARK 923 INTER-LIGAND FREE ENERGY PREDICTED BY IDOCK:   -2.74 KCAL/MOL
REMARK 924 INTRA-LIGAND FREE ENERGY PREDICTED BY IDOCK:   -0.23 KCAL/MOL
REMARK 927      BINDING AFFINITY PREDICTED BY RF-SCORE:    0.00 PKD
ROOT
HETATM    1  O   UNL     1     -11.529   5.153  65.907  1.00  0.00    -0.653 OA 
HETATM    2  H   UNL     1     -11.722   4.989  66.822  1.00  0.00     0.000 HD 
HETATM    3 SI   UNL     1     -10.315   4.438  65.453  1.00  0.00    -0.165 Si 
HETATM    4  C   UNL     1      -8.170   4.661  68.698  1.00  0.00    -0.082 C  
HETATM    5  O   UNL     1      -8.203   5.426  67.496  1.00  0.00    -0.101 OA 
HETATM    6  O   UNL     1     -10.014   4.692  64.037  1.00  0.00    -0.368 OA 
HETATM    7  H   UNL     1      -9.236   4.234  63.745  1.00  0.00     0.000 HD 
ENDROOT
BRANCH   5   8
HETATM    8 SI   UNL     1      -7.911   7.083  67.595  1.00  0.00    -0.096 Si 
HETATM    9  C   UNL     1      -8.782   7.943  66.177  1.00  0.00    -0.158 C  
HETATM   10  C   UNL     1      -6.064   7.399  67.514  1.00  0.00    -0.046 C  
BRANCH   8  11
HETATM   11  O   UNL     1      -8.506   7.642  69.059  1.00  0.00    -0.130 OA 
HETATM   12 SI   UNL     1      -9.992   8.050  69.736  1.00  0.00    -0.173 Si 
HETATM   13  C   UNL     1     -10.820   9.461  68.795  1.00  0.00    -0.114 C  
HETATM   14  C   UNL     1      -9.829   8.593  71.528  1.00  0.00    -0.272 C  
HETATM   15  C   UNL     1     -11.167   6.577  69.680  1.00  0.00    -0.384 C  
ENDBRANCH   8  11
ENDBRANCH   5   8
TORSDOF 2
ENDMDL
MODEL      260
REMARK 921   NORMALIZED FREE ENERGY PREDICTED BY IDOCK:   -2.46 KCAL/MOL
REMARK 922        TOTAL FREE ENERGY PREDICTED BY IDOCK:   -2.98 KCAL/MOL
REMARK 923 INTER-LIGAND FREE ENERGY PREDICTED BY IDOCK:   -2.82 KCAL/MOL
REMARK 924 INTRA-LIGAND FREE ENERGY PREDICTED BY IDOCK:   -0.16 KCAL/MOL
REMARK 927      BINDING AFFINITY PREDICTED BY RF-SCORE:    0.00 PKD
ROOT
HETATM    1  O   UNL     1     -10.992  16.318  67.527  1.00  0.00    -0.296 OA 
HETATM    2  H   UNL     1     -10.203  16.365  67.001  1.00  0.00     0.000 HD 
HETATM    3 SI   UNL     1     -10.712  15.915  68.924  1.00  0.00    -0.198 Si 
HETATM    4  C   UNL     1      -7.783  13.420  68.310  1.00  0.00    -0.141 C  
HETATM    5  O   UNL     1      -9.183  13.249  68.512  1.00  0.00    -0.168 OA 
HETATM    6  O   UNL     1     -11.933  15.841  69.739  1.00  0.00    -0.352 OA 
HETATM    7  H   UNL     1     -11.754  15.582  70.634  1.00  0.00     0.000 HD 
ENDROOT
BRANCH   5   8
HETATM    8 SI   UNL     1      -9.965  12.008  67.682  1.00  0.00    -0.174 Si 
HETATM    9  C   UNL     1     -10.115  12.478  65.876  1.00  0.00    -0.254 C  
HETATM   10  C   UNL     1     -11.663  11.731  68.428  1.00  0.00    -0.325 C  
BRANCH   8  11
HETATM   11  O   UNL     1      -9.056  10.608  67.838  1.00  0.00    -0.142 OA 
HETATM   12 SI   UNL     1      -9.304   8.985  68.206  1.00  0.00    -0.132 Si 
HETATM   13  C   UNL     1     -10.039   8.769  69.930  1.00  0.00    -0.191 C  
HETATM   14  C   UNL     1      -7.709   7.992  68.150  1.00  0.00    -0.118 C  
HETATM   15  C   UNL     1     -10.513   8.211  66.983  1.00  0.00    -0.326 C  
ENDBRANCH   8  11
ENDBRANCH   5   8
TORSDOF 2
ENDMDL
MODEL      261
REMARK 921   NORMALIZED FREE ENERGY PREDICTED BY IDOCK:   -2.45 KCAL/MOL
REMARK 922        TOTAL FREE ENERGY PREDICTED BY IDOCK:   -2.97 KCAL/MOL
REMARK 923 INTER-LIGAND FREE ENERGY PREDICTED BY IDOCK:   -3.97 KCAL/MOL
REMARK 924 INTRA-LIGAND FREE ENERGY PREDICTED BY IDOCK:    0.99 KCAL/MOL
REMARK 927      BINDING AFFINITY PREDICTED BY RF-SCORE:    0.00 PKD
ROOT
HETATM    1  O   UNL     1     -12.979  12.508  64.439  1.00  0.00    -0.748 OA 
HETATM    2  H   UNL     1     -12.693  11.624  64.635  1.00  0.00     0.000 HD 
HETATM    3 SI   UNL     1     -11.864  13.373  63.991  1.00  0.00    -0.338 Si 
HETATM    4  C   UNL     1      -8.998  11.946  66.211  1.00  0.00    -0.157 C  
HETATM    5  O   UNL     1      -9.859  13.074  66.337  1.00  0.00    -0.259 OA 
HETATM    6  O   UNL     1     -12.307  14.741  63.688  1.00  0.00    -1.046 OA 
HETATM    7  H   UNL     1     -11.591  15.296  63.401  1.00  0.00     0.000 HD 
ENDROOT
BRANCH   5   8
HETATM    8 SI   UNL     1     -10.372  13.520  67.879  1.00  0.00    -0.214 Si 
HETATM    9  C   UNL     1     -12.159  14.073  67.794  1.00  0.00    -0.290 C  
HETATM   10  C   UNL     1      -9.289  14.911  68.520  1.00  0.00    -0.196 C  
BRANCH   8  11
HETATM   11  O   UNL     1     -10.229  12.193  68.893  1.00  0.00    -0.157 OA 
HETATM   12 SI   UNL     1      -9.418  10.719  68.923  1.00  0.00    -0.136 Si 
HETATM   13  C   UNL     1      -9.909   9.626  67.465  1.00  0.00    -0.169 C  
HETATM   14  C   UNL     1      -9.770   9.747  70.494  1.00  0.00    -0.131 C  
HETATM   15  C   UNL     1      -7.555  10.991  68.813  1.00  0.00    -0.127 C  
ENDBRANCH   8  11
ENDBRANCH   5   8
TORSDOF 2
ENDMDL
MODEL      262
REMARK 921   NORMALIZED FREE ENERGY PREDICTED BY IDOCK:   -2.45 KCAL/MOL
REMARK 922        TOTAL FREE ENERGY PREDICTED BY IDOCK:   -2.97 KCAL/MOL
REMARK 923 INTER-LIGAND FREE ENERGY PREDICTED BY IDOCK:   -2.80 KCAL/MOL
REMARK 924 INTRA-LIGAND FREE ENERGY PREDICTED BY IDOCK:   -0.18 KCAL/MOL
REMARK 927      BINDING AFFINITY PREDICTED BY RF-SCORE:    0.00 PKD
ROOT
HETATM    1  O   UNL     1     -13.286   7.453  70.740  1.00  0.00    -0.603 OA 
HETATM    2  H   UNL     1     -13.301   7.625  69.806  1.00  0.00     0.000 HD 
HETATM    3 SI   UNL     1     -12.358   8.352  71.462  1.00  0.00    -0.270 Si 
HETATM    4  C   UNL     1      -9.548   8.681  68.783  1.00  0.00    -0.156 C  
HETATM    5  O   UNL     1      -9.701   7.864  69.940  1.00  0.00    -0.175 OA 
HETATM    6  O   UNL     1     -12.334   8.085  72.907  1.00  0.00    -0.616 OA 
HETATM    7  H   UNL     1     -11.739   8.662  73.371  1.00  0.00     0.000 HD 
ENDROOT
BRANCH   5   8
HETATM    8 SI   UNL     1      -9.091   6.293  69.896  1.00  0.00    -0.130 Si 
HETATM    9  C   UNL     1      -7.230   6.354  70.093  1.00  0.00    -0.084 C  
HETATM   10  C   UNL     1      -9.548   5.491  68.264  1.00  0.00    -0.120 C  
BRANCH   8  11
HETATM   11  O   UNL     1      -9.774   5.421  71.154  1.00  0.00    -0.162 OA 
HETATM   12 SI   UNL     1      -9.289   4.302  72.314  1.00  0.00    -0.108 Si 
HETATM   13  C   UNL     1      -8.606   2.733  71.520  1.00  0.00    -0.064 C  
HETATM   14  C   UNL     1     -10.705   3.788  73.439  1.00  0.00    -0.207 C  
HETATM   15  C   UNL     1      -7.921   5.023  73.392  1.00  0.00    -0.104 C  
ENDBRANCH   8  11
ENDBRANCH   5   8
TORSDOF 2
ENDMDL
MODEL      263
REMARK 921   NORMALIZED FREE ENERGY PREDICTED BY IDOCK:   -2.44 KCAL/MOL
REMARK 922        TOTAL FREE ENERGY PREDICTED BY IDOCK:   -2.96 KCAL/MOL
REMARK 923 INTER-LIGAND FREE ENERGY PREDICTED BY IDOCK:   -2.73 KCAL/MOL
REMARK 924 INTRA-LIGAND FREE ENERGY PREDICTED BY IDOCK:   -0.23 KCAL/MOL
REMARK 927      BINDING AFFINITY PREDICTED BY RF-SCORE:    0.00 PKD
ROOT
HETATM    1  O   UNL     1      -8.502   7.062  64.053  1.00  0.00    -0.348 OA 
HETATM    2  H   UNL     1      -7.838   6.517  64.458  1.00  0.00     0.000 HD 
HETATM    3 SI   UNL     1      -8.118   8.491  64.029  1.00  0.00    -0.110 Si 
HETATM    4  C   UNL     1      -6.215   8.714  67.421  1.00  0.00    -0.056 C  
HETATM    5  O   UNL     1      -7.546   9.037  67.027  1.00  0.00    -0.090 OA 
HETATM    6  O   UNL     1      -9.146   9.334  63.402  1.00  0.00    -0.422 OA 
HETATM    7  H   UNL     1      -8.900  10.251  63.387  1.00  0.00     0.000 HD 
ENDROOT
BRANCH   5   8
HETATM    8 SI   UNL     1      -8.792   8.776  68.131  1.00  0.00    -0.128 Si 
HETATM    9  C   UNL     1     -10.416   9.292  67.354  1.00  0.00    -0.273 C  
HETATM   10  C   UNL     1      -8.467   9.773  69.686  1.00  0.00    -0.185 C  
BRANCH   8  11
HETATM   11  O   UNL     1      -8.831   7.145  68.515  1.00  0.00    -0.126 OA 
HETATM   12 SI   UNL     1      -9.945   5.884  68.523  1.00  0.00    -0.120 Si 
HETATM   13  C   UNL     1     -11.398   6.249  69.670  1.00  0.00    -0.422 C  
HETATM   14  C   UNL     1      -9.178   4.263  69.089  1.00  0.00    -0.145 C  
HETATM   15  C   UNL     1     -10.652   5.620  66.795  1.00  0.00    -0.304 C  
ENDBRANCH   8  11
ENDBRANCH   5   8
TORSDOF 2
ENDMDL
MODEL      264
REMARK 921   NORMALIZED FREE ENERGY PREDICTED BY IDOCK:   -2.43 KCAL/MOL
REMARK 922        TOTAL FREE ENERGY PREDICTED BY IDOCK:   -2.95 KCAL/MOL
REMARK 923 INTER-LIGAND FREE ENERGY PREDICTED BY IDOCK:   -2.72 KCAL/MOL
REMARK 924 INTRA-LIGAND FREE ENERGY PREDICTED BY IDOCK:   -0.23 KCAL/MOL
REMARK 927      BINDING AFFINITY PREDICTED BY RF-SCORE:    0.00 PKD
ROOT
HETATM    1  O   UNL     1     -12.520  13.841  72.909  1.00  0.00     0.008 OA 
HETATM    2  H   UNL     1     -12.021  13.041  72.790  1.00  0.00     0.000 HD 
HETATM    3 SI   UNL     1     -13.617  13.969  71.923  1.00  0.00    -0.301 Si 
HETATM    4  C   UNL     1     -11.901  12.351  68.821  1.00  0.00    -0.311 C  
HETATM    5  O   UNL     1     -12.084  13.701  69.241  1.00  0.00    -0.334 OA 
HETATM    6  O   UNL     1     -14.390  15.205  72.106  1.00  0.00    -0.513 OA 
HETATM    7  H   UNL     1     -15.093  15.287  71.473  1.00  0.00     0.000 HD 
ENDROOT
BRANCH   5   8
HETATM    8 SI   UNL     1     -10.860  14.813  68.914  1.00  0.00    -0.206 Si 
HETATM    9  C   UNL     1     -10.988  16.236  70.124  1.00  0.00    -0.332 C  
HETATM   10  C   UNL     1     -11.037  15.435  67.153  1.00  0.00    -0.291 C  
BRANCH   8  11
HETATM   11  O   UNL     1      -9.382  14.043  69.085  1.00  0.00     0.056 OA 
HETATM   12 SI   UNL     1      -8.062  13.632  68.125  1.00  0.00    -0.106 Si 
HETATM   13  C   UNL     1      -8.562  12.484  66.713  1.00  0.00    -0.109 C  
HETATM   14  C   UNL     1      -6.715  12.760  69.105  1.00  0.00    -0.080 C  
HETATM   15  C   UNL     1      -7.308  15.176  67.348  1.00  0.00    -0.205 C  
ENDBRANCH   8  11
ENDBRANCH   5   8
TORSDOF 2
ENDMDL
MODEL      265
REMARK 921   NORMALIZED FREE ENERGY PREDICTED BY IDOCK:   -2.43 KCAL/MOL
REMARK 922        TOTAL FREE ENERGY PREDICTED BY IDOCK:   -2.95 KCAL/MOL
REMARK 923 INTER-LIGAND FREE ENERGY PREDICTED BY IDOCK:   -2.74 KCAL/MOL
REMARK 924 INTRA-LIGAND FREE ENERGY PREDICTED BY IDOCK:   -0.21 KCAL/MOL
REMARK 927      BINDING AFFINITY PREDICTED BY RF-SCORE:    0.00 PKD
ROOT
HETATM    1  O   UNL     1     -10.265  10.426  70.161  1.00  0.00    -0.429 OA 
HETATM    2  H   UNL     1     -10.493  10.690  71.044  1.00  0.00     0.000 HD 
HETATM    3 SI   UNL     1     -11.394   9.775  69.460  1.00  0.00    -0.219 Si 
HETATM    4  C   UNL     1     -13.020   7.886  72.454  1.00  0.00    -0.004 C  
HETATM    5  O   UNL     1     -12.118   7.489  71.426  1.00  0.00    -0.303 OA 
HETATM    6  O   UNL     1     -11.041   9.365  68.093  1.00  0.00    -0.489 OA 
HETATM    7  H   UNL     1     -11.765   8.947  67.644  1.00  0.00     0.000 HD 
ENDROOT
BRANCH   5   8
HETATM    8 SI   UNL     1     -10.923   6.360  71.802  1.00  0.00    -0.214 Si 
HETATM    9  C   UNL     1     -11.602   5.145  73.054  1.00  0.00    -0.223 C  
HETATM   10  C   UNL     1      -9.424   7.246  72.499  1.00  0.00    -0.147 C  
BRANCH   8  11
HETATM   11  O   UNL     1     -10.490   5.556  70.397  1.00  0.00    -0.255 OA 
HETATM   12 SI   UNL     1      -9.353   4.418  69.903  1.00  0.00    -0.089 Si 
HETATM   13  C   UNL     1      -7.591   5.039  70.160  1.00  0.00    -0.060 C  
HETATM   14  C   UNL     1      -9.532   3.981  68.083  1.00  0.00    -0.158 C  
HETATM   15  C   UNL     1      -9.536   2.829  70.902  1.00  0.00    -0.154 C  
ENDBRANCH   8  11
ENDBRANCH   5   8
TORSDOF 2
ENDMDL
MODEL      266
REMARK 921   NORMALIZED FREE ENERGY PREDICTED BY IDOCK:   -2.43 KCAL/MOL
REMARK 922        TOTAL FREE ENERGY PREDICTED BY IDOCK:   -2.95 KCAL/MOL
REMARK 923 INTER-LIGAND FREE ENERGY PREDICTED BY IDOCK:   -2.69 KCAL/MOL
REMARK 924 INTRA-LIGAND FREE ENERGY PREDICTED BY IDOCK:   -0.26 KCAL/MOL
REMARK 927      BINDING AFFINITY PREDICTED BY RF-SCORE:    0.00 PKD
ROOT
HETATM    1  O   UNL     1      -6.920  11.906  70.097  1.00  0.00    -0.392 OA 
HETATM    2  H   UNL     1      -6.544  11.596  70.912  1.00  0.00     0.000 HD 
HETATM    3 SI   UNL     1      -8.355  11.565  69.974  1.00  0.00    -0.317 Si 
HETATM    4  C   UNL     1      -8.354   8.091  71.739  1.00  0.00    -0.127 C  
HETATM    5  O   UNL     1      -8.304   8.490  70.372  1.00  0.00    -0.111 OA 
HETATM    6  O   UNL     1      -8.937  12.044  68.712  1.00  0.00    -0.369 OA 
HETATM    7  H   UNL     1      -9.857  11.825  68.634  1.00  0.00     0.000 HD 
ENDROOT
BRANCH   5   8
HETATM    8 SI   UNL     1      -7.382   7.569  69.303  1.00  0.00    -0.068 Si 
HETATM    9  C   UNL     1      -6.297   6.399  70.283  1.00  0.00    -0.039 C  
HETATM   10  C   UNL     1      -6.329   8.705  68.247  1.00  0.00    -0.055 C  
BRANCH   8  11
HETATM   11  O   UNL     1      -8.421   6.699  68.317  1.00  0.00    -0.120 OA 
HETATM   12 SI   UNL     1     -10.038   6.739  67.853  1.00  0.00    -0.136 Si 
HETATM   13  C   UNL     1     -11.191   6.548  69.334  1.00  0.00    -0.356 C  
HETATM   14  C   UNL     1     -10.461   5.371  66.635  1.00  0.00    -0.298 C  
HETATM   15  C   UNL     1     -10.447   8.390  67.037  1.00  0.00    -0.305 C  
ENDBRANCH   8  11
ENDBRANCH   5   8
TORSDOF 2
ENDMDL
MODEL      267
REMARK 921   NORMALIZED FREE ENERGY PREDICTED BY IDOCK:   -2.43 KCAL/MOL
REMARK 922        TOTAL FREE ENERGY PREDICTED BY IDOCK:   -2.95 KCAL/MOL
REMARK 923 INTER-LIGAND FREE ENERGY PREDICTED BY IDOCK:   -2.78 KCAL/MOL
REMARK 924 INTRA-LIGAND FREE ENERGY PREDICTED BY IDOCK:   -0.17 KCAL/MOL
REMARK 927      BINDING AFFINITY PREDICTED BY RF-SCORE:    0.00 PKD
ROOT
HETATM    1  O   UNL     1     -12.554  10.775  69.143  1.00  0.00    -0.704 OA 
HETATM    2  H   UNL     1     -12.852  10.306  68.372  1.00  0.00     0.000 HD 
HETATM    3 SI   UNL     1     -12.221  12.187  68.848  1.00  0.00    -0.264 Si 
HETATM    4  C   UNL     1     -10.750  11.776  65.263  1.00  0.00    -0.287 C  
HETATM    5  O   UNL     1     -10.157  11.878  66.555  1.00  0.00    -0.199 OA 
HETATM    6  O   UNL     1     -11.760  12.912  70.040  1.00  0.00    -0.458 OA 
HETATM    7  H   UNL     1     -11.547  13.818  69.851  1.00  0.00     0.000 HD 
ENDROOT
BRANCH   5   8
HETATM    8 SI   UNL     1      -8.757  10.991  66.864  1.00  0.00    -0.130 Si 
HETATM    9  C   UNL     1      -8.972  10.048  68.467  1.00  0.00    -0.124 C  
HETATM   10  C   UNL     1      -7.293  12.157  66.983  1.00  0.00    -0.072 C  
BRANCH   8  11
HETATM   11  O   UNL     1      -8.513   9.922  65.596  1.00  0.00    -0.135 OA 
HETATM   12 SI   UNL     1      -7.235   9.091  64.884  1.00  0.00    -0.083 Si 
HETATM   13  C   UNL     1      -5.925  10.273  64.216  1.00  0.00    -0.133 C  
HETATM   14  C   UNL     1      -7.801   8.014  63.450  1.00  0.00    -0.147 C  
HETATM   15  C   UNL     1      -6.389   7.977  66.148  1.00  0.00    -0.046 C  
ENDBRANCH   8  11
ENDBRANCH   5   8
TORSDOF 2
ENDMDL
MODEL      268
REMARK 921   NORMALIZED FREE ENERGY PREDICTED BY IDOCK:   -2.42 KCAL/MOL
REMARK 922        TOTAL FREE ENERGY PREDICTED BY IDOCK:   -2.94 KCAL/MOL
REMARK 923 INTER-LIGAND FREE ENERGY PREDICTED BY IDOCK:   -2.80 KCAL/MOL
REMARK 924 INTRA-LIGAND FREE ENERGY PREDICTED BY IDOCK:   -0.14 KCAL/MOL
REMARK 927      BINDING AFFINITY PREDICTED BY RF-SCORE:    0.00 PKD
ROOT
HETATM    1  O   UNL     1     -11.642   4.565  64.975  1.00  0.00    -1.101 OA 
HETATM    2  H   UNL     1     -12.334   5.118  65.318  1.00  0.00     0.000 HD 
HETATM    3 SI   UNL     1     -11.044   3.703  66.020  1.00  0.00    -0.308 Si 
HETATM    4  C   UNL     1     -11.238   6.130  69.061  1.00  0.00    -0.304 C  
HETATM    5  O   UNL     1     -10.197   5.792  68.148  1.00  0.00    -0.159 OA 
HETATM    6  O   UNL     1      -9.973   2.847  65.491  1.00  0.00    -0.364 OA 
HETATM    7  H   UNL     1      -9.590   2.294  66.161  1.00  0.00     0.000 HD 
ENDROOT
BRANCH   5   8
HETATM    8 SI   UNL     1      -9.116   7.000  67.686  1.00  0.00    -0.122 Si 
HETATM    9  C   UNL     1      -8.839   8.159  69.130  1.00  0.00    -0.144 C  
HETATM   10  C   UNL     1      -9.816   7.938  66.221  1.00  0.00    -0.069 C  
BRANCH   8  11
HETATM   11  O   UNL     1      -7.670   6.278  67.243  1.00  0.00    -0.097 OA 
HETATM   12 SI   UNL     1      -6.688   5.012  67.761  1.00  0.00    -0.041 Si 
HETATM   13  C   UNL     1      -6.079   5.284  69.526  1.00  0.00    -0.021 C  
HETATM   14  C   UNL     1      -5.171   4.800  66.671  1.00  0.00    -0.008 C  
HETATM   15  C   UNL     1      -7.646   3.388  67.745  1.00  0.00    -0.065 C  
ENDBRANCH   8  11
ENDBRANCH   5   8
TORSDOF 2
ENDMDL
MODEL      269
REMARK 921   NORMALIZED FREE ENERGY PREDICTED BY IDOCK:   -2.42 KCAL/MOL
REMARK 922        TOTAL FREE ENERGY PREDICTED BY IDOCK:   -2.94 KCAL/MOL
REMARK 923 INTER-LIGAND FREE ENERGY PREDICTED BY IDOCK:   -2.73 KCAL/MOL
REMARK 924 INTRA-LIGAND FREE ENERGY PREDICTED BY IDOCK:   -0.21 KCAL/MOL
REMARK 927      BINDING AFFINITY PREDICTED BY RF-SCORE:    0.00 PKD
ROOT
HETATM    1  O   UNL     1      -6.291   9.469  65.515  1.00  0.00    -0.064 OA 
HETATM    2  H   UNL     1      -5.796   9.465  66.325  1.00  0.00     0.000 HD 
HETATM    3 SI   UNL     1      -6.108  10.724  64.751  1.00  0.00    -0.117 Si 
HETATM    4  C   UNL     1      -5.838  13.252  67.703  1.00  0.00    -0.103 C  
HETATM    5  O   UNL     1      -6.911  12.858  66.852  1.00  0.00     0.014 OA 
HETATM    6  O   UNL     1      -6.874  10.730  63.497  1.00  0.00    -0.350 OA 
HETATM    7  H   UNL     1      -6.757  11.535  63.007  1.00  0.00     0.000 HD 
ENDROOT
BRANCH   5   8
HETATM    8 SI   UNL     1      -8.463  12.782  67.505  1.00  0.00    -0.126 Si 
HETATM    9  C   UNL     1      -8.765  14.310  68.544  1.00  0.00    -0.175 C  
HETATM   10  C   UNL     1      -8.623  11.237  68.555  1.00  0.00    -0.156 C  
BRANCH   8  11
HETATM   11  O   UNL     1      -9.567  12.715  66.246  1.00  0.00    -0.252 OA 
HETATM   12 SI   UNL     1     -10.905  13.580  65.703  1.00  0.00    -0.274 Si 
HETATM   13  C   UNL     1     -12.285  13.603  66.989  1.00  0.00    -0.329 C  
HETATM   14  C   UNL     1     -11.624  12.856  64.124  1.00  0.00    -0.398 C  
HETATM   15  C   UNL     1     -10.433  15.373  65.357  1.00  0.00    -0.402 C  
ENDBRANCH   8  11
ENDBRANCH   5   8
TORSDOF 2
ENDMDL
MODEL      270
REMARK 921   NORMALIZED FREE ENERGY PREDICTED BY IDOCK:   -2.41 KCAL/MOL
REMARK 922        TOTAL FREE ENERGY PREDICTED BY IDOCK:   -2.93 KCAL/MOL
REMARK 923 INTER-LIGAND FREE ENERGY PREDICTED BY IDOCK:   -2.65 KCAL/MOL
REMARK 924 INTRA-LIGAND FREE ENERGY PREDICTED BY IDOCK:   -0.28 KCAL/MOL
REMARK 927      BINDING AFFINITY PREDICTED BY RF-SCORE:    0.00 PKD
ROOT
HETATM    1  O   UNL     1      -7.464  12.895  67.377  1.00  0.00    -0.149 OA 
HETATM    2  H   UNL     1      -8.376  12.648  67.472  1.00  0.00     0.000 HD 
HETATM    3 SI   UNL     1      -6.928  13.543  68.595  1.00  0.00    -0.070 Si 
HETATM    4  C   UNL     1     -10.097  15.495  69.747  1.00  0.00    -0.285 C  
HETATM    5  O   UNL     1      -8.938  15.868  69.006  1.00  0.00    -0.214 OA 
HETATM    6  O   UNL     1      -5.517  13.927  68.447  1.00  0.00    -0.086 OA 
HETATM    7  H   UNL     1      -5.173  14.342  69.228  1.00  0.00     0.000 HD 
ENDROOT
BRANCH   5   8
HETATM    8 SI   UNL     1      -9.112  16.993  67.763  1.00  0.00    -0.206 Si 
HETATM    9  C   UNL     1     -10.774  17.838  67.931  1.00  0.00    -0.319 C  
HETATM   10  C   UNL     1      -8.988  16.120  66.108  1.00  0.00    -0.337 C  
BRANCH   8  11
HETATM   11  O   UNL     1      -7.879  18.121  67.890  1.00  0.00    -0.234 OA 
HETATM   12 SI   UNL     1      -6.212  18.137  68.125  1.00  0.00    -0.156 Si 
HETATM   13  C   UNL     1      -5.735  17.344  69.769  1.00  0.00    -0.231 C  
HETATM   14  C   UNL     1      -5.512  19.882  68.121  1.00  0.00    -0.195 C  
HETATM   15  C   UNL     1      -5.347  17.161  66.763  1.00  0.00    -0.170 C  
ENDBRANCH   8  11
ENDBRANCH   5   8
TORSDOF 2
ENDMDL
MODEL      271
REMARK 921   NORMALIZED FREE ENERGY PREDICTED BY IDOCK:   -2.41 KCAL/MOL
REMARK 922        TOTAL FREE ENERGY PREDICTED BY IDOCK:   -2.93 KCAL/MOL
REMARK 923 INTER-LIGAND FREE ENERGY PREDICTED BY IDOCK:   -2.72 KCAL/MOL
REMARK 924 INTRA-LIGAND FREE ENERGY PREDICTED BY IDOCK:   -0.21 KCAL/MOL
REMARK 927      BINDING AFFINITY PREDICTED BY RF-SCORE:    0.00 PKD
ROOT
HETATM    1  O   UNL     1     -10.708  11.100  69.774  1.00  0.00    -0.439 OA 
HETATM    2  H   UNL     1     -10.969  11.320  70.660  1.00  0.00     0.000 HD 
HETATM    3 SI   UNL     1     -11.498   9.980  69.217  1.00  0.00    -0.216 Si 
HETATM    4  C   UNL     1     -11.976   7.849  72.444  1.00  0.00    -0.320 C  
HETATM    5  O   UNL     1     -11.059   7.778  71.356  1.00  0.00    -0.234 OA 
HETATM    6  O   UNL     1     -11.094   9.639  67.846  1.00  0.00    -0.488 OA 
HETATM    7  H   UNL     1     -11.601   8.920  67.488  1.00  0.00     0.000 HD 
ENDROOT
BRANCH   5   8
HETATM    8 SI   UNL     1      -9.478   7.288  71.674  1.00  0.00    -0.146 Si 
HETATM    9  C   UNL     1      -9.080   7.632  73.471  1.00  0.00    -0.262 C  
HETATM   10  C   UNL     1      -8.297   8.221  70.554  1.00  0.00    -0.124 C  
BRANCH   8  11
HETATM   11  O   UNL     1      -9.357   5.645  71.363  1.00  0.00    -0.145 OA 
HETATM   12 SI   UNL     1      -8.669   4.635  70.207  1.00  0.00    -0.074 Si 
HETATM   13  C   UNL     1      -9.370   4.969  68.487  1.00  0.00    -0.127 C  
HETATM   14  C   UNL     1      -8.963   2.817  70.587  1.00  0.00    -0.100 C  
HETATM   15  C   UNL     1      -6.806   4.914  70.114  1.00  0.00    -0.044 C  
ENDBRANCH   8  11
ENDBRANCH   5   8
TORSDOF 2
ENDMDL
MODEL      272
REMARK 921   NORMALIZED FREE ENERGY PREDICTED BY IDOCK:   -2.41 KCAL/MOL
REMARK 922        TOTAL FREE ENERGY PREDICTED BY IDOCK:   -2.93 KCAL/MOL
REMARK 923 INTER-LIGAND FREE ENERGY PREDICTED BY IDOCK:   -2.67 KCAL/MOL
REMARK 924 INTRA-LIGAND FREE ENERGY PREDICTED BY IDOCK:   -0.25 KCAL/MOL
REMARK 927      BINDING AFFINITY PREDICTED BY RF-SCORE:    0.00 PKD
ROOT
HETATM    1  O   UNL     1      -6.909   8.137  70.897  1.00  0.00    -0.040 OA 
HETATM    2  H   UNL     1      -6.749   7.466  71.551  1.00  0.00     0.000 HD 
HETATM    3 SI   UNL     1      -7.737   9.246  71.422  1.00  0.00    -0.107 Si 
HETATM    4  C   UNL     1     -10.091   7.240  73.792  1.00  0.00    -0.329 C  
HETATM    5  O   UNL     1     -10.233   7.727  72.461  1.00  0.00    -0.217 OA 
HETATM    6  O   UNL     1      -7.985  10.283  70.411  1.00  0.00    -0.423 OA 
HETATM    7  H   UNL     1      -8.517  10.995  70.747  1.00  0.00     0.000 HD 
ENDROOT
BRANCH   5   8
HETATM    8 SI   UNL     1     -11.111   6.801  71.360  1.00  0.00    -0.224 Si 
HETATM    9  C   UNL     1     -10.561   7.230  69.623  1.00  0.00    -0.235 C  
HETATM   10  C   UNL     1     -12.942   7.152  71.570  1.00  0.00    -0.383 C  
BRANCH   8  11
HETATM   11  O   UNL     1     -10.817   5.181  71.673  1.00  0.00    -0.169 OA 
HETATM   12 SI   UNL     1      -9.625   4.037  71.350  1.00  0.00    -0.107 Si 
HETATM   13  C   UNL     1      -9.392   3.782  69.496  1.00  0.00    -0.179 C  
HETATM   14  C   UNL     1     -10.030   2.361  72.100  1.00  0.00    -0.160 C  
HETATM   15  C   UNL     1      -7.967   4.601  72.049  1.00  0.00    -0.100 C  
ENDBRANCH   8  11
ENDBRANCH   5   8
TORSDOF 2
ENDMDL
MODEL      273
REMARK 921   NORMALIZED FREE ENERGY PREDICTED BY IDOCK:   -2.41 KCAL/MOL
REMARK 922        TOTAL FREE ENERGY PREDICTED BY IDOCK:   -2.92 KCAL/MOL
REMARK 923 INTER-LIGAND FREE ENERGY PREDICTED BY IDOCK:   -2.85 KCAL/MOL
REMARK 924 INTRA-LIGAND FREE ENERGY PREDICTED BY IDOCK:   -0.08 KCAL/MOL
REMARK 927      BINDING AFFINITY PREDICTED BY RF-SCORE:    0.00 PKD
ROOT
HETATM    1  O   UNL     1     -10.010  16.066  67.625  1.00  0.00    -0.234 OA 
HETATM    2  H   UNL     1      -9.395  16.014  66.903  1.00  0.00     0.000 HD 
HETATM    3 SI   UNL     1      -9.418  15.606  68.901  1.00  0.00    -0.167 Si 
HETATM    4  C   UNL     1      -7.133  12.746  67.568  1.00  0.00    -0.148 C  
HETATM    5  O   UNL     1      -8.434  12.764  68.147  1.00  0.00    -0.165 OA 
HETATM    6  O   UNL     1     -10.369  15.687  70.019  1.00  0.00    -0.296 OA 
HETATM    7  H   UNL     1      -9.989  15.392  70.837  1.00  0.00     0.000 HD 
ENDROOT
BRANCH   5   8
HETATM    8 SI   UNL     1      -9.573  11.654  67.589  1.00  0.00    -0.162 Si 
HETATM    9  C   UNL     1     -10.096  10.548  69.006  1.00  0.00    -0.217 C  
HETATM   10  C   UNL     1      -8.824  10.633  66.205  1.00  0.00    -0.161 C  
BRANCH   8  11
HETATM   11  O   UNL     1     -10.896  12.499  67.002  1.00  0.00    -0.244 OA 
HETATM   12 SI   UNL     1     -11.437  13.122  65.535  1.00  0.00    -0.295 Si 
HETATM   13  C   UNL     1     -10.237  14.401  64.838  1.00  0.00    -0.324 C  
HETATM   14  C   UNL     1     -13.114  13.956  65.693  1.00  0.00    -0.157 C  
HETATM   15  C   UNL     1     -11.592  11.746  64.254  1.00  0.00    -0.277 C  
ENDBRANCH   8  11
ENDBRANCH   5   8
TORSDOF 2
ENDMDL
MODEL      274
REMARK 921   NORMALIZED FREE ENERGY PREDICTED BY IDOCK:   -2.41 KCAL/MOL
REMARK 922        TOTAL FREE ENERGY PREDICTED BY IDOCK:   -2.92 KCAL/MOL
REMARK 923 INTER-LIGAND FREE ENERGY PREDICTED BY IDOCK:   -2.70 KCAL/MOL
REMARK 924 INTRA-LIGAND FREE ENERGY PREDICTED BY IDOCK:   -0.23 KCAL/MOL
REMARK 927      BINDING AFFINITY PREDICTED BY RF-SCORE:    0.00 PKD
ROOT
HETATM    1  O   UNL     1      -8.840   6.827  66.739  1.00  0.00    -0.116 OA 
HETATM    2  H   UNL     1      -8.106   6.613  67.302  1.00  0.00     0.000 HD 
HETATM    3 SI   UNL     1      -9.123   8.280  66.713  1.00  0.00    -0.121 Si 
HETATM    4  C   UNL     1      -8.264   9.179  70.405  1.00  0.00    -0.171 C  
HETATM    5  O   UNL     1      -9.486   8.901  69.729  1.00  0.00    -0.163 OA 
HETATM    6  O   UNL     1     -10.260   8.611  65.843  1.00  0.00    -0.381 OA 
HETATM    7  H   UNL     1     -10.442   9.543  65.826  1.00  0.00     0.000 HD 
ENDROOT
BRANCH   5   8
HETATM    8 SI   UNL     1     -10.694   8.077  70.568  1.00  0.00    -0.204 Si 
HETATM    9  C   UNL     1     -11.232   6.592  69.562  1.00  0.00    -0.372 C  
HETATM   10  C   UNL     1     -12.146   9.227  70.862  1.00  0.00    -0.233 C  
BRANCH   8  11
HETATM   11  O   UNL     1     -10.073   7.578  72.042  1.00  0.00    -0.182 OA 
HETATM   12 SI   UNL     1      -9.709   6.135  72.828  1.00  0.00    -0.153 Si 
HETATM   13  C   UNL     1     -11.243   5.057  73.043  1.00  0.00    -0.310 C  
HETATM   14  C   UNL     1      -8.982   6.421  74.538  1.00  0.00    -0.166 C  
HETATM   15  C   UNL     1      -8.462   5.137  71.825  1.00  0.00    -0.125 C  
ENDBRANCH   8  11
ENDBRANCH   5   8
TORSDOF 2
ENDMDL
MODEL      275
REMARK 921   NORMALIZED FREE ENERGY PREDICTED BY IDOCK:   -2.40 KCAL/MOL
REMARK 922        TOTAL FREE ENERGY PREDICTED BY IDOCK:   -2.92 KCAL/MOL
REMARK 923 INTER-LIGAND FREE ENERGY PREDICTED BY IDOCK:   -2.69 KCAL/MOL
REMARK 924 INTRA-LIGAND FREE ENERGY PREDICTED BY IDOCK:   -0.23 KCAL/MOL
REMARK 927      BINDING AFFINITY PREDICTED BY RF-SCORE:    0.00 PKD
ROOT
HETATM    1  O   UNL     1     -11.936  11.975  66.164  1.00  0.00    -0.581 OA 
HETATM    2  H   UNL     1     -12.192  11.092  65.926  1.00  0.00     0.000 HD 
HETATM    3 SI   UNL     1     -10.922  12.533  65.242  1.00  0.00    -0.268 Si 
HETATM    4  C   UNL     1      -8.886   9.301  64.474  1.00  0.00    -0.163 C  
HETATM    5  O   UNL     1      -8.694  10.382  65.383  1.00  0.00    -0.166 OA 
HETATM    6  O   UNL     1     -10.526  13.900  65.609  1.00  0.00    -0.290 OA 
HETATM    7  H   UNL     1      -9.875  14.258  65.018  1.00  0.00     0.000 HD 
ENDROOT
BRANCH   5   8
HETATM    8 SI   UNL     1      -8.008  10.049  66.886  1.00  0.00    -0.103 Si 
HETATM    9  C   UNL     1      -7.816  11.650  67.838  1.00  0.00    -0.129 C  
HETATM   10  C   UNL     1      -6.339   9.230  66.644  1.00  0.00    -0.066 C  
BRANCH   8  11
HETATM   11  O   UNL     1      -9.024   9.005  67.715  1.00  0.00    -0.128 OA 
HETATM   12 SI   UNL     1      -9.856   8.962  69.177  1.00  0.00    -0.158 Si 
HETATM   13  C   UNL     1      -8.681   9.080  70.649  1.00  0.00    -0.213 C  
HETATM   14  C   UNL     1     -10.850   7.379  69.381  1.00  0.00    -0.171 C  
HETATM   15  C   UNL     1     -11.050  10.417  69.298  1.00  0.00    -0.253 C  
ENDBRANCH   8  11
ENDBRANCH   5   8
TORSDOF 2
ENDMDL
MODEL      276
REMARK 921   NORMALIZED FREE ENERGY PREDICTED BY IDOCK:   -2.40 KCAL/MOL
REMARK 922        TOTAL FREE ENERGY PREDICTED BY IDOCK:   -2.92 KCAL/MOL
REMARK 923 INTER-LIGAND FREE ENERGY PREDICTED BY IDOCK:   -2.64 KCAL/MOL
REMARK 924 INTRA-LIGAND FREE ENERGY PREDICTED BY IDOCK:   -0.28 KCAL/MOL
REMARK 927      BINDING AFFINITY PREDICTED BY RF-SCORE:    0.00 PKD
ROOT
HETATM    1  O   UNL     1      -7.002   8.307  65.324  1.00  0.00    -0.065 OA 
HETATM    2  H   UNL     1      -6.826   7.541  65.857  1.00  0.00     0.000 HD 
HETATM    3 SI   UNL     1      -6.670   9.567  66.027  1.00  0.00    -0.069 Si 
HETATM    4  C   UNL     1      -7.672   8.575  69.659  1.00  0.00    -0.093 C  
HETATM    5  O   UNL     1      -8.339   9.295  68.626  1.00  0.00    -0.115 OA 
HETATM    6  O   UNL     1      -6.942  10.754  65.203  1.00  0.00    -0.351 OA 
HETATM    7  H   UNL     1      -6.729  11.562  65.654  1.00  0.00     0.000 HD 
ENDROOT
BRANCH   5   8
HETATM    8 SI   UNL     1     -10.009   9.122  68.479  1.00  0.00    -0.149 Si 
HETATM    9  C   UNL     1     -10.680   8.328  70.036  1.00  0.00    -0.239 C  
HETATM   10  C   UNL     1     -10.397   8.057  66.985  1.00  0.00    -0.344 C  
BRANCH   8  11
HETATM   11  O   UNL     1     -10.686  10.641  68.270  1.00  0.00    -0.189 OA 
HETATM   12 SI   UNL     1     -10.442  12.002  67.311  1.00  0.00    -0.199 Si 
HETATM   13  C   UNL     1      -8.726  12.739  67.576  1.00  0.00    -0.185 C  
HETATM   14  C   UNL     1     -11.695  13.357  67.671  1.00  0.00    -0.359 C  
HETATM   15  C   UNL     1     -10.581  11.553  65.485  1.00  0.00    -0.281 C  
ENDBRANCH   8  11
ENDBRANCH   5   8
TORSDOF 2
ENDMDL
MODEL      277
REMARK 921   NORMALIZED FREE ENERGY PREDICTED BY IDOCK:   -2.40 KCAL/MOL
REMARK 922        TOTAL FREE ENERGY PREDICTED BY IDOCK:   -2.92 KCAL/MOL
REMARK 923 INTER-LIGAND FREE ENERGY PREDICTED BY IDOCK:   -2.68 KCAL/MOL
REMARK 924 INTRA-LIGAND FREE ENERGY PREDICTED BY IDOCK:   -0.24 KCAL/MOL
REMARK 927      BINDING AFFINITY PREDICTED BY RF-SCORE:    0.00 PKD
ROOT
HETATM    1  O   UNL     1      -9.420  12.224  63.255  1.00  0.00    -0.657 OA 
HETATM    2  H   UNL     1      -9.620  12.921  63.869  1.00  0.00     0.000 HD 
HETATM    3 SI   UNL     1     -10.188  10.991  63.535  1.00  0.00    -0.231 Si 
HETATM    4  C   UNL     1     -10.281  11.146  67.427  1.00  0.00    -0.190 C  
HETATM    5  O   UNL     1      -9.453  10.452  66.499  1.00  0.00    -0.160 OA 
HETATM    6  O   UNL     1      -9.878   9.913  62.585  1.00  0.00    -0.533 OA 
HETATM    7  H   UNL     1     -10.371   9.121  62.764  1.00  0.00     0.000 HD 
ENDROOT
BRANCH   5   8
HETATM    8 SI   UNL     1      -7.826  10.237  66.884  1.00  0.00    -0.100 Si 
HETATM    9  C   UNL     1      -7.132  11.851  67.532  1.00  0.00    -0.123 C  
HETATM   10  C   UNL     1      -6.888   9.692  65.354  1.00  0.00    -0.094 C  
BRANCH   8  11
HETATM   11  O   UNL     1      -7.710   9.048  68.059  1.00  0.00    -0.095 OA 
HETATM   12 SI   UNL     1      -8.293   7.494  68.334  1.00  0.00    -0.111 Si 
HETATM   13  C   UNL     1     -10.179   7.463  68.406  1.00  0.00    -0.183 C  
HETATM   14  C   UNL     1      -7.660   6.774  69.951  1.00  0.00    -0.100 C  
HETATM   15  C   UNL     1      -7.769   6.339  66.939  1.00  0.00    -0.100 C  
ENDBRANCH   8  11
ENDBRANCH   5   8
TORSDOF 2
ENDMDL
MODEL      278
REMARK 921   NORMALIZED FREE ENERGY PREDICTED BY IDOCK:   -2.40 KCAL/MOL
REMARK 922        TOTAL FREE ENERGY PREDICTED BY IDOCK:   -2.91 KCAL/MOL
REMARK 923 INTER-LIGAND FREE ENERGY PREDICTED BY IDOCK:   -2.65 KCAL/MOL
REMARK 924 INTRA-LIGAND FREE ENERGY PREDICTED BY IDOCK:   -0.27 KCAL/MOL
REMARK 927      BINDING AFFINITY PREDICTED BY RF-SCORE:    0.00 PKD
ROOT
HETATM    1  O   UNL     1     -11.180   2.572  63.760  1.00  0.00    -0.598 OA 
HETATM    2  H   UNL     1     -10.706   2.186  63.033  1.00  0.00     0.000 HD 
HETATM    3 SI   UNL     1     -10.924   4.024  63.890  1.00  0.00    -0.208 Si 
HETATM    4  C   UNL     1      -7.181   4.128  62.811  1.00  0.00    -0.040 C  
HETATM    5  O   UNL     1      -7.830   4.101  64.079  1.00  0.00    -0.081 OA 
HETATM    6  O   UNL     1     -11.656   4.620  65.016  1.00  0.00    -1.080 OA 
HETATM    7  H   UNL     1     -11.491   5.552  65.100  1.00  0.00     0.000 HD 
ENDROOT
BRANCH   5   8
HETATM    8 SI   UNL     1      -7.092   3.254  65.336  1.00  0.00    -0.049 Si 
HETATM    9  C   UNL     1      -5.369   2.748  64.805  1.00  0.00    -0.009 C  
HETATM   10  C   UNL     1      -8.117   1.740  65.755  1.00  0.00    -0.080 C  
BRANCH   8  11
HETATM   11  O   UNL     1      -7.009   4.256  66.677  1.00  0.00    -0.057 OA 
HETATM   12 SI   UNL     1      -7.993   5.358  67.483  1.00  0.00    -0.091 Si 
HETATM   13  C   UNL     1      -8.486   6.796  66.365  1.00  0.00    -0.126 C  
HETATM   14  C   UNL     1      -7.150   6.089  68.996  1.00  0.00    -0.073 C  
HETATM   15  C   UNL     1      -9.585   4.523  68.052  1.00  0.00    -0.154 C  
ENDBRANCH   8  11
ENDBRANCH   5   8
TORSDOF 2
ENDMDL
MODEL      279
REMARK 921   NORMALIZED FREE ENERGY PREDICTED BY IDOCK:   -2.39 KCAL/MOL
REMARK 922        TOTAL FREE ENERGY PREDICTED BY IDOCK:   -2.91 KCAL/MOL
REMARK 923 INTER-LIGAND FREE ENERGY PREDICTED BY IDOCK:   -2.71 KCAL/MOL
REMARK 924 INTRA-LIGAND FREE ENERGY PREDICTED BY IDOCK:   -0.20 KCAL/MOL
REMARK 927      BINDING AFFINITY PREDICTED BY RF-SCORE:    0.00 PKD
ROOT
HETATM    1  O   UNL     1     -10.716   5.718  73.379  1.00  0.00    -0.246 OA 
HETATM    2  H   UNL     1      -9.871   5.285  73.409  1.00  0.00     0.000 HD 
HETATM    3 SI   UNL     1     -11.724   4.933  72.632  1.00  0.00    -0.227 Si 
HETATM    4  C   UNL     1      -9.440   3.387  69.880  1.00  0.00    -0.166 C  
HETATM    5  O   UNL     1     -10.303   4.520  69.907  1.00  0.00    -0.130 OA 
HETATM    6  O   UNL     1     -13.031   5.604  72.585  1.00  0.00    -0.349 OA 
HETATM    7  H   UNL     1     -13.677   5.100  72.106  1.00  0.00     0.000 HD 
ENDROOT
BRANCH   5   8
HETATM    8 SI   UNL     1      -9.852   5.890  69.034  1.00  0.00    -0.127 Si 
HETATM    9  C   UNL     1     -10.404   5.691  67.256  1.00  0.00    -0.241 C  
HETATM   10  C   UNL     1      -7.991   6.100  69.120  1.00  0.00    -0.108 C  
BRANCH   8  11
HETATM   11  O   UNL     1     -10.594   7.227  69.720  1.00  0.00    -0.224 OA 
HETATM   12 SI   UNL     1     -10.526   8.903  69.592  1.00  0.00    -0.181 Si 
HETATM   13  C   UNL     1      -8.811   9.563  70.020  1.00  0.00    -0.223 C  
HETATM   14  C   UNL     1     -11.753   9.753  70.736  1.00  0.00    -0.328 C  
HETATM   15  C   UNL     1     -10.907   9.444  67.826  1.00  0.00    -0.159 C  
ENDBRANCH   8  11
ENDBRANCH   5   8
TORSDOF 2
ENDMDL
MODEL      280
REMARK 921   NORMALIZED FREE ENERGY PREDICTED BY IDOCK:   -2.38 KCAL/MOL
REMARK 922        TOTAL FREE ENERGY PREDICTED BY IDOCK:   -2.90 KCAL/MOL
REMARK 923 INTER-LIGAND FREE ENERGY PREDICTED BY IDOCK:   -3.09 KCAL/MOL
REMARK 924 INTRA-LIGAND FREE ENERGY PREDICTED BY IDOCK:    0.19 KCAL/MOL
REMARK 927      BINDING AFFINITY PREDICTED BY RF-SCORE:    0.00 PKD
ROOT
HETATM    1  O   UNL     1     -10.876  16.052  70.080  1.00  0.00    -0.308 OA 
HETATM    2  H   UNL     1     -11.296  15.214  70.234  1.00  0.00     0.000 HD 
HETATM    3 SI   UNL     1     -11.550  16.831  69.017  1.00  0.00    -0.285 Si 
HETATM    4  C   UNL     1     -12.616  13.924  66.652  1.00  0.00    -0.133 C  
HETATM    5  O   UNL     1     -11.513  14.826  66.651  1.00  0.00    -0.355 OA 
HETATM    6  O   UNL     1     -10.899  18.127  68.777  1.00  0.00    -0.248 OA 
HETATM    7  H   UNL     1     -11.331  18.626  68.095  1.00  0.00     0.000 HD 
ENDROOT
BRANCH   5   8
HETATM    8 SI   UNL     1     -10.018  14.261  66.115  1.00  0.00    -0.241 Si 
HETATM    9  C   UNL     1      -8.803  15.686  66.080  1.00  0.00    -0.276 C  
HETATM   10  C   UNL     1     -10.207  13.523  64.402  1.00  0.00    -0.167 C  
BRANCH   8  11
HETATM   11  O   UNL     1      -9.485  13.077  67.175  1.00  0.00    -0.215 OA 
HETATM   12 SI   UNL     1      -9.959  11.545  67.686  1.00  0.00    -0.169 Si 
HETATM   13  C   UNL     1     -11.666  11.579  68.490  1.00  0.00    -0.313 C  
HETATM   14  C   UNL     1      -8.764  10.815  68.940  1.00  0.00    -0.152 C  
HETATM   15  C   UNL     1     -10.056  10.364  66.219  1.00  0.00    -0.231 C  
ENDBRANCH   8  11
ENDBRANCH   5   8
TORSDOF 2
ENDMDL
MODEL      281
REMARK 921   NORMALIZED FREE ENERGY PREDICTED BY IDOCK:   -2.38 KCAL/MOL
REMARK 922        TOTAL FREE ENERGY PREDICTED BY IDOCK:   -2.90 KCAL/MOL
REMARK 923 INTER-LIGAND FREE ENERGY PREDICTED BY IDOCK:   -2.69 KCAL/MOL
REMARK 924 INTRA-LIGAND FREE ENERGY PREDICTED BY IDOCK:   -0.21 KCAL/MOL
REMARK 927      BINDING AFFINITY PREDICTED BY RF-SCORE:    0.00 PKD
ROOT
HETATM    1  O   UNL     1     -10.586   5.887  65.945  1.00  0.00    -0.411 OA 
HETATM    2  H   UNL     1     -11.025   6.038  66.774  1.00  0.00     0.000 HD 
HETATM    3 SI   UNL     1      -9.125   5.715  66.106  1.00  0.00    -0.124 Si 
HETATM    4  C   UNL     1      -8.489   8.217  69.024  1.00  0.00    -0.131 C  
HETATM    5  O   UNL     1      -8.349   8.314  67.610  1.00  0.00    -0.124 OA 
HETATM    6  O   UNL     1      -8.446   5.482  64.824  1.00  0.00    -0.143 OA 
HETATM    7  H   UNL     1      -7.508   5.372  64.927  1.00  0.00     0.000 HD 
ENDROOT
BRANCH   5   8
HETATM    8 SI   UNL     1      -8.694   9.789  66.871  1.00  0.00    -0.123 Si 
HETATM    9  C   UNL     1      -9.404   9.469  65.168  1.00  0.00    -0.252 C  
HETATM   10  C   UNL     1      -7.124  10.806  66.743  1.00  0.00    -0.127 C  
BRANCH   8  11
HETATM   11  O   UNL     1      -9.811  10.608  67.814  1.00  0.00    -0.162 OA 
HETATM   12 SI   UNL     1     -10.626  12.081  67.800  1.00  0.00    -0.185 Si 
HETATM   13  C   UNL     1      -9.428  13.537  67.850  1.00  0.00    -0.215 C  
HETATM   14  C   UNL     1     -11.789  12.262  69.266  1.00  0.00    -0.306 C  
HETATM   15  C   UNL     1     -11.647  12.252  66.224  1.00  0.00    -0.385 C  
ENDBRANCH   8  11
ENDBRANCH   5   8
TORSDOF 2
ENDMDL
MODEL      282
REMARK 921   NORMALIZED FREE ENERGY PREDICTED BY IDOCK:   -2.38 KCAL/MOL
REMARK 922        TOTAL FREE ENERGY PREDICTED BY IDOCK:   -2.89 KCAL/MOL
REMARK 923 INTER-LIGAND FREE ENERGY PREDICTED BY IDOCK:   -2.69 KCAL/MOL
REMARK 924 INTRA-LIGAND FREE ENERGY PREDICTED BY IDOCK:   -0.20 KCAL/MOL
REMARK 927      BINDING AFFINITY PREDICTED BY RF-SCORE:    0.00 PKD
ROOT
HETATM    1  O   UNL     1      -7.464   7.535  67.577  1.00  0.00    -0.099 OA 
HETATM    2  H   UNL     1      -8.012   6.957  68.095  1.00  0.00     0.000 HD 
HETATM    3 SI   UNL     1      -6.776   8.549  68.408  1.00  0.00    -0.052 Si 
HETATM    4  C   UNL     1      -9.544   9.201  71.071  1.00  0.00    -0.280 C  
HETATM    5  O   UNL     1      -9.160   9.878  69.878  1.00  0.00    -0.218 OA 
HETATM    6  O   UNL     1      -5.929   9.444  67.607  1.00  0.00    -0.051 OA 
HETATM    7  H   UNL     1      -5.488  10.094  68.139  1.00  0.00     0.000 HD 
ENDROOT
BRANCH   5   8
HETATM    8 SI   UNL     1     -10.365  10.596  68.943  1.00  0.00    -0.155 Si 
HETATM    9  C   UNL     1     -11.936  10.713  69.955  1.00  0.00    -0.329 C  
HETATM   10  C   UNL     1     -10.657   9.568  67.402  1.00  0.00    -0.271 C  
BRANCH   8  11
HETATM   11  O   UNL     1      -9.853  12.129  68.499  1.00  0.00    -0.209 OA 
HETATM   12 SI   UNL     1     -10.223  13.289  67.337  1.00  0.00    -0.211 Si 
HETATM   13  C   UNL     1      -9.957  12.629  65.590  1.00  0.00    -0.242 C  
HETATM   14  C   UNL     1      -9.171  14.836  67.518  1.00  0.00    -0.198 C  
HETATM   15  C   UNL     1     -12.034  13.799  67.471  1.00  0.00    -0.376 C  
ENDBRANCH   8  11
ENDBRANCH   5   8
TORSDOF 2
ENDMDL
MODEL      283
REMARK 921   NORMALIZED FREE ENERGY PREDICTED BY IDOCK:   -2.38 KCAL/MOL
REMARK 922        TOTAL FREE ENERGY PREDICTED BY IDOCK:   -2.89 KCAL/MOL
REMARK 923 INTER-LIGAND FREE ENERGY PREDICTED BY IDOCK:   -2.71 KCAL/MOL
REMARK 924 INTRA-LIGAND FREE ENERGY PREDICTED BY IDOCK:   -0.18 KCAL/MOL
REMARK 927      BINDING AFFINITY PREDICTED BY RF-SCORE:    0.00 PKD
ROOT
HETATM    1  O   UNL     1      -9.823   3.869  70.138  1.00  0.00    -0.200 OA 
HETATM    2  H   UNL     1     -10.510   4.147  69.544  1.00  0.00     0.000 HD 
HETATM    3 SI   UNL     1     -10.258   3.896  71.552  1.00  0.00    -0.157 Si 
HETATM    4  C   UNL     1     -12.580   7.023  71.463  1.00  0.00    -0.385 C  
HETATM    5  O   UNL     1     -11.225   6.827  71.856  1.00  0.00    -0.242 OA 
HETATM    6  O   UNL     1      -9.194   3.467  72.471  1.00  0.00    -0.098 OA 
HETATM    7  H   UNL     1      -9.473   3.485  73.379  1.00  0.00     0.000 HD 
ENDROOT
BRANCH   5   8
HETATM    8 SI   UNL     1     -10.118   8.061  71.553  1.00  0.00    -0.164 Si 
HETATM    9  C   UNL     1      -9.048   8.309  73.069  1.00  0.00    -0.249 C  
HETATM   10  C   UNL     1     -11.041   9.640  71.140  1.00  0.00    -0.374 C  
BRANCH   8  11
HETATM   11  O   UNL     1      -9.168   7.615  70.246  1.00  0.00    -0.156 OA 
HETATM   12 SI   UNL     1      -9.287   7.562  68.568  1.00  0.00    -0.138 Si 
HETATM   13  C   UNL     1     -10.691   6.433  68.007  1.00  0.00    -0.291 C  
HETATM   14  C   UNL     1      -7.708   6.933  67.764  1.00  0.00    -0.112 C  
HETATM   15  C   UNL     1      -9.645   9.281  67.879  1.00  0.00    -0.142 C  
ENDBRANCH   8  11
ENDBRANCH   5   8
TORSDOF 2
ENDMDL
MODEL      284
REMARK 921   NORMALIZED FREE ENERGY PREDICTED BY IDOCK:   -2.37 KCAL/MOL
REMARK 922        TOTAL FREE ENERGY PREDICTED BY IDOCK:   -2.89 KCAL/MOL
REMARK 923 INTER-LIGAND FREE ENERGY PREDICTED BY IDOCK:   -2.68 KCAL/MOL
REMARK 924 INTRA-LIGAND FREE ENERGY PREDICTED BY IDOCK:   -0.21 KCAL/MOL
REMARK 927      BINDING AFFINITY PREDICTED BY RF-SCORE:    0.00 PKD
ROOT
HETATM    1  O   UNL     1      -8.421  10.891  67.142  1.00  0.00    -0.125 OA 
HETATM    2  H   UNL     1      -8.114  11.095  68.017  1.00  0.00     0.000 HD 
HETATM    3 SI   UNL     1      -9.896  10.957  67.034  1.00  0.00    -0.164 Si 
HETATM    4  C   UNL     1     -10.871   9.623  70.562  1.00  0.00    -0.309 C  
HETATM    5  O   UNL     1     -10.777   9.009  69.279  1.00  0.00    -0.227 OA 
HETATM    6  O   UNL     1     -10.370  10.641  65.679  1.00  0.00    -0.255 OA 
HETATM    7  H   UNL     1     -11.316  10.683  65.610  1.00  0.00     0.000 HD 
ENDROOT
BRANCH   5   8
HETATM    8 SI   UNL     1     -10.248   7.411  69.194  1.00  0.00    -0.164 Si 
HETATM    9  C   UNL     1      -8.379   7.391  69.086  1.00  0.00    -0.132 C  
HETATM   10  C   UNL     1     -10.998   6.585  67.686  1.00  0.00    -0.337 C  
BRANCH   8  11
HETATM   11  O   UNL     1     -10.753   6.609  70.576  1.00  0.00    -0.226 OA 
HETATM   12 SI   UNL     1     -10.065   5.918  71.947  1.00  0.00    -0.168 Si 
HETATM   13  C   UNL     1      -8.878   4.521  71.500  1.00  0.00    -0.119 C  
HETATM   14  C   UNL     1     -11.361   5.201  73.106  1.00  0.00    -0.313 C  
HETATM   15  C   UNL     1      -9.076   7.204  72.907  1.00  0.00    -0.136 C  
ENDBRANCH   8  11
ENDBRANCH   5   8
TORSDOF 2
ENDMDL
MODEL      285
REMARK 921   NORMALIZED FREE ENERGY PREDICTED BY IDOCK:   -2.37 KCAL/MOL
REMARK 922        TOTAL FREE ENERGY PREDICTED BY IDOCK:   -2.88 KCAL/MOL
REMARK 923 INTER-LIGAND FREE ENERGY PREDICTED BY IDOCK:   -2.71 KCAL/MOL
REMARK 924 INTRA-LIGAND FREE ENERGY PREDICTED BY IDOCK:   -0.17 KCAL/MOL
REMARK 927      BINDING AFFINITY PREDICTED BY RF-SCORE:    0.00 PKD
ROOT
HETATM    1  O   UNL     1     -12.196  14.364  68.019  1.00  0.00    -0.584 OA 
HETATM    2  H   UNL     1     -12.907  14.125  67.436  1.00  0.00     0.000 HD 
HETATM    3 SI   UNL     1     -11.123  15.108  67.321  1.00  0.00    -0.274 Si 
HETATM    4  C   UNL     1     -11.227  13.317  63.863  1.00  0.00    -0.276 C  
HETATM    5  O   UNL     1     -10.406  13.162  65.017  1.00  0.00    -0.317 OA 
HETATM    6  O   UNL     1     -10.023  15.477  68.223  1.00  0.00    -0.211 OA 
HETATM    7  H   UNL     1      -9.335  15.955  67.776  1.00  0.00     0.000 HD 
ENDROOT
BRANCH   5   8
HETATM    8 SI   UNL     1      -9.883  11.612  65.423  1.00  0.00    -0.198 Si 
HETATM    9  C   UNL     1     -10.092  10.488  63.941  1.00  0.00    -0.218 C  
HETATM   10  C   UNL     1     -10.888  10.974  66.873  1.00  0.00    -0.269 C  
BRANCH   8  11
HETATM   11  O   UNL     1      -8.267  11.693  65.860  1.00  0.00     0.061 OA 
HETATM   12 SI   UNL     1      -6.929  10.674  65.913  1.00  0.00    -0.094 Si 
HETATM   13  C   UNL     1      -7.224   9.200  67.054  1.00  0.00    -0.090 C  
HETATM   14  C   UNL     1      -5.388  11.558  66.529  1.00  0.00    -0.111 C  
HETATM   15  C   UNL     1      -6.558   9.986  64.197  1.00  0.00    -0.130 C  
ENDBRANCH   8  11
ENDBRANCH   5   8
TORSDOF 2
ENDMDL
MODEL      286
REMARK 921   NORMALIZED FREE ENERGY PREDICTED BY IDOCK:   -2.37 KCAL/MOL
REMARK 922        TOTAL FREE ENERGY PREDICTED BY IDOCK:   -2.88 KCAL/MOL
REMARK 923 INTER-LIGAND FREE ENERGY PREDICTED BY IDOCK:   -2.71 KCAL/MOL
REMARK 924 INTRA-LIGAND FREE ENERGY PREDICTED BY IDOCK:   -0.17 KCAL/MOL
REMARK 927      BINDING AFFINITY PREDICTED BY RF-SCORE:    0.00 PKD
ROOT
HETATM    1  O   UNL     1      -7.862   9.804  66.587  1.00  0.00    -0.107 OA 
HETATM    2  H   UNL     1      -7.492  10.338  67.280  1.00  0.00     0.000 HD 
HETATM    3 SI   UNL     1      -9.322   9.617  66.742  1.00  0.00    -0.132 Si 
HETATM    4  C   UNL     1      -9.552   9.450  70.627  1.00  0.00    -0.268 C  
HETATM    5  O   UNL     1      -9.505   8.454  69.610  1.00  0.00    -0.164 OA 
HETATM    6  O   UNL     1      -9.896   8.791  65.670  1.00  0.00    -0.462 OA 
HETATM    7  H   UNL     1     -10.832   8.671  65.770  1.00  0.00     0.000 HD 
ENDROOT
BRANCH   5   8
HETATM    8 SI   UNL     1      -8.686   7.017  69.935  1.00  0.00    -0.126 Si 
HETATM    9  C   UNL     1      -7.015   7.419  70.677  1.00  0.00    -0.052 C  
HETATM   10  C   UNL     1      -8.477   6.044  68.345  1.00  0.00    -0.112 C  
BRANCH   8  11
HETATM   11  O   UNL     1      -9.596   6.119  71.019  1.00  0.00    -0.173 OA 
HETATM   12 SI   UNL     1     -10.733   6.391  72.230  1.00  0.00    -0.197 Si 
HETATM   13  C   UNL     1     -10.029   7.461  73.616  1.00  0.00    -0.328 C  
HETATM   14  C   UNL     1     -11.335   4.790  73.010  1.00  0.00    -0.240 C  
HETATM   15  C   UNL     1     -12.232   7.297  71.532  1.00  0.00    -0.352 C  
ENDBRANCH   8  11
ENDBRANCH   5   8
TORSDOF 2
ENDMDL
MODEL      287
REMARK 921   NORMALIZED FREE ENERGY PREDICTED BY IDOCK:   -2.35 KCAL/MOL
REMARK 922        TOTAL FREE ENERGY PREDICTED BY IDOCK:   -2.87 KCAL/MOL
REMARK 923 INTER-LIGAND FREE ENERGY PREDICTED BY IDOCK:   -2.66 KCAL/MOL
REMARK 924 INTRA-LIGAND FREE ENERGY PREDICTED BY IDOCK:   -0.20 KCAL/MOL
REMARK 927      BINDING AFFINITY PREDICTED BY RF-SCORE:    0.00 PKD
ROOT
HETATM    1  O   UNL     1      -8.677  11.170  64.083  1.00  0.00    -0.375 OA 
HETATM    2  H   UNL     1      -9.052  11.905  64.553  1.00  0.00     0.000 HD 
HETATM    3 SI   UNL     1      -9.572   9.991  64.079  1.00  0.00    -0.210 Si 
HETATM    4  C   UNL     1     -11.138  10.347  67.629  1.00  0.00    -0.293 C  
HETATM    5  O   UNL     1     -10.064   9.567  67.111  1.00  0.00    -0.199 OA 
HETATM    6  O   UNL     1      -8.993   8.853  63.352  1.00  0.00    -0.432 OA 
HETATM    7  H   UNL     1      -9.567   8.097  63.350  1.00  0.00     0.000 HD 
ENDROOT
BRANCH   5   8
HETATM    8 SI   UNL     1      -8.726   9.292  68.099  1.00  0.00    -0.116 Si 
HETATM    9  C   UNL     1      -9.148   9.792  69.853  1.00  0.00    -0.229 C  
HETATM   10  C   UNL     1      -7.269  10.290  67.469  1.00  0.00    -0.088 C  
BRANCH   8  11
HETATM   11  O   UNL     1      -8.348   7.660  68.041  1.00  0.00    -0.122 OA 
HETATM   12 SI   UNL     1      -8.930   6.214  68.676  1.00  0.00    -0.120 Si 
HETATM   13  C   UNL     1      -8.885   6.217  70.562  1.00  0.00    -0.144 C  
HETATM   14  C   UNL     1      -7.930   4.732  68.095  1.00  0.00    -0.085 C  
HETATM   15  C   UNL     1     -10.723   5.943  68.160  1.00  0.00    -0.251 C  
ENDBRANCH   8  11
ENDBRANCH   5   8
TORSDOF 2
ENDMDL
MODEL      288
REMARK 921   NORMALIZED FREE ENERGY PREDICTED BY IDOCK:   -2.35 KCAL/MOL
REMARK 922        TOTAL FREE ENERGY PREDICTED BY IDOCK:   -2.86 KCAL/MOL
REMARK 923 INTER-LIGAND FREE ENERGY PREDICTED BY IDOCK:   -2.67 KCAL/MOL
REMARK 924 INTRA-LIGAND FREE ENERGY PREDICTED BY IDOCK:   -0.19 KCAL/MOL
REMARK 927      BINDING AFFINITY PREDICTED BY RF-SCORE:    0.00 PKD
ROOT
HETATM    1  O   UNL     1      -5.813   9.657  65.963  1.00  0.00    -0.058 OA 
HETATM    2  H   UNL     1      -5.501   9.836  66.842  1.00  0.00     0.000 HD 
HETATM    3 SI   UNL     1      -6.420  10.848  65.329  1.00  0.00    -0.118 Si 
HETATM    4  C   UNL     1      -8.089  12.474  68.452  1.00  0.00    -0.136 C  
HETATM    5  O   UNL     1      -8.580  11.635  67.410  1.00  0.00    -0.140 OA 
HETATM    6  O   UNL     1      -6.904  10.570  63.969  1.00  0.00    -0.330 OA 
HETATM    7  H   UNL     1      -7.293  11.334  63.561  1.00  0.00     0.000 HD 
ENDROOT
BRANCH   5   8
HETATM    8 SI   UNL     1      -9.764  10.498  67.791  1.00  0.00    -0.148 Si 
HETATM    9  C   UNL     1      -9.719   9.120  66.524  1.00  0.00    -0.241 C  
HETATM   10  C   UNL     1     -11.447  11.326  67.795  1.00  0.00    -0.275 C  
BRANCH   8  11
HETATM   11  O   UNL     1      -9.443   9.886  69.318  1.00  0.00    -0.184 OA 
HETATM   12 SI   UNL     1     -10.234   8.991  70.503  1.00  0.00    -0.169 Si 
HETATM   13  C   UNL     1     -11.785   9.873  71.119  1.00  0.00    -0.396 C  
HETATM   14  C   UNL     1      -9.141   8.671  71.999  1.00  0.00    -0.241 C  
HETATM   15  C   UNL     1     -10.778   7.322  69.814  1.00  0.00    -0.239 C  
ENDBRANCH   8  11
ENDBRANCH   5   8
TORSDOF 2
ENDMDL
MODEL      289
REMARK 921   NORMALIZED FREE ENERGY PREDICTED BY IDOCK:   -2.34 KCAL/MOL
REMARK 922        TOTAL FREE ENERGY PREDICTED BY IDOCK:   -2.85 KCAL/MOL
REMARK 923 INTER-LIGAND FREE ENERGY PREDICTED BY IDOCK:   -2.62 KCAL/MOL
REMARK 924 INTRA-LIGAND FREE ENERGY PREDICTED BY IDOCK:   -0.23 KCAL/MOL
REMARK 927      BINDING AFFINITY PREDICTED BY RF-SCORE:    0.00 PKD
ROOT
HETATM    1  O   UNL     1     -12.468  14.230  67.094  1.00  0.00    -0.588 OA 
HETATM    2  H   UNL     1     -12.840  13.368  66.951  1.00  0.00     0.000 HD 
HETATM    3 SI   UNL     1     -11.609  14.666  65.971  1.00  0.00    -0.320 Si 
HETATM    4  C   UNL     1     -10.045  11.239  64.976  1.00  0.00    -0.279 C  
HETATM    5  O   UNL     1      -9.588  12.322  65.781  1.00  0.00    -0.241 OA 
HETATM    6  O   UNL     1     -11.034  16.000  66.193  1.00  0.00    -0.225 OA 
HETATM    7  H   UNL     1     -10.483  16.280  65.472  1.00  0.00     0.000 HD 
ENDROOT
BRANCH   5   8
HETATM    8 SI   UNL     1      -8.654  11.971  67.139  1.00  0.00    -0.136 Si 
HETATM    9  C   UNL     1      -7.925  10.256  66.954  1.00  0.00    -0.112 C  
HETATM   10  C   UNL     1      -9.727  12.061  68.675  1.00  0.00    -0.096 C  
BRANCH   8  11
HETATM   11  O   UNL     1      -7.428  13.108  67.251  1.00  0.00    -0.146 OA 
HETATM   12 SI   UNL     1      -6.770  14.134  68.411  1.00  0.00    -0.078 Si 
HETATM   13  C   UNL     1      -8.049  15.365  69.053  1.00  0.00    -0.213 C  
HETATM   14  C   UNL     1      -5.324  15.130  67.739  1.00  0.00    -0.056 C  
HETATM   15  C   UNL     1      -6.155  13.144  69.893  1.00  0.00    -0.128 C  
ENDBRANCH   8  11
ENDBRANCH   5   8
TORSDOF 2
ENDMDL
MODEL      290
REMARK 921   NORMALIZED FREE ENERGY PREDICTED BY IDOCK:   -2.33 KCAL/MOL
REMARK 922        TOTAL FREE ENERGY PREDICTED BY IDOCK:   -2.84 KCAL/MOL
REMARK 923 INTER-LIGAND FREE ENERGY PREDICTED BY IDOCK:   -2.66 KCAL/MOL
REMARK 924 INTRA-LIGAND FREE ENERGY PREDICTED BY IDOCK:   -0.19 KCAL/MOL
REMARK 927      BINDING AFFINITY PREDICTED BY RF-SCORE:    0.00 PKD
ROOT
HETATM    1  O   UNL     1      -9.111   6.096  68.593  1.00  0.00    -0.125 OA 
HETATM    2  H   UNL     1      -9.983   5.834  68.862  1.00  0.00     0.000 HD 
HETATM    3 SI   UNL     1      -8.054   5.411  69.370  1.00  0.00    -0.080 Si 
HETATM    4  C   UNL     1      -9.812   5.223  72.842  1.00  0.00    -0.156 C  
HETATM    5  O   UNL     1      -8.857   6.119  72.280  1.00  0.00    -0.137 OA 
HETATM    6  O   UNL     1      -6.704   5.817  68.954  1.00  0.00    -0.055 OA 
HETATM    7  H   UNL     1      -6.026   5.378  69.453  1.00  0.00     0.000 HD 
ENDROOT
BRANCH   5   8
HETATM    8 SI   UNL     1      -8.942   7.748  72.704  1.00  0.00    -0.116 Si 
HETATM    9  C   UNL     1      -7.984   8.757  71.451  1.00  0.00    -0.133 C  
HETATM   10  C   UNL     1      -8.223   7.985  74.420  1.00  0.00    -0.229 C  
BRANCH   8  11
HETATM   11  O   UNL     1     -10.552   8.213  72.707  1.00  0.00    -0.332 OA 
HETATM   12 SI   UNL     1     -11.809   8.391  71.603  1.00  0.00    -0.252 Si 
HETATM   13  C   UNL     1     -11.386   9.656  70.268  1.00  0.00    -0.257 C  
HETATM   14  C   UNL     1     -13.402   8.958  72.425  1.00  0.00    -0.440 C  
HETATM   15  C   UNL     1     -12.156   6.755  70.731  1.00  0.00    -0.347 C  
ENDBRANCH   8  11
ENDBRANCH   5   8
TORSDOF 2
ENDMDL
MODEL      291
REMARK 921   NORMALIZED FREE ENERGY PREDICTED BY IDOCK:   -2.33 KCAL/MOL
REMARK 922        TOTAL FREE ENERGY PREDICTED BY IDOCK:   -2.84 KCAL/MOL
REMARK 923 INTER-LIGAND FREE ENERGY PREDICTED BY IDOCK:   -2.62 KCAL/MOL
REMARK 924 INTRA-LIGAND FREE ENERGY PREDICTED BY IDOCK:   -0.22 KCAL/MOL
REMARK 927      BINDING AFFINITY PREDICTED BY RF-SCORE:    0.00 PKD
ROOT
HETATM    1  O   UNL     1      -6.553   8.862  66.153  1.00  0.00    -0.064 OA 
HETATM    2  H   UNL     1      -6.358   8.950  67.079  1.00  0.00     0.000 HD 
HETATM    3 SI   UNL     1      -6.661  10.174  65.475  1.00  0.00    -0.073 Si 
HETATM    4  C   UNL     1      -8.283  12.258  68.339  1.00  0.00    -0.146 C  
HETATM    5  O   UNL     1      -8.814  11.594  67.196  1.00  0.00    -0.161 OA 
HETATM    6  O   UNL     1      -6.962  10.038  64.043  1.00  0.00    -0.123 OA 
HETATM    7  H   UNL     1      -7.031  10.880  63.608  1.00  0.00     0.000 HD 
ENDROOT
BRANCH   5   8
HETATM    8 SI   UNL     1     -10.329  10.867  67.325  1.00  0.00    -0.172 Si 
HETATM    9  C   UNL     1     -11.207  11.548  68.833  1.00  0.00    -0.247 C  
HETATM   10  C   UNL     1     -10.120   9.009  67.475  1.00  0.00    -0.228 C  
BRANCH   8  11
HETATM   11  O   UNL     1     -11.208  11.217  65.941  1.00  0.00    -0.177 OA 
HETATM   12 SI   UNL     1     -11.627  12.568  65.030  1.00  0.00    -0.290 Si 
HETATM   13  C   UNL     1     -12.622  13.809  66.045  1.00  0.00    -0.408 C  
HETATM   14  C   UNL     1     -12.664  12.116  63.527  1.00  0.00    -0.431 C  
HETATM   15  C   UNL     1     -10.080  13.458  64.421  1.00  0.00    -0.099 C  
ENDBRANCH   8  11
ENDBRANCH   5   8
TORSDOF 2
ENDMDL
MODEL      292
REMARK 921   NORMALIZED FREE ENERGY PREDICTED BY IDOCK:   -2.31 KCAL/MOL
REMARK 922        TOTAL FREE ENERGY PREDICTED BY IDOCK:   -2.82 KCAL/MOL
REMARK 923 INTER-LIGAND FREE ENERGY PREDICTED BY IDOCK:   -2.67 KCAL/MOL
REMARK 924 INTRA-LIGAND FREE ENERGY PREDICTED BY IDOCK:   -0.15 KCAL/MOL
REMARK 927      BINDING AFFINITY PREDICTED BY RF-SCORE:    0.00 PKD
ROOT
HETATM    1  O   UNL     1      -9.551  18.518  67.239  1.00  0.00    -0.286 OA 
HETATM    2  H   UNL     1      -9.564  18.624  68.183  1.00  0.00     0.000 HD 
HETATM    3 SI   UNL     1     -10.870  18.116  66.701  1.00  0.00    -0.343 Si 
HETATM    4  C   UNL     1     -12.094  15.831  69.610  1.00  0.00    -0.264 C  
HETATM    5  O   UNL     1     -11.471  15.564  68.357  1.00  0.00    -0.337 OA 
HETATM    6  O   UNL     1     -10.850  17.950  65.241  1.00  0.00    -0.614 OA 
HETATM    7  H   UNL     1     -11.696  17.692  64.896  1.00  0.00     0.000 HD 
ENDROOT
BRANCH   5   8
HETATM    8 SI   UNL     1     -10.379  14.284  68.264  1.00  0.00    -0.206 Si 
HETATM    9  C   UNL     1      -9.884  14.030  66.476  1.00  0.00    -0.290 C  
HETATM   10  C   UNL     1     -11.177  12.731  68.947  1.00  0.00    -0.283 C  
BRANCH   8  11
HETATM   11  O   UNL     1      -9.032  14.667  69.185  1.00  0.00    -0.133 OA 
HETATM   12 SI   UNL     1      -7.384  14.324  69.200  1.00  0.00    -0.098 Si 
HETATM   13  C   UNL     1      -7.061  12.475  69.390  1.00  0.00     0.172 C  
HETATM   14  C   UNL     1      -6.492  15.195  70.607  1.00  0.00     0.176 C  
HETATM   15  C   UNL     1      -6.584  14.867  67.581  1.00  0.00    -0.165 C  
ENDBRANCH   8  11
ENDBRANCH   5   8
TORSDOF 2
ENDMDL
MODEL      293
REMARK 921   NORMALIZED FREE ENERGY PREDICTED BY IDOCK:   -2.31 KCAL/MOL
REMARK 922        TOTAL FREE ENERGY PREDICTED BY IDOCK:   -2.82 KCAL/MOL
REMARK 923 INTER-LIGAND FREE ENERGY PREDICTED BY IDOCK:   -2.63 KCAL/MOL
REMARK 924 INTRA-LIGAND FREE ENERGY PREDICTED BY IDOCK:   -0.19 KCAL/MOL
REMARK 927      BINDING AFFINITY PREDICTED BY RF-SCORE:    0.00 PKD
ROOT
HETATM    1  O   UNL     1      -8.343  13.110  66.932  1.00  0.00    -0.362 OA 
HETATM    2  H   UNL     1      -8.318  13.488  67.804  1.00  0.00     0.000 HD 
HETATM    3 SI   UNL     1      -9.725  12.956  66.426  1.00  0.00    -0.213 Si 
HETATM    4  C   UNL     1     -11.547  12.068  69.753  1.00  0.00    -0.276 C  
HETATM    5  O   UNL     1     -11.038  11.281  68.680  1.00  0.00    -0.195 OA 
HETATM    6  O   UNL     1      -9.763  12.371  65.078  1.00  0.00    -0.438 OA 
HETATM    7  H   UNL     1     -10.650  12.273  64.753  1.00  0.00     0.000 HD 
ENDROOT
BRANCH   5   8
HETATM    8 SI   UNL     1     -10.369   9.776  69.041  1.00  0.00    -0.165 Si 
HETATM    9  C   UNL     1     -10.449   8.690  67.518  1.00  0.00    -0.266 C  
HETATM   10  C   UNL     1     -11.321   8.991  70.453  1.00  0.00    -0.210 C  
BRANCH   8  11
HETATM   11  O   UNL     1      -8.773  10.000  69.503  1.00  0.00    -0.170 OA 
HETATM   12 SI   UNL     1      -7.489   9.072  70.069  1.00  0.00    -0.045 Si 
HETATM   13  C   UNL     1      -7.907   8.232  71.706  1.00  0.00    -0.118 C  
HETATM   14  C   UNL     1      -5.939  10.100  70.347  1.00  0.00    -0.092 C  
HETATM   15  C   UNL     1      -7.068   7.709  68.835  1.00  0.00    -0.079 C  
ENDBRANCH   8  11
ENDBRANCH   5   8
TORSDOF 2
ENDMDL
MODEL      294
REMARK 921   NORMALIZED FREE ENERGY PREDICTED BY IDOCK:   -2.31 KCAL/MOL
REMARK 922        TOTAL FREE ENERGY PREDICTED BY IDOCK:   -2.82 KCAL/MOL
REMARK 923 INTER-LIGAND FREE ENERGY PREDICTED BY IDOCK:   -2.56 KCAL/MOL
REMARK 924 INTRA-LIGAND FREE ENERGY PREDICTED BY IDOCK:   -0.25 KCAL/MOL
REMARK 927      BINDING AFFINITY PREDICTED BY RF-SCORE:    0.00 PKD
ROOT
HETATM    1  O   UNL     1      -7.400  13.709  67.554  1.00  0.00    -0.168 OA 
HETATM    2  H   UNL     1      -7.160  13.846  66.645  1.00  0.00     0.000 HD 
HETATM    3 SI   UNL     1      -6.868  12.437  68.091  1.00  0.00    -0.060 Si 
HETATM    4  C   UNL     1      -7.163  10.210  64.907  1.00  0.00    -0.131 C  
HETATM    5  O   UNL     1      -7.987  10.381  66.057  1.00  0.00    -0.132 OA 
HETATM    6  O   UNL     1      -7.240  12.225  69.497  1.00  0.00    -0.332 OA 
HETATM    7  H   UNL     1      -6.898  11.409  69.841  1.00  0.00     0.000 HD 
ENDROOT
BRANCH   5   8
HETATM    8 SI   UNL     1      -9.659  10.289  65.863  1.00  0.00    -0.155 Si 
HETATM    9  C   UNL     1     -10.102  10.798  64.117  1.00  0.00    -0.353 C  
HETATM   10  C   UNL     1     -10.494  11.419  67.105  1.00  0.00    -0.224 C  
BRANCH   8  11
HETATM   11  O   UNL     1     -10.140   8.707  66.141  1.00  0.00    -0.250 OA 
HETATM   12 SI   UNL     1      -9.842   7.482  67.256  1.00  0.00    -0.132 Si 
HETATM   13  C   UNL     1      -8.020   6.993  67.279  1.00  0.00    -0.111 C  
HETATM   14  C   UNL     1     -10.834   5.929  66.884  1.00  0.00    -0.296 C  
HETATM   15  C   UNL     1     -10.288   8.054  68.996  1.00  0.00    -0.218 C  
ENDBRANCH   8  11
ENDBRANCH   5   8
TORSDOF 2
ENDMDL
MODEL      295
REMARK 921   NORMALIZED FREE ENERGY PREDICTED BY IDOCK:   -2.30 KCAL/MOL
REMARK 922        TOTAL FREE ENERGY PREDICTED BY IDOCK:   -2.80 KCAL/MOL
REMARK 923 INTER-LIGAND FREE ENERGY PREDICTED BY IDOCK:   -2.60 KCAL/MOL
REMARK 924 INTRA-LIGAND FREE ENERGY PREDICTED BY IDOCK:   -0.21 KCAL/MOL
REMARK 927      BINDING AFFINITY PREDICTED BY RF-SCORE:    0.00 PKD
ROOT
HETATM    1  O   UNL     1      -9.786   9.048  65.425  1.00  0.00    -0.461 OA 
HETATM    2  H   UNL     1     -10.641   8.767  65.728  1.00  0.00     0.000 HD 
HETATM    3 SI   UNL     1      -9.149   8.048  64.538  1.00  0.00    -0.367 Si 
HETATM    4  C   UNL     1     -10.420   4.774  66.224  1.00  0.00    -0.269 C  
HETATM    5  O   UNL     1      -9.203   5.508  66.316  1.00  0.00    -0.146 OA 
HETATM    6  O   UNL     1      -7.825   8.482  64.070  1.00  0.00    -0.132 OA 
HETATM    7  H   UNL     1      -7.416   7.841  63.501  1.00  0.00     0.000 HD 
ENDROOT
BRANCH   5   8
HETATM    8 SI   UNL     1      -8.415   5.567  67.805  1.00  0.00    -0.099 Si 
HETATM    9  C   UNL     1      -6.580   5.804  67.518  1.00  0.00    -0.056 C  
HETATM   10  C   UNL     1      -8.729   3.973  68.741  1.00  0.00    -0.098 C  
BRANCH   8  11
HETATM   11  O   UNL     1      -9.031   6.856  68.682  1.00  0.00    -0.131 OA 
HETATM   12 SI   UNL     1      -9.704   7.134  70.199  1.00  0.00    -0.162 Si 
HETATM   13  C   UNL     1     -11.283   6.132  70.452  1.00  0.00    -0.353 C  
HETATM   14  C   UNL     1     -10.142   8.944  70.461  1.00  0.00    -0.205 C  
HETATM   15  C   UNL     1      -8.498   6.626  71.557  1.00  0.00    -0.120 C  
ENDBRANCH   8  11
ENDBRANCH   5   8
TORSDOF 2
ENDMDL
MODEL      296
REMARK 921   NORMALIZED FREE ENERGY PREDICTED BY IDOCK:   -2.29 KCAL/MOL
REMARK 922        TOTAL FREE ENERGY PREDICTED BY IDOCK:   -2.80 KCAL/MOL
REMARK 923 INTER-LIGAND FREE ENERGY PREDICTED BY IDOCK:   -2.60 KCAL/MOL
REMARK 924 INTRA-LIGAND FREE ENERGY PREDICTED BY IDOCK:   -0.20 KCAL/MOL
REMARK 927      BINDING AFFINITY PREDICTED BY RF-SCORE:    0.00 PKD
ROOT
HETATM    1  O   UNL     1     -10.180   4.193  67.323  1.00  0.00    -0.136 OA 
HETATM    2  H   UNL     1      -9.502   4.143  67.986  1.00  0.00     0.000 HD 
HETATM    3 SI   UNL     1      -9.650   4.613  66.007  1.00  0.00    -0.129 Si 
HETATM    4  C   UNL     1      -6.897   7.110  67.177  1.00  0.00    -0.076 C  
HETATM    5  O   UNL     1      -8.236   7.279  66.721  1.00  0.00    -0.116 OA 
HETATM    6  O   UNL     1     -10.700   4.692  64.981  1.00  0.00    -0.502 OA 
HETATM    7  H   UNL     1     -10.359   4.961  64.137  1.00  0.00     0.000 HD 
ENDROOT
BRANCH   5   8
HETATM    8 SI   UNL     1      -9.165   8.508  67.405  1.00  0.00    -0.128 Si 
HETATM    9  C   UNL     1     -10.127   9.374  66.052  1.00  0.00    -0.231 C  
HETATM   10  C   UNL     1      -8.040   9.724  68.286  1.00  0.00    -0.104 C  
BRANCH   8  11
HETATM   11  O   UNL     1     -10.220   7.825  68.514  1.00  0.00    -0.195 OA 
HETATM   12 SI   UNL     1     -10.199   7.318  70.118  1.00  0.00    -0.185 Si 
HETATM   13  C   UNL     1      -8.928   5.951  70.397  1.00  0.00    -0.147 C  
HETATM   14  C   UNL     1     -11.867   6.652  70.674  1.00  0.00    -0.383 C  
HETATM   15  C   UNL     1      -9.737   8.750  71.255  1.00  0.00    -0.265 C  
ENDBRANCH   8  11
ENDBRANCH   5   8
TORSDOF 2
ENDMDL
MODEL      297
REMARK 921   NORMALIZED FREE ENERGY PREDICTED BY IDOCK:   -2.29 KCAL/MOL
REMARK 922        TOTAL FREE ENERGY PREDICTED BY IDOCK:   -2.79 KCAL/MOL
REMARK 923 INTER-LIGAND FREE ENERGY PREDICTED BY IDOCK:   -2.62 KCAL/MOL
REMARK 924 INTRA-LIGAND FREE ENERGY PREDICTED BY IDOCK:   -0.17 KCAL/MOL
REMARK 927      BINDING AFFINITY PREDICTED BY RF-SCORE:    0.00 PKD
ROOT
HETATM    1  O   UNL     1     -12.255   6.662  71.241  1.00  0.00    -0.356 OA 
HETATM    2  H   UNL     1     -11.975   5.841  70.855  1.00  0.00     0.000 HD 
HETATM    3 SI   UNL     1     -12.938   7.539  70.264  1.00  0.00    -0.519 Si 
HETATM    4  C   UNL     1     -10.887   6.677  67.065  1.00  0.00    -0.397 C  
HETATM    5  O   UNL     1     -10.817   7.741  68.011  1.00  0.00    -0.115 OA 
HETATM    6  O   UNL     1     -13.371   8.810  70.861  1.00  0.00    -0.517 OA 
HETATM    7  H   UNL     1     -13.809   9.372  70.234  1.00  0.00     0.000 HD 
ENDROOT
BRANCH   5   8
HETATM    8 SI   UNL     1      -9.301   8.362  68.405  1.00  0.00    -0.132 Si 
HETATM    9  C   UNL     1      -9.492   9.616  69.782  1.00  0.00    -0.220 C  
HETATM   10  C   UNL     1      -8.543   9.168  66.890  1.00  0.00    -0.123 C  
BRANCH   8  11
HETATM   11  O   UNL     1      -8.322   7.099  68.910  1.00  0.00    -0.124 OA 
HETATM   12 SI   UNL     1      -6.680   6.782  69.100  1.00  0.00    -0.039 Si 
HETATM   13  C   UNL     1      -5.752   6.925  67.464  1.00  0.00    -0.020 C  
HETATM   14  C   UNL     1      -6.364   5.055  69.774  1.00  0.00    -0.030 C  
HETATM   15  C   UNL     1      -5.905   8.021  70.291  1.00  0.00    -0.026 C  
ENDBRANCH   8  11
ENDBRANCH   5   8
TORSDOF 2
ENDMDL
MODEL      298
REMARK 921   NORMALIZED FREE ENERGY PREDICTED BY IDOCK:   -2.28 KCAL/MOL
REMARK 922        TOTAL FREE ENERGY PREDICTED BY IDOCK:   -2.79 KCAL/MOL
REMARK 923 INTER-LIGAND FREE ENERGY PREDICTED BY IDOCK:   -2.60 KCAL/MOL
REMARK 924 INTRA-LIGAND FREE ENERGY PREDICTED BY IDOCK:   -0.18 KCAL/MOL
REMARK 927      BINDING AFFINITY PREDICTED BY RF-SCORE:    0.00 PKD
ROOT
HETATM    1  O   UNL     1      -9.934  11.147  68.228  1.00  0.00    -0.174 OA 
HETATM    2  H   UNL     1     -10.873  11.278  68.171  1.00  0.00     0.000 HD 
HETATM    3 SI   UNL     1      -9.361  11.724  69.465  1.00  0.00    -0.376 Si 
HETATM    4  C   UNL     1     -11.626  14.872  69.830  1.00  0.00    -0.303 C  
HETATM    5  O   UNL     1     -10.324  14.666  69.290  1.00  0.00    -0.227 OA 
HETATM    6  O   UNL     1      -7.907  11.523  69.553  1.00  0.00    -0.349 OA 
HETATM    7  H   UNL     1      -7.540  11.893  70.346  1.00  0.00     0.000 HD 
ENDROOT
BRANCH   5   8
HETATM    8 SI   UNL     1      -9.863  15.571  67.946  1.00  0.00    -0.202 Si 
HETATM    9  C   UNL     1     -11.373  16.413  67.227  1.00  0.00     0.218 C  
HETATM   10  C   UNL     1      -9.077  14.441  66.671  1.00  0.00    -0.240 C  
BRANCH   8  11
HETATM   11  O   UNL     1      -8.743  16.719  68.435  1.00  0.00    -0.218 OA 
HETATM   12 SI   UNL     1      -7.072  16.911  68.458  1.00  0.00    -0.147 Si 
HETATM   13  C   UNL     1      -6.233  15.569  69.486  1.00  0.00    -0.145 C  
HETATM   14  C   UNL     1      -6.558  18.570  69.178  1.00  0.00    -0.265 C  
HETATM   15  C   UNL     1      -6.372  16.794  66.711  1.00  0.00    -0.175 C  
ENDBRANCH   8  11
ENDBRANCH   5   8
TORSDOF 2
ENDMDL
MODEL      299
REMARK 921   NORMALIZED FREE ENERGY PREDICTED BY IDOCK:   -2.28 KCAL/MOL
REMARK 922        TOTAL FREE ENERGY PREDICTED BY IDOCK:   -2.78 KCAL/MOL
REMARK 923 INTER-LIGAND FREE ENERGY PREDICTED BY IDOCK:   -2.52 KCAL/MOL
REMARK 924 INTRA-LIGAND FREE ENERGY PREDICTED BY IDOCK:   -0.27 KCAL/MOL
REMARK 927      BINDING AFFINITY PREDICTED BY RF-SCORE:    0.00 PKD
ROOT
HETATM    1  O   UNL     1     -10.307  15.532  70.045  1.00  0.00    -0.299 OA 
HETATM    2  H   UNL     1     -10.252  14.886  70.739  1.00  0.00     0.000 HD 
HETATM    3 SI   UNL     1     -11.134  15.067  68.909  1.00  0.00    -0.213 Si 
HETATM    4  C   UNL     1     -10.215  11.281  68.938  1.00  0.00    -0.180 C  
HETATM    5  O   UNL     1      -9.747  12.392  68.178  1.00  0.00    -0.204 OA 
HETATM    6  O   UNL     1     -11.218  16.067  67.834  1.00  0.00    -0.338 OA 
HETATM    7  H   UNL     1     -11.748  15.768  67.105  1.00  0.00     0.000 HD 
ENDROOT
BRANCH   5   8
HETATM    8 SI   UNL     1      -8.118  12.436  67.746  1.00  0.00    -0.110 Si 
HETATM    9  C   UNL     1      -7.114  11.554  69.058  1.00  0.00    -0.115 C  
HETATM   10  C   UNL     1      -7.563  14.220  67.589  1.00  0.00    -0.176 C  
BRANCH   8  11
HETATM   11  O   UNL     1      -7.938  11.666  66.269  1.00  0.00    -0.064 OA 
HETATM   12 SI   UNL     1      -8.798  10.591  65.301  1.00  0.00    -0.146 Si 
HETATM   13  C   UNL     1      -9.103   8.952  66.184  1.00  0.00    -0.203 C  
HETATM   14  C   UNL     1      -7.896  10.203  63.697  1.00  0.00    -0.154 C  
HETATM   15  C   UNL     1     -10.485  11.310  64.859  1.00  0.00    -0.314 C  
ENDBRANCH   8  11
ENDBRANCH   5   8
TORSDOF 2
ENDMDL
MODEL      300
REMARK 921   NORMALIZED FREE ENERGY PREDICTED BY IDOCK:   -2.28 KCAL/MOL
REMARK 922        TOTAL FREE ENERGY PREDICTED BY IDOCK:   -2.78 KCAL/MOL
REMARK 923 INTER-LIGAND FREE ENERGY PREDICTED BY IDOCK:   -2.62 KCAL/MOL
REMARK 924 INTRA-LIGAND FREE ENERGY PREDICTED BY IDOCK:   -0.17 KCAL/MOL
REMARK 927      BINDING AFFINITY PREDICTED BY RF-SCORE:    0.00 PKD
ROOT
HETATM    1  O   UNL     1     -12.334   6.756  71.017  1.00  0.00    -0.378 OA 
HETATM    2  H   UNL     1     -12.478   5.903  70.625  1.00  0.00     0.000 HD 
HETATM    3 SI   UNL     1     -12.484   7.856  70.038  1.00  0.00    -0.470 Si 
HETATM    4  C   UNL     1     -11.031   6.117  66.869  1.00  0.00    -0.305 C  
HETATM    5  O   UNL     1     -10.477   7.011  67.831  1.00  0.00    -0.185 OA 
HETATM    6  O   UNL     1     -12.260   9.176  70.645  1.00  0.00    -0.474 OA 
HETATM    7  H   UNL     1     -12.356   9.882  70.017  1.00  0.00     0.000 HD 
ENDROOT
BRANCH   5   8
HETATM    8 SI   UNL     1      -8.859   6.818  68.263  1.00  0.00    -0.120 Si 
HETATM    9  C   UNL     1      -7.807   7.963  67.220  1.00  0.00    -0.113 C  
HETATM   10  C   UNL     1      -8.349   5.034  67.991  1.00  0.00    -0.100 C  
BRANCH   8  11
HETATM   11  O   UNL     1      -8.693   7.203  69.885  1.00  0.00    -0.140 OA 
HETATM   12 SI   UNL     1      -7.488   7.740  70.930  1.00  0.00    -0.063 Si 
HETATM   13  C   UNL     1      -6.046   6.525  71.010  1.00  0.00    -0.032 C  
HETATM   14  C   UNL     1      -8.122   7.972  72.685  1.00  0.00    -0.145 C  
HETATM   15  C   UNL     1      -6.794   9.391  70.341  1.00  0.00    -0.089 C  
ENDBRANCH   8  11
ENDBRANCH   5   8
TORSDOF 2
ENDMDL
MODEL      301
REMARK 921   NORMALIZED FREE ENERGY PREDICTED BY IDOCK:   -2.27 KCAL/MOL
REMARK 922        TOTAL FREE ENERGY PREDICTED BY IDOCK:   -2.77 KCAL/MOL
REMARK 923 INTER-LIGAND FREE ENERGY PREDICTED BY IDOCK:   -2.64 KCAL/MOL
REMARK 924 INTRA-LIGAND FREE ENERGY PREDICTED BY IDOCK:   -0.13 KCAL/MOL
REMARK 927      BINDING AFFINITY PREDICTED BY RF-SCORE:    0.00 PKD
ROOT
HETATM    1  O   UNL     1      -8.412  11.045  69.562  1.00  0.00    -0.377 OA 
HETATM    2  H   UNL     1      -9.276  10.764  69.838  1.00  0.00     0.000 HD 
HETATM    3 SI   UNL     1      -8.276  12.519  69.555  1.00  0.00    -0.329 Si 
HETATM    4  C   UNL     1     -11.871  13.501  68.417  1.00  0.00    -0.373 C  
HETATM    5  O   UNL     1     -10.634  13.357  67.724  1.00  0.00    -0.239 OA 
HETATM    6  O   UNL     1      -6.939  12.954  69.128  1.00  0.00    -0.195 OA 
HETATM    7  H   UNL     1      -6.852  13.900  69.123  1.00  0.00     0.000 HD 
ENDROOT
BRANCH   5   8
HETATM    8 SI   UNL     1     -10.665  12.757  66.149  1.00  0.00    -0.256 Si 
HETATM    9  C   UNL     1      -9.544  13.803  65.074  1.00  0.00     0.329 C  
HETATM   10  C   UNL     1     -12.423  12.804  65.498  1.00  0.00    -0.354 C  
BRANCH   8  11
HETATM   11  O   UNL     1     -10.123  11.172  66.172  1.00  0.00    -0.222 OA 
HETATM   12 SI   UNL     1      -8.777  10.298  65.666  1.00  0.00    -0.133 Si 
HETATM   13  C   UNL     1      -8.538  10.413  63.798  1.00  0.00    -0.177 C  
HETATM   14  C   UNL     1      -8.911   8.473  66.101  1.00  0.00    -0.167 C  
HETATM   15  C   UNL     1      -7.212  10.974  66.471  1.00  0.00    -0.143 C  
ENDBRANCH   8  11
ENDBRANCH   5   8
TORSDOF 2
ENDMDL
MODEL      302
REMARK 921   NORMALIZED FREE ENERGY PREDICTED BY IDOCK:   -2.27 KCAL/MOL
REMARK 922        TOTAL FREE ENERGY PREDICTED BY IDOCK:   -2.77 KCAL/MOL
REMARK 923 INTER-LIGAND FREE ENERGY PREDICTED BY IDOCK:   -2.52 KCAL/MOL
REMARK 924 INTRA-LIGAND FREE ENERGY PREDICTED BY IDOCK:   -0.24 KCAL/MOL
REMARK 927      BINDING AFFINITY PREDICTED BY RF-SCORE:    0.00 PKD
ROOT
HETATM    1  O   UNL     1      -7.126  14.050  69.998  1.00  0.00    -0.370 OA 
HETATM    2  H   UNL     1      -7.740  13.674  70.618  1.00  0.00     0.000 HD 
HETATM    3 SI   UNL     1      -7.686  15.228  69.297  1.00  0.00    -0.118 Si 
HETATM    4  C   UNL     1     -11.404  14.102  68.995  1.00  0.00    -0.275 C  
HETATM    5  O   UNL     1     -10.297  14.061  68.099  1.00  0.00    -0.230 OA 
HETATM    6  O   UNL     1      -6.737  15.810  68.338  1.00  0.00    -0.110 OA 
HETATM    7  H   UNL     1      -7.097  16.565  67.889  1.00  0.00     0.000 HD 
ENDROOT
BRANCH   5   8
HETATM    8 SI   UNL     1     -10.169  12.752  67.046  1.00  0.00    -0.220 Si 
HETATM    9  C   UNL     1     -10.909  13.221  65.392  1.00  0.00    -0.291 C  
HETATM   10  C   UNL     1     -11.074  11.277  67.771  1.00  0.00    -0.271 C  
BRANCH   8  11
HETATM   11  O   UNL     1      -8.547  12.372  66.863  1.00  0.00    -0.195 OA 
HETATM   12 SI   UNL     1      -7.532  11.052  67.105  1.00  0.00    -0.088 Si 
HETATM   13  C   UNL     1      -7.514  10.511  68.912  1.00  0.00    -0.104 C  
HETATM   14  C   UNL     1      -5.755  11.424  66.615  1.00  0.00    -0.142 C  
HETATM   15  C   UNL     1      -8.118   9.577  66.087  1.00  0.00    -0.111 C  
ENDBRANCH   8  11
ENDBRANCH   5   8
TORSDOF 2
ENDMDL
MODEL      303
REMARK 921   NORMALIZED FREE ENERGY PREDICTED BY IDOCK:   -2.26 KCAL/MOL
REMARK 922        TOTAL FREE ENERGY PREDICTED BY IDOCK:   -2.76 KCAL/MOL
REMARK 923 INTER-LIGAND FREE ENERGY PREDICTED BY IDOCK:   -2.49 KCAL/MOL
REMARK 924 INTRA-LIGAND FREE ENERGY PREDICTED BY IDOCK:   -0.27 KCAL/MOL
REMARK 927      BINDING AFFINITY PREDICTED BY RF-SCORE:    0.00 PKD
ROOT
HETATM    1  O   UNL     1     -10.280   9.015  65.774  1.00  0.00    -0.361 OA 
HETATM    2  H   UNL     1     -11.077   9.156  66.272  1.00  0.00     0.000 HD 
HETATM    3 SI   UNL     1      -9.952   7.578  65.635  1.00  0.00    -0.409 Si 
HETATM    4  C   UNL     1     -11.174   6.290  69.103  1.00  0.00    -0.371 C  
HETATM    5  O   UNL     1      -9.895   6.659  68.596  1.00  0.00    -0.134 OA 
HETATM    6  O   UNL     1      -8.719   7.360  64.866  1.00  0.00    -0.359 OA 
HETATM    7  H   UNL     1      -8.509   6.438  64.776  1.00  0.00     0.000 HD 
ENDROOT
BRANCH   5   8
HETATM    8 SI   UNL     1      -8.809   7.416  69.639  1.00  0.00    -0.129 Si 
HETATM    9  C   UNL     1      -7.149   6.557  69.525  1.00  0.00    -0.073 C  
HETATM   10  C   UNL     1      -9.467   7.333  71.393  1.00  0.00    -0.160 C  
BRANCH   8  11
HETATM   11  O   UNL     1      -8.659   9.021  69.178  1.00  0.00    -0.128 OA 
HETATM   12 SI   UNL     1      -7.456  10.062  68.632  1.00  0.00    -0.071 Si 
HETATM   13  C   UNL     1      -6.062  10.233  69.892  1.00  0.00    -0.062 C  
HETATM   14  C   UNL     1      -8.114  11.789  68.288  1.00  0.00    -0.154 C  
HETATM   15  C   UNL     1      -6.690   9.405  67.039  1.00  0.00    -0.076 C  
ENDBRANCH   8  11
ENDBRANCH   5   8
TORSDOF 2
ENDMDL
MODEL      304
REMARK 921   NORMALIZED FREE ENERGY PREDICTED BY IDOCK:   -2.24 KCAL/MOL
REMARK 922        TOTAL FREE ENERGY PREDICTED BY IDOCK:   -2.74 KCAL/MOL
REMARK 923 INTER-LIGAND FREE ENERGY PREDICTED BY IDOCK:   -2.57 KCAL/MOL
REMARK 924 INTRA-LIGAND FREE ENERGY PREDICTED BY IDOCK:   -0.17 KCAL/MOL
REMARK 927      BINDING AFFINITY PREDICTED BY RF-SCORE:    0.00 PKD
ROOT
HETATM    1  O   UNL     1      -9.651   2.733  67.524  1.00  0.00    -0.370 OA 
HETATM    2  H   UNL     1      -8.892   2.623  68.085  1.00  0.00     0.000 HD 
HETATM    3 SI   UNL     1      -9.328   3.464  66.279  1.00  0.00    -0.126 Si 
HETATM    4  C   UNL     1      -6.663   5.952  67.653  1.00  0.00    -0.058 C  
HETATM    5  O   UNL     1      -8.059   6.066  67.389  1.00  0.00    -0.105 OA 
HETATM    6  O   UNL     1     -10.502   3.636  65.412  1.00  0.00    -0.417 OA 
HETATM    7  H   UNL     1     -10.294   4.105  64.613  1.00  0.00     0.000 HD 
ENDROOT
BRANCH   5   8
HETATM    8 SI   UNL     1      -8.990   7.026  68.415  1.00  0.00    -0.121 Si 
HETATM    9  C   UNL     1      -8.528   6.653  70.190  1.00  0.00    -0.136 C  
HETATM   10  C   UNL     1     -10.808   6.668  68.124  1.00  0.00    -0.263 C  
BRANCH   8  11
HETATM   11  O   UNL     1      -8.679   8.636  68.066  1.00  0.00    -0.139 OA 
HETATM   12 SI   UNL     1      -9.413   9.905  67.240  1.00  0.00    -0.138 Si 
HETATM   13  C   UNL     1      -9.658   9.496  65.414  1.00  0.00    -0.272 C  
HETATM   14  C   UNL     1      -8.401  11.488  67.328  1.00  0.00    -0.154 C  
HETATM   15  C   UNL     1     -11.116  10.264  67.965  1.00  0.00    -0.274 C  
ENDBRANCH   8  11
ENDBRANCH   5   8
TORSDOF 2
ENDMDL
MODEL      305
REMARK 921   NORMALIZED FREE ENERGY PREDICTED BY IDOCK:   -2.23 KCAL/MOL
REMARK 922        TOTAL FREE ENERGY PREDICTED BY IDOCK:   -2.73 KCAL/MOL
REMARK 923 INTER-LIGAND FREE ENERGY PREDICTED BY IDOCK:   -2.51 KCAL/MOL
REMARK 924 INTRA-LIGAND FREE ENERGY PREDICTED BY IDOCK:   -0.22 KCAL/MOL
REMARK 927      BINDING AFFINITY PREDICTED BY RF-SCORE:    0.00 PKD
ROOT
HETATM    1  O   UNL     1      -6.902  13.251  67.504  1.00  0.00    -0.157 OA 
HETATM    2  H   UNL     1      -6.676  12.887  66.656  1.00  0.00     0.000 HD 
HETATM    3 SI   UNL     1      -6.553  12.342  68.618  1.00  0.00    -0.056 Si 
HETATM    4  C   UNL     1      -7.300   8.914  66.922  1.00  0.00    -0.083 C  
HETATM    5  O   UNL     1      -8.046   9.749  67.802  1.00  0.00    -0.111 OA 
HETATM    6  O   UNL     1      -6.903  12.905  69.929  1.00  0.00    -0.347 OA 
HETATM    7  H   UNL     1      -6.679  12.322  70.644  1.00  0.00     0.000 HD 
ENDROOT
BRANCH   5   8
HETATM    8 SI   UNL     1      -9.718   9.828  67.604  1.00  0.00    -0.140 Si 
HETATM    9  C   UNL     1     -10.268   8.433  66.483  1.00  0.00    -0.207 C  
HETATM   10  C   UNL     1     -10.181  11.485  66.857  1.00  0.00    -0.217 C  
BRANCH   8  11
HETATM   11  O   UNL     1     -10.441   9.676  69.108  1.00  0.00    -0.200 OA 
HETATM   12 SI   UNL     1     -10.288   8.717  70.482  1.00  0.00    -0.181 Si 
HETATM   13  C   UNL     1     -10.581   6.894  70.092  1.00  0.00    -0.220 C  
HETATM   14  C   UNL     1     -11.508   9.204  71.827  1.00  0.00    -0.381 C  
HETATM   15  C   UNL     1      -8.548   8.862  71.196  1.00  0.00    -0.208 C  
ENDBRANCH   8  11
ENDBRANCH   5   8
TORSDOF 2
ENDMDL
MODEL      306
REMARK 921   NORMALIZED FREE ENERGY PREDICTED BY IDOCK:   -2.23 KCAL/MOL
REMARK 922        TOTAL FREE ENERGY PREDICTED BY IDOCK:   -2.73 KCAL/MOL
REMARK 923 INTER-LIGAND FREE ENERGY PREDICTED BY IDOCK:   -2.50 KCAL/MOL
REMARK 924 INTRA-LIGAND FREE ENERGY PREDICTED BY IDOCK:   -0.23 KCAL/MOL
REMARK 927      BINDING AFFINITY PREDICTED BY RF-SCORE:    0.00 PKD
ROOT
HETATM    1  O   UNL     1     -10.703   4.729  74.394  1.00  0.00    -0.312 OA 
HETATM    2  H   UNL     1      -9.823   4.396  74.528  1.00  0.00     0.000 HD 
HETATM    3 SI   UNL     1     -11.066   4.799  72.961  1.00  0.00    -0.182 Si 
HETATM    4  C   UNL     1      -7.607   5.780  71.460  1.00  0.00    -0.099 C  
HETATM    5  O   UNL     1      -8.763   6.532  71.817  1.00  0.00    -0.131 OA 
HETATM    6  O   UNL     1     -12.427   5.314  72.754  1.00  0.00    -0.345 OA 
HETATM    7  H   UNL     1     -12.659   5.359  71.835  1.00  0.00     0.000 HD 
ENDROOT
BRANCH   5   8
HETATM    8 SI   UNL     1      -8.546   8.079  72.450  1.00  0.00    -0.097 Si 
HETATM    9  C   UNL     1      -6.983   8.820  71.734  1.00  0.00    -0.056 C  
HETATM   10  C   UNL     1      -8.423   7.977  74.319  1.00  0.00    -0.191 C  
BRANCH   8  11
HETATM   11  O   UNL     1      -9.871   9.016  72.032  1.00  0.00    -0.311 OA 
HETATM   12 SI   UNL     1     -10.873   9.249  70.700  1.00  0.00    -0.197 Si 
HETATM   13  C   UNL     1      -9.901   9.847  69.197  1.00  0.00    -0.198 C  
HETATM   14  C   UNL     1     -12.218  10.518  71.037  1.00  0.00    -0.400 C  
HETATM   15  C   UNL     1     -11.709   7.630  70.215  1.00  0.00     0.016 C  
ENDBRANCH   8  11
ENDBRANCH   5   8
TORSDOF 2
ENDMDL
MODEL      307
REMARK 921   NORMALIZED FREE ENERGY PREDICTED BY IDOCK:   -2.23 KCAL/MOL
REMARK 922        TOTAL FREE ENERGY PREDICTED BY IDOCK:   -2.73 KCAL/MOL
REMARK 923 INTER-LIGAND FREE ENERGY PREDICTED BY IDOCK:   -2.49 KCAL/MOL
REMARK 924 INTRA-LIGAND FREE ENERGY PREDICTED BY IDOCK:   -0.23 KCAL/MOL
REMARK 927      BINDING AFFINITY PREDICTED BY RF-SCORE:    0.00 PKD
ROOT
HETATM    1  O   UNL     1     -11.565   4.841  65.508  1.00  0.00    -0.878 OA 
HETATM    2  H   UNL     1     -12.015   4.468  66.257  1.00  0.00     0.000 HD 
HETATM    3 SI   UNL     1     -10.650   3.874  64.862  1.00  0.00    -0.178 Si 
HETATM    4  C   UNL     1      -9.402   1.950  68.011  1.00  0.00    -0.178 C  
HETATM    5  O   UNL     1      -8.858   3.019  67.243  1.00  0.00    -0.115 OA 
HETATM    6  O   UNL     1      -9.955   4.452  63.703  1.00  0.00    -0.352 OA 
HETATM    7  H   UNL     1      -9.368   3.832  63.289  1.00  0.00     0.000 HD 
ENDROOT
BRANCH   5   8
HETATM    8 SI   UNL     1      -7.984   4.216  68.046  1.00  0.00    -0.077 Si 
HETATM    9  C   UNL     1      -6.251   3.590  68.379  1.00  0.00    -0.032 C  
HETATM   10  C   UNL     1      -8.844   4.644  69.656  1.00  0.00    -0.083 C  
BRANCH   8  11
HETATM   11  O   UNL     1      -7.925   5.577  67.070  1.00  0.00    -0.101 OA 
HETATM   12 SI   UNL     1      -8.296   7.215  67.177  1.00  0.00    -0.105 Si 
HETATM   13  C   UNL     1     -10.125   7.490  67.549  1.00  0.00    -0.200 C  
HETATM   14  C   UNL     1      -7.905   8.137  65.585  1.00  0.00    -0.098 C  
HETATM   15  C   UNL     1      -7.316   8.022  68.571  1.00  0.00    -0.097 C  
ENDBRANCH   8  11
ENDBRANCH   5   8
TORSDOF 2
ENDMDL
MODEL      308
REMARK 921   NORMALIZED FREE ENERGY PREDICTED BY IDOCK:   -2.22 KCAL/MOL
REMARK 922        TOTAL FREE ENERGY PREDICTED BY IDOCK:   -2.71 KCAL/MOL
REMARK 923 INTER-LIGAND FREE ENERGY PREDICTED BY IDOCK:   -2.51 KCAL/MOL
REMARK 924 INTRA-LIGAND FREE ENERGY PREDICTED BY IDOCK:   -0.20 KCAL/MOL
REMARK 927      BINDING AFFINITY PREDICTED BY RF-SCORE:    0.00 PKD
ROOT
HETATM    1  O   UNL     1     -12.406  11.640  70.258  1.00  0.00    -0.301 OA 
HETATM    2  H   UNL     1     -12.848  11.096  69.616  1.00  0.00     0.000 HD 
HETATM    3 SI   UNL     1     -12.276  13.044  69.810  1.00  0.00    -0.252 Si 
HETATM    4  C   UNL     1     -11.721  12.465  65.997  1.00  0.00    -0.410 C  
HETATM    5  O   UNL     1     -10.834  12.702  67.087  1.00  0.00    -0.244 OA 
HETATM    6  O   UNL     1     -11.593  13.886  70.803  1.00  0.00    -0.514 OA 
HETATM    7  H   UNL     1     -11.509  14.787  70.515  1.00  0.00     0.000 HD 
ENDROOT
BRANCH   5   8
HETATM    8 SI   UNL     1      -9.333  11.935  67.077  1.00  0.00    -0.164 Si 
HETATM    9  C   UNL     1      -9.141  10.986  65.475  1.00  0.00    -0.207 C  
HETATM   10  C   UNL     1      -9.216  10.772  68.543  1.00  0.00    -0.174 C  
BRANCH   8  11
HETATM   11  O   UNL     1      -8.137  13.104  67.199  1.00  0.00    -0.168 OA 
HETATM   12 SI   UNL     1      -6.536  13.212  67.704  1.00  0.00    -0.071 Si 
HETATM   13  C   UNL     1      -6.349  12.748  69.523  1.00  0.00    -0.108 C  
HETATM   14  C   UNL     1      -5.842  14.947  67.496  1.00  0.00     0.092 C  
HETATM   15  C   UNL     1      -5.451  12.030  66.713  1.00  0.00     0.010 C  
ENDBRANCH   8  11
ENDBRANCH   5   8
TORSDOF 2
ENDMDL
MODEL      309
REMARK 921   NORMALIZED FREE ENERGY PREDICTED BY IDOCK:   -2.21 KCAL/MOL
REMARK 922        TOTAL FREE ENERGY PREDICTED BY IDOCK:   -2.71 KCAL/MOL
REMARK 923 INTER-LIGAND FREE ENERGY PREDICTED BY IDOCK:   -2.52 KCAL/MOL
REMARK 924 INTRA-LIGAND FREE ENERGY PREDICTED BY IDOCK:   -0.19 KCAL/MOL
REMARK 927      BINDING AFFINITY PREDICTED BY RF-SCORE:    0.00 PKD
ROOT
HETATM    1  O   UNL     1      -5.930   7.592  69.721  1.00  0.00    -0.023 OA 
HETATM    2  H   UNL     1      -5.838   7.009  68.977  1.00  0.00     0.000 HD 
HETATM    3 SI   UNL     1      -6.596   6.935  70.869  1.00  0.00    -0.042 Si 
HETATM    4  C   UNL     1      -9.114   4.663  68.951  1.00  0.00    -0.119 C  
HETATM    5  O   UNL     1      -9.232   5.937  69.577  1.00  0.00    -0.133 OA 
HETATM    6  O   UNL     1      -6.740   7.836  72.021  1.00  0.00    -0.053 OA 
HETATM    7  H   UNL     1      -7.167   7.414  72.757  1.00  0.00     0.000 HD 
ENDROOT
BRANCH   5   8
HETATM    8 SI   UNL     1     -10.253   7.080  68.876  1.00  0.00    -0.152 Si 
HETATM    9  C   UNL     1     -11.003   6.359  67.320  1.00  0.00    -0.392 C  
HETATM   10  C   UNL     1      -9.273   8.627  68.472  1.00  0.00    -0.138 C  
BRANCH   8  11
HETATM   11  O   UNL     1     -11.461   7.460  69.975  1.00  0.00    -0.189 OA 
HETATM   12 SI   UNL     1     -11.699   8.517  71.263  1.00  0.00    -0.247 Si 
HETATM   13  C   UNL     1     -10.454   8.213  72.648  1.00  0.00    -0.330 C  
HETATM   14  C   UNL     1     -13.417   8.351  72.008  1.00  0.00    -0.350 C  
HETATM   15  C   UNL     1     -11.480  10.302  70.698  1.00  0.00    -0.349 C  
ENDBRANCH   8  11
ENDBRANCH   5   8
TORSDOF 2
ENDMDL
MODEL      310
REMARK 921   NORMALIZED FREE ENERGY PREDICTED BY IDOCK:   -2.21 KCAL/MOL
REMARK 922        TOTAL FREE ENERGY PREDICTED BY IDOCK:   -2.70 KCAL/MOL
REMARK 923 INTER-LIGAND FREE ENERGY PREDICTED BY IDOCK:   -2.46 KCAL/MOL
REMARK 924 INTRA-LIGAND FREE ENERGY PREDICTED BY IDOCK:   -0.24 KCAL/MOL
REMARK 927      BINDING AFFINITY PREDICTED BY RF-SCORE:    0.00 PKD
ROOT
HETATM    1  O   UNL     1      -7.354   7.744  72.112  1.00  0.00    -0.068 OA 
HETATM    2  H   UNL     1      -8.103   7.267  72.449  1.00  0.00     0.000 HD 
HETATM    3 SI   UNL     1      -7.696   9.135  71.739  1.00  0.00    -0.115 Si 
HETATM    4  C   UNL     1     -11.312   8.582  70.397  1.00  0.00    -0.182 C  
HETATM    5  O   UNL     1     -10.042   8.695  69.760  1.00  0.00    -0.190 OA 
HETATM    6  O   UNL     1      -6.538   9.873  71.215  1.00  0.00    -0.321 OA 
HETATM    7  H   UNL     1      -6.757  10.765  70.976  1.00  0.00     0.000 HD 
ENDROOT
BRANCH   5   8
HETATM    8 SI   UNL     1      -9.753   7.766  68.383  1.00  0.00    -0.146 Si 
HETATM    9  C   UNL     1     -10.938   6.317  68.363  1.00  0.00    -0.325 C  
HETATM   10  C   UNL     1      -7.979   7.159  68.401  1.00  0.00    -0.124 C  
BRANCH   8  11
HETATM   11  O   UNL     1      -9.997   8.727  67.032  1.00  0.00    -0.194 OA 
HETATM   12 SI   UNL     1      -9.554  10.255  66.482  1.00  0.00    -0.151 Si 
HETATM   13  C   UNL     1     -10.175  11.614  67.633  1.00  0.00    -0.188 C  
HETATM   14  C   UNL     1     -10.237  10.617  64.768  1.00  0.00    -0.331 C  
HETATM   15  C   UNL     1      -7.676  10.406  66.402  1.00  0.00    -0.125 C  
ENDBRANCH   8  11
ENDBRANCH   5   8
TORSDOF 2
ENDMDL
MODEL      311
REMARK 921   NORMALIZED FREE ENERGY PREDICTED BY IDOCK:   -2.21 KCAL/MOL
REMARK 922        TOTAL FREE ENERGY PREDICTED BY IDOCK:   -2.70 KCAL/MOL
REMARK 923 INTER-LIGAND FREE ENERGY PREDICTED BY IDOCK:   -2.51 KCAL/MOL
REMARK 924 INTRA-LIGAND FREE ENERGY PREDICTED BY IDOCK:   -0.19 KCAL/MOL
REMARK 927      BINDING AFFINITY PREDICTED BY RF-SCORE:    0.00 PKD
ROOT
HETATM    1  O   UNL     1     -11.205   4.371  64.791  1.00  0.00    -0.826 OA 
HETATM    2  H   UNL     1     -10.955   4.144  63.903  1.00  0.00     0.000 HD 
HETATM    3 SI   UNL     1     -10.939   5.793  65.103  1.00  0.00    -0.248 Si 
HETATM    4  C   UNL     1      -7.663   6.309  63.058  1.00  0.00    -0.093 C  
HETATM    5  O   UNL     1      -7.921   6.028  64.431  1.00  0.00    -0.115 OA 
HETATM    6  O   UNL     1     -11.325   6.144  66.477  1.00  0.00    -0.745 OA 
HETATM    7  H   UNL     1     -11.154   7.057  66.677  1.00  0.00     0.000 HD 
ENDROOT
BRANCH   5   8
HETATM    8 SI   UNL     1      -6.845   5.028  65.258  1.00  0.00    -0.046 Si 
HETATM    9  C   UNL     1      -5.656   6.089  66.241  1.00  0.00    -0.016 C  
HETATM   10  C   UNL     1      -5.909   3.966  64.029  1.00  0.00    -0.014 C  
BRANCH   8  11
HETATM   11  O   UNL     1      -7.723   4.041  66.290  1.00  0.00    -0.088 OA 
HETATM   12 SI   UNL     1      -7.630   3.486  67.876  1.00  0.00    -0.059 Si 
HETATM   13  C   UNL     1      -6.053   2.494  68.173  1.00  0.00    -0.025 C  
HETATM   14  C   UNL     1      -9.081   2.378  68.325  1.00  0.00    -0.176 C  
HETATM   15  C   UNL     1      -7.612   4.936  69.080  1.00  0.00    -0.064 C  
ENDBRANCH   8  11
ENDBRANCH   5   8
TORSDOF 2
ENDMDL
MODEL      312
REMARK 921   NORMALIZED FREE ENERGY PREDICTED BY IDOCK:   -2.19 KCAL/MOL
REMARK 922        TOTAL FREE ENERGY PREDICTED BY IDOCK:   -2.69 KCAL/MOL
REMARK 923 INTER-LIGAND FREE ENERGY PREDICTED BY IDOCK:   -2.51 KCAL/MOL
REMARK 924 INTRA-LIGAND FREE ENERGY PREDICTED BY IDOCK:   -0.17 KCAL/MOL
REMARK 927      BINDING AFFINITY PREDICTED BY RF-SCORE:    0.00 PKD
ROOT
HETATM    1  O   UNL     1      -8.476  13.950  69.087  1.00  0.00    -0.353 OA 
HETATM    2  H   UNL     1      -9.024  13.875  69.859  1.00  0.00     0.000 HD 
HETATM    3 SI   UNL     1      -9.234  13.723  67.836  1.00  0.00    -0.160 Si 
HETATM    4  C   UNL     1     -11.718  10.984  69.065  1.00  0.00    -0.333 C  
HETATM    5  O   UNL     1     -10.483  10.933  68.358  1.00  0.00    -0.167 OA 
HETATM    6  O   UNL     1      -8.387  13.839  66.641  1.00  0.00    -0.425 OA 
HETATM    7  H   UNL     1      -8.873  13.694  65.839  1.00  0.00     0.000 HD 
ENDROOT
BRANCH   5   8
HETATM    8 SI   UNL     1      -9.441   9.644  68.661  1.00  0.00    -0.134 Si 
HETATM    9  C   UNL     1     -10.334   8.365  69.697  1.00  0.00    -0.218 C  
HETATM   10  C   UNL     1      -7.921  10.269  69.566  1.00  0.00    -0.165 C  
BRANCH   8  11
HETATM   11  O   UNL     1      -8.979   8.976  67.195  1.00  0.00    -0.128 OA 
HETATM   12 SI   UNL     1      -8.426   7.499  66.608  1.00  0.00    -0.106 Si 
HETATM   13  C   UNL     1      -6.797   6.996  67.417  1.00  0.00    -0.073 C  
HETATM   14  C   UNL     1      -8.140   7.536  64.750  1.00  0.00    -0.112 C  
HETATM   15  C   UNL     1      -9.675   6.135  66.976  1.00  0.00    -0.142 C  
ENDBRANCH   8  11
ENDBRANCH   5   8
TORSDOF 2
ENDMDL
MODEL      313
REMARK 921   NORMALIZED FREE ENERGY PREDICTED BY IDOCK:   -2.18 KCAL/MOL
REMARK 922        TOTAL FREE ENERGY PREDICTED BY IDOCK:   -2.67 KCAL/MOL
REMARK 923 INTER-LIGAND FREE ENERGY PREDICTED BY IDOCK:   -2.60 KCAL/MOL
REMARK 924 INTRA-LIGAND FREE ENERGY PREDICTED BY IDOCK:   -0.08 KCAL/MOL
REMARK 927      BINDING AFFINITY PREDICTED BY RF-SCORE:    0.00 PKD
ROOT
HETATM    1  O   UNL     1      -9.473  11.047  67.693  1.00  0.00    -0.161 OA 
HETATM    2  H   UNL     1     -10.352  10.768  67.465  1.00  0.00     0.000 HD 
HETATM    3 SI   UNL     1      -9.219  10.970  69.149  1.00  0.00    -0.155 Si 
HETATM    4  C   UNL     1     -12.744  11.960  70.481  1.00  0.00    -0.023 C  
HETATM    5  O   UNL     1     -11.536  12.690  70.282  1.00  0.00    -0.169 OA 
HETATM    6  O   UNL     1      -7.859  11.402  69.502  1.00  0.00    -0.363 OA 
HETATM    7  H   UNL     1      -7.696  11.352  70.436  1.00  0.00     0.000 HD 
ENDROOT
BRANCH   5   8
HETATM    8 SI   UNL     1     -11.646  14.297  69.785  1.00  0.00    -0.219 Si 
HETATM    9  C   UNL     1     -10.016  15.154  70.120  1.00  0.00     0.050 C  
HETATM   10  C   UNL     1     -13.034  15.146  70.719  1.00  0.00    -0.414 C  
BRANCH   8  11
HETATM   11  O   UNL     1     -11.984  14.324  68.144  1.00  0.00    -0.339 OA 
HETATM   12 SI   UNL     1     -11.254  14.847  66.721  1.00  0.00    -0.291 Si 
HETATM   13  C   UNL     1     -10.938  16.707  66.746  1.00  0.00     0.078 C  
HETATM   14  C   UNL     1     -12.305  14.478  65.206  1.00  0.00    -0.300 C  
HETATM   15  C   UNL     1      -9.585  14.001  66.489  1.00  0.00    -0.293 C  
ENDBRANCH   8  11
ENDBRANCH   5   8
TORSDOF 2
ENDMDL
MODEL      314
REMARK 921   NORMALIZED FREE ENERGY PREDICTED BY IDOCK:   -2.18 KCAL/MOL
REMARK 922        TOTAL FREE ENERGY PREDICTED BY IDOCK:   -2.67 KCAL/MOL
REMARK 923 INTER-LIGAND FREE ENERGY PREDICTED BY IDOCK:   -2.43 KCAL/MOL
REMARK 924 INTRA-LIGAND FREE ENERGY PREDICTED BY IDOCK:   -0.24 KCAL/MOL
REMARK 927      BINDING AFFINITY PREDICTED BY RF-SCORE:    0.00 PKD
ROOT
HETATM    1  O   UNL     1      -7.423   4.404  68.669  1.00  0.00    -0.059 OA 
HETATM    2  H   UNL     1      -7.371   5.024  67.951  1.00  0.00     0.000 HD 
HETATM    3 SI   UNL     1      -8.698   3.653  68.671  1.00  0.00    -0.080 Si 
HETATM    4  C   UNL     1     -11.102   6.443  67.397  1.00  0.00    -0.322 C  
HETATM    5  O   UNL     1     -10.780   5.951  68.695  1.00  0.00    -0.248 OA 
HETATM    6  O   UNL     1      -8.780   2.694  69.782  1.00  0.00    -0.059 OA 
HETATM    7  H   UNL     1      -9.598   2.212  69.782  1.00  0.00     0.000 HD 
ENDROOT
BRANCH   5   8
HETATM    8 SI   UNL     1     -10.736   7.046  69.976  1.00  0.00    -0.196 Si 
HETATM    9  C   UNL     1     -12.400   7.052  70.833  1.00  0.00    -0.314 C  
HETATM   10  C   UNL     1     -10.331   8.756  69.322  1.00  0.00    -0.214 C  
BRANCH   8  11
HETATM   11  O   UNL     1      -9.540   6.564  71.047  1.00  0.00    -0.174 OA 
HETATM   12 SI   UNL     1      -9.429   5.894  72.587  1.00  0.00    -0.142 Si 
HETATM   13  C   UNL     1     -10.226   7.006  73.886  1.00  0.00    -0.350 C  
HETATM   14  C   UNL     1      -7.646   5.610  73.111  1.00  0.00    -0.096 C  
HETATM   15  C   UNL     1     -10.324   4.235  72.648  1.00  0.00    -0.178 C  
ENDBRANCH   8  11
ENDBRANCH   5   8
TORSDOF 2
ENDMDL
MODEL      315
REMARK 921   NORMALIZED FREE ENERGY PREDICTED BY IDOCK:   -2.18 KCAL/MOL
REMARK 922        TOTAL FREE ENERGY PREDICTED BY IDOCK:   -2.67 KCAL/MOL
REMARK 923 INTER-LIGAND FREE ENERGY PREDICTED BY IDOCK:   -2.52 KCAL/MOL
REMARK 924 INTRA-LIGAND FREE ENERGY PREDICTED BY IDOCK:   -0.15 KCAL/MOL
REMARK 927      BINDING AFFINITY PREDICTED BY RF-SCORE:    0.00 PKD
ROOT
HETATM    1  O   UNL     1     -11.031  11.285  67.141  1.00  0.00    -0.262 OA 
HETATM    2  H   UNL     1     -10.270  10.965  66.671  1.00  0.00     0.000 HD 
HETATM    3 SI   UNL     1     -10.671  11.910  68.434  1.00  0.00    -0.174 Si 
HETATM    4  C   UNL     1      -7.692   9.618  69.460  1.00  0.00    -0.109 C  
HETATM    5  O   UNL     1      -9.074   9.634  69.806  1.00  0.00    -0.183 OA 
HETATM    6  O   UNL     1     -11.848  12.404  69.162  1.00  0.00    -0.301 OA 
HETATM    7  H   UNL     1     -11.617  12.805  69.991  1.00  0.00     0.000 HD 
ENDROOT
BRANCH   5   8
HETATM    8 SI   UNL     1      -9.852   8.160  70.057  1.00  0.00    -0.169 Si 
HETATM    9  C   UNL     1     -10.100   7.310  68.407  1.00  0.00    -0.171 C  
HETATM   10  C   UNL     1     -11.505   8.461  70.890  1.00  0.00    -0.267 C  
BRANCH   8  11
HETATM   11  O   UNL     1      -8.892   7.214  71.052  1.00  0.00    -0.143 OA 
HETATM   12 SI   UNL     1      -9.083   6.187  72.373  1.00  0.00    -0.132 Si 
HETATM   13  C   UNL     1      -9.828   7.091  73.852  1.00  0.00    -0.316 C  
HETATM   14  C   UNL     1      -7.450   5.445  72.935  1.00  0.00    -0.096 C  
HETATM   15  C   UNL     1     -10.247   4.769  71.940  1.00  0.00    -0.193 C  
ENDBRANCH   8  11
ENDBRANCH   5   8
TORSDOF 2
ENDMDL
MODEL      316
REMARK 921   NORMALIZED FREE ENERGY PREDICTED BY IDOCK:   -2.18 KCAL/MOL
REMARK 922        TOTAL FREE ENERGY PREDICTED BY IDOCK:   -2.67 KCAL/MOL
REMARK 923 INTER-LIGAND FREE ENERGY PREDICTED BY IDOCK:   -2.43 KCAL/MOL
REMARK 924 INTRA-LIGAND FREE ENERGY PREDICTED BY IDOCK:   -0.24 KCAL/MOL
REMARK 927      BINDING AFFINITY PREDICTED BY RF-SCORE:    0.00 PKD
ROOT
HETATM    1  O   UNL     1      -6.184   8.224  69.988  1.00  0.00    -0.034 OA 
HETATM    2  H   UNL     1      -6.215   7.332  69.662  1.00  0.00     0.000 HD 
HETATM    3 SI   UNL     1      -6.548   8.312  71.419  1.00  0.00    -0.038 Si 
HETATM    4  C   UNL     1      -9.271   5.529  71.574  1.00  0.00    -0.146 C  
HETATM    5  O   UNL     1      -9.332   6.947  71.443  1.00  0.00    -0.157 OA 
HETATM    6  O   UNL     1      -6.500   9.692  71.923  1.00  0.00    -0.300 OA 
HETATM    7  H   UNL     1      -6.734   9.749  72.842  1.00  0.00     0.000 HD 
ENDROOT
BRANCH   5   8
HETATM    8 SI   UNL     1     -10.547   7.609  70.480  1.00  0.00    -0.203 Si 
HETATM    9  C   UNL     1     -10.112   9.386  70.083  1.00  0.00    -0.233 C  
HETATM   10  C   UNL     1     -12.183   7.526  71.395  1.00  0.00    -0.335 C  
BRANCH   8  11
HETATM   11  O   UNL     1     -10.655   6.714  69.068  1.00  0.00    -0.203 OA 
HETATM   12 SI   UNL     1      -9.831   6.570  67.607  1.00  0.00    -0.124 Si 
HETATM   13  C   UNL     1      -9.833   8.193  66.647  1.00  0.00    -0.261 C  
HETATM   14  C   UNL     1     -10.588   5.259  66.492  1.00  0.00    -0.285 C  
HETATM   15  C   UNL     1      -8.029   6.103  67.912  1.00  0.00    -0.110 C  
ENDBRANCH   8  11
ENDBRANCH   5   8
TORSDOF 2
ENDMDL
MODEL      317
REMARK 921   NORMALIZED FREE ENERGY PREDICTED BY IDOCK:   -2.17 KCAL/MOL
REMARK 922        TOTAL FREE ENERGY PREDICTED BY IDOCK:   -2.66 KCAL/MOL
REMARK 923 INTER-LIGAND FREE ENERGY PREDICTED BY IDOCK:   -2.44 KCAL/MOL
REMARK 924 INTRA-LIGAND FREE ENERGY PREDICTED BY IDOCK:   -0.22 KCAL/MOL
REMARK 927      BINDING AFFINITY PREDICTED BY RF-SCORE:    0.00 PKD
ROOT
HETATM    1  O   UNL     1      -7.259   6.106  68.883  1.00  0.00    -0.079 OA 
HETATM    2  H   UNL     1      -7.339   5.657  69.716  1.00  0.00     0.000 HD 
HETATM    3 SI   UNL     1      -6.830   7.513  69.044  1.00  0.00    -0.047 Si 
HETATM    4  C   UNL     1      -8.680   8.388  72.359  1.00  0.00    -0.210 C  
HETATM    5  O   UNL     1      -8.985   8.609  70.985  1.00  0.00    -0.160 OA 
HETATM    6  O   UNL     1      -6.706   8.209  67.755  1.00  0.00    -0.062 OA 
HETATM    7  H   UNL     1      -6.430   9.112  67.858  1.00  0.00     0.000 HD 
ENDROOT
BRANCH   5   8
HETATM    8 SI   UNL     1     -10.598   8.533  70.502  1.00  0.00    -0.191 Si 
HETATM    9  C   UNL     1     -11.696   8.637  72.015  1.00  0.00    -0.369 C  
HETATM   10  C   UNL     1     -10.900   6.924  69.586  1.00  0.00    -0.259 C  
BRANCH   8  11
HETATM   11  O   UNL     1     -10.908   9.822  69.477  1.00  0.00    -0.226 OA 
HETATM   12 SI   UNL     1     -10.270  10.487  68.068  1.00  0.00    -0.148 Si 
HETATM   13  C   UNL     1      -8.479  11.032  68.307  1.00  0.00    -0.138 C  
HETATM   14  C   UNL     1     -11.240  11.991  67.491  1.00  0.00    -0.294 C  
HETATM   15  C   UNL     1     -10.286   9.216  66.675  1.00  0.00    -0.258 C  
ENDBRANCH   8  11
ENDBRANCH   5   8
TORSDOF 2
ENDMDL
MODEL      318
REMARK 921   NORMALIZED FREE ENERGY PREDICTED BY IDOCK:   -2.17 KCAL/MOL
REMARK 922        TOTAL FREE ENERGY PREDICTED BY IDOCK:   -2.66 KCAL/MOL
REMARK 923 INTER-LIGAND FREE ENERGY PREDICTED BY IDOCK:   -2.44 KCAL/MOL
REMARK 924 INTRA-LIGAND FREE ENERGY PREDICTED BY IDOCK:   -0.22 KCAL/MOL
REMARK 927      BINDING AFFINITY PREDICTED BY RF-SCORE:    0.00 PKD
ROOT
HETATM    1  O   UNL     1     -11.066  11.293  65.916  1.00  0.00    -0.219 OA 
HETATM    2  H   UNL     1     -10.463  11.808  65.393  1.00  0.00     0.000 HD 
HETATM    3 SI   UNL     1     -11.319  11.901  67.242  1.00  0.00    -0.219 Si 
HETATM    4  C   UNL     1      -7.793  13.395  67.960  1.00  0.00    -0.148 C  
HETATM    5  O   UNL     1      -8.441  12.190  68.359  1.00  0.00    -0.169 OA 
HETATM    6  O   UNL     1     -12.250  11.104  68.053  1.00  0.00    -0.676 OA 
HETATM    7  H   UNL     1     -12.413  11.494  68.903  1.00  0.00     0.000 HD 
ENDROOT
BRANCH   5   8
HETATM    8 SI   UNL     1      -7.508  10.795  68.515  1.00  0.00    -0.074 Si 
HETATM    9  C   UNL     1      -8.147   9.792  69.962  1.00  0.00    -0.189 C  
HETATM   10  C   UNL     1      -5.715  11.270  68.792  1.00  0.00    -0.042 C  
BRANCH   8  11
HETATM   11  O   UNL     1      -7.636   9.908  67.099  1.00  0.00    -0.091 OA 
HETATM   12 SI   UNL     1      -8.227   8.412  66.605  1.00  0.00    -0.093 Si 
HETATM   13  C   UNL     1      -7.346   6.993  67.483  1.00  0.00    -0.092 C  
HETATM   14  C   UNL     1      -8.016   8.142  64.756  1.00  0.00    -0.147 C  
HETATM   15  C   UNL     1     -10.063   8.263  67.008  1.00  0.00    -0.283 C  
ENDBRANCH   8  11
ENDBRANCH   5   8
TORSDOF 2
ENDMDL
MODEL      319
REMARK 921   NORMALIZED FREE ENERGY PREDICTED BY IDOCK:   -2.17 KCAL/MOL
REMARK 922        TOTAL FREE ENERGY PREDICTED BY IDOCK:   -2.66 KCAL/MOL
REMARK 923 INTER-LIGAND FREE ENERGY PREDICTED BY IDOCK:   -2.48 KCAL/MOL
REMARK 924 INTRA-LIGAND FREE ENERGY PREDICTED BY IDOCK:   -0.18 KCAL/MOL
REMARK 927      BINDING AFFINITY PREDICTED BY RF-SCORE:    0.00 PKD
ROOT
HETATM    1  O   UNL     1      -6.417   7.510  70.343  1.00  0.00    -0.038 OA 
HETATM    2  H   UNL     1      -6.100   6.627  70.199  1.00  0.00     0.000 HD 
HETATM    3 SI   UNL     1      -6.377   7.895  71.772  1.00  0.00    -0.038 Si 
HETATM    4  C   UNL     1      -7.256   4.465  73.397  1.00  0.00    -0.075 C  
HETATM    5  O   UNL     1      -8.028   5.619  73.080  1.00  0.00    -0.104 OA 
HETATM    6  O   UNL     1      -6.868   9.262  71.996  1.00  0.00    -0.309 OA 
HETATM    7  H   UNL     1      -6.843   9.508  72.912  1.00  0.00     0.000 HD 
ENDROOT
BRANCH   5   8
HETATM    8 SI   UNL     1      -9.620   5.402  72.569  1.00  0.00    -0.141 Si 
HETATM    9  C   UNL     1     -10.691   5.011  74.054  1.00  0.00    -0.286 C  
HETATM   10  C   UNL     1      -9.690   3.999  71.326  1.00  0.00    -0.185 C  
BRANCH   8  11
HETATM   11  O   UNL     1     -10.143   6.817  71.839  1.00  0.00    -0.181 OA 
HETATM   12 SI   UNL     1     -11.396   7.323  70.837  1.00  0.00    -0.237 Si 
HETATM   13  C   UNL     1     -11.377   6.410  69.186  1.00  0.00    -0.296 C  
HETATM   14  C   UNL     1     -11.305   9.163  70.461  1.00  0.00    -0.257 C  
HETATM   15  C   UNL     1     -13.065   6.978  71.646  1.00  0.00    -0.330 C  
ENDBRANCH   8  11
ENDBRANCH   5   8
TORSDOF 2
ENDMDL
MODEL      320
REMARK 921   NORMALIZED FREE ENERGY PREDICTED BY IDOCK:   -2.17 KCAL/MOL
REMARK 922        TOTAL FREE ENERGY PREDICTED BY IDOCK:   -2.66 KCAL/MOL
REMARK 923 INTER-LIGAND FREE ENERGY PREDICTED BY IDOCK:   -2.46 KCAL/MOL
REMARK 924 INTRA-LIGAND FREE ENERGY PREDICTED BY IDOCK:   -0.19 KCAL/MOL
REMARK 927      BINDING AFFINITY PREDICTED BY RF-SCORE:    0.00 PKD
ROOT
HETATM    1  O   UNL     1     -12.215  10.175  68.782  1.00  0.00    -0.471 OA 
HETATM    2  H   UNL     1     -12.764  10.616  68.145  1.00  0.00     0.000 HD 
HETATM    3 SI   UNL     1     -12.092  10.940  70.043  1.00  0.00    -0.217 Si 
HETATM    4  C   UNL     1     -12.106  14.565  68.613  1.00  0.00    -0.218 C  
HETATM    5  O   UNL     1     -11.065  13.680  69.017  1.00  0.00    -0.251 OA 
HETATM    6  O   UNL     1     -11.241  10.258  71.029  1.00  0.00    -0.315 OA 
HETATM    7  H   UNL     1     -11.163  10.749  71.838  1.00  0.00     0.000 HD 
ENDROOT
BRANCH   5   8
HETATM    8 SI   UNL     1      -9.613  13.711  68.161  1.00  0.00    -0.174 Si 
HETATM    9  C   UNL     1      -8.452  14.936  68.971  1.00  0.00    -0.178 C  
HETATM   10  C   UNL     1      -9.947  14.206  66.383  1.00  0.00    -0.293 C  
BRANCH   8  11
HETATM   11  O   UNL     1      -8.943  12.176  68.194  1.00  0.00    -0.184 OA 
HETATM   12 SI   UNL     1      -7.745  11.312  67.388  1.00  0.00    -0.099 Si 
HETATM   13  C   UNL     1      -8.110  11.177  65.541  1.00  0.00     0.145 C  
HETATM   14  C   UNL     1      -7.562   9.562  68.051  1.00  0.00    -0.086 C  
HETATM   15  C   UNL     1      -6.078  12.177  67.565  1.00  0.00    -0.124 C  
ENDBRANCH   8  11
ENDBRANCH   5   8
TORSDOF 2
ENDMDL
MODEL      321
REMARK 921   NORMALIZED FREE ENERGY PREDICTED BY IDOCK:   -2.17 KCAL/MOL
REMARK 922        TOTAL FREE ENERGY PREDICTED BY IDOCK:   -2.66 KCAL/MOL
REMARK 923 INTER-LIGAND FREE ENERGY PREDICTED BY IDOCK:   -2.45 KCAL/MOL
REMARK 924 INTRA-LIGAND FREE ENERGY PREDICTED BY IDOCK:   -0.20 KCAL/MOL
REMARK 927      BINDING AFFINITY PREDICTED BY RF-SCORE:    0.00 PKD
ROOT
HETATM    1  O   UNL     1      -7.574  13.650  69.234  1.00  0.00    -0.323 OA 
HETATM    2  H   UNL     1      -8.305  13.289  69.722  1.00  0.00     0.000 HD 
HETATM    3 SI   UNL     1      -7.960  14.065  67.867  1.00  0.00    -0.104 Si 
HETATM    4  C   UNL     1     -10.575  11.292  67.057  1.00  0.00    -0.246 C  
HETATM    5  O   UNL     1      -9.194  11.451  66.744  1.00  0.00    -0.168 OA 
HETATM    6  O   UNL     1      -6.829  14.623  67.113  1.00  0.00    -0.351 OA 
HETATM    7  H   UNL     1      -7.077  14.889  66.236  1.00  0.00     0.000 HD 
ENDROOT
BRANCH   5   8
HETATM    8 SI   UNL     1      -8.222  10.075  66.693  1.00  0.00    -0.111 Si 
HETATM    9  C   UNL     1      -7.054  10.097  68.156  1.00  0.00    -0.079 C  
HETATM   10  C   UNL     1      -7.255  10.053  65.086  1.00  0.00    -0.139 C  
BRANCH   8  11
HETATM   11  O   UNL     1      -9.209   8.723  66.765  1.00  0.00    -0.152 OA 
HETATM   12 SI   UNL     1      -9.375   7.339  67.709  1.00  0.00    -0.127 Si 
HETATM   13  C   UNL     1      -7.820   6.273  67.655  1.00  0.00    -0.106 C  
HETATM   14  C   UNL     1     -10.811   6.264  67.145  1.00  0.00    -0.381 C  
HETATM   15  C   UNL     1      -9.671   7.804  69.512  1.00  0.00    -0.165 C  
ENDBRANCH   8  11
ENDBRANCH   5   8
TORSDOF 2
ENDMDL
MODEL      322
REMARK 921   NORMALIZED FREE ENERGY PREDICTED BY IDOCK:   -2.17 KCAL/MOL
REMARK 922        TOTAL FREE ENERGY PREDICTED BY IDOCK:   -2.65 KCAL/MOL
REMARK 923 INTER-LIGAND FREE ENERGY PREDICTED BY IDOCK:   -2.42 KCAL/MOL
REMARK 924 INTRA-LIGAND FREE ENERGY PREDICTED BY IDOCK:   -0.24 KCAL/MOL
REMARK 927      BINDING AFFINITY PREDICTED BY RF-SCORE:    0.00 PKD
ROOT
HETATM    1  O   UNL     1     -11.407   7.072  71.053  1.00  0.00    -0.261 OA 
HETATM    2  H   UNL     1     -11.387   6.168  70.761  1.00  0.00     0.000 HD 
HETATM    3 SI   UNL     1     -12.011   7.974  70.047  1.00  0.00    -0.447 Si 
HETATM    4  C   UNL     1     -10.726   6.272  66.787  1.00  0.00    -0.293 C  
HETATM    5  O   UNL     1     -10.270   7.385  67.550  1.00  0.00    -0.184 OA 
HETATM    6  O   UNL     1     -12.043   9.372  70.499  1.00  0.00    -0.447 OA 
HETATM    7  H   UNL     1     -12.431   9.951  69.854  1.00  0.00     0.000 HD 
ENDROOT
BRANCH   5   8
HETATM    8 SI   UNL     1      -8.609   7.650  67.663  1.00  0.00    -0.109 Si 
HETATM    9  C   UNL     1      -7.719   6.447  66.538  1.00  0.00    -0.099 C  
HETATM   10  C   UNL     1      -8.058   7.412  69.439  1.00  0.00    -0.129 C  
BRANCH   8  11
HETATM   11  O   UNL     1      -8.289   9.226  67.188  1.00  0.00    -0.122 OA 
HETATM   12 SI   UNL     1      -9.074  10.714  67.166  1.00  0.00    -0.136 Si 
HETATM   13  C   UNL     1     -10.642  10.655  66.118  1.00  0.00    -0.142 C  
HETATM   14  C   UNL     1      -7.986  12.080  66.469  1.00  0.00     0.094 C  
HETATM   15  C   UNL     1      -9.587  11.213  68.911  1.00  0.00    -0.142 C  
ENDBRANCH   8  11
ENDBRANCH   5   8
TORSDOF 2
ENDMDL
MODEL      323
REMARK 921   NORMALIZED FREE ENERGY PREDICTED BY IDOCK:   -2.15 KCAL/MOL
REMARK 922        TOTAL FREE ENERGY PREDICTED BY IDOCK:   -2.64 KCAL/MOL
REMARK 923 INTER-LIGAND FREE ENERGY PREDICTED BY IDOCK:   -2.40 KCAL/MOL
REMARK 924 INTRA-LIGAND FREE ENERGY PREDICTED BY IDOCK:   -0.24 KCAL/MOL
REMARK 927      BINDING AFFINITY PREDICTED BY RF-SCORE:    0.00 PKD
ROOT
HETATM    1  O   UNL     1     -10.756  11.371  66.252  1.00  0.00    -0.259 OA 
HETATM    2  H   UNL     1      -9.896  11.648  65.957  1.00  0.00     0.000 HD 
HETATM    3 SI   UNL     1     -10.863  11.345  67.728  1.00  0.00    -0.177 Si 
HETATM    4  C   UNL     1      -7.254  10.184  68.625  1.00  0.00    -0.080 C  
HETATM    5  O   UNL     1      -8.495   9.497  68.495  1.00  0.00    -0.116 OA 
HETATM    6  O   UNL     1     -12.193  10.916  68.183  1.00  0.00    -0.781 OA 
HETATM    7  H   UNL     1     -12.262  10.899  69.130  1.00  0.00     0.000 HD 
ENDROOT
BRANCH   5   8
HETATM    8 SI   UNL     1      -8.480   7.930  67.875  1.00  0.00    -0.113 Si 
HETATM    9  C   UNL     1     -10.199   7.494  67.272  1.00  0.00    -0.267 C  
HETATM   10  C   UNL     1      -7.935   6.733  69.212  1.00  0.00    -0.115 C  
BRANCH   8  11
HETATM   11  O   UNL     1      -7.392   7.872  66.601  1.00  0.00    -0.085 OA 
HETATM   12 SI   UNL     1      -7.424   7.657  64.932  1.00  0.00    -0.064 Si 
HETATM   13  C   UNL     1      -8.153   5.982  64.462  1.00  0.00    -0.126 C  
HETATM   14  C   UNL     1      -5.708   7.754  64.171  1.00  0.00    -0.048 C  
HETATM   15  C   UNL     1      -8.495   8.979  64.119  1.00  0.00    -0.170 C  
ENDBRANCH   8  11
ENDBRANCH   5   8
TORSDOF 2
ENDMDL
MODEL      324
REMARK 921   NORMALIZED FREE ENERGY PREDICTED BY IDOCK:   -2.14 KCAL/MOL
REMARK 922        TOTAL FREE ENERGY PREDICTED BY IDOCK:   -2.63 KCAL/MOL
REMARK 923 INTER-LIGAND FREE ENERGY PREDICTED BY IDOCK:   -2.87 KCAL/MOL
REMARK 924 INTRA-LIGAND FREE ENERGY PREDICTED BY IDOCK:    0.24 KCAL/MOL
REMARK 927      BINDING AFFINITY PREDICTED BY RF-SCORE:    0.00 PKD
ROOT
HETATM    1  O   UNL     1     -12.258   6.658  71.241  1.00  0.00    -0.356 OA 
HETATM    2  H   UNL     1     -11.992   5.833  70.854  1.00  0.00     0.000 HD 
HETATM    3 SI   UNL     1     -12.943   7.540  70.270  1.00  0.00    -0.519 Si 
HETATM    4  C   UNL     1     -10.937   6.648  67.051  1.00  0.00    -0.393 C  
HETATM    5  O   UNL     1     -10.845   7.713  67.993  1.00  0.00    -0.127 OA 
HETATM    6  O   UNL     1     -13.353   8.818  70.869  1.00  0.00    -0.517 OA 
HETATM    7  H   UNL     1     -13.792   9.383  70.246  1.00  0.00     0.000 HD 
ENDROOT
BRANCH   5   8
HETATM    8 SI   UNL     1      -9.317   8.317  68.368  1.00  0.00    -0.132 Si 
HETATM    9  C   UNL     1      -9.481   9.595  69.727  1.00  0.00    -0.220 C  
HETATM   10  C   UNL     1      -8.557   9.088  66.837  1.00  0.00    -0.123 C  
BRANCH   8  11
HETATM   11  O   UNL     1      -8.354   7.047  68.887  1.00  0.00    -0.124 OA 
HETATM   12 SI   UNL     1      -8.044   5.450  68.456  1.00  0.00    -0.086 Si 
HETATM   13  C   UNL     1      -9.601   4.389  68.559  1.00  0.00    -0.143 C  
HETATM   14  C   UNL     1      -6.751   4.655  69.564  1.00  0.00    -0.044 C  
HETATM   15  C   UNL     1      -7.423   5.357  66.678  1.00  0.00    -0.087 C  
ENDBRANCH   8  11
ENDBRANCH   5   8
TORSDOF 2
ENDMDL
MODEL      325
REMARK 921   NORMALIZED FREE ENERGY PREDICTED BY IDOCK:   -2.14 KCAL/MOL
REMARK 922        TOTAL FREE ENERGY PREDICTED BY IDOCK:   -2.62 KCAL/MOL
REMARK 923 INTER-LIGAND FREE ENERGY PREDICTED BY IDOCK:   -2.48 KCAL/MOL
REMARK 924 INTRA-LIGAND FREE ENERGY PREDICTED BY IDOCK:   -0.14 KCAL/MOL
REMARK 927      BINDING AFFINITY PREDICTED BY RF-SCORE:    0.00 PKD
ROOT
HETATM    1  O   UNL     1     -11.333   4.958  65.370  1.00  0.00    -0.881 OA 
HETATM    2  H   UNL     1     -11.840   4.330  65.870  1.00  0.00     0.000 HD 
HETATM    3 SI   UNL     1      -9.890   4.632  65.357  1.00  0.00    -0.144 Si 
HETATM    4  C   UNL     1      -9.512   3.187  68.955  1.00  0.00    -0.107 C  
HETATM    5  O   UNL     1      -9.255   4.468  68.387  1.00  0.00    -0.117 OA 
HETATM    6  O   UNL     1      -9.105   5.605  64.583  1.00  0.00    -0.361 OA 
HETATM    7  H   UNL     1      -8.179   5.395  64.574  1.00  0.00     0.000 HD 
ENDROOT
BRANCH   5   8
HETATM    8 SI   UNL     1      -9.545   5.834  69.332  1.00  0.00    -0.123 Si 
HETATM    9  C   UNL     1     -11.178   5.625  70.225  1.00  0.00    -0.004 C  
HETATM   10  C   UNL     1      -9.592   7.354  68.234  1.00  0.00    -0.150 C  
BRANCH   8  11
HETATM   11  O   UNL     1      -8.299   5.989  70.441  1.00  0.00    -0.120 OA 
HETATM   12 SI   UNL     1      -8.105   6.395  72.063  1.00  0.00    -0.098 Si 
HETATM   13  C   UNL     1      -8.716   8.144  72.417  1.00  0.00    -0.189 C  
HETATM   14  C   UNL     1      -6.307   6.309  72.606  1.00  0.00    -0.058 C  
HETATM   15  C   UNL     1      -9.099   5.224  73.157  1.00  0.00    -0.127 C  
ENDBRANCH   8  11
ENDBRANCH   5   8
TORSDOF 2
ENDMDL
MODEL      326
REMARK 921   NORMALIZED FREE ENERGY PREDICTED BY IDOCK:   -2.12 KCAL/MOL
REMARK 922        TOTAL FREE ENERGY PREDICTED BY IDOCK:   -2.60 KCAL/MOL
REMARK 923 INTER-LIGAND FREE ENERGY PREDICTED BY IDOCK:   -2.43 KCAL/MOL
REMARK 924 INTRA-LIGAND FREE ENERGY PREDICTED BY IDOCK:   -0.17 KCAL/MOL
REMARK 927      BINDING AFFINITY PREDICTED BY RF-SCORE:    0.00 PKD
ROOT
HETATM    1  O   UNL     1     -12.061  14.525  65.428  1.00  0.00    -0.365 OA 
HETATM    2  H   UNL     1     -12.258  13.600  65.520  1.00  0.00     0.000 HD 
HETATM    3 SI   UNL     1     -10.731  14.758  64.822  1.00  0.00    -0.308 Si 
HETATM    4  C   UNL     1      -8.770  11.774  66.381  1.00  0.00    -0.147 C  
HETATM    5  O   UNL     1      -8.885  13.152  66.726  1.00  0.00    -0.207 OA 
HETATM    6  O   UNL     1     -10.426  16.189  64.679  1.00  0.00    -0.678 OA 
HETATM    7  H   UNL     1      -9.573  16.338  64.291  1.00  0.00     0.000 HD 
ENDROOT
BRANCH   5   8
HETATM    8 SI   UNL     1      -8.874  13.571  68.358  1.00  0.00    -0.146 Si 
HETATM    9  C   UNL     1      -9.820  15.170  68.586  1.00  0.00    -0.218 C  
HETATM   10  C   UNL     1      -7.102  13.772  68.939  1.00  0.00    -0.107 C  
BRANCH   8  11
HETATM   11  O   UNL     1      -9.607  12.340  69.228  1.00  0.00     0.386 OA 
HETATM   12 SI   UNL     1     -11.155  11.726  69.473  1.00  0.00    -0.206 Si 
HETATM   13  C   UNL     1     -12.304  13.021  70.223  1.00  0.00    -0.241 C  
HETATM   14  C   UNL     1     -11.155  10.242  70.627  1.00  0.00    -0.280 C  
HETATM   15  C   UNL     1     -11.915  11.187  67.834  1.00  0.00     0.083 C  
ENDBRANCH   8  11
ENDBRANCH   5   8
TORSDOF 2
ENDMDL
MODEL      327
REMARK 921   NORMALIZED FREE ENERGY PREDICTED BY IDOCK:   -2.11 KCAL/MOL
REMARK 922        TOTAL FREE ENERGY PREDICTED BY IDOCK:   -2.59 KCAL/MOL
REMARK 923 INTER-LIGAND FREE ENERGY PREDICTED BY IDOCK:   -3.51 KCAL/MOL
REMARK 924 INTRA-LIGAND FREE ENERGY PREDICTED BY IDOCK:    0.92 KCAL/MOL
REMARK 927      BINDING AFFINITY PREDICTED BY RF-SCORE:    0.00 PKD
ROOT
HETATM    1  O   UNL     1     -13.235  12.913  64.393  1.00  0.00    -0.558 OA 
HETATM    2  H   UNL     1     -13.323  11.968  64.341  1.00  0.00     0.000 HD 
HETATM    3 SI   UNL     1     -11.985  13.395  63.765  1.00  0.00    -0.355 Si 
HETATM    4  C   UNL     1      -9.605  10.455  64.699  1.00  0.00    -0.300 C  
HETATM    5  O   UNL     1      -9.843  11.737  65.274  1.00  0.00    -0.239 OA 
HETATM    6  O   UNL     1     -11.847  14.857  63.846  1.00  0.00    -0.792 OA 
HETATM    7  H   UNL     1     -11.045  15.166  63.443  1.00  0.00     0.000 HD 
ENDROOT
BRANCH   5   8
HETATM    8 SI   UNL     1      -9.760  11.889  66.950  1.00  0.00    -0.182 Si 
HETATM    9  C   UNL     1     -11.474  11.668  67.670  1.00  0.00    -0.303 C  
HETATM   10  C   UNL     1      -9.081  13.581  67.391  1.00  0.00    -0.219 C  
BRANCH   8  11
HETATM   11  O   UNL     1      -8.731  10.706  67.542  1.00  0.00    -0.125 OA 
HETATM   12 SI   UNL     1      -7.805   9.435  66.944  1.00  0.00    -0.094 Si 
HETATM   13  C   UNL     1      -8.874   8.149  66.069  1.00  0.00    -0.172 C  
HETATM   14  C   UNL     1      -6.859   8.544  68.303  1.00  0.00    -0.066 C  
HETATM   15  C   UNL     1      -6.552  10.069  65.685  1.00  0.00    -0.104 C  
ENDBRANCH   8  11
ENDBRANCH   5   8
TORSDOF 2
ENDMDL
MODEL      328
REMARK 921   NORMALIZED FREE ENERGY PREDICTED BY IDOCK:   -2.11 KCAL/MOL
REMARK 922        TOTAL FREE ENERGY PREDICTED BY IDOCK:   -2.59 KCAL/MOL
REMARK 923 INTER-LIGAND FREE ENERGY PREDICTED BY IDOCK:   -2.40 KCAL/MOL
REMARK 924 INTRA-LIGAND FREE ENERGY PREDICTED BY IDOCK:   -0.19 KCAL/MOL
REMARK 927      BINDING AFFINITY PREDICTED BY RF-SCORE:    0.00 PKD
ROOT
HETATM    1  O   UNL     1      -8.326  11.019  67.130  1.00  0.00    -0.126 OA 
HETATM    2  H   UNL     1      -8.028  11.199  68.014  1.00  0.00     0.000 HD 
HETATM    3 SI   UNL     1      -9.787  11.199  66.982  1.00  0.00    -0.169 Si 
HETATM    4  C   UNL     1     -10.959   9.944  70.479  1.00  0.00    -0.326 C  
HETATM    5  O   UNL     1     -10.878   9.325  69.198  1.00  0.00    -0.213 OA 
HETATM    6  O   UNL     1     -10.248  10.920  65.614  1.00  0.00    -0.247 OA 
HETATM    7  H   UNL     1     -11.185  11.035  65.519  1.00  0.00     0.000 HD 
ENDROOT
BRANCH   5   8
HETATM    8 SI   UNL     1     -10.471   7.691  69.124  1.00  0.00    -0.183 Si 
HETATM    9  C   UNL     1     -10.586   7.112  67.347  1.00  0.00    -0.302 C  
HETATM   10  C   UNL     1     -11.643   6.706  70.208  1.00  0.00    -0.395 C  
BRANCH   8  11
HETATM   11  O   UNL     1      -8.904   7.506  69.689  1.00  0.00    -0.140 OA 
HETATM   12 SI   UNL     1      -7.784   6.268  69.901  1.00  0.00    -0.081 Si 
HETATM   13  C   UNL     1      -8.428   4.944  71.081  1.00  0.00    -0.118 C  
HETATM   14  C   UNL     1      -6.156   6.896  70.599  1.00  0.00    -0.028 C  
HETATM   15  C   UNL     1      -7.422   5.420  68.255  1.00  0.00    -0.073 C  
ENDBRANCH   8  11
ENDBRANCH   5   8
TORSDOF 2
ENDMDL
MODEL      329
REMARK 921   NORMALIZED FREE ENERGY PREDICTED BY IDOCK:   -2.10 KCAL/MOL
REMARK 922        TOTAL FREE ENERGY PREDICTED BY IDOCK:   -2.58 KCAL/MOL
REMARK 923 INTER-LIGAND FREE ENERGY PREDICTED BY IDOCK:   -2.36 KCAL/MOL
REMARK 924 INTRA-LIGAND FREE ENERGY PREDICTED BY IDOCK:   -0.22 KCAL/MOL
REMARK 927      BINDING AFFINITY PREDICTED BY RF-SCORE:    0.00 PKD
ROOT
HETATM    1  O   UNL     1     -10.627   4.379  66.040  1.00  0.00    -0.448 OA 
HETATM    2  H   UNL     1     -10.167   3.904  65.358  1.00  0.00     0.000 HD 
HETATM    3 SI   UNL     1     -10.918   5.777  65.651  1.00  0.00    -0.444 Si 
HETATM    4  C   UNL     1      -7.716   6.559  63.574  1.00  0.00    -0.106 C  
HETATM    5  O   UNL     1      -8.093   6.827  64.922  1.00  0.00    -0.125 OA 
HETATM    6  O   UNL     1     -11.630   6.513  66.706  1.00  0.00    -0.731 OA 
HETATM    7  H   UNL     1     -11.816   7.409  66.457  1.00  0.00     0.000 HD 
ENDROOT
BRANCH   5   8
HETATM    8 SI   UNL     1      -6.900   6.779  66.111  1.00  0.00    -0.046 Si 
HETATM    9  C   UNL     1      -6.728   8.479  66.875  1.00  0.00    -0.062 C  
HETATM   10  C   UNL     1      -5.275   6.241  65.343  1.00  0.00    -0.014 C  
BRANCH   8  11
HETATM   11  O   UNL     1      -7.356   5.667  67.279  1.00  0.00    -0.074 OA 
HETATM   12 SI   UNL     1      -7.795   5.662  68.903  1.00  0.00    -0.080 Si 
HETATM   13  C   UNL     1      -6.412   6.331  69.998  1.00  0.00    -0.043 C  
HETATM   14  C   UNL     1      -8.211   3.935  69.521  1.00  0.00    -0.053 C  
HETATM   15  C   UNL     1      -9.305   6.757  69.180  1.00  0.00    -0.135 C  
ENDBRANCH   8  11
ENDBRANCH   5   8
TORSDOF 2
ENDMDL
MODEL      330
REMARK 921   NORMALIZED FREE ENERGY PREDICTED BY IDOCK:   -2.10 KCAL/MOL
REMARK 922        TOTAL FREE ENERGY PREDICTED BY IDOCK:   -2.58 KCAL/MOL
REMARK 923 INTER-LIGAND FREE ENERGY PREDICTED BY IDOCK:   -2.37 KCAL/MOL
REMARK 924 INTRA-LIGAND FREE ENERGY PREDICTED BY IDOCK:   -0.21 KCAL/MOL
REMARK 927      BINDING AFFINITY PREDICTED BY RF-SCORE:    0.00 PKD
ROOT
HETATM    1  O   UNL     1      -6.848  10.980  70.307  1.00  0.00    -0.432 OA 
HETATM    2  H   UNL     1      -6.943  11.801  70.776  1.00  0.00     0.000 HD 
HETATM    3 SI   UNL     1      -5.997  11.117  69.104  1.00  0.00    -0.042 Si 
HETATM    4  C   UNL     1      -7.019  14.706  67.985  1.00  0.00    -0.139 C  
HETATM    5  O   UNL     1      -7.430  13.404  67.578  1.00  0.00    -0.156 OA 
HETATM    6  O   UNL     1      -5.849   9.848  68.378  1.00  0.00    -0.043 OA 
HETATM    7  H   UNL     1      -5.303   9.936  67.606  1.00  0.00     0.000 HD 
ENDROOT
BRANCH   5   8
HETATM    8 SI   UNL     1      -9.042  13.176  67.141  1.00  0.00    -0.171 Si 
HETATM    9  C   UNL     1      -9.935  14.819  67.216  1.00  0.00    -0.231 C  
HETATM   10  C   UNL     1      -9.838  11.946  68.313  1.00  0.00    -0.199 C  
BRANCH   8  11
HETATM   11  O   UNL     1      -9.089  12.566  65.581  1.00  0.00     0.094 OA 
HETATM   12 SI   UNL     1     -10.014  11.484  64.684  1.00  0.00    -0.208 Si 
HETATM   13  C   UNL     1      -9.964   9.748  65.423  1.00  0.00    -0.232 C  
HETATM   14  C   UNL     1      -9.424  11.351  62.904  1.00  0.00    -0.345 C  
HETATM   15  C   UNL     1     -11.820  12.027  64.658  1.00  0.00    -0.268 C  
ENDBRANCH   8  11
ENDBRANCH   5   8
TORSDOF 2
ENDMDL
MODEL      331
REMARK 921   NORMALIZED FREE ENERGY PREDICTED BY IDOCK:   -2.10 KCAL/MOL
REMARK 922        TOTAL FREE ENERGY PREDICTED BY IDOCK:   -2.58 KCAL/MOL
REMARK 923 INTER-LIGAND FREE ENERGY PREDICTED BY IDOCK:   -2.37 KCAL/MOL
REMARK 924 INTRA-LIGAND FREE ENERGY PREDICTED BY IDOCK:   -0.21 KCAL/MOL
REMARK 927      BINDING AFFINITY PREDICTED BY RF-SCORE:    0.00 PKD
ROOT
HETATM    1  O   UNL     1      -6.054   7.510  72.099  1.00  0.00    -0.040 OA 
HETATM    2  H   UNL     1      -6.720   6.846  72.229  1.00  0.00     0.000 HD 
HETATM    3 SI   UNL     1      -6.504   8.850  72.536  1.00  0.00    -0.077 Si 
HETATM    4  C   UNL     1     -10.262   8.638  71.533  1.00  0.00    -0.274 C  
HETATM    5  O   UNL     1      -9.115   9.199  70.901  1.00  0.00    -0.230 OA 
HETATM    6  O   UNL     1      -5.472   9.878  72.334  1.00  0.00    -0.263 OA 
HETATM    7  H   UNL     1      -5.761  10.738  72.615  1.00  0.00     0.000 HD 
ENDROOT
BRANCH   5   8
HETATM    8 SI   UNL     1      -9.013   9.127  69.220  1.00  0.00    -0.123 Si 
HETATM    9  C   UNL     1     -10.512   8.225  68.554  1.00  0.00    -0.162 C  
HETATM   10  C   UNL     1      -7.440   8.230  68.728  1.00  0.00    -0.096 C  
BRANCH   8  11
HETATM   11  O   UNL     1      -8.970  10.691  68.622  1.00  0.00    -0.153 OA 
HETATM   12 SI   UNL     1      -9.853  11.654  67.561  1.00  0.00    -0.172 Si 
HETATM   13  C   UNL     1      -9.875  10.927  65.820  1.00  0.00    -0.237 C  
HETATM   14  C   UNL     1      -9.152  13.394  67.431  1.00  0.00    -0.216 C  
HETATM   15  C   UNL     1     -11.645  11.790  68.132  1.00  0.00    -0.323 C  
ENDBRANCH   8  11
ENDBRANCH   5   8
TORSDOF 2
ENDMDL
MODEL      332
REMARK 921   NORMALIZED FREE ENERGY PREDICTED BY IDOCK:   -2.08 KCAL/MOL
REMARK 922        TOTAL FREE ENERGY PREDICTED BY IDOCK:   -2.56 KCAL/MOL
REMARK 923 INTER-LIGAND FREE ENERGY PREDICTED BY IDOCK:   -2.40 KCAL/MOL
REMARK 924 INTRA-LIGAND FREE ENERGY PREDICTED BY IDOCK:   -0.16 KCAL/MOL
REMARK 927      BINDING AFFINITY PREDICTED BY RF-SCORE:    0.00 PKD
ROOT
HETATM    1  O   UNL     1     -11.991  10.313  69.576  1.00  0.00    -0.469 OA 
HETATM    2  H   UNL     1     -11.453  10.759  68.933  1.00  0.00     0.000 HD 
HETATM    3 SI   UNL     1     -11.206   9.854  70.744  1.00  0.00    -0.211 Si 
HETATM    4  C   UNL     1      -7.874   8.906  68.960  1.00  0.00    -0.091 C  
HETATM    5  O   UNL     1      -9.002   8.146  69.386  1.00  0.00    -0.146 OA 
HETATM    6  O   UNL     1     -12.038   9.164  71.739  1.00  0.00    -0.330 OA 
HETATM    7  H   UNL     1     -11.534   8.870  72.488  1.00  0.00     0.000 HD 
ENDROOT
BRANCH   5   8
HETATM    8 SI   UNL     1      -9.485   6.835  68.445  1.00  0.00    -0.129 Si 
HETATM    9  C   UNL     1     -10.400   7.466  66.939  1.00  0.00    -0.296 C  
HETATM   10  C   UNL     1     -10.594   5.712  69.459  1.00  0.00    -0.314 C  
BRANCH   8  11
HETATM   11  O   UNL     1      -8.119   5.986  67.973  1.00  0.00    -0.108 OA 
HETATM   12 SI   UNL     1      -7.744   4.586  67.119  1.00  0.00    -0.079 Si 
HETATM   13  C   UNL     1      -8.483   3.055  67.937  1.00  0.00    -0.084 C  
HETATM   14  C   UNL     1      -5.888   4.310  66.988  1.00  0.00    -0.023 C  
HETATM   15  C   UNL     1      -8.442   4.675  65.370  1.00  0.00    -0.126 C  
ENDBRANCH   8  11
ENDBRANCH   5   8
TORSDOF 2
ENDMDL
MODEL      333
REMARK 921   NORMALIZED FREE ENERGY PREDICTED BY IDOCK:   -2.07 KCAL/MOL
REMARK 922        TOTAL FREE ENERGY PREDICTED BY IDOCK:   -2.55 KCAL/MOL
REMARK 923 INTER-LIGAND FREE ENERGY PREDICTED BY IDOCK:   -2.39 KCAL/MOL
REMARK 924 INTRA-LIGAND FREE ENERGY PREDICTED BY IDOCK:   -0.16 KCAL/MOL
REMARK 927      BINDING AFFINITY PREDICTED BY RF-SCORE:    0.00 PKD
ROOT
HETATM    1  O   UNL     1      -9.011   6.842  65.285  1.00  0.00    -0.368 OA 
HETATM    2  H   UNL     1      -8.330   6.262  65.604  1.00  0.00     0.000 HD 
HETATM    3 SI   UNL     1      -8.586   8.260  65.281  1.00  0.00    -0.125 Si 
HETATM    4  C   UNL     1      -6.371   8.285  68.487  1.00  0.00    -0.054 C  
HETATM    5  O   UNL     1      -7.721   8.662  68.232  1.00  0.00    -0.098 OA 
HETATM    6  O   UNL     1      -9.640   9.157  64.788  1.00  0.00    -0.407 OA 
HETATM    7  H   UNL     1      -9.367  10.067  64.786  1.00  0.00     0.000 HD 
ENDROOT
BRANCH   5   8
HETATM    8 SI   UNL     1      -8.868   8.391  69.437  1.00  0.00    -0.125 Si 
HETATM    9  C   UNL     1     -10.458   9.265  68.976  1.00  0.00    -0.216 C  
HETATM   10  C   UNL     1      -8.218   9.036  71.074  1.00  0.00    -0.176 C  
BRANCH   8  11
HETATM   11  O   UNL     1      -9.133   6.740  69.557  1.00  0.00    -0.141 OA 
HETATM   12 SI   UNL     1      -9.613   5.628  70.726  1.00  0.00    -0.144 Si 
HETATM   13  C   UNL     1      -8.424   5.603  72.190  1.00  0.00    -0.126 C  
HETATM   14  C   UNL     1      -9.701   3.878  70.046  1.00  0.00    -0.172 C  
HETATM   15  C   UNL     1     -11.317   6.076  71.399  1.00  0.00    -0.236 C  
ENDBRANCH   8  11
ENDBRANCH   5   8
TORSDOF 2
ENDMDL
MODEL      334
REMARK 921   NORMALIZED FREE ENERGY PREDICTED BY IDOCK:   -2.07 KCAL/MOL
REMARK 922        TOTAL FREE ENERGY PREDICTED BY IDOCK:   -2.55 KCAL/MOL
REMARK 923 INTER-LIGAND FREE ENERGY PREDICTED BY IDOCK:   -2.48 KCAL/MOL
REMARK 924 INTRA-LIGAND FREE ENERGY PREDICTED BY IDOCK:   -0.06 KCAL/MOL
REMARK 927      BINDING AFFINITY PREDICTED BY RF-SCORE:    0.00 PKD
ROOT
HETATM    1  O   UNL     1      -5.901  10.280  69.774  1.00  0.00    -0.041 OA 
HETATM    2  H   UNL     1      -6.223   9.388  69.722  1.00  0.00     0.000 HD 
HETATM    3 SI   UNL     1      -6.711  11.117  70.688  1.00  0.00    -0.152 Si 
HETATM    4  C   UNL     1     -10.237   9.609  70.004  1.00  0.00    -0.255 C  
HETATM    5  O   UNL     1      -9.557  10.759  69.510  1.00  0.00    -0.110 OA 
HETATM    6  O   UNL     1      -6.213  12.498  70.768  1.00  0.00    -0.533 OA 
HETATM    7  H   UNL     1      -6.732  13.035  71.354  1.00  0.00     0.000 HD 
ENDROOT
BRANCH   5   8
HETATM    8 SI   UNL     1      -9.813  11.212  67.907  1.00  0.00    -0.156 Si 
HETATM    9  C   UNL     1      -8.885  12.802  67.565  1.00  0.00    -0.187 C  
HETATM   10  C   UNL     1     -11.649  11.453  67.613  1.00  0.00    -0.238 C  
BRANCH   8  11
HETATM   11  O   UNL     1      -9.246   9.990  66.911  1.00  0.00    -0.144 OA 
HETATM   12 SI   UNL     1      -9.077   8.316  66.950  1.00  0.00    -0.122 Si 
HETATM   13  C   UNL     1      -7.954   7.765  68.362  1.00  0.00    -0.122 C  
HETATM   14  C   UNL     1      -8.344   7.639  65.356  1.00  0.00    -0.128 C  
HETATM   15  C   UNL     1     -10.752   7.492  67.215  1.00  0.00    -0.295 C  
ENDBRANCH   8  11
ENDBRANCH   5   8
TORSDOF 2
ENDMDL
MODEL      335
REMARK 921   NORMALIZED FREE ENERGY PREDICTED BY IDOCK:   -2.05 KCAL/MOL
REMARK 922        TOTAL FREE ENERGY PREDICTED BY IDOCK:   -2.53 KCAL/MOL
REMARK 923 INTER-LIGAND FREE ENERGY PREDICTED BY IDOCK:   -2.33 KCAL/MOL
REMARK 924 INTRA-LIGAND FREE ENERGY PREDICTED BY IDOCK:   -0.20 KCAL/MOL
REMARK 927      BINDING AFFINITY PREDICTED BY RF-SCORE:    0.00 PKD
ROOT
HETATM    1  O   UNL     1      -8.104   3.339  71.285  1.00  0.00    -0.061 OA 
HETATM    2  H   UNL     1      -7.610   2.942  70.577  1.00  0.00     0.000 HD 
HETATM    3 SI   UNL     1      -9.563   3.304  71.040  1.00  0.00    -0.093 Si 
HETATM    4  C   UNL     1      -9.591   3.812  67.177  1.00  0.00    -0.179 C  
HETATM    5  O   UNL     1      -9.770   4.698  68.278  1.00  0.00    -0.147 OA 
HETATM    6  O   UNL     1     -10.327   3.919  72.134  1.00  0.00    -0.159 OA 
HETATM    7  H   UNL     1     -11.263   3.897  71.978  1.00  0.00     0.000 HD 
ENDROOT
BRANCH   5   8
HETATM    8 SI   UNL     1      -9.184   6.272  68.140  1.00  0.00    -0.116 Si 
HETATM    9  C   UNL     1     -10.208   7.198  66.876  1.00  0.00    -0.260 C  
HETATM   10  C   UNL     1      -7.384   6.225  67.614  1.00  0.00    -0.084 C  
BRANCH   8  11
HETATM   11  O   UNL     1      -9.306   7.019  69.636  1.00  0.00    -0.149 OA 
HETATM   12 SI   UNL     1     -10.460   7.855  70.531  1.00  0.00    -0.196 Si 
HETATM   13  C   UNL     1     -11.030   9.417  69.640  1.00  0.00    -0.197 C  
HETATM   14  C   UNL     1      -9.809   8.378  72.216  1.00  0.00    -0.313 C  
HETATM   15  C   UNL     1     -11.985   6.781  70.806  1.00  0.00    -0.378 C  
ENDBRANCH   8  11
ENDBRANCH   5   8
TORSDOF 2
ENDMDL
MODEL      336
REMARK 921   NORMALIZED FREE ENERGY PREDICTED BY IDOCK:   -2.05 KCAL/MOL
REMARK 922        TOTAL FREE ENERGY PREDICTED BY IDOCK:   -2.53 KCAL/MOL
REMARK 923 INTER-LIGAND FREE ENERGY PREDICTED BY IDOCK:   -2.49 KCAL/MOL
REMARK 924 INTRA-LIGAND FREE ENERGY PREDICTED BY IDOCK:   -0.03 KCAL/MOL
REMARK 927      BINDING AFFINITY PREDICTED BY RF-SCORE:    0.00 PKD
ROOT
HETATM    1  O   UNL     1     -10.066  13.320  67.489  1.00  0.00    -0.219 OA 
HETATM    2  H   UNL     1     -10.815  12.738  67.425  1.00  0.00     0.000 HD 
HETATM    3 SI   UNL     1      -9.583  13.762  66.162  1.00  0.00    -0.235 Si 
HETATM    4  C   UNL     1     -10.250  10.518  64.109  1.00  0.00    -0.217 C  
HETATM    5  O   UNL     1      -9.089  11.051  64.740  1.00  0.00    -0.196 OA 
HETATM    6  O   UNL     1      -8.425  14.661  66.261  1.00  0.00    -0.377 OA 
HETATM    7  H   UNL     1      -8.115  14.945  65.409  1.00  0.00     0.000 HD 
ENDROOT
BRANCH   5   8
HETATM    8 SI   UNL     1      -7.996   9.977  65.441  1.00  0.00    -0.109 Si 
HETATM    9  C   UNL     1      -6.252  10.549  65.069  1.00  0.00    -0.064 C  
HETATM   10  C   UNL     1      -8.279   8.257  64.749  1.00  0.00    -0.144 C  
BRANCH   8  11
HETATM   11  O   UNL     1      -8.255   9.959  67.096  1.00  0.00    -0.119 OA 
HETATM   12 SI   UNL     1      -9.448   9.465  68.175  1.00  0.00    -0.130 Si 
HETATM   13  C   UNL     1     -11.075  10.370  67.871  1.00  0.00    -0.299 C  
HETATM   14  C   UNL     1      -8.961   9.774  69.964  1.00  0.00    -0.222 C  
HETATM   15  C   UNL     1      -9.791   7.621  67.977  1.00  0.00    -0.161 C  
ENDBRANCH   8  11
ENDBRANCH   5   8
TORSDOF 2
ENDMDL
MODEL      337
REMARK 921   NORMALIZED FREE ENERGY PREDICTED BY IDOCK:   -2.05 KCAL/MOL
REMARK 922        TOTAL FREE ENERGY PREDICTED BY IDOCK:   -2.52 KCAL/MOL
REMARK 923 INTER-LIGAND FREE ENERGY PREDICTED BY IDOCK:   -2.31 KCAL/MOL
REMARK 924 INTRA-LIGAND FREE ENERGY PREDICTED BY IDOCK:   -0.21 KCAL/MOL
REMARK 927      BINDING AFFINITY PREDICTED BY RF-SCORE:    0.00 PKD
ROOT
HETATM    1  O   UNL     1      -7.001   3.462  68.381  1.00  0.00    -0.048 OA 
HETATM    2  H   UNL     1      -6.587   4.002  67.718  1.00  0.00     0.000 HD 
HETATM    3 SI   UNL     1      -8.419   3.177  68.068  1.00  0.00    -0.075 Si 
HETATM    4  C   UNL     1      -9.414   6.556  66.403  1.00  0.00    -0.126 C  
HETATM    5  O   UNL     1      -9.571   6.034  67.719  1.00  0.00    -0.112 OA 
HETATM    6  O   UNL     1      -9.059   2.341  69.094  1.00  0.00    -0.099 OA 
HETATM    7  H   UNL     1      -9.969   2.159  68.893  1.00  0.00     0.000 HD 
ENDROOT
BRANCH   5   8
HETATM    8 SI   UNL     1      -9.454   7.099  69.021  1.00  0.00    -0.140 Si 
HETATM    9  C   UNL     1      -8.969   8.792  68.384  1.00  0.00    -0.141 C  
HETATM   10  C   UNL     1      -8.170   6.466  70.232  1.00  0.00    -0.125 C  
BRANCH   8  11
HETATM   11  O   UNL     1     -10.945   7.176  69.782  1.00  0.00    -0.244 OA 
HETATM   12 SI   UNL     1     -11.634   7.929  71.120  1.00  0.00    -0.250 Si 
HETATM   13  C   UNL     1     -10.777   7.418  72.721  1.00  0.00    -0.314 C  
HETATM   14  C   UNL     1     -13.459   7.517  71.305  1.00  0.00    -0.253 C  
HETATM   15  C   UNL     1     -11.473   9.803  70.975  1.00  0.00    -0.383 C  
ENDBRANCH   8  11
ENDBRANCH   5   8
TORSDOF 2
ENDMDL
MODEL      338
REMARK 921   NORMALIZED FREE ENERGY PREDICTED BY IDOCK:   -2.04 KCAL/MOL
REMARK 922        TOTAL FREE ENERGY PREDICTED BY IDOCK:   -2.51 KCAL/MOL
REMARK 923 INTER-LIGAND FREE ENERGY PREDICTED BY IDOCK:   -2.33 KCAL/MOL
REMARK 924 INTRA-LIGAND FREE ENERGY PREDICTED BY IDOCK:   -0.18 KCAL/MOL
REMARK 927      BINDING AFFINITY PREDICTED BY RF-SCORE:    0.00 PKD
ROOT
HETATM    1  O   UNL     1      -9.958   9.809  68.132  1.00  0.00    -0.146 OA 
HETATM    2  H   UNL     1      -9.914   9.043  67.570  1.00  0.00     0.000 HD 
HETATM    3 SI   UNL     1      -8.631  10.433  68.334  1.00  0.00    -0.106 Si 
HETATM    4  C   UNL     1      -6.405   7.235  68.379  1.00  0.00    -0.036 C  
HETATM    5  O   UNL     1      -6.971   8.043  69.407  1.00  0.00    -0.053 OA 
HETATM    6  O   UNL     1      -8.698  11.616  69.203  1.00  0.00    -0.367 OA 
HETATM    7  H   UNL     1      -7.847  12.016  69.332  1.00  0.00     0.000 HD 
ENDROOT
BRANCH   5   8
HETATM    8 SI   UNL     1      -7.493   7.289  70.821  1.00  0.00    -0.067 Si 
HETATM    9  C   UNL     1      -7.116   8.398  72.281  1.00  0.00    -0.095 C  
HETATM   10  C   UNL     1      -6.616   5.641  71.009  1.00  0.00    -0.048 C  
BRANCH   8  11
HETATM   11  O   UNL     1      -9.145   7.029  70.707  1.00  0.00    -0.153 OA 
HETATM   12 SI   UNL     1     -10.554   7.562  71.457  1.00  0.00    -0.204 Si 
HETATM   13  C   UNL     1     -10.557   7.153  73.299  1.00  0.00    -0.364 C  
HETATM   14  C   UNL     1     -12.094   6.786  70.709  1.00  0.00    -0.347 C  
HETATM   15  C   UNL     1     -10.713   9.435  71.301  1.00  0.00    -0.350 C  
ENDBRANCH   8  11
ENDBRANCH   5   8
TORSDOF 2
ENDMDL
MODEL      339
REMARK 921   NORMALIZED FREE ENERGY PREDICTED BY IDOCK:   -2.02 KCAL/MOL
REMARK 922        TOTAL FREE ENERGY PREDICTED BY IDOCK:   -2.50 KCAL/MOL
REMARK 923 INTER-LIGAND FREE ENERGY PREDICTED BY IDOCK:   -2.25 KCAL/MOL
REMARK 924 INTRA-LIGAND FREE ENERGY PREDICTED BY IDOCK:   -0.25 KCAL/MOL
REMARK 927      BINDING AFFINITY PREDICTED BY RF-SCORE:    0.00 PKD
ROOT
HETATM    1  O   UNL     1      -8.143   9.016  71.544  1.00  0.00    -0.303 OA 
HETATM    2  H   UNL     1      -7.524   8.690  72.187  1.00  0.00     0.000 HD 
HETATM    3 SI   UNL     1      -9.548   8.823  71.968  1.00  0.00    -0.163 Si 
HETATM    4  C   UNL     1      -9.207   5.418  73.830  1.00  0.00    -0.122 C  
HETATM    5  O   UNL     1      -9.624   5.772  72.515  1.00  0.00    -0.155 OA 
HETATM    6  O   UNL     1     -10.505   9.326  70.973  1.00  0.00    -0.263 OA 
HETATM    7  H   UNL     1     -11.406   9.202  71.245  1.00  0.00     0.000 HD 
ENDROOT
BRANCH   5   8
HETATM    8 SI   UNL     1      -9.240   4.730  71.247  1.00  0.00    -0.116 Si 
HETATM    9  C   UNL     1      -9.905   3.023  71.634  1.00  0.00    -0.143 C  
HETATM   10  C   UNL     1      -7.379   4.672  71.029  1.00  0.00    -0.052 C  
BRANCH   8  11
HETATM   11  O   UNL     1      -9.945   5.317  69.844  1.00  0.00    -0.195 OA 
HETATM   12 SI   UNL     1      -9.459   5.857  68.326  1.00  0.00    -0.117 Si 
HETATM   13  C   UNL     1      -8.326   7.360  68.455  1.00  0.00    -0.125 C  
HETATM   14  C   UNL     1     -10.918   6.347  67.246  1.00  0.00    -0.392 C  
HETATM   15  C   UNL     1      -8.497   4.509  67.425  1.00  0.00    -0.104 C  
ENDBRANCH   8  11
ENDBRANCH   5   8
TORSDOF 2
ENDMDL
MODEL      340
REMARK 921   NORMALIZED FREE ENERGY PREDICTED BY IDOCK:   -2.02 KCAL/MOL
REMARK 922        TOTAL FREE ENERGY PREDICTED BY IDOCK:   -2.49 KCAL/MOL
REMARK 923 INTER-LIGAND FREE ENERGY PREDICTED BY IDOCK:   -2.29 KCAL/MOL
REMARK 924 INTRA-LIGAND FREE ENERGY PREDICTED BY IDOCK:   -0.20 KCAL/MOL
REMARK 927      BINDING AFFINITY PREDICTED BY RF-SCORE:    0.00 PKD
ROOT
HETATM    1  O   UNL     1     -12.186   6.716  71.362  1.00  0.00    -0.347 OA 
HETATM    2  H   UNL     1     -11.997   5.837  71.056  1.00  0.00     0.000 HD 
HETATM    3 SI   UNL     1     -12.228   7.699  70.256  1.00  0.00    -0.424 Si 
HETATM    4  C   UNL     1      -9.435   6.232  67.971  1.00  0.00    -0.116 C  
HETATM    5  O   UNL     1      -9.454   7.278  68.938  1.00  0.00    -0.144 OA 
HETATM    6  O   UNL     1     -12.520   9.059  70.730  1.00  0.00    -0.492 OA 
HETATM    7  H   UNL     1     -12.547   9.690  70.021  1.00  0.00     0.000 HD 
ENDROOT
BRANCH   5   8
HETATM    8 SI   UNL     1      -8.082   7.514  69.888  1.00  0.00    -0.104 Si 
HETATM    9  C   UNL     1      -7.468   9.267  69.653  1.00  0.00    -0.078 C  
HETATM   10  C   UNL     1      -6.756   6.286  69.386  1.00  0.00    -0.052 C  
BRANCH   8  11
HETATM   11  O   UNL     1      -8.495   7.260  71.492  1.00  0.00    -0.113 OA 
HETATM   12 SI   UNL     1      -7.828   6.545  72.862  1.00  0.00    -0.094 Si 
HETATM   13  C   UNL     1      -7.499   4.706  72.594  1.00  0.00    -0.085 C  
HETATM   14  C   UNL     1      -8.951   6.700  74.361  1.00  0.00    -0.181 C  
HETATM   15  C   UNL     1      -6.177   7.350  73.286  1.00  0.00    -0.060 C  
ENDBRANCH   8  11
ENDBRANCH   5   8
TORSDOF 2
ENDMDL
MODEL      341
REMARK 921   NORMALIZED FREE ENERGY PREDICTED BY IDOCK:   -1.99 KCAL/MOL
REMARK 922        TOTAL FREE ENERGY PREDICTED BY IDOCK:   -2.45 KCAL/MOL
REMARK 923 INTER-LIGAND FREE ENERGY PREDICTED BY IDOCK:   -2.23 KCAL/MOL
REMARK 924 INTRA-LIGAND FREE ENERGY PREDICTED BY IDOCK:   -0.22 KCAL/MOL
REMARK 927      BINDING AFFINITY PREDICTED BY RF-SCORE:    0.00 PKD
ROOT
HETATM    1  O   UNL     1      -7.926   3.510  68.920  1.00  0.00    -0.058 OA 
HETATM    2  H   UNL     1      -7.734   4.268  68.380  1.00  0.00     0.000 HD 
HETATM    3 SI   UNL     1      -9.318   3.037  68.748  1.00  0.00    -0.093 Si 
HETATM    4  C   UNL     1     -11.115   6.458  68.248  1.00  0.00    -0.267 C  
HETATM    5  O   UNL     1     -10.936   5.607  69.376  1.00  0.00    -0.320 OA 
HETATM    6  O   UNL     1      -9.616   1.865  69.583  1.00  0.00    -0.080 OA 
HETATM    7  H   UNL     1     -10.509   1.562  69.473  1.00  0.00     0.000 HD 
ENDROOT
BRANCH   5   8
HETATM    8 SI   UNL     1     -10.735   6.319  70.891  1.00  0.00    -0.200 Si 
HETATM    9  C   UNL     1     -10.343   4.986  72.146  1.00  0.00    -0.215 C  
HETATM   10  C   UNL     1     -12.306   7.225  71.369  1.00  0.00    -0.368 C  
BRANCH   8  11
HETATM   11  O   UNL     1      -9.468   7.413  70.800  1.00  0.00    -0.166 OA 
HETATM   12 SI   UNL     1      -8.034   7.743  71.616  1.00  0.00    -0.080 Si 
HETATM   13  C   UNL     1      -8.347   8.166  73.428  1.00  0.00    -0.219 C  
HETATM   14  C   UNL     1      -7.102   9.189  70.857  1.00  0.00    -0.105 C  
HETATM   15  C   UNL     1      -6.898   6.238  71.583  1.00  0.00    -0.064 C  
ENDBRANCH   8  11
ENDBRANCH   5   8
TORSDOF 2
ENDMDL
MODEL      342
REMARK 921   NORMALIZED FREE ENERGY PREDICTED BY IDOCK:   -1.98 KCAL/MOL
REMARK 922        TOTAL FREE ENERGY PREDICTED BY IDOCK:   -2.45 KCAL/MOL
REMARK 923 INTER-LIGAND FREE ENERGY PREDICTED BY IDOCK:   -2.24 KCAL/MOL
REMARK 924 INTRA-LIGAND FREE ENERGY PREDICTED BY IDOCK:   -0.21 KCAL/MOL
REMARK 927      BINDING AFFINITY PREDICTED BY RF-SCORE:    0.00 PKD
ROOT
HETATM    1  O   UNL     1      -5.879   7.175  64.899  1.00  0.00    -0.035 OA 
HETATM    2  H   UNL     1      -5.565   7.191  65.795  1.00  0.00     0.000 HD 
HETATM    3 SI   UNL     1      -5.564   8.425  64.171  1.00  0.00    -0.052 Si 
HETATM    4  C   UNL     1      -5.960  10.991  67.075  1.00  0.00    -0.077 C  
HETATM    5  O   UNL     1      -6.825  10.566  66.026  1.00  0.00    -0.120 OA 
HETATM    6  O   UNL     1      -6.052   8.401  62.785  1.00  0.00    -0.085 OA 
HETATM    7  H   UNL     1      -5.849   9.202  62.318  1.00  0.00     0.000 HD 
ENDROOT
BRANCH   5   8
HETATM    8 SI   UNL     1      -8.477  10.466  66.342  1.00  0.00    -0.121 Si 
HETATM    9  C   UNL     1      -8.750  10.507  68.194  1.00  0.00    -0.130 C  
HETATM   10  C   UNL     1      -9.156   8.875  65.617  1.00  0.00    -0.212 C  
BRANCH   8  11
HETATM   11  O   UNL     1      -9.238  11.773  65.620  1.00  0.00    -0.198 OA 
HETATM   12 SI   UNL     1     -10.172  13.094  66.082  1.00  0.00    -0.246 Si 
HETATM   13  C   UNL     1     -11.773  12.551  66.920  1.00  0.00    -0.377 C  
HETATM   14  C   UNL     1     -10.646  14.176  64.619  1.00  0.00    -0.368 C  
HETATM   15  C   UNL     1      -9.232  14.165  67.317  1.00  0.00    -0.219 C  
ENDBRANCH   8  11
ENDBRANCH   5   8
TORSDOF 2
ENDMDL
MODEL      343
REMARK 921   NORMALIZED FREE ENERGY PREDICTED BY IDOCK:   -1.98 KCAL/MOL
REMARK 922        TOTAL FREE ENERGY PREDICTED BY IDOCK:   -2.45 KCAL/MOL
REMARK 923 INTER-LIGAND FREE ENERGY PREDICTED BY IDOCK:   -2.71 KCAL/MOL
REMARK 924 INTRA-LIGAND FREE ENERGY PREDICTED BY IDOCK:    0.26 KCAL/MOL
REMARK 927      BINDING AFFINITY PREDICTED BY RF-SCORE:    0.00 PKD
ROOT
HETATM    1  O   UNL     1      -8.425   5.137  72.659  1.00  0.00    -0.116 OA 
HETATM    2  H   UNL     1      -7.895   4.662  72.030  1.00  0.00     0.000 HD 
HETATM    3 SI   UNL     1      -9.871   4.870  72.490  1.00  0.00    -0.137 Si 
HETATM    4  C   UNL     1     -10.025   4.531  68.612  1.00  0.00    -0.041 C  
HETATM    5  O   UNL     1     -10.301   5.604  69.508  1.00  0.00    -0.222 OA 
HETATM    6  O   UNL     1     -10.692   5.606  73.462  1.00  0.00    -0.250 OA 
HETATM    7  H   UNL     1     -11.619   5.434  73.354  1.00  0.00     0.000 HD 
ENDROOT
BRANCH   5   8
HETATM    8 SI   UNL     1      -9.927   7.172  69.017  1.00  0.00    -0.155 Si 
HETATM    9  C   UNL     1     -10.104   7.290  67.157  1.00  0.00    -0.236 C  
HETATM   10  C   UNL     1      -8.172   7.587  69.534  1.00  0.00    -0.130 C  
BRANCH   8  11
HETATM   11  O   UNL     1     -10.990   8.231  69.764  1.00  0.00    -0.224 OA 
HETATM   12 SI   UNL     1     -11.817   8.358  71.224  1.00  0.00    -0.257 Si 
HETATM   13  C   UNL     1     -12.990   6.904  71.486  1.00  0.00    -0.306 C  
HETATM   14  C   UNL     1     -12.844   9.930  71.324  1.00  0.00    -0.390 C  
HETATM   15  C   UNL     1     -10.604   8.363  72.668  1.00  0.00    -0.242 C  
ENDBRANCH   8  11
ENDBRANCH   5   8
TORSDOF 2
ENDMDL
MODEL      344
REMARK 921   NORMALIZED FREE ENERGY PREDICTED BY IDOCK:   -1.96 KCAL/MOL
REMARK 922        TOTAL FREE ENERGY PREDICTED BY IDOCK:   -2.42 KCAL/MOL
REMARK 923 INTER-LIGAND FREE ENERGY PREDICTED BY IDOCK:   -2.23 KCAL/MOL
REMARK 924 INTRA-LIGAND FREE ENERGY PREDICTED BY IDOCK:   -0.19 KCAL/MOL
REMARK 927      BINDING AFFINITY PREDICTED BY RF-SCORE:    0.00 PKD
ROOT
HETATM    1  O   UNL     1      -6.693  10.190  71.201  1.00  0.00    -0.335 OA 
HETATM    2  H   UNL     1      -7.214  10.941  71.458  1.00  0.00     0.000 HD 
HETATM    3 SI   UNL     1      -6.099  10.353  69.855  1.00  0.00    -0.037 Si 
HETATM    4  C   UNL     1      -8.978  12.307  68.102  1.00  0.00    -0.192 C  
HETATM    5  O   UNL     1      -8.609  10.932  68.128  1.00  0.00    -0.123 OA 
HETATM    6  O   UNL     1      -5.293   9.190  69.456  1.00  0.00    -0.034 OA 
HETATM    7  H   UNL     1      -4.912   9.295  68.593  1.00  0.00     0.000 HD 
ENDROOT
BRANCH   5   8
HETATM    8 SI   UNL     1      -9.834   9.774  68.099  1.00  0.00    -0.138 Si 
HETATM    9  C   UNL     1     -10.284   9.404  66.320  1.00  0.00    -0.214 C  
HETATM   10  C   UNL     1     -11.328  10.423  69.029  1.00  0.00    -0.219 C  
BRANCH   8  11
HETATM   11  O   UNL     1      -9.272   8.386  68.851  1.00  0.00    -0.146 OA 
HETATM   12 SI   UNL     1      -9.766   6.792  69.074  1.00  0.00    -0.141 Si 
HETATM   13  C   UNL     1     -11.409   6.697  69.997  1.00  0.00    -0.382 C  
HETATM   14  C   UNL     1      -8.513   5.793  70.058  1.00  0.00    -0.124 C  
HETATM   15  C   UNL     1     -10.010   5.940  67.410  1.00  0.00    -0.149 C  
ENDBRANCH   8  11
ENDBRANCH   5   8
TORSDOF 2
ENDMDL
MODEL      345
REMARK 921   NORMALIZED FREE ENERGY PREDICTED BY IDOCK:   -1.95 KCAL/MOL
REMARK 922        TOTAL FREE ENERGY PREDICTED BY IDOCK:   -2.41 KCAL/MOL
REMARK 923 INTER-LIGAND FREE ENERGY PREDICTED BY IDOCK:   -2.22 KCAL/MOL
REMARK 924 INTRA-LIGAND FREE ENERGY PREDICTED BY IDOCK:   -0.19 KCAL/MOL
REMARK 927      BINDING AFFINITY PREDICTED BY RF-SCORE:    0.00 PKD
ROOT
HETATM    1  O   UNL     1     -11.906  10.421  69.571  1.00  0.00    -0.412 OA 
HETATM    2  H   UNL     1     -11.932  11.275  69.156  1.00  0.00     0.000 HD 
HETATM    3 SI   UNL     1     -10.572  10.108  70.130  1.00  0.00    -0.192 Si 
HETATM    4  C   UNL     1      -8.323  11.822  67.449  1.00  0.00    -0.159 C  
HETATM    5  O   UNL     1      -8.751  10.477  67.647  1.00  0.00    -0.122 OA 
HETATM    6  O   UNL     1     -10.531   8.786  70.771  1.00  0.00    -0.200 OA 
HETATM    7  H   UNL     1      -9.675   8.585  71.129  1.00  0.00     0.000 HD 
ENDROOT
BRANCH   5   8
HETATM    8 SI   UNL     1      -9.062   9.529  66.289  1.00  0.00    -0.131 Si 
HETATM    9  C   UNL     1      -9.862  10.591  64.971  1.00  0.00    -0.306 C  
HETATM   10  C   UNL     1     -10.197   8.113  66.763  1.00  0.00    -0.302 C  
BRANCH   8  11
HETATM   11  O   UNL     1      -7.609   8.911  65.726  1.00  0.00    -0.088 OA 
HETATM   12 SI   UNL     1      -7.073   7.859  64.527  1.00  0.00    -0.059 Si 
HETATM   13  C   UNL     1      -7.789   6.128  64.752  1.00  0.00    -0.109 C  
HETATM   14  C   UNL     1      -5.200   7.694  64.514  1.00  0.00    -0.029 C  
HETATM   15  C   UNL     1      -7.614   8.470  62.827  1.00  0.00    -0.111 C  
ENDBRANCH   8  11
ENDBRANCH   5   8
TORSDOF 2
ENDMDL
MODEL      346
REMARK 921   NORMALIZED FREE ENERGY PREDICTED BY IDOCK:   -1.94 KCAL/MOL
REMARK 922        TOTAL FREE ENERGY PREDICTED BY IDOCK:   -2.40 KCAL/MOL
REMARK 923 INTER-LIGAND FREE ENERGY PREDICTED BY IDOCK:   -2.23 KCAL/MOL
REMARK 924 INTRA-LIGAND FREE ENERGY PREDICTED BY IDOCK:   -0.17 KCAL/MOL
REMARK 927      BINDING AFFINITY PREDICTED BY RF-SCORE:    0.00 PKD
ROOT
HETATM    1  O   UNL     1      -8.683   9.987  68.690  1.00  0.00    -0.119 OA 
HETATM    2  H   UNL     1      -9.556   9.866  68.335  1.00  0.00     0.000 HD 
HETATM    3 SI   UNL     1      -7.660   9.229  67.936  1.00  0.00    -0.077 Si 
HETATM    4  C   UNL     1      -9.734   6.060  67.023  1.00  0.00    -0.138 C  
HETATM    5  O   UNL     1      -8.797   6.347  68.058  1.00  0.00    -0.116 OA 
HETATM    6  O   UNL     1      -6.310   9.416  68.485  1.00  0.00    -0.051 OA 
HETATM    7  H   UNL     1      -5.654   8.930  68.001  1.00  0.00     0.000 HD 
ENDROOT
BRANCH   5   8
HETATM    8 SI   UNL     1      -9.046   5.657  69.575  1.00  0.00    -0.113 Si 
HETATM    9  C   UNL     1      -7.558   6.007  70.657  1.00  0.00    -0.092 C  
HETATM   10  C   UNL     1      -9.296   3.808  69.388  1.00  0.00    -0.175 C  
BRANCH   8  11
HETATM   11  O   UNL     1     -10.421   6.338  70.250  1.00  0.00    -0.196 OA 
HETATM   12 SI   UNL     1     -10.935   6.900  71.751  1.00  0.00    -0.217 Si 
HETATM   13  C   UNL     1     -10.901   5.534  73.052  1.00  0.00    -0.274 C  
HETATM   14  C   UNL     1     -12.690   7.573  71.693  1.00  0.00    -0.355 C  
HETATM   15  C   UNL     1      -9.804   8.280  72.360  1.00  0.00    -0.304 C  
ENDBRANCH   8  11
ENDBRANCH   5   8
TORSDOF 2
ENDMDL
MODEL      347
REMARK 921   NORMALIZED FREE ENERGY PREDICTED BY IDOCK:   -1.93 KCAL/MOL
REMARK 922        TOTAL FREE ENERGY PREDICTED BY IDOCK:   -2.40 KCAL/MOL
REMARK 923 INTER-LIGAND FREE ENERGY PREDICTED BY IDOCK:   -2.20 KCAL/MOL
REMARK 924 INTRA-LIGAND FREE ENERGY PREDICTED BY IDOCK:   -0.20 KCAL/MOL
REMARK 927      BINDING AFFINITY PREDICTED BY RF-SCORE:    0.00 PKD
ROOT
HETATM    1  O   UNL     1      -7.784   8.670  73.122  1.00  0.00    -0.373 OA 
HETATM    2  H   UNL     1      -8.634   8.377  73.427  1.00  0.00     0.000 HD 
HETATM    3 SI   UNL     1      -7.871   9.413  71.845  1.00  0.00    -0.080 Si 
HETATM    4  C   UNL     1     -10.766   7.443  70.137  1.00  0.00    -0.242 C  
HETATM    5  O   UNL     1      -9.346   7.376  70.032  1.00  0.00    -0.152 OA 
HETATM    6  O   UNL     1      -6.555   9.866  71.373  1.00  0.00    -0.321 OA 
HETATM    7  H   UNL     1      -6.611  10.343  70.554  1.00  0.00     0.000 HD 
ENDROOT
BRANCH   5   8
HETATM    8 SI   UNL     1      -8.633   5.868  69.792  1.00  0.00    -0.109 Si 
HETATM    9  C   UNL     1      -7.096   6.079  68.744  1.00  0.00    -0.081 C  
HETATM   10  C   UNL     1      -9.853   4.728  68.939  1.00  0.00    -0.160 C  
BRANCH   8  11
HETATM   11  O   UNL     1      -8.226   5.228  71.286  1.00  0.00    -0.114 OA 
HETATM   12 SI   UNL     1      -9.004   4.539  72.610  1.00  0.00    -0.108 Si 
HETATM   13  C   UNL     1     -10.233   5.737  73.393  1.00  0.00    -0.209 C  
HETATM   14  C   UNL     1      -7.795   4.021  73.954  1.00  0.00    -0.084 C  
HETATM   15  C   UNL     1      -9.974   3.011  72.082  1.00  0.00    -0.163 C  
ENDBRANCH   8  11
ENDBRANCH   5   8
TORSDOF 2
ENDMDL
MODEL      348
REMARK 921   NORMALIZED FREE ENERGY PREDICTED BY IDOCK:   -1.93 KCAL/MOL
REMARK 922        TOTAL FREE ENERGY PREDICTED BY IDOCK:   -2.39 KCAL/MOL
REMARK 923 INTER-LIGAND FREE ENERGY PREDICTED BY IDOCK:   -2.24 KCAL/MOL
REMARK 924 INTRA-LIGAND FREE ENERGY PREDICTED BY IDOCK:   -0.16 KCAL/MOL
REMARK 927      BINDING AFFINITY PREDICTED BY RF-SCORE:    0.00 PKD
ROOT
HETATM    1  O   UNL     1      -8.149   6.882  66.655  1.00  0.00    -0.106 OA 
HETATM    2  H   UNL     1      -7.588   6.919  67.421  1.00  0.00     0.000 HD 
HETATM    3 SI   UNL     1      -7.825   7.937  65.669  1.00  0.00    -0.079 Si 
HETATM    4  C   UNL     1      -6.843  10.822  68.096  1.00  0.00    -0.068 C  
HETATM    5  O   UNL     1      -8.043  10.501  67.399  1.00  0.00    -0.110 OA 
HETATM    6  O   UNL     1      -8.693   7.879  64.485  1.00  0.00    -0.376 OA 
HETATM    7  H   UNL     1      -8.486   8.556  63.852  1.00  0.00     0.000 HD 
ENDROOT
BRANCH   5   8
HETATM    8 SI   UNL     1      -9.516  10.825  68.151  1.00  0.00    -0.137 Si 
HETATM    9  C   UNL     1     -10.906  10.148  67.094  1.00  0.00    -0.189 C  
HETATM   10  C   UNL     1      -9.710  12.677  68.374  1.00  0.00    -0.187 C  
BRANCH   8  11
HETATM   11  O   UNL     1      -9.522  10.082  69.653  1.00  0.00    -0.214 OA 
HETATM   12 SI   UNL     1      -9.304   8.540  70.291  1.00  0.00    -0.141 Si 
HETATM   13  C   UNL     1     -10.582   7.324  69.620  1.00  0.00    -0.235 C  
HETATM   14  C   UNL     1      -9.445   8.521  72.166  1.00  0.00    -0.305 C  
HETATM   15  C   UNL     1      -7.602   7.872  69.830  1.00  0.00    -0.090 C  
ENDBRANCH   8  11
ENDBRANCH   5   8
TORSDOF 2
ENDMDL
MODEL      349
REMARK 921   NORMALIZED FREE ENERGY PREDICTED BY IDOCK:   -1.93 KCAL/MOL
REMARK 922        TOTAL FREE ENERGY PREDICTED BY IDOCK:   -2.39 KCAL/MOL
REMARK 923 INTER-LIGAND FREE ENERGY PREDICTED BY IDOCK:   -2.20 KCAL/MOL
REMARK 924 INTRA-LIGAND FREE ENERGY PREDICTED BY IDOCK:   -0.19 KCAL/MOL
REMARK 927      BINDING AFFINITY PREDICTED BY RF-SCORE:    0.00 PKD
ROOT
HETATM    1  O   UNL     1      -5.368  10.299  67.589  1.00  0.00    -0.038 OA 
HETATM    2  H   UNL     1      -5.382  11.050  68.170  1.00  0.00     0.000 HD 
HETATM    3 SI   UNL     1      -6.338  10.430  66.479  1.00  0.00    -0.058 Si 
HETATM    4  C   UNL     1      -9.213  12.289  68.338  1.00  0.00    -0.145 C  
HETATM    5  O   UNL     1      -8.986  10.920  68.014  1.00  0.00    -0.137 OA 
HETATM    6  O   UNL     1      -6.317   9.268  65.579  1.00  0.00    -0.063 OA 
HETATM    7  H   UNL     1      -6.939   9.353  64.867  1.00  0.00     0.000 HD 
ENDROOT
BRANCH   5   8
HETATM    8 SI   UNL     1      -9.495   9.745  69.110  1.00  0.00    -0.142 Si 
HETATM    9  C   UNL     1     -11.005  10.371  70.022  1.00  0.00    -0.308 C  
HETATM   10  C   UNL     1      -8.109   9.375  70.318  1.00  0.00    -0.164 C  
BRANCH   8  11
HETATM   11  O   UNL     1      -9.875   8.352  68.258  1.00  0.00    -0.159 OA 
HETATM   12 SI   UNL     1     -10.065   6.708  68.561  1.00  0.00    -0.140 Si 
HETATM   13  C   UNL     1      -8.476   5.937  69.228  1.00  0.00    -0.113 C  
HETATM   14  C   UNL     1     -10.545   5.751  67.015  1.00  0.00    -0.300 C  
HETATM   15  C   UNL     1     -11.406   6.429  69.857  1.00  0.00    -0.434 C  
ENDBRANCH   8  11
ENDBRANCH   5   8
TORSDOF 2
ENDMDL
MODEL      350
REMARK 921   NORMALIZED FREE ENERGY PREDICTED BY IDOCK:   -1.91 KCAL/MOL
REMARK 922        TOTAL FREE ENERGY PREDICTED BY IDOCK:   -2.37 KCAL/MOL
REMARK 923 INTER-LIGAND FREE ENERGY PREDICTED BY IDOCK:   -2.19 KCAL/MOL
REMARK 924 INTRA-LIGAND FREE ENERGY PREDICTED BY IDOCK:   -0.17 KCAL/MOL
REMARK 927      BINDING AFFINITY PREDICTED BY RF-SCORE:    0.00 PKD
ROOT
HETATM    1  O   UNL     1      -7.066  10.195  70.806  1.00  0.00    -0.334 OA 
HETATM    2  H   UNL     1      -6.701   9.735  71.553  1.00  0.00     0.000 HD 
HETATM    3 SI   UNL     1      -8.511   9.926  70.632  1.00  0.00    -0.159 Si 
HETATM    4  C   UNL     1      -8.622   6.198  71.761  1.00  0.00    -0.133 C  
HETATM    5  O   UNL     1      -8.559   6.829  70.485  1.00  0.00    -0.139 OA 
HETATM    6  O   UNL     1      -9.076  10.638  69.477  1.00  0.00    -0.389 OA 
HETATM    7  H   UNL     1     -10.003  10.465  69.366  1.00  0.00     0.000 HD 
ENDROOT
BRANCH   5   8
HETATM    8 SI   UNL     1      -7.666   6.081  69.267  1.00  0.00    -0.076 Si 
HETATM    9  C   UNL     1      -8.299   4.335  69.028  1.00  0.00    -0.078 C  
HETATM   10  C   UNL     1      -5.853   6.058  69.746  1.00  0.00    -0.021 C  
BRANCH   8  11
HETATM   11  O   UNL     1      -7.854   6.959  67.852  1.00  0.00    -0.110 OA 
HETATM   12 SI   UNL     1      -8.938   7.053  66.568  1.00  0.00    -0.112 Si 
HETATM   13  C   UNL     1      -9.052   5.416  65.636  1.00  0.00    -0.140 C  
HETATM   14  C   UNL     1      -8.450   8.373  65.322  1.00  0.00    -0.171 C  
HETATM   15  C   UNL     1     -10.669   7.459  67.196  1.00  0.00    -0.330 C  
ENDBRANCH   8  11
ENDBRANCH   5   8
TORSDOF 2
ENDMDL
MODEL      351
REMARK 921   NORMALIZED FREE ENERGY PREDICTED BY IDOCK:   -1.90 KCAL/MOL
REMARK 922        TOTAL FREE ENERGY PREDICTED BY IDOCK:   -2.36 KCAL/MOL
REMARK 923 INTER-LIGAND FREE ENERGY PREDICTED BY IDOCK:   -2.14 KCAL/MOL
REMARK 924 INTRA-LIGAND FREE ENERGY PREDICTED BY IDOCK:   -0.22 KCAL/MOL
REMARK 927      BINDING AFFINITY PREDICTED BY RF-SCORE:    0.00 PKD
ROOT
HETATM    1  O   UNL     1      -7.740   8.588  65.753  1.00  0.00    -0.093 OA 
HETATM    2  H   UNL     1      -7.211   8.432  66.526  1.00  0.00     0.000 HD 
HETATM    3 SI   UNL     1      -7.220   9.703  64.931  1.00  0.00    -0.091 Si 
HETATM    4  C   UNL     1      -5.904  12.040  67.758  1.00  0.00    -0.074 C  
HETATM    5  O   UNL     1      -7.111  12.010  67.001  1.00  0.00    -0.139 OA 
HETATM    6  O   UNL     1      -8.040   9.945  63.736  1.00  0.00    -0.135 OA 
HETATM    7  H   UNL     1      -7.706  10.661  63.209  1.00  0.00     0.000 HD 
ENDROOT
BRANCH   5   8
HETATM    8 SI   UNL     1      -8.545  12.456  67.765  1.00  0.00    -0.127 Si 
HETATM    9  C   UNL     1      -9.901  12.606  66.483  1.00  0.00    -0.256 C  
HETATM   10  C   UNL     1      -8.299  14.092  68.649  1.00  0.00    -0.123 C  
BRANCH   8  11
HETATM   11  O   UNL     1      -8.942  11.274  68.885  1.00  0.00    -0.142 OA 
HETATM   12 SI   UNL     1     -10.253  10.288  69.259  1.00  0.00    -0.160 Si 
HETATM   13  C   UNL     1     -11.780  11.304  69.703  1.00  0.00    -0.350 C  
HETATM   14  C   UNL     1      -9.895   9.151  70.713  1.00  0.00    -0.270 C  
HETATM   15  C   UNL     1     -10.710   9.213  67.779  1.00  0.00    -0.179 C  
ENDBRANCH   8  11
ENDBRANCH   5   8
TORSDOF 2
ENDMDL
MODEL      352
REMARK 921   NORMALIZED FREE ENERGY PREDICTED BY IDOCK:   -1.90 KCAL/MOL
REMARK 922        TOTAL FREE ENERGY PREDICTED BY IDOCK:   -2.36 KCAL/MOL
REMARK 923 INTER-LIGAND FREE ENERGY PREDICTED BY IDOCK:   -2.76 KCAL/MOL
REMARK 924 INTRA-LIGAND FREE ENERGY PREDICTED BY IDOCK:    0.40 KCAL/MOL
REMARK 927      BINDING AFFINITY PREDICTED BY RF-SCORE:    0.00 PKD
ROOT
HETATM    1  O   UNL     1     -10.287  15.056  70.768  1.00  0.00    -0.488 OA 
HETATM    2  H   UNL     1     -10.147  14.418  71.458  1.00  0.00     0.000 HD 
HETATM    3 SI   UNL     1     -11.628  14.935  70.154  1.00  0.00    -0.219 Si 
HETATM    4  C   UNL     1     -12.075  11.068  70.318  1.00  0.00    -0.362 C  
HETATM    5  O   UNL     1     -11.655  11.958  69.288  1.00  0.00    -0.267 OA 
HETATM    6  O   UNL     1     -11.845  15.921  69.087  1.00  0.00    -0.389 OA 
HETATM    7  H   UNL     1     -12.705  15.844  68.693  1.00  0.00     0.000 HD 
ENDROOT
BRANCH   5   8
HETATM    8 SI   UNL     1     -10.464  11.434  68.216  1.00  0.00    -0.165 Si 
HETATM    9  C   UNL     1      -9.740  12.919  67.334  1.00  0.00    -0.201 C  
HETATM   10  C   UNL     1     -11.216  10.243  66.979  1.00  0.00     0.123 C  
BRANCH   8  11
HETATM   11  O   UNL     1      -9.270  10.647  69.090  1.00  0.00    -0.188 OA 
HETATM   12 SI   UNL     1      -9.027   9.147  69.814  1.00  0.00    -0.119 Si 
HETATM   13  C   UNL     1     -10.314   8.805  71.151  1.00  0.00    -0.246 C  
HETATM   14  C   UNL     1      -7.334   9.013  70.619  1.00  0.00    -0.098 C  
HETATM   15  C   UNL     1      -9.172   7.769  68.535  1.00  0.00    -0.137 C  
ENDBRANCH   8  11
ENDBRANCH   5   8
TORSDOF 2
ENDMDL
MODEL      353
REMARK 921   NORMALIZED FREE ENERGY PREDICTED BY IDOCK:   -1.90 KCAL/MOL
REMARK 922        TOTAL FREE ENERGY PREDICTED BY IDOCK:   -2.35 KCAL/MOL
REMARK 923 INTER-LIGAND FREE ENERGY PREDICTED BY IDOCK:   -2.53 KCAL/MOL
REMARK 924 INTRA-LIGAND FREE ENERGY PREDICTED BY IDOCK:    0.17 KCAL/MOL
REMARK 927      BINDING AFFINITY PREDICTED BY RF-SCORE:    0.00 PKD
ROOT
HETATM    1  O   UNL     1      -7.658  12.103  69.293  1.00  0.00    -0.330 OA 
HETATM    2  H   UNL     1      -7.800  13.033  69.428  1.00  0.00     0.000 HD 
HETATM    3 SI   UNL     1      -7.336  11.784  67.884  1.00  0.00    -0.075 Si 
HETATM    4  C   UNL     1      -9.582  14.412  66.088  1.00  0.00    -0.283 C  
HETATM    5  O   UNL     1      -9.751  13.030  66.391  1.00  0.00    -0.260 OA 
HETATM    6  O   UNL     1      -7.117  10.346  67.673  1.00  0.00    -0.083 OA 
HETATM    7  H   UNL     1      -6.910  10.141  66.770  1.00  0.00     0.000 HD 
ENDROOT
BRANCH   5   8
HETATM    8 SI   UNL     1     -11.294  12.480  66.785  1.00  0.00    -0.243 Si 
HETATM    9  C   UNL     1     -11.202  10.664  67.231  1.00  0.00    -0.161 C  
HETATM   10  C   UNL     1     -12.440  12.735  65.322  1.00  0.00    -0.465 C  
BRANCH   8  11
HETATM   11  O   UNL     1     -11.857  13.366  68.092  1.00  0.00    -0.339 OA 
HETATM   12 SI   UNL     1     -11.478  14.794  68.896  1.00  0.00    -0.223 Si 
HETATM   13  C   UNL     1      -9.731  14.748  69.606  1.00  0.00     0.125 C  
HETATM   14  C   UNL     1     -12.653  15.137  70.324  1.00  0.00    -0.326 C  
HETATM   15  C   UNL     1     -11.561  16.259  67.711  1.00  0.00     0.136 C  
ENDBRANCH   8  11
ENDBRANCH   5   8
TORSDOF 2
ENDMDL
MODEL      354
REMARK 921   NORMALIZED FREE ENERGY PREDICTED BY IDOCK:   -1.89 KCAL/MOL
REMARK 922        TOTAL FREE ENERGY PREDICTED BY IDOCK:   -2.35 KCAL/MOL
REMARK 923 INTER-LIGAND FREE ENERGY PREDICTED BY IDOCK:   -2.09 KCAL/MOL
REMARK 924 INTRA-LIGAND FREE ENERGY PREDICTED BY IDOCK:   -0.27 KCAL/MOL
REMARK 927      BINDING AFFINITY PREDICTED BY RF-SCORE:    0.00 PKD
ROOT
HETATM    1  O   UNL     1      -5.969   7.181  70.444  1.00  0.00    -0.024 OA 
HETATM    2  H   UNL     1      -5.498   6.378  70.632  1.00  0.00     0.000 HD 
HETATM    3 SI   UNL     1      -6.718   7.681  71.618  1.00  0.00    -0.043 Si 
HETATM    4  C   UNL     1      -7.791   4.288  73.205  1.00  0.00    -0.086 C  
HETATM    5  O   UNL     1      -8.453   5.218  72.352  1.00  0.00    -0.120 OA 
HETATM    6  O   UNL     1      -7.448   8.923  71.326  1.00  0.00    -0.109 OA 
HETATM    7  H   UNL     1      -7.929   9.244  72.080  1.00  0.00     0.000 HD 
ENDROOT
BRANCH   5   8
HETATM    8 SI   UNL     1      -9.512   4.619  71.185  1.00  0.00    -0.114 Si 
HETATM    9  C   UNL     1      -9.773   2.789  71.478  1.00  0.00    -0.155 C  
HETATM   10  C   UNL     1      -8.790   4.911  69.479  1.00  0.00    -0.090 C  
BRANCH   8  11
HETATM   11  O   UNL     1     -10.968   5.437  71.318  1.00  0.00    -0.184 OA 
HETATM   12 SI   UNL     1     -11.506   7.020  71.510  1.00  0.00    -0.237 Si 
HETATM   13  C   UNL     1     -10.865   7.781  73.114  1.00  0.00    -0.339 C  
HETATM   14  C   UNL     1     -13.382   7.133  71.548  1.00  0.00    -0.344 C  
HETATM   15  C   UNL     1     -10.887   8.101  70.094  1.00  0.00    -0.241 C  
ENDBRANCH   8  11
ENDBRANCH   5   8
TORSDOF 2
ENDMDL
MODEL      355
REMARK 921   NORMALIZED FREE ENERGY PREDICTED BY IDOCK:   -1.89 KCAL/MOL
REMARK 922        TOTAL FREE ENERGY PREDICTED BY IDOCK:   -2.35 KCAL/MOL
REMARK 923 INTER-LIGAND FREE ENERGY PREDICTED BY IDOCK:   -2.16 KCAL/MOL
REMARK 924 INTRA-LIGAND FREE ENERGY PREDICTED BY IDOCK:   -0.19 KCAL/MOL
REMARK 927      BINDING AFFINITY PREDICTED BY RF-SCORE:    0.00 PKD
ROOT
HETATM    1  O   UNL     1     -10.919   3.955  64.982  1.00  0.00    -0.519 OA 
HETATM    2  H   UNL     1     -10.270   3.513  64.447  1.00  0.00     0.000 HD 
HETATM    3 SI   UNL     1     -10.450   5.277  65.454  1.00  0.00    -0.309 Si 
HETATM    4  C   UNL     1      -6.673   4.481  65.983  1.00  0.00    -0.053 C  
HETATM    5  O   UNL     1      -7.791   4.533  66.865  1.00  0.00    -0.096 OA 
HETATM    6  O   UNL     1     -11.453   5.961  66.283  1.00  0.00    -0.648 OA 
HETATM    7  H   UNL     1     -11.152   6.809  66.586  1.00  0.00     0.000 HD 
ENDROOT
BRANCH   5   8
HETATM    8 SI   UNL     1      -7.853   3.435  68.142  1.00  0.00    -0.060 Si 
HETATM    9  C   UNL     1      -6.296   2.395  68.131  1.00  0.00    -0.029 C  
HETATM   10  C   UNL     1      -9.368   2.345  67.956  1.00  0.00    -0.202 C  
BRANCH   8  11
HETATM   11  O   UNL     1      -7.960   4.294  69.577  1.00  0.00    -0.057 OA 
HETATM   12 SI   UNL     1      -7.276   4.260  71.115  1.00  0.00    -0.032 Si 
HETATM   13  C   UNL     1      -7.632   2.630  71.996  1.00  0.00    -0.048 C  
HETATM   14  C   UNL     1      -7.926   5.642  72.211  1.00  0.00    -0.107 C  
HETATM   15  C   UNL     1      -5.402   4.437  71.005  1.00  0.00    -0.004 C  
ENDBRANCH   8  11
ENDBRANCH   5   8
TORSDOF 2
ENDMDL
MODEL      356
REMARK 921   NORMALIZED FREE ENERGY PREDICTED BY IDOCK:   -1.87 KCAL/MOL
REMARK 922        TOTAL FREE ENERGY PREDICTED BY IDOCK:   -2.32 KCAL/MOL
REMARK 923 INTER-LIGAND FREE ENERGY PREDICTED BY IDOCK:   -2.13 KCAL/MOL
REMARK 924 INTRA-LIGAND FREE ENERGY PREDICTED BY IDOCK:   -0.19 KCAL/MOL
REMARK 927      BINDING AFFINITY PREDICTED BY RF-SCORE:    0.00 PKD
ROOT
HETATM    1  O   UNL     1      -6.312  10.041  68.609  1.00  0.00    -0.048 OA 
HETATM    2  H   UNL     1      -5.607   9.438  68.812  1.00  0.00     0.000 HD 
HETATM    3 SI   UNL     1      -6.666  10.899  69.763  1.00  0.00    -0.056 Si 
HETATM    4  C   UNL     1      -6.100   8.360  72.663  1.00  0.00    -0.073 C  
HETATM    5  O   UNL     1      -7.260   8.788  71.955  1.00  0.00    -0.205 OA 
HETATM    6  O   UNL     1      -7.758  11.832  69.450  1.00  0.00    -0.344 OA 
HETATM    7  H   UNL     1      -7.985  12.382  70.190  1.00  0.00     0.000 HD 
ENDROOT
BRANCH   5   8
HETATM    8 SI   UNL     1      -8.477   7.660  71.659  1.00  0.00    -0.098 Si 
HETATM    9  C   UNL     1     -10.024   8.174  72.580  1.00  0.00    -0.301 C  
HETATM   10  C   UNL     1      -7.911   5.966  72.229  1.00  0.00    -0.107 C  
BRANCH   8  11
HETATM   11  O   UNL     1      -8.776   7.620  70.011  1.00  0.00    -0.140 OA 
HETATM   12 SI   UNL     1      -9.443   6.565  68.882  1.00  0.00    -0.129 Si 
HETATM   13  C   UNL     1      -8.492   4.937  68.808  1.00  0.00    -0.086 C  
HETATM   14  C   UNL     1      -9.445   7.290  67.147  1.00  0.00    -0.145 C  
HETATM   15  C   UNL     1     -11.224   6.151  69.340  1.00  0.00    -0.396 C  
ENDBRANCH   8  11
ENDBRANCH   5   8
TORSDOF 2
ENDMDL
MODEL      357
REMARK 921   NORMALIZED FREE ENERGY PREDICTED BY IDOCK:   -1.86 KCAL/MOL
REMARK 922        TOTAL FREE ENERGY PREDICTED BY IDOCK:   -2.31 KCAL/MOL
REMARK 923 INTER-LIGAND FREE ENERGY PREDICTED BY IDOCK:   -2.63 KCAL/MOL
REMARK 924 INTRA-LIGAND FREE ENERGY PREDICTED BY IDOCK:    0.31 KCAL/MOL
REMARK 927      BINDING AFFINITY PREDICTED BY RF-SCORE:    0.00 PKD
ROOT
HETATM    1  O   UNL     1      -7.258  10.316  70.659  1.00  0.00    -0.415 OA 
HETATM    2  H   UNL     1      -7.136  11.256  70.720  1.00  0.00     0.000 HD 
HETATM    3 SI   UNL     1      -6.655   9.750  69.431  1.00  0.00    -0.043 Si 
HETATM    4  C   UNL     1      -7.343  12.679  66.955  1.00  0.00     0.055 C  
HETATM    5  O   UNL     1      -8.014  11.451  67.224  1.00  0.00    -0.134 OA 
HETATM    6  O   UNL     1      -6.844   8.296  69.336  1.00  0.00    -0.042 OA 
HETATM    7  H   UNL     1      -6.457   7.933  68.548  1.00  0.00     0.000 HD 
ENDROOT
BRANCH   5   8
HETATM    8 SI   UNL     1      -9.697  11.422  67.125  1.00  0.00    -0.169 Si 
HETATM    9  C   UNL     1     -10.413  11.591  68.846  1.00  0.00    -0.187 C  
HETATM   10  C   UNL     1     -10.248   9.809  66.344  1.00  0.00    -0.217 C  
BRANCH   8  11
HETATM   11  O   UNL     1     -10.196  12.702  66.166  1.00  0.00    -0.248 OA 
HETATM   12 SI   UNL     1     -10.503  14.349  66.331  1.00  0.00    -0.264 Si 
HETATM   13  C   UNL     1     -11.874  14.677  67.585  1.00  0.00    -0.337 C  
HETATM   14  C   UNL     1     -11.028  15.139  64.708  1.00  0.00    -0.377 C  
HETATM   15  C   UNL     1      -8.961  15.247  66.942  1.00  0.00    -0.249 C  
ENDBRANCH   8  11
ENDBRANCH   5   8
TORSDOF 2
ENDMDL
MODEL      358
REMARK 921   NORMALIZED FREE ENERGY PREDICTED BY IDOCK:   -1.86 KCAL/MOL
REMARK 922        TOTAL FREE ENERGY PREDICTED BY IDOCK:   -2.31 KCAL/MOL
REMARK 923 INTER-LIGAND FREE ENERGY PREDICTED BY IDOCK:   -2.06 KCAL/MOL
REMARK 924 INTRA-LIGAND FREE ENERGY PREDICTED BY IDOCK:   -0.25 KCAL/MOL
REMARK 927      BINDING AFFINITY PREDICTED BY RF-SCORE:    0.00 PKD
ROOT
HETATM    1  O   UNL     1      -6.875  10.705  64.349  1.00  0.00    -0.351 OA 
HETATM    2  H   UNL     1      -6.910  11.238  65.134  1.00  0.00     0.000 HD 
HETATM    3 SI   UNL     1      -8.223  10.396  63.820  1.00  0.00    -0.139 Si 
HETATM    4  C   UNL     1     -10.179  10.052  67.172  1.00  0.00    -0.228 C  
HETATM    5  O   UNL     1      -9.585   9.105  66.288  1.00  0.00    -0.211 OA 
HETATM    6  O   UNL     1      -8.169   9.571  62.605  1.00  0.00    -0.131 OA 
HETATM    7  H   UNL     1      -9.033   9.373  62.265  1.00  0.00     0.000 HD 
ENDROOT
BRANCH   5   8
HETATM    8 SI   UNL     1      -8.878   7.726  66.951  1.00  0.00    -0.112 Si 
HETATM    9  C   UNL     1      -9.369   7.593  68.753  1.00  0.00    -0.148 C  
HETATM   10  C   UNL     1      -7.013   7.841  66.790  1.00  0.00    -0.072 C  
BRANCH   8  11
HETATM   11  O   UNL     1      -9.426   6.387  66.105  1.00  0.00    -0.136 OA 
HETATM   12 SI   UNL     1      -8.780   5.118  65.209  1.00  0.00    -0.115 Si 
HETATM   13  C   UNL     1      -7.821   5.745  63.710  1.00  0.00    -0.110 C  
HETATM   14  C   UNL     1     -10.109   3.949  64.574  1.00  0.00    -0.218 C  
HETATM   15  C   UNL     1      -7.579   4.115  66.260  1.00  0.00    -0.089 C  
ENDBRANCH   8  11
ENDBRANCH   5   8
TORSDOF 2
ENDMDL
MODEL      359
REMARK 921   NORMALIZED FREE ENERGY PREDICTED BY IDOCK:   -1.85 KCAL/MOL
REMARK 922        TOTAL FREE ENERGY PREDICTED BY IDOCK:   -2.31 KCAL/MOL
REMARK 923 INTER-LIGAND FREE ENERGY PREDICTED BY IDOCK:   -2.32 KCAL/MOL
REMARK 924 INTRA-LIGAND FREE ENERGY PREDICTED BY IDOCK:    0.01 KCAL/MOL
REMARK 927      BINDING AFFINITY PREDICTED BY RF-SCORE:    0.00 PKD
ROOT
HETATM    1  O   UNL     1      -7.102   3.586  69.165  1.00  0.00    -0.048 OA 
HETATM    2  H   UNL     1      -6.973   4.233  68.481  1.00  0.00     0.000 HD 
HETATM    3 SI   UNL     1      -8.411   2.905  69.053  1.00  0.00    -0.059 Si 
HETATM    4  C   UNL     1     -10.584   5.870  67.761  1.00  0.00    -0.259 C  
HETATM    5  O   UNL     1     -10.371   5.307  69.053  1.00  0.00    -0.210 OA 
HETATM    6  O   UNL     1      -8.612   1.905  70.111  1.00  0.00    -0.045 OA 
HETATM    7  H   UNL     1      -9.452   1.468  70.039  1.00  0.00     0.000 HD 
ENDROOT
BRANCH   5   8
HETATM    8 SI   UNL     1     -10.355   6.343  70.383  1.00  0.00    -0.177 Si 
HETATM    9  C   UNL     1      -9.549   5.468  71.829  1.00  0.00    -0.151 C  
HETATM   10  C   UNL     1     -12.113   6.834  70.814  1.00  0.00    -0.347 C  
BRANCH   8  11
HETATM   11  O   UNL     1      -9.478   7.713  69.980  1.00  0.00    -0.161 OA 
HETATM   12 SI   UNL     1      -9.772   9.262  69.390  1.00  0.00    -0.149 Si 
HETATM   13  C   UNL     1     -10.590   9.214  67.690  1.00  0.00    -0.242 C  
HETATM   14  C   UNL     1      -8.192  10.268  69.222  1.00  0.00    -0.162 C  
HETATM   15  C   UNL     1     -10.936  10.195  70.543  1.00  0.00    -0.310 C  
ENDBRANCH   8  11
ENDBRANCH   5   8
TORSDOF 2
ENDMDL
MODEL      360
REMARK 921   NORMALIZED FREE ENERGY PREDICTED BY IDOCK:   -1.85 KCAL/MOL
REMARK 922        TOTAL FREE ENERGY PREDICTED BY IDOCK:   -2.30 KCAL/MOL
REMARK 923 INTER-LIGAND FREE ENERGY PREDICTED BY IDOCK:   -2.30 KCAL/MOL
REMARK 924 INTRA-LIGAND FREE ENERGY PREDICTED BY IDOCK:    0.01 KCAL/MOL
REMARK 927      BINDING AFFINITY PREDICTED BY RF-SCORE:    0.00 PKD
ROOT
HETATM    1  O   UNL     1      -5.992  10.407  66.445  1.00  0.00    -0.062 OA 
HETATM    2  H   UNL     1      -5.773  10.797  67.283  1.00  0.00     0.000 HD 
HETATM    3 SI   UNL     1      -6.715  11.347  65.559  1.00  0.00    -0.309 Si 
HETATM    4  C   UNL     1      -8.817  13.265  68.221  1.00  0.00    -0.168 C  
HETATM    5  O   UNL     1      -9.108  12.178  67.347  1.00  0.00    -0.170 OA 
HETATM    6  O   UNL     1      -7.054  10.744  64.263  1.00  0.00    -0.346 OA 
HETATM    7  H   UNL     1      -7.518  11.347  63.695  1.00  0.00     0.000 HD 
ENDROOT
BRANCH   5   8
HETATM    8 SI   UNL     1     -10.144  10.966  67.897  1.00  0.00    -0.159 Si 
HETATM    9  C   UNL     1     -10.393   9.709  66.532  1.00  0.00    -0.194 C  
HETATM   10  C   UNL     1     -11.786  11.726  68.392  1.00  0.00    -0.325 C  
BRANCH   8  11
HETATM   11  O   UNL     1      -9.445  10.234  69.233  1.00  0.00    -0.198 OA 
HETATM   12 SI   UNL     1      -7.969   9.547  69.659  1.00  0.00    -0.070 Si 
HETATM   13  C   UNL     1      -7.545   8.075  68.557  1.00  0.00    -0.104 C  
HETATM   14  C   UNL     1      -7.957   8.937  71.437  1.00  0.00    -0.102 C  
HETATM   15  C   UNL     1      -6.578  10.806  69.467  1.00  0.00    -0.099 C  
ENDBRANCH   8  11
ENDBRANCH   5   8
TORSDOF 2
ENDMDL
MODEL      361
REMARK 921   NORMALIZED FREE ENERGY PREDICTED BY IDOCK:   -1.85 KCAL/MOL
REMARK 922        TOTAL FREE ENERGY PREDICTED BY IDOCK:   -2.30 KCAL/MOL
REMARK 923 INTER-LIGAND FREE ENERGY PREDICTED BY IDOCK:   -2.07 KCAL/MOL
REMARK 924 INTRA-LIGAND FREE ENERGY PREDICTED BY IDOCK:   -0.23 KCAL/MOL
REMARK 927      BINDING AFFINITY PREDICTED BY RF-SCORE:    0.00 PKD
ROOT
HETATM    1  O   UNL     1      -7.142   8.336  74.323  1.00  0.00    -0.147 OA 
HETATM    2  H   UNL     1      -7.794   8.138  74.985  1.00  0.00     0.000 HD 
HETATM    3 SI   UNL     1      -7.697   9.139  73.210  1.00  0.00    -0.019 Si 
HETATM    4  C   UNL     1     -11.280   7.620  73.030  1.00  0.00    -0.333 C  
HETATM    5  O   UNL     1     -10.082   7.381  72.297  1.00  0.00    -0.187 OA 
HETATM    6  O   UNL     1      -6.688   9.444  72.186  1.00  0.00    -0.292 OA 
HETATM    7  H   UNL     1      -7.044   9.959  71.472  1.00  0.00     0.000 HD 
ENDROOT
BRANCH   5   8
HETATM    8 SI   UNL     1      -9.756   5.808  71.787  1.00  0.00    -0.148 Si 
HETATM    9  C   UNL     1     -10.976   4.638  72.594  1.00  0.00    -0.110 C  
HETATM   10  C   UNL     1      -8.001   5.348  72.261  1.00  0.00    -0.107 C  
BRANCH   8  11
HETATM   11  O   UNL     1      -9.916   5.744  70.120  1.00  0.00    -0.177 OA 
HETATM   12 SI   UNL     1      -9.357   6.585  68.773  1.00  0.00    -0.128 Si 
HETATM   13  C   UNL     1      -9.891   8.394  68.814  1.00  0.00    -0.173 C  
HETATM   14  C   UNL     1      -9.994   5.850  67.164  1.00  0.00    -0.159 C  
HETATM   15  C   UNL     1      -7.473   6.561  68.717  1.00  0.00    -0.088 C  
ENDBRANCH   8  11
ENDBRANCH   5   8
TORSDOF 2
ENDMDL
MODEL      362
REMARK 921   NORMALIZED FREE ENERGY PREDICTED BY IDOCK:   -1.83 KCAL/MOL
REMARK 922        TOTAL FREE ENERGY PREDICTED BY IDOCK:   -2.28 KCAL/MOL
REMARK 923 INTER-LIGAND FREE ENERGY PREDICTED BY IDOCK:   -2.07 KCAL/MOL
REMARK 924 INTRA-LIGAND FREE ENERGY PREDICTED BY IDOCK:   -0.21 KCAL/MOL
REMARK 927      BINDING AFFINITY PREDICTED BY RF-SCORE:    0.00 PKD
ROOT
HETATM    1  O   UNL     1      -6.782  13.397  67.145  1.00  0.00    -0.436 OA 
HETATM    2  H   UNL     1      -6.137  12.840  66.727  1.00  0.00     0.000 HD 
HETATM    3 SI   UNL     1      -6.667  13.383  68.620  1.00  0.00    -0.068 Si 
HETATM    4  C   UNL     1      -5.629   9.666  69.159  1.00  0.00    -0.035 C  
HETATM    5  O   UNL     1      -6.876  10.351  69.236  1.00  0.00    -0.058 OA 
HETATM    6  O   UNL     1      -7.666  14.245  69.267  1.00  0.00    -0.302 OA 
HETATM    7  H   UNL     1      -7.592  14.236  70.213  1.00  0.00     0.000 HD 
ENDROOT
BRANCH   5   8
HETATM    8 SI   UNL     1      -8.267   9.537  68.743  1.00  0.00    -0.095 Si 
HETATM    9  C   UNL     1      -9.661   9.935  69.928  1.00  0.00    -0.235 C  
HETATM   10  C   UNL     1      -7.936   7.691  68.721  1.00  0.00    -0.126 C  
BRANCH   8  11
HETATM   11  O   UNL     1      -8.663  10.049  67.197  1.00  0.00    -0.128 OA 
HETATM   12 SI   UNL     1      -8.149   9.782  65.617  1.00  0.00    -0.104 Si 
HETATM   13  C   UNL     1      -6.344  10.279  65.382  1.00  0.00    -0.124 C  
HETATM   14  C   UNL     1      -9.163  10.754  64.367  1.00  0.00    -0.221 C  
HETATM   15  C   UNL     1      -8.285   7.953  65.180  1.00  0.00    -0.141 C  
ENDBRANCH   8  11
ENDBRANCH   5   8
TORSDOF 2
ENDMDL
MODEL      363
REMARK 921   NORMALIZED FREE ENERGY PREDICTED BY IDOCK:   -1.80 KCAL/MOL
REMARK 922        TOTAL FREE ENERGY PREDICTED BY IDOCK:   -2.24 KCAL/MOL
REMARK 923 INTER-LIGAND FREE ENERGY PREDICTED BY IDOCK:   -2.04 KCAL/MOL
REMARK 924 INTRA-LIGAND FREE ENERGY PREDICTED BY IDOCK:   -0.20 KCAL/MOL
REMARK 927      BINDING AFFINITY PREDICTED BY RF-SCORE:    0.00 PKD
ROOT
HETATM    1  O   UNL     1     -10.544   4.429  66.577  1.00  0.00    -0.306 OA 
HETATM    2  H   UNL     1     -10.051   3.789  66.077  1.00  0.00     0.000 HD 
HETATM    3 SI   UNL     1     -10.898   5.620  65.773  1.00  0.00    -0.370 Si 
HETATM    4  C   UNL     1      -7.707   5.880  63.551  1.00  0.00    -0.095 C  
HETATM    5  O   UNL     1      -8.117   6.534  64.749  1.00  0.00    -0.128 OA 
HETATM    6  O   UNL     1     -11.659   6.610  66.547  1.00  0.00    -0.495 OA 
HETATM    7  H   UNL     1     -11.886   7.374  66.031  1.00  0.00     0.000 HD 
ENDROOT
BRANCH   5   8
HETATM    8 SI   UNL     1      -6.940   6.919  65.892  1.00  0.00    -0.051 Si 
HETATM    9  C   UNL     1      -5.497   7.744  65.030  1.00  0.00    -0.033 C  
HETATM   10  C   UNL     1      -6.375   5.355  66.759  1.00  0.00    -0.039 C  
BRANCH   8  11
HETATM   11  O   UNL     1      -7.612   7.965  67.016  1.00  0.00    -0.096 OA 
HETATM   12 SI   UNL     1      -7.550   9.602  67.402  1.00  0.00    -0.086 Si 
HETATM   13  C   UNL     1      -5.801  10.141  67.860  1.00  0.00    -0.041 C  
HETATM   14  C   UNL     1      -8.666  10.032  68.853  1.00  0.00    -0.146 C  
HETATM   15  C   UNL     1      -8.087  10.646  65.926  1.00  0.00    -0.159 C  
ENDBRANCH   8  11
ENDBRANCH   5   8
TORSDOF 2
ENDMDL
MODEL      364
REMARK 921   NORMALIZED FREE ENERGY PREDICTED BY IDOCK:   -1.79 KCAL/MOL
REMARK 922        TOTAL FREE ENERGY PREDICTED BY IDOCK:   -2.23 KCAL/MOL
REMARK 923 INTER-LIGAND FREE ENERGY PREDICTED BY IDOCK:   -2.03 KCAL/MOL
REMARK 924 INTRA-LIGAND FREE ENERGY PREDICTED BY IDOCK:   -0.20 KCAL/MOL
REMARK 927      BINDING AFFINITY PREDICTED BY RF-SCORE:    0.00 PKD
ROOT
HETATM    1  O   UNL     1      -7.431   3.439  67.613  1.00  0.00    -0.058 OA 
HETATM    2  H   UNL     1      -6.745   4.034  67.335  1.00  0.00     0.000 HD 
HETATM    3 SI   UNL     1      -8.710   3.692  66.913  1.00  0.00    -0.098 Si 
HETATM    4  C   UNL     1      -8.530   7.572  66.602  1.00  0.00    -0.130 C  
HETATM    5  O   UNL     1      -9.176   6.697  67.523  1.00  0.00    -0.116 OA 
HETATM    6  O   UNL     1      -9.773   2.773  67.343  1.00  0.00    -0.383 OA 
HETATM    7  H   UNL     1     -10.594   2.935  66.894  1.00  0.00     0.000 HD 
ENDROOT
BRANCH   5   8
HETATM    8 SI   UNL     1      -9.280   7.170  69.137  1.00  0.00    -0.135 Si 
HETATM    9  C   UNL     1     -10.732   8.334  69.341  1.00  0.00    -0.151 C  
HETATM   10  C   UNL     1      -7.687   8.019  69.643  1.00  0.00    -0.102 C  
BRANCH   8  11
HETATM   11  O   UNL     1      -9.504   5.802  70.079  1.00  0.00    -0.152 OA 
HETATM   12 SI   UNL     1      -9.753   5.421  71.699  1.00  0.00    -0.140 Si 
HETATM   13  C   UNL     1      -8.317   6.000  72.777  1.00  0.00    -0.118 C  
HETATM   14  C   UNL     1      -9.947   3.571  71.972  1.00  0.00    -0.157 C  
HETATM   15  C   UNL     1     -11.310   6.268  72.342  1.00  0.00    -0.292 C  
ENDBRANCH   8  11
ENDBRANCH   5   8
TORSDOF 2
ENDMDL
MODEL      365
REMARK 921   NORMALIZED FREE ENERGY PREDICTED BY IDOCK:   -1.78 KCAL/MOL
REMARK 922        TOTAL FREE ENERGY PREDICTED BY IDOCK:   -2.23 KCAL/MOL
REMARK 923 INTER-LIGAND FREE ENERGY PREDICTED BY IDOCK:   -2.13 KCAL/MOL
REMARK 924 INTRA-LIGAND FREE ENERGY PREDICTED BY IDOCK:   -0.10 KCAL/MOL
REMARK 927      BINDING AFFINITY PREDICTED BY RF-SCORE:    0.00 PKD
ROOT
HETATM    1  O   UNL     1      -6.212   9.643  69.787  1.00  0.00    -0.042 OA 
HETATM    2  H   UNL     1      -6.452   8.738  69.944  1.00  0.00     0.000 HD 
HETATM    3 SI   UNL     1      -6.728  10.550  70.837  1.00  0.00    -0.122 Si 
HETATM    4  C   UNL     1     -10.124   8.801  71.604  1.00  0.00    -0.319 C  
HETATM    5  O   UNL     1      -9.761   9.910  70.786  1.00  0.00    -0.099 OA 
HETATM    6  O   UNL     1      -6.358  11.952  70.595  1.00  0.00    -0.533 OA 
HETATM    7  H   UNL     1      -6.689  12.534  71.268  1.00  0.00     0.000 HD 
ENDROOT
BRANCH   5   8
HETATM    8 SI   UNL     1     -10.595  10.144  69.340  1.00  0.00    -0.167 Si 
HETATM    9  C   UNL     1     -12.433  10.196  69.695  1.00  0.00     0.311 C  
HETATM   10  C   UNL     1     -10.199   8.743  68.157  1.00  0.00    -0.205 C  
BRANCH   8  11
HETATM   11  O   UNL     1     -10.097  11.596  68.667  1.00  0.00    -0.211 OA 
HETATM   12 SI   UNL     1      -9.204  12.124  67.343  1.00  0.00    -0.158 Si 
HETATM   13  C   UNL     1      -7.433  11.475  67.397  1.00  0.00    -0.127 C  
HETATM   14  C   UNL     1      -9.110  14.000  67.252  1.00  0.00    -0.220 C  
HETATM   15  C   UNL     1      -9.976  11.503  65.738  1.00  0.00    -0.233 C  
ENDBRANCH   8  11
ENDBRANCH   5   8
TORSDOF 2
ENDMDL
MODEL      366
REMARK 921   NORMALIZED FREE ENERGY PREDICTED BY IDOCK:   -1.78 KCAL/MOL
REMARK 922        TOTAL FREE ENERGY PREDICTED BY IDOCK:   -2.22 KCAL/MOL
REMARK 923 INTER-LIGAND FREE ENERGY PREDICTED BY IDOCK:   -2.03 KCAL/MOL
REMARK 924 INTRA-LIGAND FREE ENERGY PREDICTED BY IDOCK:   -0.19 KCAL/MOL
REMARK 927      BINDING AFFINITY PREDICTED BY RF-SCORE:    0.00 PKD
ROOT
HETATM    1  O   UNL     1      -6.366  11.837  69.043  1.00  0.00    -0.065 OA 
HETATM    2  H   UNL     1      -6.794  11.492  69.819  1.00  0.00     0.000 HD 
HETATM    3 SI   UNL     1      -7.302  12.576  68.168  1.00  0.00    -0.073 Si 
HETATM    4  C   UNL     1     -10.517  10.439  68.694  1.00  0.00    -0.196 C  
HETATM    5  O   UNL     1      -9.514  10.458  67.683  1.00  0.00    -0.147 OA 
HETATM    6  O   UNL     1      -6.641  13.108  66.967  1.00  0.00    -0.460 OA 
HETATM    7  H   UNL     1      -7.242  13.582  66.406  1.00  0.00     0.000 HD 
ENDROOT
BRANCH   5   8
HETATM    8 SI   UNL     1      -9.068   8.996  66.972  1.00  0.00    -0.118 Si 
HETATM    9  C   UNL     1     -10.516   7.812  67.047  1.00  0.00    -0.349 C  
HETATM   10  C   UNL     1      -7.593   8.282  67.885  1.00  0.00    -0.102 C  
BRANCH   8  11
HETATM   11  O   UNL     1      -8.645   9.286  65.377  1.00  0.00    -0.138 OA 
HETATM   12 SI   UNL     1      -7.534   8.716  64.249  1.00  0.00    -0.087 Si 
HETATM   13  C   UNL     1      -5.758   8.982  64.829  1.00  0.00    -0.063 C  
HETATM   14  C   UNL     1      -7.712   9.569  62.583  1.00  0.00    -0.114 C  
HETATM   15  C   UNL     1      -7.761   6.863  63.980  1.00  0.00    -0.116 C  
ENDBRANCH   8  11
ENDBRANCH   5   8
TORSDOF 2
ENDMDL
MODEL      367
REMARK 921   NORMALIZED FREE ENERGY PREDICTED BY IDOCK:   -1.77 KCAL/MOL
REMARK 922        TOTAL FREE ENERGY PREDICTED BY IDOCK:   -2.21 KCAL/MOL
REMARK 923 INTER-LIGAND FREE ENERGY PREDICTED BY IDOCK:   -2.02 KCAL/MOL
REMARK 924 INTRA-LIGAND FREE ENERGY PREDICTED BY IDOCK:   -0.19 KCAL/MOL
REMARK 927      BINDING AFFINITY PREDICTED BY RF-SCORE:    0.00 PKD
ROOT
HETATM    1  O   UNL     1      -6.800   7.662  73.007  1.00  0.00    -0.065 OA 
HETATM    2  H   UNL     1      -7.587   7.144  73.132  1.00  0.00     0.000 HD 
HETATM    3 SI   UNL     1      -7.064   9.115  73.094  1.00  0.00    -0.053 Si 
HETATM    4  C   UNL     1     -10.603   9.236  71.468  1.00  0.00    -0.335 C  
HETATM    5  O   UNL     1      -9.291   9.477  70.967  1.00  0.00    -0.201 OA 
HETATM    6  O   UNL     1      -5.847   9.916  72.900  1.00  0.00    -0.267 OA 
HETATM    7  H   UNL     1      -6.017  10.849  72.956  1.00  0.00     0.000 HD 
ENDROOT
BRANCH   5   8
HETATM    8 SI   UNL     1      -8.947   9.032  69.378  1.00  0.00    -0.124 Si 
HETATM    9  C   UNL     1      -7.553  10.101  68.731  1.00  0.00    -0.089 C  
HETATM   10  C   UNL     1     -10.482   9.251  68.322  1.00  0.00    -0.215 C  
BRANCH   8  11
HETATM   11  O   UNL     1      -8.490   7.420  69.364  1.00  0.00    -0.131 OA 
HETATM   12 SI   UNL     1      -9.128   5.930  69.818  1.00  0.00    -0.122 Si 
HETATM   13  C   UNL     1      -9.500   5.869  71.667  1.00  0.00    -0.149 C  
HETATM   14  C   UNL     1      -7.957   4.510  69.436  1.00  0.00    -0.061 C  
HETATM   15  C   UNL     1     -10.750   5.606  68.912  1.00  0.00    -0.209 C  
ENDBRANCH   8  11
ENDBRANCH   5   8
TORSDOF 2
ENDMDL
MODEL      368
REMARK 921   NORMALIZED FREE ENERGY PREDICTED BY IDOCK:   -1.76 KCAL/MOL
REMARK 922        TOTAL FREE ENERGY PREDICTED BY IDOCK:   -2.21 KCAL/MOL
REMARK 923 INTER-LIGAND FREE ENERGY PREDICTED BY IDOCK:   -2.05 KCAL/MOL
REMARK 924 INTRA-LIGAND FREE ENERGY PREDICTED BY IDOCK:   -0.16 KCAL/MOL
REMARK 927      BINDING AFFINITY PREDICTED BY RF-SCORE:    0.00 PKD
ROOT
HETATM    1  O   UNL     1      -6.869  12.017  68.741  1.00  0.00    -0.082 OA 
HETATM    2  H   UNL     1      -7.659  11.655  69.123  1.00  0.00     0.000 HD 
HETATM    3 SI   UNL     1      -7.160  13.004  67.678  1.00  0.00    -0.074 Si 
HETATM    4  C   UNL     1     -10.347  11.380  66.133  1.00  0.00    -0.248 C  
HETATM    5  O   UNL     1      -8.969  11.358  65.772  1.00  0.00    -0.204 OA 
HETATM    6  O   UNL     1      -5.937  13.563  67.085  1.00  0.00    -0.401 OA 
HETATM    7  H   UNL     1      -6.123  14.197  66.403  1.00  0.00     0.000 HD 
ENDROOT
BRANCH   5   8
HETATM    8 SI   UNL     1      -8.340   9.941  65.110  1.00  0.00    -0.118 Si 
HETATM    9  C   UNL     1      -6.471  10.055  65.085  1.00  0.00    -0.115 C  
HETATM   10  C   UNL     1      -9.003   9.717  63.370  1.00  0.00    -0.246 C  
BRANCH   8  11
HETATM   11  O   UNL     1      -8.824   8.648  66.060  1.00  0.00    -0.156 OA 
HETATM   12 SI   UNL     1      -8.308   7.085  66.409  1.00  0.00    -0.099 Si 
HETATM   13  C   UNL     1      -8.263   6.007  64.862  1.00  0.00    -0.130 C  
HETATM   14  C   UNL     1      -9.428   6.230  67.654  1.00  0.00    -0.115 C  
HETATM   15  C   UNL     1      -6.562   7.113  67.121  1.00  0.00    -0.059 C  
ENDBRANCH   8  11
ENDBRANCH   5   8
TORSDOF 2
ENDMDL
MODEL      369
REMARK 921   NORMALIZED FREE ENERGY PREDICTED BY IDOCK:   -1.74 KCAL/MOL
REMARK 922        TOTAL FREE ENERGY PREDICTED BY IDOCK:   -2.18 KCAL/MOL
REMARK 923 INTER-LIGAND FREE ENERGY PREDICTED BY IDOCK:   -1.97 KCAL/MOL
REMARK 924 INTRA-LIGAND FREE ENERGY PREDICTED BY IDOCK:   -0.21 KCAL/MOL
REMARK 927      BINDING AFFINITY PREDICTED BY RF-SCORE:    0.00 PKD
ROOT
HETATM    1  O   UNL     1      -6.520  13.054  70.716  1.00  0.00    -0.448 OA 
HETATM    2  H   UNL     1      -7.346  12.849  71.140  1.00  0.00     0.000 HD 
HETATM    3 SI   UNL     1      -6.701  13.469  69.307  1.00  0.00    -0.081 Si 
HETATM    4  C   UNL     1      -9.689  11.169  68.325  1.00  0.00    -0.188 C  
HETATM    5  O   UNL     1      -8.279  11.067  68.142  1.00  0.00    -0.114 OA 
HETATM    6  O   UNL     1      -5.425  13.784  68.650  1.00  0.00    -0.078 OA 
HETATM    7  H   UNL     1      -5.541  14.050  67.746  1.00  0.00     0.000 HD 
ENDROOT
BRANCH   5   8
HETATM    8 SI   UNL     1      -7.571   9.540  68.224  1.00  0.00    -0.073 Si 
HETATM    9  C   UNL     1      -6.104   9.607  69.386  1.00  0.00    -0.036 C  
HETATM   10  C   UNL     1      -7.021   9.015  66.509  1.00  0.00    -0.080 C  
BRANCH   8  11
HETATM   11  O   UNL     1      -8.710   8.454  68.798  1.00  0.00    -0.134 OA 
HETATM   12 SI   UNL     1      -9.522   7.083  68.257  1.00  0.00    -0.130 Si 
HETATM   13  C   UNL     1     -10.559   7.450  66.724  1.00  0.00    -0.211 C  
HETATM   14  C   UNL     1     -10.681   6.382  69.561  1.00  0.00    -0.289 C  
HETATM   15  C   UNL     1      -8.292   5.733  67.788  1.00  0.00    -0.104 C  
ENDBRANCH   8  11
ENDBRANCH   5   8
TORSDOF 2
ENDMDL
MODEL      370
REMARK 921   NORMALIZED FREE ENERGY PREDICTED BY IDOCK:   -1.73 KCAL/MOL
REMARK 922        TOTAL FREE ENERGY PREDICTED BY IDOCK:   -2.17 KCAL/MOL
REMARK 923 INTER-LIGAND FREE ENERGY PREDICTED BY IDOCK:   -1.98 KCAL/MOL
REMARK 924 INTRA-LIGAND FREE ENERGY PREDICTED BY IDOCK:   -0.19 KCAL/MOL
REMARK 927      BINDING AFFINITY PREDICTED BY RF-SCORE:    0.00 PKD
ROOT
HETATM    1  O   UNL     1      -6.365  11.847  69.029  1.00  0.00    -0.067 OA 
HETATM    2  H   UNL     1      -6.826  11.510  69.788  1.00  0.00     0.000 HD 
HETATM    3 SI   UNL     1      -7.247  12.641  68.144  1.00  0.00    -0.072 Si 
HETATM    4  C   UNL     1     -10.562  10.636  68.557  1.00  0.00    -0.200 C  
HETATM    5  O   UNL     1      -9.535  10.628  67.570  1.00  0.00    -0.152 OA 
HETATM    6  O   UNL     1      -6.535  13.163  66.969  1.00  0.00    -0.469 OA 
HETATM    7  H   UNL     1      -7.100  13.672  66.401  1.00  0.00     0.000 HD 
ENDROOT
BRANCH   5   8
HETATM    8 SI   UNL     1      -9.134   9.160  66.845  1.00  0.00    -0.120 Si 
HETATM    9  C   UNL     1      -8.933   9.422  65.002  1.00  0.00    -0.211 C  
HETATM   10  C   UNL     1     -10.489   7.907  67.182  1.00  0.00    -0.344 C  
BRANCH   8  11
HETATM   11  O   UNL     1      -7.695   8.614  67.509  1.00  0.00    -0.096 OA 
HETATM   12 SI   UNL     1      -6.982   7.147  67.924  1.00  0.00    -0.057 Si 
HETATM   13  C   UNL     1      -7.997   6.223  69.218  1.00  0.00    -0.109 C  
HETATM   14  C   UNL     1      -5.253   7.373  68.627  1.00  0.00    -0.021 C  
HETATM   15  C   UNL     1      -6.852   6.027  66.412  1.00  0.00    -0.062 C  
ENDBRANCH   8  11
ENDBRANCH   5   8
TORSDOF 2
ENDMDL
MODEL      371
REMARK 921   NORMALIZED FREE ENERGY PREDICTED BY IDOCK:   -1.72 KCAL/MOL
REMARK 922        TOTAL FREE ENERGY PREDICTED BY IDOCK:   -2.16 KCAL/MOL
REMARK 923 INTER-LIGAND FREE ENERGY PREDICTED BY IDOCK:   -1.91 KCAL/MOL
REMARK 924 INTRA-LIGAND FREE ENERGY PREDICTED BY IDOCK:   -0.25 KCAL/MOL
REMARK 927      BINDING AFFINITY PREDICTED BY RF-SCORE:    0.00 PKD
ROOT
HETATM    1  O   UNL     1      -5.943   8.145  65.180  1.00  0.00    -0.044 OA 
HETATM    2  H   UNL     1      -5.666   8.210  66.086  1.00  0.00     0.000 HD 
HETATM    3 SI   UNL     1      -5.779   9.421  64.449  1.00  0.00    -0.059 Si 
HETATM    4  C   UNL     1      -6.639  11.926  67.308  1.00  0.00    -0.141 C  
HETATM    5  O   UNL     1      -7.396  11.376  66.233  1.00  0.00    -0.066 OA 
HETATM    6  O   UNL     1      -6.207   9.321  63.047  1.00  0.00    -0.090 OA 
HETATM    7  H   UNL     1      -6.102  10.140  62.578  1.00  0.00     0.000 HD 
ENDROOT
BRANCH   5   8
HETATM    8 SI   UNL     1      -9.028  11.046  66.491  1.00  0.00    -0.146 Si 
HETATM    9  C   UNL     1      -9.591   9.746  65.267  1.00  0.00    -0.300 C  
HETATM   10  C   UNL     1     -10.025  12.620  66.276  1.00  0.00    -0.258 C  
BRANCH   8  11
HETATM   11  O   UNL     1      -9.215  10.480  68.057  1.00  0.00    -0.138 OA 
HETATM   12 SI   UNL     1      -9.172   9.009  68.874  1.00  0.00    -0.130 Si 
HETATM   13  C   UNL     1     -10.481   7.816  68.224  1.00  0.00    -0.168 C  
HETATM   14  C   UNL     1      -9.467   9.213  70.719  1.00  0.00    -0.272 C  
HETATM   15  C   UNL     1      -7.495   8.178  68.642  1.00  0.00    -0.098 C  
ENDBRANCH   8  11
ENDBRANCH   5   8
TORSDOF 2
ENDMDL
MODEL      372
REMARK 921   NORMALIZED FREE ENERGY PREDICTED BY IDOCK:   -1.72 KCAL/MOL
REMARK 922        TOTAL FREE ENERGY PREDICTED BY IDOCK:   -2.15 KCAL/MOL
REMARK 923 INTER-LIGAND FREE ENERGY PREDICTED BY IDOCK:   -1.95 KCAL/MOL
REMARK 924 INTRA-LIGAND FREE ENERGY PREDICTED BY IDOCK:   -0.20 KCAL/MOL
REMARK 927      BINDING AFFINITY PREDICTED BY RF-SCORE:    0.00 PKD
ROOT
HETATM    1  O   UNL     1     -10.523   8.681  67.173  1.00  0.00    -0.285 OA 
HETATM    2  H   UNL     1      -9.899   8.185  66.656  1.00  0.00     0.000 HD 
HETATM    3 SI   UNL     1      -9.888   9.347  68.332  1.00  0.00    -0.143 Si 
HETATM    4  C   UNL     1      -7.229   6.654  69.259  1.00  0.00    -0.090 C  
HETATM    5  O   UNL     1      -8.528   6.956  69.762  1.00  0.00    -0.131 OA 
HETATM    6  O   UNL     1     -10.853  10.115  69.131  1.00  0.00    -0.207 OA 
HETATM    7  H   UNL     1     -10.446  10.543  69.875  1.00  0.00     0.000 HD 
ENDROOT
BRANCH   5   8
HETATM    8 SI   UNL     1      -9.503   5.680  70.273  1.00  0.00    -0.136 Si 
HETATM    9  C   UNL     1      -9.267   4.227  69.115  1.00  0.00    -0.145 C  
HETATM   10  C   UNL     1     -11.297   6.228  70.275  1.00  0.00    -0.388 C  
BRANCH   8  11
HETATM   11  O   UNL     1      -9.051   5.254  71.829  1.00  0.00    -0.136 OA 
HETATM   12 SI   UNL     1      -8.431   3.912  72.633  1.00  0.00    -0.083 Si 
HETATM   13  C   UNL     1      -9.590   2.428  72.501  1.00  0.00    -0.103 C  
HETATM   14  C   UNL     1      -8.156   4.245  74.463  1.00  0.00    -0.087 C  
HETATM   15  C   UNL     1      -6.780   3.399  71.881  1.00  0.00    -0.019 C  
ENDBRANCH   8  11
ENDBRANCH   5   8
TORSDOF 2
ENDMDL
MODEL      373
REMARK 921   NORMALIZED FREE ENERGY PREDICTED BY IDOCK:   -1.71 KCAL/MOL
REMARK 922        TOTAL FREE ENERGY PREDICTED BY IDOCK:   -2.15 KCAL/MOL
REMARK 923 INTER-LIGAND FREE ENERGY PREDICTED BY IDOCK:   -1.91 KCAL/MOL
REMARK 924 INTRA-LIGAND FREE ENERGY PREDICTED BY IDOCK:   -0.24 KCAL/MOL
REMARK 927      BINDING AFFINITY PREDICTED BY RF-SCORE:    0.00 PKD
ROOT
HETATM    1  O   UNL     1      -5.872   3.103  69.533  1.00  0.00    -0.021 OA 
HETATM    2  H   UNL     1      -5.203   3.766  69.411  1.00  0.00     0.000 HD 
HETATM    3 SI   UNL     1      -7.091   3.383  68.742  1.00  0.00    -0.043 Si 
HETATM    4  C   UNL     1      -7.141   7.272  68.972  1.00  0.00    -0.080 C  
HETATM    5  O   UNL     1      -7.813   6.244  69.695  1.00  0.00    -0.102 OA 
HETATM    6  O   UNL     1      -8.126   2.357  68.931  1.00  0.00    -0.052 OA 
HETATM    7  H   UNL     1      -8.909   2.536  68.424  1.00  0.00     0.000 HD 
ENDROOT
BRANCH   5   8
HETATM    8 SI   UNL     1      -8.105   6.481  71.337  1.00  0.00    -0.098 Si 
HETATM    9  C   UNL     1      -7.195   8.015  71.905  1.00  0.00    -0.080 C  
HETATM   10  C   UNL     1      -7.519   4.981  72.299  1.00  0.00    -0.093 C  
BRANCH   8  11
HETATM   11  O   UNL     1      -9.754   6.675  71.563  1.00  0.00    -0.165 OA 
HETATM   12 SI   UNL     1     -11.071   7.298  70.720  1.00  0.00    -0.229 Si 
HETATM   13  C   UNL     1     -10.848   9.133  70.344  1.00  0.00    -0.242 C  
HETATM   14  C   UNL     1     -12.678   7.115  71.679  1.00  0.00    -0.379 C  
HETATM   15  C   UNL     1     -11.276   6.411  69.069  1.00  0.00    -0.331 C  
ENDBRANCH   8  11
ENDBRANCH   5   8
TORSDOF 2
ENDMDL
MODEL      374
REMARK 921   NORMALIZED FREE ENERGY PREDICTED BY IDOCK:   -1.71 KCAL/MOL
REMARK 922        TOTAL FREE ENERGY PREDICTED BY IDOCK:   -2.14 KCAL/MOL
REMARK 923 INTER-LIGAND FREE ENERGY PREDICTED BY IDOCK:   -1.98 KCAL/MOL
REMARK 924 INTRA-LIGAND FREE ENERGY PREDICTED BY IDOCK:   -0.16 KCAL/MOL
REMARK 927      BINDING AFFINITY PREDICTED BY RF-SCORE:    0.00 PKD
ROOT
HETATM    1  O   UNL     1      -7.352   1.709  67.624  1.00  0.00    -0.052 OA 
HETATM    2  H   UNL     1      -6.566   2.173  67.360  1.00  0.00     0.000 HD 
HETATM    3 SI   UNL     1      -8.555   2.190  66.909  1.00  0.00    -0.076 Si 
HETATM    4  C   UNL     1      -7.681   5.976  66.630  1.00  0.00    -0.103 C  
HETATM    5  O   UNL     1      -8.486   5.226  67.535  1.00  0.00    -0.107 OA 
HETATM    6  O   UNL     1      -9.771   1.472  67.319  1.00  0.00    -0.379 OA 
HETATM    7  H   UNL     1     -10.543   1.781  66.860  1.00  0.00     0.000 HD 
ENDROOT
BRANCH   5   8
HETATM    8 SI   UNL     1      -8.527   5.702  69.151  1.00  0.00    -0.094 Si 
HETATM    9  C   UNL     1      -7.168   4.816  70.085  1.00  0.00    -0.050 C  
HETATM   10  C   UNL     1     -10.202   5.283  69.883  1.00  0.00    -0.294 C  
BRANCH   8  11
HETATM   11  O   UNL     1      -8.288   7.359  69.224  1.00  0.00    -0.129 OA 
HETATM   12 SI   UNL     1      -8.959   8.691  70.004  1.00  0.00    -0.123 Si 
HETATM   13  C   UNL     1     -10.778   8.914  69.553  1.00  0.00    -0.199 C  
HETATM   14  C   UNL     1      -8.074  10.291  69.565  1.00  0.00    -0.162 C  
HETATM   15  C   UNL     1      -8.871   8.472  71.874  1.00  0.00    -0.216 C  
ENDBRANCH   8  11
ENDBRANCH   5   8
TORSDOF 2
ENDMDL
MODEL      375
REMARK 921   NORMALIZED FREE ENERGY PREDICTED BY IDOCK:   -1.70 KCAL/MOL
REMARK 922        TOTAL FREE ENERGY PREDICTED BY IDOCK:   -2.14 KCAL/MOL
REMARK 923 INTER-LIGAND FREE ENERGY PREDICTED BY IDOCK:   -1.92 KCAL/MOL
REMARK 924 INTRA-LIGAND FREE ENERGY PREDICTED BY IDOCK:   -0.22 KCAL/MOL
REMARK 927      BINDING AFFINITY PREDICTED BY RF-SCORE:    0.00 PKD
ROOT
HETATM    1  O   UNL     1      -5.653   5.765  69.880  1.00  0.00    -0.008 OA 
HETATM    2  H   UNL     1      -5.337   5.059  70.432  1.00  0.00     0.000 HD 
HETATM    3 SI   UNL     1      -5.655   7.068  70.581  1.00  0.00    -0.020 Si 
HETATM    4  C   UNL     1      -6.605   5.880  74.168  1.00  0.00    -0.075 C  
HETATM    5  O   UNL     1      -7.360   6.427  73.091  1.00  0.00    -0.086 OA 
HETATM    6  O   UNL     1      -6.145   8.160  69.728  1.00  0.00    -0.029 OA 
HETATM    7  H   UNL     1      -6.147   8.996  70.177  1.00  0.00     0.000 HD 
ENDROOT
BRANCH   5   8
HETATM    8 SI   UNL     1      -8.936   5.877  72.858  1.00  0.00    -0.122 Si 
HETATM    9  C   UNL     1     -10.079   6.776  74.038  1.00  0.00    -0.359 C  
HETATM   10  C   UNL     1      -9.003   4.028  73.165  1.00  0.00    -0.107 C  
BRANCH   8  11
HETATM   11  O   UNL     1      -9.381   6.193  71.273  1.00  0.00    -0.158 OA 
HETATM   12 SI   UNL     1     -10.310   7.315  70.431  1.00  0.00    -0.192 Si 
HETATM   13  C   UNL     1     -12.111   7.288  70.993  1.00  0.00    -0.324 C  
HETATM   14  C   UNL     1     -10.297   6.998  68.578  1.00  0.00    -0.186 C  
HETATM   15  C   UNL     1      -9.660   9.061  70.726  1.00  0.00    -0.249 C  
ENDBRANCH   8  11
ENDBRANCH   5   8
TORSDOF 2
ENDMDL
MODEL      376
REMARK 921   NORMALIZED FREE ENERGY PREDICTED BY IDOCK:   -1.68 KCAL/MOL
REMARK 922        TOTAL FREE ENERGY PREDICTED BY IDOCK:   -2.11 KCAL/MOL
REMARK 923 INTER-LIGAND FREE ENERGY PREDICTED BY IDOCK:   -1.94 KCAL/MOL
REMARK 924 INTRA-LIGAND FREE ENERGY PREDICTED BY IDOCK:   -0.18 KCAL/MOL
REMARK 927      BINDING AFFINITY PREDICTED BY RF-SCORE:    0.00 PKD
ROOT
HETATM    1  O   UNL     1      -9.521   5.316  73.990  1.00  0.00    -0.131 OA 
HETATM    2  H   UNL     1      -8.580   5.250  73.876  1.00  0.00     0.000 HD 
HETATM    3 SI   UNL     1     -10.253   4.285  73.221  1.00  0.00    -0.127 Si 
HETATM    4  C   UNL     1      -7.971   4.077  70.069  1.00  0.00    -0.051 C  
HETATM    5  O   UNL     1      -9.185   4.768  70.350  1.00  0.00    -0.121 OA 
HETATM    6  O   UNL     1     -11.708   4.387  73.395  1.00  0.00    -0.243 OA 
HETATM    7  H   UNL     1     -12.178   3.726  72.902  1.00  0.00     0.000 HD 
ENDROOT
BRANCH   5   8
HETATM    8 SI   UNL     1      -9.414   6.292  69.666  1.00  0.00    -0.136 Si 
HETATM    9  C   UNL     1      -9.131   7.599  70.976  1.00  0.00    -0.147 C  
HETATM   10  C   UNL     1     -11.158   6.415  68.986  1.00  0.00    -0.358 C  
BRANCH   8  11
HETATM   11  O   UNL     1      -8.315   6.484  68.415  1.00  0.00    -0.116 OA 
HETATM   12 SI   UNL     1      -8.340   6.744  66.753  1.00  0.00    -0.102 Si 
HETATM   13  C   UNL     1      -9.218   5.343  65.844  1.00  0.00    -0.156 C  
HETATM   14  C   UNL     1      -6.609   6.882  66.030  1.00  0.00    -0.052 C  
HETATM   15  C   UNL     1      -9.265   8.337  66.349  1.00  0.00    -0.195 C  
ENDBRANCH   8  11
ENDBRANCH   5   8
TORSDOF 2
ENDMDL
MODEL      377
REMARK 921   NORMALIZED FREE ENERGY PREDICTED BY IDOCK:   -1.68 KCAL/MOL
REMARK 922        TOTAL FREE ENERGY PREDICTED BY IDOCK:   -2.11 KCAL/MOL
REMARK 923 INTER-LIGAND FREE ENERGY PREDICTED BY IDOCK:   -1.95 KCAL/MOL
REMARK 924 INTRA-LIGAND FREE ENERGY PREDICTED BY IDOCK:   -0.16 KCAL/MOL
REMARK 927      BINDING AFFINITY PREDICTED BY RF-SCORE:    0.00 PKD
ROOT
HETATM    1  O   UNL     1      -9.720  15.025  69.749  1.00  0.00    -0.430 OA 
HETATM    2  H   UNL     1      -9.933  14.506  70.515  1.00  0.00     0.000 HD 
HETATM    3 SI   UNL     1     -10.492  14.609  68.556  1.00  0.00    -0.207 Si 
HETATM    4  C   UNL     1     -10.660  10.769  69.192  1.00  0.00    -0.222 C  
HETATM    5  O   UNL     1      -9.813  11.588  68.391  1.00  0.00    -0.193 OA 
HETATM    6  O   UNL     1     -10.162  15.413  67.370  1.00  0.00    -0.243 OA 
HETATM    7  H   UNL     1     -10.658  15.146  66.606  1.00  0.00     0.000 HD 
ENDROOT
BRANCH   5   8
HETATM    8 SI   UNL     1      -8.194  11.148  68.231  1.00  0.00    -0.098 Si 
HETATM    9  C   UNL     1      -7.149  12.256  69.321  1.00  0.00     0.061 C  
HETATM   10  C   UNL     1      -7.675  11.320  66.437  1.00  0.00    -0.089 C  
BRANCH   8  11
HETATM   11  O   UNL     1      -8.027   9.550  68.707  1.00  0.00    -0.086 OA 
HETATM   12 SI   UNL     1      -7.985   8.026  67.994  1.00  0.00    -0.104 Si 
HETATM   13  C   UNL     1      -9.588   7.646  67.075  1.00  0.00    -0.175 C  
HETATM   14  C   UNL     1      -7.727   6.658  69.258  1.00  0.00    -0.102 C  
HETATM   15  C   UNL     1      -6.583   7.927  66.737  1.00  0.00    -0.059 C  
ENDBRANCH   8  11
ENDBRANCH   5   8
TORSDOF 2
ENDMDL
MODEL      378
REMARK 921   NORMALIZED FREE ENERGY PREDICTED BY IDOCK:   -1.65 KCAL/MOL
REMARK 922        TOTAL FREE ENERGY PREDICTED BY IDOCK:   -2.08 KCAL/MOL
REMARK 923 INTER-LIGAND FREE ENERGY PREDICTED BY IDOCK:   -1.90 KCAL/MOL
REMARK 924 INTRA-LIGAND FREE ENERGY PREDICTED BY IDOCK:   -0.19 KCAL/MOL
REMARK 927      BINDING AFFINITY PREDICTED BY RF-SCORE:    0.00 PKD
ROOT
HETATM    1  O   UNL     1     -10.142   5.770  73.949  1.00  0.00    -0.190 OA 
HETATM    2  H   UNL     1      -9.422   5.252  74.291  1.00  0.00     0.000 HD 
HETATM    3 SI   UNL     1     -11.082   4.960  73.142  1.00  0.00    -0.180 Si 
HETATM    4  C   UNL     1      -8.562   2.496  71.480  1.00  0.00    -0.064 C  
HETATM    5  O   UNL     1      -9.181   3.702  71.040  1.00  0.00    -0.102 OA 
HETATM    6  O   UNL     1     -12.195   5.760  72.611  1.00  0.00    -0.523 OA 
HETATM    7  H   UNL     1     -12.798   5.240  72.094  1.00  0.00     0.000 HD 
ENDROOT
BRANCH   5   8
HETATM    8 SI   UNL     1      -8.295   4.741  70.051  1.00  0.00    -0.064 Si 
HETATM    9  C   UNL     1      -8.085   3.952  68.366  1.00  0.00    -0.075 C  
HETATM   10  C   UNL     1      -6.622   5.069  70.831  1.00  0.00    -0.035 C  
BRANCH   8  11
HETATM   11  O   UNL     1      -9.134   6.184  69.909  1.00  0.00    -0.141 OA 
HETATM   12 SI   UNL     1      -8.859   7.746  69.345  1.00  0.00    -0.127 Si 
HETATM   13  C   UNL     1      -7.456   8.586  70.285  1.00  0.00    -0.064 C  
HETATM   14  C   UNL     1     -10.379   8.839  69.513  1.00  0.00    -0.213 C  
HETATM   15  C   UNL     1      -8.368   7.710  67.524  1.00  0.00    -0.120 C  
ENDBRANCH   8  11
ENDBRANCH   5   8
TORSDOF 2
ENDMDL
MODEL      379
REMARK 921   NORMALIZED FREE ENERGY PREDICTED BY IDOCK:   -1.64 KCAL/MOL
REMARK 922        TOTAL FREE ENERGY PREDICTED BY IDOCK:   -2.07 KCAL/MOL
REMARK 923 INTER-LIGAND FREE ENERGY PREDICTED BY IDOCK:   -1.83 KCAL/MOL
REMARK 924 INTRA-LIGAND FREE ENERGY PREDICTED BY IDOCK:   -0.24 KCAL/MOL
REMARK 927      BINDING AFFINITY PREDICTED BY RF-SCORE:    0.00 PKD
ROOT
HETATM    1  O   UNL     1      -5.638   6.419  67.106  1.00  0.00    -0.011 OA 
HETATM    2  H   UNL     1      -4.998   6.927  66.620  1.00  0.00     0.000 HD 
HETATM    3 SI   UNL     1      -6.968   6.424  66.458  1.00  0.00    -0.051 Si 
HETATM    4  C   UNL     1      -6.990  10.051  65.036  1.00  0.00    -0.135 C  
HETATM    5  O   UNL     1      -7.535   9.463  66.213  1.00  0.00    -0.095 OA 
HETATM    6  O   UNL     1      -7.958   5.640  67.211  1.00  0.00    -0.101 OA 
HETATM    7  H   UNL     1      -8.812   5.643  66.796  1.00  0.00     0.000 HD 
ENDROOT
BRANCH   5   8
HETATM    8 SI   UNL     1      -7.561  10.380  67.627  1.00  0.00    -0.083 Si 
HETATM    9  C   UNL     1      -6.243  11.705  67.521  1.00  0.00    -0.083 C  
HETATM   10  C   UNL     1      -7.246   9.264  69.101  1.00  0.00    -0.067 C  
BRANCH   8  11
HETATM   11  O   UNL     1      -9.074  11.085  67.777  1.00  0.00    -0.143 OA 
HETATM   12 SI   UNL     1     -10.066  12.125  66.903  1.00  0.00    -0.195 Si 
HETATM   13  C   UNL     1      -9.247  13.804  66.634  1.00  0.00    -0.223 C  
HETATM   14  C   UNL     1     -11.707  12.435  67.767  1.00  0.00    -0.350 C  
HETATM   15  C   UNL     1     -10.434  11.406  65.199  1.00  0.00    -0.295 C  
ENDBRANCH   8  11
ENDBRANCH   5   8
TORSDOF 2
ENDMDL
MODEL      380
REMARK 921   NORMALIZED FREE ENERGY PREDICTED BY IDOCK:   -1.63 KCAL/MOL
REMARK 922        TOTAL FREE ENERGY PREDICTED BY IDOCK:   -2.05 KCAL/MOL
REMARK 923 INTER-LIGAND FREE ENERGY PREDICTED BY IDOCK:   -1.94 KCAL/MOL
REMARK 924 INTRA-LIGAND FREE ENERGY PREDICTED BY IDOCK:   -0.11 KCAL/MOL
REMARK 927      BINDING AFFINITY PREDICTED BY RF-SCORE:    0.00 PKD
ROOT
HETATM    1  O   UNL     1      -7.335   3.079  67.479  1.00  0.00    -0.053 OA 
HETATM    2  H   UNL     1      -6.519   3.369  67.090  1.00  0.00     0.000 HD 
HETATM    3 SI   UNL     1      -8.407   2.907  66.473  1.00  0.00    -0.081 Si 
HETATM    4  C   UNL     1      -7.513   5.829  64.057  1.00  0.00    -0.069 C  
HETATM    5  O   UNL     1      -8.452   5.696  65.120  1.00  0.00    -0.143 OA 
HETATM    6  O   UNL     1      -9.671   2.460  67.076  1.00  0.00    -0.391 OA 
HETATM    7  H   UNL     1     -10.359   2.349  66.431  1.00  0.00     0.000 HD 
ENDROOT
BRANCH   5   8
HETATM    8 SI   UNL     1      -8.759   7.041  66.089  1.00  0.00    -0.107 Si 
HETATM    9  C   UNL     1      -7.349   7.257  67.301  1.00  0.00    -0.098 C  
HETATM   10  C   UNL     1     -10.376   6.794  67.006  1.00  0.00    -0.268 C  
BRANCH   8  11
HETATM   11  O   UNL     1      -8.881   8.391  65.102  1.00  0.00    -0.143 OA 
HETATM   12 SI   UNL     1      -8.541  10.037  65.180  1.00  0.00    -0.125 Si 
HETATM   13  C   UNL     1      -9.515  10.883  66.557  1.00  0.00    -0.185 C  
HETATM   14  C   UNL     1      -8.955  10.924  63.575  1.00  0.00    -0.150 C  
HETATM   15  C   UNL     1      -6.711  10.314  65.541  1.00  0.00    -0.128 C  
ENDBRANCH   8  11
ENDBRANCH   5   8
TORSDOF 2
ENDMDL
MODEL      381
REMARK 921   NORMALIZED FREE ENERGY PREDICTED BY IDOCK:   -1.62 KCAL/MOL
REMARK 922        TOTAL FREE ENERGY PREDICTED BY IDOCK:   -2.05 KCAL/MOL
REMARK 923 INTER-LIGAND FREE ENERGY PREDICTED BY IDOCK:   -1.88 KCAL/MOL
REMARK 924 INTRA-LIGAND FREE ENERGY PREDICTED BY IDOCK:   -0.17 KCAL/MOL
REMARK 927      BINDING AFFINITY PREDICTED BY RF-SCORE:    0.00 PKD
ROOT
HETATM    1  O   UNL     1      -6.990   5.198  71.231  1.00  0.00    -0.049 OA 
HETATM    2  H   UNL     1      -6.464   4.693  70.622  1.00  0.00     0.000 HD 
HETATM    3 SI   UNL     1      -8.368   4.671  71.353  1.00  0.00    -0.085 Si 
HETATM    4  C   UNL     1      -8.950   3.501  67.683  1.00  0.00    -0.141 C  
HETATM    5  O   UNL     1      -9.308   4.680  68.398  1.00  0.00    -0.122 OA 
HETATM    6  O   UNL     1      -9.183   5.453  72.294  1.00  0.00    -0.142 OA 
HETATM    7  H   UNL     1     -10.066   5.115  72.372  1.00  0.00     0.000 HD 
ENDROOT
BRANCH   5   8
HETATM    8 SI   UNL     1      -9.307   6.149  67.572  1.00  0.00    -0.119 Si 
HETATM    9  C   UNL     1     -11.057   6.557  67.047  1.00  0.00    -0.339 C  
HETATM   10  C   UNL     1      -8.189   6.020  66.071  1.00  0.00    -0.125 C  
BRANCH   8  11
HETATM   11  O   UNL     1      -8.722   7.337  68.599  1.00  0.00    -0.128 OA 
HETATM   12 SI   UNL     1      -8.872   9.000  68.807  1.00  0.00    -0.122 Si 
HETATM   13  C   UNL     1      -8.286   9.947  67.284  1.00  0.00    -0.121 C  
HETATM   14  C   UNL     1      -7.873   9.625  70.272  1.00  0.00    -0.178 C  
HETATM   15  C   UNL     1     -10.677   9.467  69.094  1.00  0.00    -0.210 C  
ENDBRANCH   8  11
ENDBRANCH   5   8
TORSDOF 2
ENDMDL
MODEL      382
REMARK 921   NORMALIZED FREE ENERGY PREDICTED BY IDOCK:   -1.62 KCAL/MOL
REMARK 922        TOTAL FREE ENERGY PREDICTED BY IDOCK:   -2.05 KCAL/MOL
REMARK 923 INTER-LIGAND FREE ENERGY PREDICTED BY IDOCK:   -1.81 KCAL/MOL
REMARK 924 INTRA-LIGAND FREE ENERGY PREDICTED BY IDOCK:   -0.24 KCAL/MOL
REMARK 927      BINDING AFFINITY PREDICTED BY RF-SCORE:    0.00 PKD
ROOT
HETATM    1  O   UNL     1      -6.753   4.719  73.615  1.00  0.00    -0.063 OA 
HETATM    2  H   UNL     1      -6.122   4.267  73.067  1.00  0.00     0.000 HD 
HETATM    3 SI   UNL     1      -8.149   4.386  73.254  1.00  0.00    -0.082 Si 
HETATM    4  C   UNL     1      -7.760   4.033  69.393  1.00  0.00    -0.053 C  
HETATM    5  O   UNL     1      -8.203   5.094  70.235  1.00  0.00    -0.087 OA 
HETATM    6  O   UNL     1      -9.127   5.086  74.100  1.00  0.00    -0.112 OA 
HETATM    7  H   UNL     1     -10.022   4.872  73.868  1.00  0.00     0.000 HD 
ENDROOT
BRANCH   5   8
HETATM    8 SI   UNL     1      -7.836   6.677  69.787  1.00  0.00    -0.091 Si 
HETATM    9  C   UNL     1      -7.433   6.717  67.959  1.00  0.00    -0.099 C  
HETATM   10  C   UNL     1      -6.375   7.288  70.791  1.00  0.00    -0.039 C  
BRANCH   8  11
HETATM   11  O   UNL     1      -9.170   7.642  70.103  1.00  0.00    -0.153 OA 
HETATM   12 SI   UNL     1     -10.304   7.852  71.328  1.00  0.00    -0.185 Si 
HETATM   13  C   UNL     1     -11.300   6.277  71.629  1.00  0.00    -0.294 C  
HETATM   14  C   UNL     1     -11.530   9.221  70.932  1.00  0.00    -0.303 C  
HETATM   15  C   UNL     1      -9.448   8.289  72.950  1.00  0.00    -0.250 C  
ENDBRANCH   8  11
ENDBRANCH   5   8
TORSDOF 2
ENDMDL
MODEL      383
REMARK 921   NORMALIZED FREE ENERGY PREDICTED BY IDOCK:   -1.57 KCAL/MOL
REMARK 922        TOTAL FREE ENERGY PREDICTED BY IDOCK:   -1.99 KCAL/MOL
REMARK 923 INTER-LIGAND FREE ENERGY PREDICTED BY IDOCK:   -1.83 KCAL/MOL
REMARK 924 INTRA-LIGAND FREE ENERGY PREDICTED BY IDOCK:   -0.16 KCAL/MOL
REMARK 927      BINDING AFFINITY PREDICTED BY RF-SCORE:    0.00 PKD
ROOT
HETATM    1  O   UNL     1     -11.278  10.396  66.554  1.00  0.00     0.022 OA 
HETATM    2  H   UNL     1     -10.587  10.109  65.969  1.00  0.00     0.000 HD 
HETATM    3 SI   UNL     1     -10.749  10.928  67.830  1.00  0.00    -0.166 Si 
HETATM    4  C   UNL     1      -7.688   8.565  68.304  1.00  0.00    -0.102 C  
HETATM    5  O   UNL     1      -9.014   8.559  68.825  1.00  0.00    -0.139 OA 
HETATM    6  O   UNL     1     -11.818  11.372  68.735  1.00  0.00    -0.310 OA 
HETATM    7  H   UNL     1     -11.479  11.713  69.553  1.00  0.00     0.000 HD 
ENDROOT
BRANCH   5   8
HETATM    8 SI   UNL     1      -9.769   7.072  69.070  1.00  0.00    -0.142 Si 
HETATM    9  C   UNL     1     -10.884   6.704  67.612  1.00  0.00    -0.315 C  
HETATM   10  C   UNL     1     -10.768   7.134  70.656  1.00  0.00    -0.235 C  
BRANCH   8  11
HETATM   11  O   UNL     1      -8.588   5.891  69.204  1.00  0.00    -0.114 OA 
HETATM   12 SI   UNL     1      -8.242   4.568  70.185  1.00  0.00    -0.061 Si 
HETATM   13  C   UNL     1      -8.014   5.081  71.986  1.00  0.00    -0.111 C  
HETATM   14  C   UNL     1      -6.671   3.682  69.653  1.00  0.00    -0.034 C  
HETATM   15  C   UNL     1      -9.656   3.322  70.134  1.00  0.00    -0.121 C  
ENDBRANCH   8  11
ENDBRANCH   5   8
TORSDOF 2
ENDMDL
MODEL      384
REMARK 921   NORMALIZED FREE ENERGY PREDICTED BY IDOCK:   -1.54 KCAL/MOL
REMARK 922        TOTAL FREE ENERGY PREDICTED BY IDOCK:   -1.96 KCAL/MOL
REMARK 923 INTER-LIGAND FREE ENERGY PREDICTED BY IDOCK:   -1.79 KCAL/MOL
REMARK 924 INTRA-LIGAND FREE ENERGY PREDICTED BY IDOCK:   -0.17 KCAL/MOL
REMARK 927      BINDING AFFINITY PREDICTED BY RF-SCORE:    0.00 PKD
ROOT
HETATM    1  O   UNL     1      -8.999  11.127  65.402  1.00  0.00    -0.233 OA 
HETATM    2  H   UNL     1      -8.452  11.362  66.142  1.00  0.00     0.000 HD 
HETATM    3 SI   UNL     1      -8.834  12.058  64.263  1.00  0.00    -0.394 Si 
HETATM    4  C   UNL     1      -8.309  15.389  66.215  1.00  0.00     0.108 C  
HETATM    5  O   UNL     1      -9.444  14.791  65.596  1.00  0.00    -0.266 OA 
HETATM    6  O   UNL     1      -9.679  11.694  63.118  1.00  0.00    -0.385 OA 
HETATM    7  H   UNL     1      -9.574  12.291  62.387  1.00  0.00     0.000 HD 
ENDROOT
BRANCH   5   8
HETATM    8 SI   UNL     1     -10.952  15.000  66.319  1.00  0.00    -0.292 Si 
HETATM    9  C   UNL     1     -12.244  15.232  64.984  1.00  0.00     0.129 C  
HETATM   10  C   UNL     1     -10.901  16.498  67.447  1.00  0.00    -0.202 C  
BRANCH   8  11
HETATM   11  O   UNL     1     -11.301  13.634  67.226  1.00  0.00    -0.298 OA 
HETATM   12 SI   UNL     1     -11.104  13.093  68.807  1.00  0.00    -0.205 Si 
HETATM   13  C   UNL     1      -9.282  13.021  69.293  1.00  0.00     0.931 C  
HETATM   14  C   UNL     1     -11.820  11.374  69.063  1.00  0.00    -0.348 C  
HETATM   15  C   UNL     1     -11.957  14.263  70.014  1.00  0.00    -0.334 C  
ENDBRANCH   8  11
ENDBRANCH   5   8
TORSDOF 2
ENDMDL
MODEL      385
REMARK 921   NORMALIZED FREE ENERGY PREDICTED BY IDOCK:   -1.54 KCAL/MOL
REMARK 922        TOTAL FREE ENERGY PREDICTED BY IDOCK:   -1.96 KCAL/MOL
REMARK 923 INTER-LIGAND FREE ENERGY PREDICTED BY IDOCK:   -1.75 KCAL/MOL
REMARK 924 INTRA-LIGAND FREE ENERGY PREDICTED BY IDOCK:   -0.21 KCAL/MOL
REMARK 927      BINDING AFFINITY PREDICTED BY RF-SCORE:    0.00 PKD
ROOT
HETATM    1  O   UNL     1      -7.735   2.922  71.180  1.00  0.00    -0.043 OA 
HETATM    2  H   UNL     1      -7.140   2.857  70.443  1.00  0.00     0.000 HD 
HETATM    3 SI   UNL     1      -9.056   2.320  70.890  1.00  0.00    -0.063 Si 
HETATM    4  C   UNL     1      -9.389   3.257  67.123  1.00  0.00    -0.181 C  
HETATM    5  O   UNL     1      -9.889   3.843  68.321  1.00  0.00    -0.096 OA 
HETATM    6  O   UNL     1      -9.978   2.421  72.030  1.00  0.00    -0.155 OA 
HETATM    7  H   UNL     1     -10.825   2.035  71.844  1.00  0.00     0.000 HD 
ENDROOT
BRANCH   5   8
HETATM    8 SI   UNL     1     -10.008   5.522  68.400  1.00  0.00    -0.116 Si 
HETATM    9  C   UNL     1     -11.149   5.990  69.809  1.00  0.00    -0.406 C  
HETATM   10  C   UNL     1     -10.676   6.178  66.775  1.00  0.00    -0.299 C  
BRANCH   8  11
HETATM   11  O   UNL     1      -8.478   6.153  68.666  1.00  0.00    -0.113 OA 
HETATM   12 SI   UNL     1      -7.420   7.233  67.928  1.00  0.00    -0.078 Si 
HETATM   13  C   UNL     1      -6.948   6.666  66.192  1.00  0.00    -0.062 C  
HETATM   14  C   UNL     1      -5.825   7.442  68.901  1.00  0.00    -0.023 C  
HETATM   15  C   UNL     1      -8.225   8.931  67.760  1.00  0.00    -0.110 C  
ENDBRANCH   8  11
ENDBRANCH   5   8
TORSDOF 2
ENDMDL
MODEL      386
REMARK 921   NORMALIZED FREE ENERGY PREDICTED BY IDOCK:   -1.48 KCAL/MOL
REMARK 922        TOTAL FREE ENERGY PREDICTED BY IDOCK:   -1.89 KCAL/MOL
REMARK 923 INTER-LIGAND FREE ENERGY PREDICTED BY IDOCK:   -1.70 KCAL/MOL
REMARK 924 INTRA-LIGAND FREE ENERGY PREDICTED BY IDOCK:   -0.19 KCAL/MOL
REMARK 927      BINDING AFFINITY PREDICTED BY RF-SCORE:    0.00 PKD
ROOT
HETATM    1  O   UNL     1      -7.157   3.582  69.159  1.00  0.00    -0.048 OA 
HETATM    2  H   UNL     1      -7.106   4.155  68.403  1.00  0.00     0.000 HD 
HETATM    3 SI   UNL     1      -8.481   2.931  69.282  1.00  0.00    -0.055 Si 
HETATM    4  C   UNL     1     -10.752   5.819  67.988  1.00  0.00    -0.209 C  
HETATM    5  O   UNL     1     -10.384   5.379  69.292  1.00  0.00    -0.235 OA 
HETATM    6  O   UNL     1      -8.560   2.045  70.452  1.00  0.00    -0.048 OA 
HETATM    7  H   UNL     1      -9.409   1.628  70.531  1.00  0.00     0.000 HD 
ENDROOT
BRANCH   5   8
HETATM    8 SI   UNL     1     -10.179   6.537  70.499  1.00  0.00    -0.175 Si 
HETATM    9  C   UNL     1     -11.288   6.115  71.947  1.00  0.00    -0.296 C  
HETATM   10  C   UNL     1     -10.609   8.231  69.819  1.00  0.00    -0.228 C  
BRANCH   8  11
HETATM   11  O   UNL     1      -8.574   6.524  70.981  1.00  0.00    -0.132 OA 
HETATM   12 SI   UNL     1      -7.145   7.331  70.609  1.00  0.00    -0.054 Si 
HETATM   13  C   UNL     1      -6.664   7.092  68.800  1.00  0.00    -0.067 C  
HETATM   14  C   UNL     1      -5.700   6.737  71.655  1.00  0.00    -0.036 C  
HETATM   15  C   UNL     1      -7.344   9.185  70.893  1.00  0.00    -0.116 C  
ENDBRANCH   8  11
ENDBRANCH   5   8
TORSDOF 2
ENDMDL
MODEL      387
REMARK 921   NORMALIZED FREE ENERGY PREDICTED BY IDOCK:   -1.47 KCAL/MOL
REMARK 922        TOTAL FREE ENERGY PREDICTED BY IDOCK:   -1.88 KCAL/MOL
REMARK 923 INTER-LIGAND FREE ENERGY PREDICTED BY IDOCK:   -1.66 KCAL/MOL
REMARK 924 INTRA-LIGAND FREE ENERGY PREDICTED BY IDOCK:   -0.22 KCAL/MOL
REMARK 927      BINDING AFFINITY PREDICTED BY RF-SCORE:    0.00 PKD
ROOT
HETATM    1  O   UNL     1      -8.267   7.091  71.904  1.00  0.00    -0.103 OA 
HETATM    2  H   UNL     1      -7.534   6.522  71.703  1.00  0.00     0.000 HD 
HETATM    3 SI   UNL     1      -9.561   6.374  71.866  1.00  0.00    -0.150 Si 
HETATM    4  C   UNL     1      -8.851   3.897  68.944  1.00  0.00    -0.107 C  
HETATM    5  O   UNL     1      -9.518   5.153  69.016  1.00  0.00    -0.117 OA 
HETATM    6  O   UNL     1     -10.697   7.255  72.175  1.00  0.00    -0.210 OA 
HETATM    7  H   UNL     1     -11.527   6.795  72.151  1.00  0.00     0.000 HD 
ENDROOT
BRANCH   5   8
HETATM    8 SI   UNL     1      -9.385   6.205  67.706  1.00  0.00    -0.117 Si 
HETATM    9  C   UNL     1     -11.087   6.504  66.985  1.00  0.00    -0.339 C  
HETATM   10  C   UNL     1      -8.252   5.454  66.414  1.00  0.00    -0.109 C  
BRANCH   8  11
HETATM   11  O   UNL     1      -8.729   7.649  68.247  1.00  0.00    -0.124 OA 
HETATM   12 SI   UNL     1      -7.369   8.596  67.957  1.00  0.00    -0.076 Si 
HETATM   13  C   UNL     1      -5.776   7.661  68.342  1.00  0.00    -0.028 C  
HETATM   14  C   UNL     1      -7.361  10.164  68.994  1.00  0.00    -0.087 C  
HETATM   15  C   UNL     1      -7.294   9.101  66.141  1.00  0.00    -0.095 C  
ENDBRANCH   8  11
ENDBRANCH   5   8
TORSDOF 2
ENDMDL
MODEL      388
REMARK 921   NORMALIZED FREE ENERGY PREDICTED BY IDOCK:   -1.41 KCAL/MOL
REMARK 922        TOTAL FREE ENERGY PREDICTED BY IDOCK:   -1.81 KCAL/MOL
REMARK 923 INTER-LIGAND FREE ENERGY PREDICTED BY IDOCK:   -1.55 KCAL/MOL
REMARK 924 INTRA-LIGAND FREE ENERGY PREDICTED BY IDOCK:   -0.26 KCAL/MOL
REMARK 927      BINDING AFFINITY PREDICTED BY RF-SCORE:    0.00 PKD
ROOT
HETATM    1  O   UNL     1      -6.705   4.740  73.626  1.00  0.00    -0.063 OA 
HETATM    2  H   UNL     1      -6.022   4.252  73.181  1.00  0.00     0.000 HD 
HETATM    3 SI   UNL     1      -8.049   4.449  73.078  1.00  0.00    -0.081 Si 
HETATM    4  C   UNL     1      -7.139   3.988  69.318  1.00  0.00    -0.047 C  
HETATM    5  O   UNL     1      -7.652   5.084  70.070  1.00  0.00    -0.058 OA 
HETATM    6  O   UNL     1      -9.107   5.204  73.765  1.00  0.00    -0.123 OA 
HETATM    7  H   UNL     1      -9.969   5.017  73.414  1.00  0.00     0.000 HD 
ENDROOT
BRANCH   5   8
HETATM    8 SI   UNL     1      -7.165   6.642  69.647  1.00  0.00    -0.058 Si 
HETATM    9  C   UNL     1      -5.525   6.547  68.748  1.00  0.00    -0.016 C  
HETATM   10  C   UNL     1      -7.001   7.686  71.196  1.00  0.00    -0.050 C  
BRANCH   8  11
HETATM   11  O   UNL     1      -8.331   7.311  68.647  1.00  0.00    -0.124 OA 
HETATM   12 SI   UNL     1      -9.712   6.816  67.823  1.00  0.00    -0.126 Si 
HETATM   13  C   UNL     1      -9.322   5.467  66.563  1.00  0.00    -0.147 C  
HETATM   14  C   UNL     1     -10.529   8.231  66.893  1.00  0.00    -0.295 C  
HETATM   15  C   UNL     1     -10.977   6.106  69.027  1.00  0.00    -0.367 C  
ENDBRANCH   8  11
ENDBRANCH   5   8
TORSDOF 2
ENDMDL
MODEL      389
REMARK 921   NORMALIZED FREE ENERGY PREDICTED BY IDOCK:   -1.38 KCAL/MOL
REMARK 922        TOTAL FREE ENERGY PREDICTED BY IDOCK:   -1.78 KCAL/MOL
REMARK 923 INTER-LIGAND FREE ENERGY PREDICTED BY IDOCK:   -1.60 KCAL/MOL
REMARK 924 INTRA-LIGAND FREE ENERGY PREDICTED BY IDOCK:   -0.18 KCAL/MOL
REMARK 927      BINDING AFFINITY PREDICTED BY RF-SCORE:    0.00 PKD
ROOT
HETATM    1  O   UNL     1      -6.431   8.414  68.259  1.00  0.00    -0.057 OA 
HETATM    2  H   UNL     1      -5.851   7.780  68.666  1.00  0.00     0.000 HD 
HETATM    3 SI   UNL     1      -7.234   9.159  69.253  1.00  0.00    -0.055 Si 
HETATM    4  C   UNL     1      -7.818   6.335  71.873  1.00  0.00    -0.101 C  
HETATM    5  O   UNL     1      -8.607   6.853  70.806  1.00  0.00    -0.141 OA 
HETATM    6  O   UNL     1      -8.131  10.139  68.624  1.00  0.00    -0.100 OA 
HETATM    7  H   UNL     1      -8.647  10.618  69.262  1.00  0.00     0.000 HD 
ENDROOT
BRANCH   5   8
HETATM    8 SI   UNL     1      -9.580   5.784  69.939  1.00  0.00    -0.135 Si 
HETATM    9  C   UNL     1     -11.281   6.538  69.729  1.00  0.00    -0.395 C  
HETATM   10  C   UNL     1      -9.697   4.156  70.863  1.00  0.00    -0.189 C  
BRANCH   8  11
HETATM   11  O   UNL     1      -8.878   5.522  68.440  1.00  0.00    -0.108 OA 
HETATM   12 SI   UNL     1      -7.912   4.365  67.692  1.00  0.00    -0.083 Si 
HETATM   13  C   UNL     1      -6.251   4.176  68.567  1.00  0.00    -0.032 C  
HETATM   14  C   UNL     1      -7.553   4.794  65.897  1.00  0.00    -0.090 C  
HETATM   15  C   UNL     1      -8.757   2.679  67.728  1.00  0.00    -0.112 C  
ENDBRANCH   8  11
ENDBRANCH   5   8
TORSDOF 2
ENDMDL
MODEL      390
REMARK 921   NORMALIZED FREE ENERGY PREDICTED BY IDOCK:   -1.37 KCAL/MOL
REMARK 922        TOTAL FREE ENERGY PREDICTED BY IDOCK:   -1.77 KCAL/MOL
REMARK 923 INTER-LIGAND FREE ENERGY PREDICTED BY IDOCK:   -1.53 KCAL/MOL
REMARK 924 INTRA-LIGAND FREE ENERGY PREDICTED BY IDOCK:   -0.23 KCAL/MOL
REMARK 927      BINDING AFFINITY PREDICTED BY RF-SCORE:    0.00 PKD
ROOT
HETATM    1  O   UNL     1      -5.672   4.906  68.402  1.00  0.00    -0.015 OA 
HETATM    2  H   UNL     1      -4.843   5.357  68.297  1.00  0.00     0.000 HD 
HETATM    3 SI   UNL     1      -6.768   5.564  67.657  1.00  0.00    -0.041 Si 
HETATM    4  C   UNL     1      -5.707   9.288  68.085  1.00  0.00    -0.038 C  
HETATM    5  O   UNL     1      -6.637   8.454  68.771  1.00  0.00    -0.052 OA 
HETATM    6  O   UNL     1      -8.051   4.865  67.819  1.00  0.00    -0.094 OA 
HETATM    7  H   UNL     1      -8.755   5.287  67.341  1.00  0.00     0.000 HD 
ENDROOT
BRANCH   5   8
HETATM    8 SI   UNL     1      -6.835   8.673  70.430  1.00  0.00    -0.036 Si 
HETATM    9  C   UNL     1      -5.649   9.997  71.018  1.00  0.00    -0.085 C  
HETATM   10  C   UNL     1      -6.498   7.055  71.317  1.00  0.00    -0.041 C  
BRANCH   8  11
HETATM   11  O   UNL     1      -8.416   9.147  70.720  1.00  0.00    -0.184 OA 
HETATM   12 SI   UNL     1      -9.971   8.638  70.325  1.00  0.00    -0.167 Si 
HETATM   13  C   UNL     1     -10.250   8.645  68.459  1.00  0.00    -0.195 C  
HETATM   14  C   UNL     1     -11.292   9.734  71.092  1.00  0.00    -0.389 C  
HETATM   15  C   UNL     1     -10.259   6.874  70.926  1.00  0.00    -0.197 C  
ENDBRANCH   8  11
ENDBRANCH   5   8
TORSDOF 2
ENDMDL
MODEL      391
REMARK 921   NORMALIZED FREE ENERGY PREDICTED BY IDOCK:    8.54 KCAL/MOL
REMARK 922        TOTAL FREE ENERGY PREDICTED BY IDOCK:    9.31 KCAL/MOL
REMARK 923 INTER-LIGAND FREE ENERGY PREDICTED BY IDOCK:    8.35 KCAL/MOL
REMARK 924 INTRA-LIGAND FREE ENERGY PREDICTED BY IDOCK:    0.96 KCAL/MOL
REMARK 927      BINDING AFFINITY PREDICTED BY RF-SCORE:    0.00 PKD
ROOT
HETATM    1  O   UNL     1     -10.950  17.231  65.029  1.00  0.00    -0.648 OA 
HETATM    2  H   UNL     1     -10.914  17.823  65.771  1.00  0.00     0.000 HD 
HETATM    3 SI   UNL     1     -12.153  16.369  65.056  1.00  0.00     0.021 Si 
HETATM    4  C   UNL     1     -12.481  15.823  68.899  1.00  0.00     0.432 C  
HETATM    5  O   UNL     1     -11.914  15.045  67.849  1.00  0.00    -0.291 OA 
HETATM    6  O   UNL     1     -12.209  15.453  63.908  1.00  0.00    -0.966 OA 
HETATM    7  H   UNL     1     -12.980  14.900  63.925  1.00  0.00     0.000 HD 
ENDROOT
BRANCH   5   8
HETATM    8 SI   UNL     1     -10.531  14.142  68.181  1.00  0.00    -0.213 Si 
HETATM    9  C   UNL     1      -9.051  14.976  67.394  1.00  0.00    -0.186 C  
HETATM   10  C   UNL     1     -10.740  12.406  67.501  1.00  0.00    -0.228 C  
BRANCH   8  11
HETATM   11  O   UNL     1     -10.331  14.066  69.844  1.00  0.00     0.347 OA 
HETATM   12 SI   UNL     1     -10.060  15.123  71.125  1.00  0.00    -0.440 Si 
HETATM   13  C   UNL     1      -8.440  16.068  70.914  1.00  0.00     3.596 C  
HETATM   14  C   UNL     1      -9.976  14.229  72.777  1.00  0.00     7.132 C  
HETATM   15  C   UNL     1     -11.442  16.402  71.225  1.00  0.00    -0.205 C  
ENDBRANCH   8  11
ENDBRANCH   5   8
TORSDOF 2
ENDMDL
MODEL      392
REMARK 921   NORMALIZED FREE ENERGY PREDICTED BY IDOCK:   27.30 KCAL/MOL
REMARK 922        TOTAL FREE ENERGY PREDICTED BY IDOCK:   30.26 KCAL/MOL
REMARK 923 INTER-LIGAND FREE ENERGY PREDICTED BY IDOCK:   30.33 KCAL/MOL
REMARK 924 INTRA-LIGAND FREE ENERGY PREDICTED BY IDOCK:   -0.07 KCAL/MOL
REMARK 927      BINDING AFFINITY PREDICTED BY RF-SCORE:    0.00 PKD
ROOT
HETATM    1  O   UNL     1      -8.801  14.912  70.057  1.00  0.00    -0.397 OA 
HETATM    2  H   UNL     1      -8.336  14.168  69.692  1.00  0.00     0.000 HD 
HETATM    3 SI   UNL     1     -10.264  14.811  69.859  1.00  0.00    -0.204 Si 
HETATM    4  C   UNL     1     -10.334  13.098  66.360  1.00  0.00    -0.287 C  
HETATM    5  O   UNL     1     -10.457  14.452  66.785  1.00  0.00    -0.269 OA 
HETATM    6  O   UNL     1     -10.984  15.962  70.422  1.00  0.00    -0.321 OA 
HETATM    7  H   UNL     1     -11.923  15.897  70.295  1.00  0.00     0.000 HD 
ENDROOT
BRANCH   5   8
HETATM    8 SI   UNL     1      -9.808  15.660  65.804  1.00  0.00    -0.225 Si 
HETATM    9  C   UNL     1      -9.290  17.105  66.876  1.00  0.00    -0.249 C  
HETATM   10  C   UNL     1     -11.093  16.204  64.551  1.00  0.00    -0.221 C  
BRANCH   8  11
HETATM   11  O   UNL     1      -8.478  15.034  65.000  1.00  0.00     3.005 OA 
HETATM   12 SI   UNL     1      -6.922  14.507  65.367  1.00  0.00     3.152 Si 
HETATM   13  C   UNL     1      -5.885  15.884  66.133  1.00  0.00     2.774 C  
HETATM   14  C   UNL     1      -6.003  13.893  63.846  1.00  0.00    22.173 C  
HETATM   15  C   UNL     1      -6.985  13.095  66.617  1.00  0.00     1.397 C  
ENDBRANCH   8  11
ENDBRANCH   5   8
TORSDOF 2
ENDMDL
