MODEL        1
REMARK 921   NORMALIZED FREE ENERGY PREDICTED BY IDOCK:   -8.40 KCAL/MOL
REMARK 922        TOTAL FREE ENERGY PREDICTED BY IDOCK:  -14.89 KCAL/MOL
REMARK 923 INTER-LIGAND FREE ENERGY PREDICTED BY IDOCK:  -12.33 KCAL/MOL
REMARK 924 INTRA-LIGAND FREE ENERGY PREDICTED BY IDOCK:   -2.56 KCAL/MOL
REMARK 927      BINDING AFFINITY PREDICTED BY RF-SCORE:    0.00 PKD
ROOT
HETATM    1  C   UNL     1      -8.763  18.669  68.818  1.00  0.00    -0.290 C  
HETATM    2  C   UNL     1      -9.789  18.367  67.988  1.00  0.00    -0.359 C  
HETATM    3  C   UNL     1      -9.959  17.911  66.595  1.00  0.00    -0.355 C  
HETATM    4  C   UNL     1      -8.827  17.480  65.731  1.00  0.00     0.253 C  
HETATM    5  C   UNL     1      -9.898  16.468  66.112  1.00  0.00    -0.332 C  
HETATM    6  C   UNL     1      -7.254  18.715  68.669  1.00  0.00    -0.315 C  
HETATM    7  N   UNL     1      -9.388  15.316  66.812  1.00  0.00    -0.228 NA 
HETATM    8  C   UNL     1      -9.549  15.001  68.043  1.00  0.00    -0.208 C  
HETATM    9  C   UNL     1      -7.898  13.089  67.997  1.00  0.00    -0.146 C  
HETATM   10  C   UNL     1      -6.399  18.247  69.898  1.00  0.00    -0.052 C  
HETATM   11  H   UNL     1      -8.829  14.670  66.256  1.00  0.00     0.000 HD 
HETATM   12  C   UNL     1      -5.687  15.512  69.995  1.00  0.00    -0.140 C  
HETATM   13  C   UNL     1      -8.176  11.577  67.860  1.00  0.00    -0.134 C  
HETATM   14  C   UNL     1      -9.217  13.648  68.543  1.00  0.00    -0.121 C  
HETATM   15  O   UNL     1     -10.017  15.764  69.028  1.00  0.00    -0.208 OA 
HETATM   16  C   UNL     1      -6.802  13.540  68.981  1.00  0.00    -0.107 C  
HETATM   17  C   UNL     1     -10.286  12.670  68.102  1.00  0.00    -0.238 C  
HETATM   18  C   UNL     1      -6.469  15.648  67.671  1.00  0.00    -0.165 C  
HETATM   19  C   UNL     1      -5.400  17.045  69.973  1.00  0.00    -0.201 C  
HETATM   20  H   UNL     1     -10.136  15.530  69.941  1.00  0.00     0.000 HD 
HETATM   21  N   UNL     1      -6.406  14.888  68.888  1.00  0.00    -0.085 N  
HETATM   22  C   UNL     1      -9.585  11.373  68.440  1.00  0.00    -0.197 C  
HETATM   23  O   UNL     1      -6.431  12.806  69.894  1.00  0.00    -0.075 OA 
ENDROOT
BRANCH   5  24
HETATM   24  C   UNL     1     -10.691  15.965  64.918  1.00  0.00    -0.341 C  
HETATM   25  H   UNL     1     -11.792  16.676  63.497  1.00  0.00     0.000 HD 
HETATM   26  O   UNL     1     -11.296  16.991  64.244  1.00  0.00    -1.191 OA 
BRANCH  24  27
HETATM   27  N   UNL     1     -10.693  14.761  64.525  1.00  0.00    -0.605 N  
HETATM   28  H   UNL     1      -9.822  14.302  64.259  1.00  0.00     0.000 HD 
BRANCH  27  29
HETATM   29  S   UNL     1     -12.087  13.966  64.453  1.00  0.00    -0.426 S  
HETATM   30  O   UNL     1     -12.788  14.162  65.720  1.00  0.00    -0.502 OA 
HETATM   31  O   UNL     1     -12.785  14.197  63.210  1.00  0.00    -0.714 OA 
BRANCH  29  32
HETATM   32  C   UNL     1     -11.632  12.160  64.436  1.00  0.00    -0.350 C  
HETATM   33  C   UNL     1     -10.660  11.816  63.332  1.00  0.00    -0.479 C  
HETATM   34  C   UNL     1     -10.206  11.813  64.768  1.00  0.00    -0.324 C  
ENDBRANCH  29  32
ENDBRANCH  27  29
ENDBRANCH  24  27
ENDBRANCH   5  24
BRANCH  22  35
HETATM   35  O   UNL     1     -10.359  10.295  67.942  1.00  0.00    -0.173 OA 
BRANCH  35  36
HETATM   36  C   UNL     1      -9.942   9.024  68.236  1.00  0.00    -0.173 A  
HETATM   37  C   UNL     1      -8.319   6.144  65.591  1.00  0.00    -0.146 A  
HETATM   38  C   UNL     1      -8.792   8.435  66.079  1.00  0.00    -0.202 A  
HETATM   39  C   UNL     1      -9.309   8.113  67.354  1.00  0.00    -0.171 A  
HETATM   40  C   UNL     1     -10.199   8.662  69.555  1.00  0.00    -0.209 A  
HETATM   41  C   UNL     1      -8.678   5.812  66.911  1.00  0.00    -0.110 A  
HETATM   42  C   UNL     1      -9.156   6.788  67.809  1.00  0.00    -0.117 A  
HETATM   43  C   UNL     1      -8.575   4.389  67.404  1.00  0.00    -0.105 C  
HETATM   44  C   UNL     1      -8.345   7.466  65.192  1.00  0.00    -0.085 A  
HETATM   45  C   UNL     1      -9.905   7.376  69.956  1.00  0.00    -0.179 A  
HETATM   46  N   UNL     1      -9.445   6.446  69.081  1.00  0.00    -0.135 NA 
BRANCH  37  47
HETATM   47  O   UNL     1      -7.880   5.135  64.769  1.00  0.00    -0.086 OA 
HETATM   48  C   UNL     1      -8.586   4.988  63.538  1.00  0.00    -0.108 C  
ENDBRANCH  37  47
BRANCH  45  49
HETATM   49  C   UNL     1     -10.063   6.964  71.367  1.00  0.00    -0.185 A  
HETATM   50  N   UNL     1      -9.702   5.790  71.862  1.00  0.00    -0.158 NA 
HETATM   51  C   UNL     1     -10.039   5.694  73.208  1.00  0.00    -0.186 A  
HETATM   52  C   UNL     1     -10.654   6.818  73.722  1.00  0.00    -0.295 A  
HETATM   53  C   UNL     1      -9.723   4.435  73.973  1.00  0.00    -0.146 C  
HETATM   54  C   UNL     1     -10.447   3.221  73.390  1.00  0.00    -0.262 C  
HETATM   55  S   UNL     1     -10.812   8.015  72.514  1.00  0.00    -0.369 SA 
HETATM   56  C   UNL     1      -8.217   4.184  74.044  1.00  0.00    -0.095 C  
ENDBRANCH  45  49
ENDBRANCH  35  36
ENDBRANCH  22  35
TORSDOF 8
ENDMDL
MODEL        2
REMARK 921   NORMALIZED FREE ENERGY PREDICTED BY IDOCK:   -8.34 KCAL/MOL
REMARK 922        TOTAL FREE ENERGY PREDICTED BY IDOCK:  -14.80 KCAL/MOL
REMARK 923 INTER-LIGAND FREE ENERGY PREDICTED BY IDOCK:  -12.39 KCAL/MOL
REMARK 924 INTRA-LIGAND FREE ENERGY PREDICTED BY IDOCK:   -2.41 KCAL/MOL
REMARK 927      BINDING AFFINITY PREDICTED BY RF-SCORE:    0.00 PKD
ROOT
HETATM    1  C   UNL     1      -8.584  18.367  68.807  1.00  0.00    -0.248 C  
HETATM    2  C   UNL     1      -9.633  18.152  67.977  1.00  0.00    -0.304 C  
HETATM    3  C   UNL     1      -9.841  17.724  66.581  1.00  0.00    -0.322 C  
HETATM    4  C   UNL     1      -8.747  17.217  65.709  1.00  0.00     0.192 C  
HETATM    5  C   UNL     1      -9.891  16.286  66.084  1.00  0.00    -0.334 C  
HETATM    6  C   UNL     1      -7.076  18.300  68.653  1.00  0.00    -0.285 C  
HETATM    7  N   UNL     1      -9.469  15.091  66.771  1.00  0.00    -0.232 NA 
HETATM    8  C   UNL     1      -9.650  14.778  68.000  1.00  0.00    -0.209 C  
HETATM    9  C   UNL     1      -8.150  12.746  67.930  1.00  0.00    -0.159 C  
HETATM   10  C   UNL     1      -6.257  17.756  69.875  1.00  0.00    -0.113 C  
HETATM   11  H   UNL     1      -8.962  14.410  66.208  1.00  0.00     0.000 HD 
HETATM   12  C   UNL     1      -5.755  14.974  69.944  1.00  0.00    -0.121 C  
HETATM   13  C   UNL     1      -8.543  11.262  67.780  1.00  0.00    -0.126 C  
HETATM   14  C   UNL     1      -9.421  13.399  68.486  1.00  0.00    -0.121 C  
HETATM   15  O   UNL     1     -10.056  15.565  68.993  1.00  0.00    -0.210 OA 
HETATM   16  C   UNL     1      -7.020  13.103  68.915  1.00  0.00    -0.093 C  
HETATM   17  C   UNL     1     -10.563  12.509  68.039  1.00  0.00    -0.237 C  
HETATM   18  C   UNL     1      -6.531  15.191  67.623  1.00  0.00    -0.155 C  
HETATM   19  C   UNL     1      -5.352  16.481  69.934  1.00  0.00    -0.176 C  
HETATM   20  H   UNL     1     -10.190  15.332  69.904  1.00  0.00     0.000 HD 
HETATM   21  N   UNL     1      -6.523  14.417  68.833  1.00  0.00    -0.089 N  
HETATM   22  C   UNL     1      -9.962  11.160  68.362  1.00  0.00    -0.187 C  
HETATM   23  O   UNL     1      -6.703  12.334  69.819  1.00  0.00    -0.030 OA 
ENDROOT
BRANCH   5  24
HETATM   24  C   UNL     1     -10.724  15.856  64.888  1.00  0.00    -0.341 C  
HETATM   25  H   UNL     1     -11.910  16.644  63.581  1.00  0.00     0.000 HD 
HETATM   26  O   UNL     1     -11.389  16.913  64.329  1.00  0.00    -1.202 OA 
BRANCH  24  27
HETATM   27  N   UNL     1     -10.708  14.689  64.396  1.00  0.00    -0.558 N  
HETATM   28  H   UNL     1      -9.869  14.331  63.941  1.00  0.00     0.000 HD 
BRANCH  27  29
HETATM   29  S   UNL     1     -12.029  13.781  64.501  1.00  0.00    -0.443 S  
HETATM   30  O   UNL     1     -12.710  14.112  65.751  1.00  0.00    -0.508 OA 
HETATM   31  O   UNL     1     -12.778  13.758  63.267  1.00  0.00    -0.783 OA 
BRANCH  29  32
HETATM   32  C   UNL     1     -11.417  12.037  64.742  1.00  0.00    -0.298 C  
HETATM   33  C   UNL     1     -10.938  11.407  63.455  1.00  0.00    -0.406 C  
HETATM   34  C   UNL     1      -9.949  11.793  64.524  1.00  0.00    -0.273 C  
ENDBRANCH  29  32
ENDBRANCH  27  29
ENDBRANCH  24  27
ENDBRANCH   5  24
BRANCH  22  35
HETATM   35  O   UNL     1     -10.817  10.148  67.858  1.00  0.00    -0.251 OA 
BRANCH  35  36
HETATM   36  C   UNL     1     -10.526   8.850  68.179  1.00  0.00    -0.202 A  
HETATM   37  C   UNL     1     -10.568   7.050  72.011  1.00  0.00    -0.211 A  
HETATM   38  C   UNL     1     -11.297   8.812  70.572  1.00  0.00    -0.255 A  
HETATM   39  C   UNL     1     -10.644   8.245  69.456  1.00  0.00    -0.216 A  
HETATM   40  C   UNL     1     -10.074   8.111  67.090  1.00  0.00    -0.334 A  
HETATM   41  C   UNL     1     -10.044   6.381  70.889  1.00  0.00    -0.218 A  
HETATM   42  C   UNL     1     -10.092   6.957  69.603  1.00  0.00    -0.184 A  
HETATM   43  C   UNL     1      -9.398   5.025  71.032  1.00  0.00    -0.203 C  
HETATM   44  C   UNL     1     -11.226   8.252  71.840  1.00  0.00    -0.365 A  
HETATM   45  C   UNL     1      -9.665   6.811  67.298  1.00  0.00    -0.140 A  
HETATM   46  N   UNL     1      -9.625   6.269  68.542  1.00  0.00    -0.126 NA 
BRANCH  37  47
HETATM   47  O   UNL     1     -10.467   6.434  73.234  1.00  0.00    -0.220 OA 
HETATM   48  C   UNL     1      -9.559   7.033  74.157  1.00  0.00    -0.262 C  
ENDBRANCH  37  47
BRANCH  45  49
HETATM   49  C   UNL     1      -9.272   5.947  66.165  1.00  0.00    -0.150 A  
HETATM   50  N   UNL     1      -8.142   6.053  65.483  1.00  0.00    -0.126 NA 
HETATM   51  C   UNL     1      -8.101   5.131  64.442  1.00  0.00    -0.121 A  
HETATM   52  C   UNL     1      -9.217   4.323  64.355  1.00  0.00    -0.155 A  
HETATM   53  C   UNL     1      -6.903   5.080  63.531  1.00  0.00    -0.046 C  
HETATM   54  C   UNL     1      -6.705   6.397  62.779  1.00  0.00    -0.038 C  
HETATM   55  S   UNL     1     -10.332   4.711  65.588  1.00  0.00    -0.180 SA 
HETATM   56  C   UNL     1      -5.634   4.697  64.293  1.00  0.00    -0.014 C  
ENDBRANCH  45  49
ENDBRANCH  35  36
ENDBRANCH  22  35
TORSDOF 8
ENDMDL
MODEL        3
REMARK 921   NORMALIZED FREE ENERGY PREDICTED BY IDOCK:   -7.20 KCAL/MOL
REMARK 922        TOTAL FREE ENERGY PREDICTED BY IDOCK:  -13.12 KCAL/MOL
REMARK 923 INTER-LIGAND FREE ENERGY PREDICTED BY IDOCK:  -10.28 KCAL/MOL
REMARK 924 INTRA-LIGAND FREE ENERGY PREDICTED BY IDOCK:   -2.84 KCAL/MOL
REMARK 927      BINDING AFFINITY PREDICTED BY RF-SCORE:    0.00 PKD
ROOT
HETATM    1  C   UNL     1      -6.167   6.928  73.065  1.00  0.00    -0.057 C  
HETATM    2  C   UNL     1      -5.940   8.257  72.944  1.00  0.00    -0.067 C  
HETATM    3  C   UNL     1      -5.455   9.185  71.904  1.00  0.00    -0.066 C  
HETATM    4  C   UNL     1      -5.220   8.780  70.492  1.00  0.00    -0.020 C  
HETATM    5  C   UNL     1      -6.296   9.810  70.801  1.00  0.00    -0.095 C  
HETATM    6  C   UNL     1      -5.977   5.730  72.153  1.00  0.00    -0.035 C  
HETATM    7  N   UNL     1      -7.614   9.427  70.360  1.00  0.00    -0.129 NA 
HETATM    8  C   UNL     1      -8.622   9.091  71.074  1.00  0.00    -0.210 C  
HETATM    9  C   UNL     1     -10.037   8.344  69.119  1.00  0.00    -0.206 C  
HETATM   10  C   UNL     1      -7.064   4.601  72.221  1.00  0.00    -0.066 C  
HETATM   11  H   UNL     1      -7.761   9.423  69.351  1.00  0.00     0.000 HD 
HETATM   12  C   UNL     1      -9.255   4.826  70.447  1.00  0.00    -0.136 C  
HETATM   13  C   UNL     1     -11.159   9.113  68.390  1.00  0.00     0.119 C  
HETATM   14  C   UNL     1      -9.983   9.011  70.499  1.00  0.00    -0.263 C  
HETATM   15  O   UNL     1      -8.641   8.785  72.369  1.00  0.00    -0.395 OA 
HETATM   16  C   UNL     1     -10.238   6.839  69.378  1.00  0.00    -0.187 C  
HETATM   17  C   UNL     1     -10.530  10.409  70.296  1.00  0.00    -0.110 C  
HETATM   18  C   UNL     1      -7.758   6.505  69.460  1.00  0.00    -0.100 C  
HETATM   19  C   UNL     1      -8.018   4.116  71.079  1.00  0.00    -0.071 C  
HETATM   20  H   UNL     1      -9.389   8.536  72.899  1.00  0.00     0.000 HD 
HETATM   21  N   UNL     1      -9.100   6.130  69.808  1.00  0.00    -0.141 N  
HETATM   22  C   UNL     1     -11.732  10.080  69.440  1.00  0.00     0.053 C  
HETATM   23  O   UNL     1     -11.361   6.341  69.371  1.00  0.00    -0.412 OA 
ENDROOT
BRANCH   5  24
HETATM   24  C   UNL     1      -5.996  11.178  70.210  1.00  0.00    -0.144 C  
HETATM   25  H   UNL     1      -5.713  12.993  70.811  1.00  0.00     0.000 HD 
HETATM   26  O   UNL     1      -5.900  12.138  71.181  1.00  0.00    -0.371 OA 
BRANCH  24  27
HETATM   27  N   UNL     1      -5.745  11.382  68.985  1.00  0.00    -0.043 N  
HETATM   28  H   UNL     1      -4.882  11.032  68.569  1.00  0.00     0.000 HD 
BRANCH  27  29
HETATM   29  S   UNL     1      -6.805  12.198  68.097  1.00  0.00    -0.084 S  
HETATM   30  O   UNL     1      -6.523  11.927  66.689  1.00  0.00    -0.086 OA 
HETATM   31  O   UNL     1      -8.155  12.061  68.592  1.00  0.00    -0.137 OA 
BRANCH  29  32
HETATM   32  C   UNL     1      -6.373  13.995  68.330  1.00  0.00    -0.105 C  
HETATM   33  C   UNL     1      -7.106  14.899  67.367  1.00  0.00    -0.194 C  
HETATM   34  C   UNL     1      -7.465  14.900  68.830  1.00  0.00    -0.137 C  
ENDBRANCH  29  32
ENDBRANCH  27  29
ENDBRANCH  24  27
ENDBRANCH   5  24
BRANCH  22  35
HETATM   35  O   UNL     1     -12.311  11.290  68.983  1.00  0.00    -0.446 OA 
BRANCH  35  36
HETATM   36  C   UNL     1     -11.606  12.028  68.071  1.00  0.00    -0.342 A  
HETATM   37  C   UNL     1     -11.022  16.221  68.016  1.00  0.00    -0.328 A  
HETATM   38  C   UNL     1     -11.562  14.248  69.251  1.00  0.00    -0.350 A  
HETATM   39  C   UNL     1     -11.341  13.419  68.129  1.00  0.00    -0.321 A  
HETATM   40  C   UNL     1     -11.133  11.265  67.007  1.00  0.00    -0.356 A  
HETATM   41  C   UNL     1     -10.641  15.410  66.931  1.00  0.00    -0.309 A  
HETATM   42  C   UNL     1     -10.777  14.008  66.980  1.00  0.00    -0.284 A  
HETATM   43  C   UNL     1     -10.086  16.023  65.668  1.00  0.00    -0.384 C  
HETATM   44  C   UNL     1     -11.450  15.630  69.189  1.00  0.00    -0.365 A  
HETATM   45  C   UNL     1     -10.480  11.905  65.975  1.00  0.00    -0.245 A  
HETATM   46  N   UNL     1     -10.357  13.256  65.942  1.00  0.00    -0.287 NA 
BRANCH  37  47
HETATM   47  O   UNL     1     -10.879  17.581  67.887  1.00  0.00    -0.374 OA 
HETATM   48  C   UNL     1      -9.975  18.198  68.803  1.00  0.00    -0.375 C  
ENDBRANCH  37  47
BRANCH  45  49
HETATM   49  C   UNL     1      -9.869  11.137  64.870  1.00  0.00    -0.266 A  
HETATM   50  N   UNL     1      -8.953  10.192  65.016  1.00  0.00    -0.179 NA 
HETATM   51  C   UNL     1      -8.539   9.706  63.780  1.00  0.00    -0.208 A  
HETATM   52  C   UNL     1      -9.164  10.296  62.699  1.00  0.00    -0.298 A  
HETATM   53  C   UNL     1      -7.494   8.623  63.710  1.00  0.00    -0.116 C  
HETATM   54  C   UNL     1      -6.166   9.076  64.319  1.00  0.00    -0.071 C  
HETATM   55  S   UNL     1     -10.286  11.470  63.228  1.00  0.00    -0.374 SA 
HETATM   56  C   UNL     1      -7.978   7.332  64.370  1.00  0.00    -0.106 C  
ENDBRANCH  45  49
ENDBRANCH  35  36
ENDBRANCH  22  35
TORSDOF 8
ENDMDL
MODEL        4
REMARK 921   NORMALIZED FREE ENERGY PREDICTED BY IDOCK:   -7.19 KCAL/MOL
REMARK 922        TOTAL FREE ENERGY PREDICTED BY IDOCK:  -13.11 KCAL/MOL
REMARK 923 INTER-LIGAND FREE ENERGY PREDICTED BY IDOCK:  -10.86 KCAL/MOL
REMARK 924 INTRA-LIGAND FREE ENERGY PREDICTED BY IDOCK:   -2.25 KCAL/MOL
REMARK 927      BINDING AFFINITY PREDICTED BY RF-SCORE:    0.00 PKD
ROOT
HETATM    1  C   UNL     1     -11.241  16.164  67.894  1.00  0.00    -0.245 C  
HETATM    2  C   UNL     1     -11.721  15.107  67.197  1.00  0.00    -0.141 C  
HETATM    3  C   UNL     1     -11.496  14.485  65.878  1.00  0.00    -0.345 C  
HETATM    4  C   UNL     1     -10.399  14.891  64.958  1.00  0.00    -0.401 C  
HETATM    5  C   UNL     1     -10.403  13.483  65.535  1.00  0.00    -0.300 C  
HETATM    6  C   UNL     1     -10.236  17.262  67.601  1.00  0.00    -0.333 C  
HETATM    7  N   UNL     1      -9.221  13.161  66.294  1.00  0.00    -0.456 NA 
HETATM    8  C   UNL     1      -9.112  12.997  67.560  1.00  0.00    -0.191 C  
HETATM    9  C   UNL     1      -6.589  12.879  67.548  1.00  0.00    -0.160 C  
HETATM   10  C   UNL     1      -9.318  17.725  68.785  1.00  0.00    -0.230 C  
HETATM   11  H   UNL     1      -8.363  13.049  65.755  1.00  0.00     0.000 HD 
HETATM   12  C   UNL     1      -6.843  16.391  69.084  1.00  0.00    -0.210 C  
HETATM   13  C   UNL     1      -5.681  11.632  67.588  1.00  0.00    -0.060 C  
HETATM   14  C   UNL     1      -7.906  12.383  68.158  1.00  0.00    -0.146 C  
HETATM   15  O   UNL     1      -9.996  13.313  68.504  1.00  0.00    -0.264 OA 
HETATM   16  C   UNL     1      -6.170  14.109  68.377  1.00  0.00    -0.103 C  
HETATM   17  C   UNL     1      -7.927  10.888  67.917  1.00  0.00    -0.111 C  
HETATM   18  C   UNL     1      -7.462  15.605  66.840  1.00  0.00    -0.134 C  
HETATM   19  C   UNL     1      -7.759  17.637  68.884  1.00  0.00    -0.205 C  
HETATM   20  H   UNL     1      -9.915  13.191  69.443  1.00  0.00     0.000 HD 
HETATM   21  N   UNL     1      -6.876  15.298  68.116  1.00  0.00    -0.119 N  
HETATM   22  C   UNL     1      -6.506  10.556  68.313  1.00  0.00    -0.055 C  
HETATM   23  O   UNL     1      -5.388  14.000  69.319  1.00  0.00    -0.081 OA 
ENDROOT
BRANCH   5  24
HETATM   24  C   UNL     1     -10.574  12.407  64.475  1.00  0.00    -0.322 C  
HETATM   25  H   UNL     1     -11.961  11.252  63.784  1.00  0.00     0.000 HD 
HETATM   26  O   UNL     1     -11.854  11.925  64.446  1.00  0.00    -0.317 OA 
BRANCH  24  27
HETATM   27  N   UNL     1      -9.676  12.084  63.643  1.00  0.00    -0.575 N  
HETATM   28  H   UNL     1      -9.272  12.783  63.020  1.00  0.00     0.000 HD 
BRANCH  27  29
HETATM   29  S   UNL     1      -9.182  10.557  63.582  1.00  0.00    -0.295 S  
HETATM   30  O   UNL     1      -9.378   9.963  64.903  1.00  0.00    -0.232 OA 
HETATM   31  O   UNL     1      -9.673   9.868  62.412  1.00  0.00    -0.150 OA 
BRANCH  29  32
HETATM   32  C   UNL     1      -7.333  10.639  63.368  1.00  0.00     0.149 C  
HETATM   33  C   UNL     1      -6.587   9.984  64.507  1.00  0.00    -0.129 C  
HETATM   34  C   UNL     1      -6.614   9.336  63.147  1.00  0.00    -0.091 C  
ENDBRANCH  29  32
ENDBRANCH  27  29
ENDBRANCH  24  27
ENDBRANCH   5  24
BRANCH  22  35
HETATM   35  O   UNL     1      -6.250   9.198  67.999  1.00  0.00    -0.050 OA 
BRANCH  35  36
HETATM   36  C   UNL     1      -7.300   8.322  68.064  1.00  0.00    -0.096 A  
HETATM   37  C   UNL     1      -8.494   5.477  65.164  1.00  0.00    -0.147 A  
HETATM   38  C   UNL     1      -6.783   6.877  66.071  1.00  0.00    -0.052 A  
HETATM   39  C   UNL     1      -7.619   7.309  67.124  1.00  0.00    -0.103 A  
HETATM   40  C   UNL     1      -8.087   8.504  69.197  1.00  0.00    -0.117 A  
HETATM   41  C   UNL     1      -9.293   5.764  66.287  1.00  0.00    -0.171 A  
HETATM   42  C   UNL     1      -8.861   6.663  67.284  1.00  0.00    -0.116 A  
HETATM   43  C   UNL     1     -10.650   5.125  66.451  1.00  0.00    -0.336 C  
HETATM   44  C   UNL     1      -7.223   6.011  65.080  1.00  0.00    -0.070 A  
HETATM   45  C   UNL     1      -9.227   7.740  69.339  1.00  0.00    -0.149 A  
HETATM   46  N   UNL     1      -9.630   6.878  68.371  1.00  0.00    -0.127 NA 
BRANCH  37  47
HETATM   47  O   UNL     1      -8.989   4.605  64.226  1.00  0.00    -0.151 OA 
HETATM   48  C   UNL     1      -8.292   4.574  62.981  1.00  0.00    -0.101 C  
ENDBRANCH  37  47
BRANCH  45  49
HETATM   49  C   UNL     1     -10.046   7.818  70.566  1.00  0.00    -0.192 A  
HETATM   50  N   UNL     1     -11.271   8.316  70.633  1.00  0.00    -0.259 NA 
HETATM   51  C   UNL     1     -11.744   8.299  71.942  1.00  0.00    -0.322 A  
HETATM   52  C   UNL     1     -10.857   7.772  72.859  1.00  0.00    -0.392 A  
HETATM   53  C   UNL     1     -13.121   8.826  72.249  1.00  0.00    -0.458 C  
HETATM   54  C   UNL     1     -13.252  10.309  71.898  1.00  0.00    -0.550 C  
HETATM   55  S   UNL     1      -9.415   7.287  72.084  1.00  0.00    -0.135 SA 
HETATM   56  C   UNL     1     -14.206   8.007  71.550  1.00  0.00    -0.513 C  
ENDBRANCH  45  49
ENDBRANCH  35  36
ENDBRANCH  22  35
TORSDOF 8
ENDMDL
MODEL        5
REMARK 921   NORMALIZED FREE ENERGY PREDICTED BY IDOCK:   -7.11 KCAL/MOL
REMARK 922        TOTAL FREE ENERGY PREDICTED BY IDOCK:  -13.00 KCAL/MOL
REMARK 923 INTER-LIGAND FREE ENERGY PREDICTED BY IDOCK:  -11.84 KCAL/MOL
REMARK 924 INTRA-LIGAND FREE ENERGY PREDICTED BY IDOCK:   -1.16 KCAL/MOL
REMARK 927      BINDING AFFINITY PREDICTED BY RF-SCORE:    0.00 PKD
ROOT
HETATM    1  C   UNL     1      -6.744   7.131  72.856  1.00  0.00    -0.064 C  
HETATM    2  C   UNL     1      -6.434   8.447  72.786  1.00  0.00    -0.104 C  
HETATM    3  C   UNL     1      -5.730   9.348  71.852  1.00  0.00    -0.041 C  
HETATM    4  C   UNL     1      -5.275   8.930  70.499  1.00  0.00    -0.020 C  
HETATM    5  C   UNL     1      -6.336  10.014  70.624  1.00  0.00    -0.100 C  
HETATM    6  C   UNL     1      -6.460   5.924  71.982  1.00  0.00    -0.050 C  
HETATM    7  N   UNL     1      -7.575   9.696  69.959  1.00  0.00    -0.128 NA 
HETATM    8  C   UNL     1      -8.707   9.413  70.486  1.00  0.00    -0.231 C  
HETATM    9  C   UNL     1      -9.797   8.735  68.310  1.00  0.00    -0.185 C  
HETATM   10  C   UNL     1      -7.597   4.852  71.852  1.00  0.00    -0.097 C  
HETATM   11  H   UNL     1      -7.545   9.698  68.940  1.00  0.00     0.000 HD 
HETATM   12  C   UNL     1      -9.433   5.184  69.727  1.00  0.00    -0.150 C  
HETATM   13  C   UNL     1     -10.736   9.559  67.404  1.00  0.00    -0.297 C  
HETATM   14  C   UNL     1      -9.950   9.400  69.683  1.00  0.00    -0.209 C  
HETATM   15  O   UNL     1      -8.965   9.110  71.756  1.00  0.00    -0.345 OA 
HETATM   16  C   UNL     1     -10.114   7.242  68.519  1.00  0.00    -0.172 C  
HETATM   17  C   UNL     1     -10.383  10.824  69.399  1.00  0.00    -0.207 C  
HETATM   18  C   UNL     1      -7.706   6.784  69.027  1.00  0.00    -0.110 C  
HETATM   19  C   UNL     1      -8.362   4.414  70.559  1.00  0.00    -0.086 C  
HETATM   20  H   UNL     1      -9.805   8.900  72.147  1.00  0.00     0.000 HD 
HETATM   21  N   UNL     1      -9.105   6.477  69.134  1.00  0.00    -0.136 N  
HETATM   22  C   UNL     1     -11.434  10.554  68.346  1.00  0.00    -0.214 C  
HETATM   23  O   UNL     1     -11.243   6.801  68.314  1.00  0.00    -0.176 OA 
ENDROOT
BRANCH   5  24
HETATM   24  C   UNL     1      -5.870  11.364  70.105  1.00  0.00    -0.142 C  
HETATM   25  H   UNL     1      -5.723  13.189  70.722  1.00  0.00     0.000 HD 
HETATM   26  O   UNL     1      -6.014  12.345  71.047  1.00  0.00    -0.309 OA 
BRANCH  24  27
HETATM   27  N   UNL     1      -5.306  11.535  68.984  1.00  0.00    -0.043 N  
HETATM   28  H   UNL     1      -4.348  11.223  68.833  1.00  0.00     0.000 HD 
BRANCH  27  29
HETATM   29  S   UNL     1      -6.124  12.253  67.802  1.00  0.00    -0.118 S  
HETATM   30  O   UNL     1      -7.544  12.214  68.143  1.00  0.00    -0.107 OA 
HETATM   31  O   UNL     1      -5.522  13.502  67.399  1.00  0.00    -0.349 OA 
BRANCH  29  32
HETATM   32  C   UNL     1      -5.959  11.127  66.327  1.00  0.00    -0.130 C  
HETATM   33  C   UNL     1      -6.031   9.665  66.701  1.00  0.00    -0.059 C  
HETATM   34  C   UNL     1      -7.167  10.312  65.953  1.00  0.00    -0.131 C  
ENDBRANCH  29  32
ENDBRANCH  27  29
ENDBRANCH  24  27
ENDBRANCH   5  24
BRANCH  22  35
HETATM   35  O   UNL     1     -11.864  11.791  67.805  1.00  0.00    -0.541 OA 
BRANCH  35  36
HETATM   36  C   UNL     1     -11.563  12.930  68.503  1.00  0.00    -0.323 A  
HETATM   37  C   UNL     1     -12.965  14.079  72.329  1.00  0.00    -0.373 A  
HETATM   38  C   UNL     1     -12.557  12.345  70.737  1.00  0.00    -0.298 A  
HETATM   39  C   UNL     1     -11.965  13.246  69.825  1.00  0.00    -0.391 A  
HETATM   40  C   UNL     1     -10.779  13.819  67.774  1.00  0.00    -0.254 A  
HETATM   41  C   UNL     1     -12.240  14.968  71.513  1.00  0.00    -0.399 A  
HETATM   42  C   UNL     1     -11.718  14.560  70.268  1.00  0.00    -0.293 A  
HETATM   43  C   UNL     1     -12.009  16.396  71.942  1.00  0.00    -0.392 C  
HETATM   44  C   UNL     1     -13.090  12.757  71.950  1.00  0.00    -0.474 A  
HETATM   45  C   UNL     1     -10.477  15.043  68.333  1.00  0.00    -0.238 A  
HETATM   46  N   UNL     1     -10.986  15.422  69.533  1.00  0.00    -0.256 NA 
BRANCH  37  47
HETATM   47  O   UNL     1     -13.458  14.554  73.519  1.00  0.00    -0.357 OA 
HETATM   48  C   UNL     1     -12.491  15.097  74.418  1.00  0.00    -0.403 C  
ENDBRANCH  37  47
BRANCH  45  49
HETATM   49  C   UNL     1      -9.566  15.987  67.651  1.00  0.00    -0.218 A  
HETATM   50  N   UNL     1      -9.376  17.249  68.002  1.00  0.00    -0.257 NA 
HETATM   51  C   UNL     1      -8.504  17.883  67.123  1.00  0.00    -0.233 A  
HETATM   52  C   UNL     1      -8.034  17.076  66.106  1.00  0.00    -0.264 A  
HETATM   53  C   UNL     1      -8.149  19.332  67.332  1.00  0.00    -0.306 C  
HETATM   54  C   UNL     1      -9.379  20.236  67.246  1.00  0.00    -0.538 C  
HETATM   55  S   UNL     1      -8.683  15.502  66.248  1.00  0.00    -0.141 SA 
HETATM   56  C   UNL     1      -7.415  19.545  68.656  1.00  0.00    -0.380 C  
ENDBRANCH  45  49
ENDBRANCH  35  36
ENDBRANCH  22  35
TORSDOF 8
ENDMDL
MODEL        6
REMARK 921   NORMALIZED FREE ENERGY PREDICTED BY IDOCK:   -6.60 KCAL/MOL
REMARK 922        TOTAL FREE ENERGY PREDICTED BY IDOCK:  -12.24 KCAL/MOL
REMARK 923 INTER-LIGAND FREE ENERGY PREDICTED BY IDOCK:  -10.41 KCAL/MOL
REMARK 924 INTRA-LIGAND FREE ENERGY PREDICTED BY IDOCK:   -1.83 KCAL/MOL
REMARK 927      BINDING AFFINITY PREDICTED BY RF-SCORE:    0.00 PKD
ROOT
HETATM    1  C   UNL     1     -10.713   5.720  66.926  1.00  0.00    -0.381 C  
HETATM    2  C   UNL     1     -11.270   6.302  68.015  1.00  0.00    -0.223 C  
HETATM    3  C   UNL     1     -10.985   6.397  69.459  1.00  0.00    -0.421 C  
HETATM    4  C   UNL     1      -9.725   5.903  70.079  1.00  0.00    -0.209 C  
HETATM    5  C   UNL     1     -10.042   7.391  70.122  1.00  0.00    -0.197 C  
HETATM    6  C   UNL     1      -9.507   4.827  66.699  1.00  0.00    -0.161 C  
HETATM    7  N   UNL     1      -9.039   8.219  69.499  1.00  0.00    -0.153 NA 
HETATM    8  C   UNL     1      -9.124   8.877  68.403  1.00  0.00    -0.137 C  
HETATM    9  C   UNL     1      -6.677   9.500  68.333  1.00  0.00    -0.058 C  
HETATM   10  C   UNL     1      -8.685   5.058  65.383  1.00  0.00    -0.146 C  
HETATM   11  H   UNL     1      -8.150   8.288  69.993  1.00  0.00     0.000 HD 
HETATM   12  C   UNL     1      -6.531   6.885  65.524  1.00  0.00    -0.046 C  
HETATM   13  C   UNL     1      -6.006  10.824  68.755  1.00  0.00    -0.039 C  
HETATM   14  C   UNL     1      -8.126   9.909  68.044  1.00  0.00    -0.108 C  
HETATM   15  O   UNL     1     -10.056   8.776  67.459  1.00  0.00    -0.189 OA 
HETATM   16  C   UNL     1      -6.167   8.802  67.058  1.00  0.00    -0.059 C  
HETATM   17  C   UNL     1      -8.368  11.156  68.871  1.00  0.00    -0.101 C  
HETATM   18  C   UNL     1      -6.978   6.596  67.922  1.00  0.00    -0.083 C  
HETATM   19  C   UNL     1      -7.189   5.498  65.249  1.00  0.00    -0.067 C  
HETATM   20  H   UNL     1     -10.119   9.265  66.647  1.00  0.00     0.000 HD 
HETATM   21  N   UNL     1      -6.623   7.486  66.852  1.00  0.00    -0.059 N  
HETATM   22  C   UNL     1      -7.087  11.901  68.570  1.00  0.00    -0.089 C  
HETATM   23  O   UNL     1      -5.544   9.425  66.202  1.00  0.00    -0.046 OA 
ENDROOT
BRANCH   5  24
HETATM   24  C   UNL     1     -10.253   7.913  71.533  1.00  0.00    -0.190 C  
HETATM   25  H   UNL     1      -9.330   9.002  72.836  1.00  0.00     0.000 HD 
HETATM   26  O   UNL     1      -9.198   8.676  71.953  1.00  0.00    -0.237 OA 
BRANCH  24  27
HETATM   27  N   UNL     1     -11.324   7.761  72.192  1.00  0.00    -0.282 N  
HETATM   28  H   UNL     1     -11.400   7.026  72.894  1.00  0.00     0.000 HD 
BRANCH  27  29
HETATM   29  S   UNL     1     -12.562   8.744  71.906  1.00  0.00    -0.398 S  
HETATM   30  O   UNL     1     -13.294   8.228  70.750  1.00  0.00     0.205 OA 
HETATM   31  O   UNL     1     -13.282   9.083  73.111  1.00  0.00    -0.200 OA 
BRANCH  29  32
HETATM   32  C   UNL     1     -11.806  10.340  71.315  1.00  0.00    -0.335 C  
HETATM   33  C   UNL     1     -12.186  10.671  69.891  1.00  0.00    -0.346 C  
HETATM   34  C   UNL     1     -12.749  11.478  71.032  1.00  0.00    -0.426 C  
ENDBRANCH  29  32
ENDBRANCH  27  29
ENDBRANCH  24  27
ENDBRANCH   5  24
BRANCH  22  35
HETATM   35  O   UNL     1      -7.026  13.053  69.394  1.00  0.00    -0.028 OA 
BRANCH  35  36
HETATM   36  C   UNL     1      -7.381  14.252  68.837  1.00  0.00    -0.126 A  
HETATM   37  C   UNL     1      -6.021  18.116  69.908  1.00  0.00    -0.202 A  
HETATM   38  C   UNL     1      -5.676  15.752  69.917  1.00  0.00    -0.145 A  
HETATM   39  C   UNL     1      -6.836  15.524  69.145  1.00  0.00    -0.155 A  
HETATM   40  C   UNL     1      -8.382  14.129  67.878  1.00  0.00    -0.162 A  
HETATM   41  C   UNL     1      -7.088  17.934  69.008  1.00  0.00    -0.229 A  
HETATM   42  C   UNL     1      -7.495  16.646  68.603  1.00  0.00    -0.211 A  
HETATM   43  C   UNL     1      -7.843  19.119  68.457  1.00  0.00    -0.380 C  
HETATM   44  C   UNL     1      -5.295  17.021  70.332  1.00  0.00    -0.228 A  
HETATM   45  C   UNL     1      -8.890  15.275  67.303  1.00  0.00    -0.196 A  
HETATM   46  N   UNL     1      -8.489  16.508  67.702  1.00  0.00    -0.172 NA 
BRANCH  37  47
HETATM   47  O   UNL     1      -5.696  19.400  70.270  1.00  0.00    -0.231 OA 
HETATM   48  C   UNL     1      -5.593  19.640  71.673  1.00  0.00    -0.333 C  
ENDBRANCH  37  47
BRANCH  45  49
HETATM   49  C   UNL     1      -9.881  15.201  66.209  1.00  0.00    -0.295 A  
HETATM   50  N   UNL     1     -10.365  14.081  65.695  1.00  0.00    -0.315 NA 
HETATM   51  C   UNL     1     -11.232  14.353  64.641  1.00  0.00    -0.360 A  
HETATM   52  C   UNL     1     -11.399  15.697  64.374  1.00  0.00    -0.263 A  
HETATM   53  C   UNL     1     -11.896  13.219  63.904  1.00  0.00    -0.522 C  
HETATM   54  C   UNL     1     -10.874  12.304  63.229  1.00  0.00    -0.359 C  
HETATM   55  S   UNL     1     -10.467  16.638  65.452  1.00  0.00    -0.131 SA 
HETATM   56  C   UNL     1     -12.817  12.415  64.823  1.00  0.00    -0.185 C  
ENDBRANCH  45  49
ENDBRANCH  35  36
ENDBRANCH  22  35
TORSDOF 8
ENDMDL
MODEL        7
REMARK 921   NORMALIZED FREE ENERGY PREDICTED BY IDOCK:   -6.51 KCAL/MOL
REMARK 922        TOTAL FREE ENERGY PREDICTED BY IDOCK:  -12.12 KCAL/MOL
REMARK 923 INTER-LIGAND FREE ENERGY PREDICTED BY IDOCK:   -9.04 KCAL/MOL
REMARK 924 INTRA-LIGAND FREE ENERGY PREDICTED BY IDOCK:   -3.08 KCAL/MOL
REMARK 927      BINDING AFFINITY PREDICTED BY RF-SCORE:    0.00 PKD
ROOT
HETATM    1  C   UNL     1     -10.865  17.529  69.427  1.00  0.00     0.399 C  
HETATM    2  C   UNL     1     -11.335  16.327  69.837  1.00  0.00    -0.265 C  
HETATM    3  C   UNL     1     -11.824  15.083  69.212  1.00  0.00    -0.344 C  
HETATM    4  C   UNL     1     -11.740  14.814  67.750  1.00  0.00    -0.368 C  
HETATM    5  C   UNL     1     -10.960  13.932  68.714  1.00  0.00    -0.263 C  
HETATM    6  C   UNL     1     -10.659  18.185  68.075  1.00  0.00    -0.359 C  
HETATM    7  N   UNL     1      -9.538  13.925  68.476  1.00  0.00    -0.273 NA 
HETATM    8  C   UNL     1      -8.611  14.441  69.194  1.00  0.00     0.094 C  
HETATM    9  C   UNL     1      -6.779  14.045  67.501  1.00  0.00    -0.128 C  
HETATM   10  C   UNL     1      -9.391  19.093  67.907  1.00  0.00    -0.370 C  
HETATM   11  H   UNL     1      -9.232  13.448  67.628  1.00  0.00     0.000 HD 
HETATM   12  C   UNL     1      -7.035  17.841  66.971  1.00  0.00    -0.176 C  
HETATM   13  C   UNL     1      -5.733  12.911  67.458  1.00  0.00    -0.100 C  
HETATM   14  C   UNL     1      -7.188  14.100  68.977  1.00  0.00    -0.110 C  
HETATM   15  O   UNL     1      -8.741  15.306  70.197  1.00  0.00    -0.259 OA 
HETATM   16  C   UNL     1      -6.321  15.469  67.130  1.00  0.00     0.182 C  
HETATM   17  C   UNL     1      -6.910  12.716  69.527  1.00  0.00     0.099 C  
HETATM   18  C   UNL     1      -8.662  16.069  66.475  1.00  0.00    -0.303 C  
HETATM   19  C   UNL     1      -8.187  18.891  66.928  1.00  0.00    -0.276 C  
HETATM   20  H   UNL     1      -8.053  15.688  70.729  1.00  0.00     0.000 HD 
HETATM   21  N   UNL     1      -7.345  16.415  66.934  1.00  0.00    -0.216 N  
HETATM   22  C   UNL     1      -5.544  12.482  68.922  1.00  0.00    -0.063 C  
HETATM   23  O   UNL     1      -5.134  15.784  67.176  1.00  0.00    -0.335 OA 
ENDROOT
BRANCH   5  24
HETATM   24  C   UNL     1     -11.432  12.488  68.713  1.00  0.00    -0.310 C  
HETATM   25  H   UNL     1     -11.925  11.117  69.982  1.00  0.00     0.000 HD 
HETATM   26  O   UNL     1     -11.630  12.020  69.983  1.00  0.00    -0.279 OA 
BRANCH  24  27
HETATM   27  N   UNL     1     -11.722  11.838  67.665  1.00  0.00    -0.287 N  
HETATM   28  H   UNL     1     -12.614  11.987  67.194  1.00  0.00     0.000 HD 
BRANCH  27  29
HETATM   29  S   UNL     1     -10.664  10.776  67.088  1.00  0.00    -0.267 S  
HETATM   30  O   UNL     1      -9.326  11.198  67.499  1.00  0.00    -0.165 OA 
HETATM   31  O   UNL     1     -11.080   9.411  67.312  1.00  0.00    -0.085 OA 
BRANCH  29  32
HETATM   32  C   UNL     1     -10.686  11.003  65.240  1.00  0.00    -0.164 C  
HETATM   33  C   UNL     1     -11.689  12.040  64.793  1.00  0.00    -0.342 C  
HETATM   34  C   UNL     1     -10.213  12.329  64.710  1.00  0.00    -0.308 C  
ENDBRANCH  29  32
ENDBRANCH  27  29
ENDBRANCH  24  27
ENDBRANCH   5  24
BRANCH  22  35
HETATM   35  O   UNL     1      -5.157  11.143  69.178  1.00  0.00    -0.042 OA 
BRANCH  35  36
HETATM   36  C   UNL     1      -6.079  10.158  68.945  1.00  0.00    -0.043 A  
HETATM   37  C   UNL     1      -6.697   7.968  65.374  1.00  0.00    -0.055 A  
HETATM   38  C   UNL     1      -5.252   9.304  66.729  1.00  0.00    -0.038 A  
HETATM   39  C   UNL     1      -6.200   9.369  67.773  1.00  0.00    -0.054 A  
HETATM   40  C   UNL     1      -6.950   9.969  70.014  1.00  0.00    -0.135 A  
HETATM   41  C   UNL     1      -7.594   7.881  66.456  1.00  0.00    -0.092 A  
HETATM   42  C   UNL     1      -7.349   8.560  67.667  1.00  0.00    -0.089 A  
HETATM   43  C   UNL     1      -8.858   7.065  66.346  1.00  0.00    -0.158 C  
HETATM   44  C   UNL     1      -5.509   8.654  65.530  1.00  0.00    -0.035 A  
HETATM   45  C   UNL     1      -7.981   9.064  69.873  1.00  0.00    -0.103 A  
HETATM   46  N   UNL     1      -8.204   8.417  68.701  1.00  0.00    -0.122 NA 
BRANCH  37  47
HETATM   47  O   UNL     1      -7.013   7.294  64.220  1.00  0.00    -0.052 OA 
HETATM   48  C   UNL     1      -7.109   8.094  63.042  1.00  0.00    -0.088 C  
ENDBRANCH  37  47
BRANCH  45  49
HETATM   49  C   UNL     1      -8.875   8.748  71.007  1.00  0.00    -0.211 A  
HETATM   50  N   UNL     1     -10.198   8.728  70.950  1.00  0.00    -0.211 NA 
HETATM   51  C   UNL     1     -10.744   8.454  72.200  1.00  0.00    -0.337 A  
HETATM   52  C   UNL     1      -9.811   8.261  73.199  1.00  0.00    -0.096 A  
HETATM   53  C   UNL     1     -12.240   8.388  72.366  1.00  0.00    -0.430 C  
HETATM   54  C   UNL     1     -12.908   9.721  72.027  1.00  0.00    -0.491 C  
HETATM   55  S   UNL     1      -8.230   8.418  72.574  1.00  0.00    -0.092 SA 
HETATM   56  C   UNL     1     -12.848   7.254  71.541  1.00  0.00    -0.430 C  
ENDBRANCH  45  49
ENDBRANCH  35  36
ENDBRANCH  22  35
TORSDOF 8
ENDMDL
MODEL        8
REMARK 921   NORMALIZED FREE ENERGY PREDICTED BY IDOCK:   -6.35 KCAL/MOL
REMARK 922        TOTAL FREE ENERGY PREDICTED BY IDOCK:  -11.88 KCAL/MOL
REMARK 923 INTER-LIGAND FREE ENERGY PREDICTED BY IDOCK:   -8.78 KCAL/MOL
REMARK 924 INTRA-LIGAND FREE ENERGY PREDICTED BY IDOCK:   -3.10 KCAL/MOL
REMARK 927      BINDING AFFINITY PREDICTED BY RF-SCORE:    0.00 PKD
ROOT
HETATM    1  C   UNL     1     -11.118  17.126  68.058  1.00  0.00    -0.113 C  
HETATM    2  C   UNL     1     -11.498  15.902  67.619  1.00  0.00    -0.070 C  
HETATM    3  C   UNL     1     -11.199  15.020  66.475  1.00  0.00    -0.312 C  
HETATM    4  C   UNL     1     -10.121  15.297  65.487  1.00  0.00    -0.408 C  
HETATM    5  C   UNL     1     -10.022  14.060  66.368  1.00  0.00    -0.294 C  
HETATM    6  C   UNL     1     -10.201  18.209  67.524  1.00  0.00    -0.382 C  
HETATM    7  N   UNL     1      -8.832  14.017  67.180  1.00  0.00    -0.219 NA 
HETATM    8  C   UNL     1      -8.734  14.153  68.450  1.00  0.00    -0.178 C  
HETATM    9  C   UNL     1      -6.210  14.246  68.465  1.00  0.00    -0.090 C  
HETATM   10  C   UNL     1      -9.345  19.002  68.572  1.00  0.00    -0.425 C  
HETATM   11  H   UNL     1      -7.958  13.858  66.680  1.00  0.00     0.000 HD 
HETATM   12  C   UNL     1      -6.776  17.980  69.165  1.00  0.00    -0.247 C  
HETATM   13  C   UNL     1      -5.204  13.120  68.786  1.00  0.00    -0.069 C  
HETATM   14  C   UNL     1      -7.493  13.793  69.171  1.00  0.00     0.062 C  
HETATM   15  O   UNL     1      -9.658  14.600  69.298  1.00  0.00    -0.371 OA 
HETATM   16  C   UNL     1      -5.907  15.661  68.993  1.00  0.00    -0.105 C  
HETATM   17  C   UNL     1      -7.388  12.285  69.275  1.00  0.00     0.183 C  
HETATM   18  C   UNL     1      -7.287  16.659  67.158  1.00  0.00    -0.185 C  
HETATM   19  C   UNL     1      -7.786  19.068  68.688  1.00  0.00    -0.378 C  
HETATM   20  H   UNL     1      -9.584  14.700  70.240  1.00  0.00     0.000 HD 
HETATM   21  N   UNL     1      -6.702  16.698  68.469  1.00  0.00    -0.142 N  
HETATM   22  C   UNL     1      -5.953  12.171  69.736  1.00  0.00    -0.137 C  
HETATM   23  O   UNL     1      -5.137  15.834  69.935  1.00  0.00    -0.107 OA 
ENDROOT
BRANCH   5  24
HETATM   24  C   UNL     1     -10.086  12.763  65.579  1.00  0.00    -0.264 C  
HETATM   25  H   UNL     1     -10.395  12.177  63.764  1.00  0.00     0.000 HD 
HETATM   26  O   UNL     1     -10.355  12.988  64.257  1.00  0.00    -0.404 OA 
BRANCH  24  27
HETATM   27  N   UNL     1      -9.805  11.626  66.062  1.00  0.00    -0.222 N  
HETATM   28  H   UNL     1      -8.882  11.217  65.919  1.00  0.00     0.000 HD 
BRANCH  27  29
HETATM   29  S   UNL     1     -10.923  10.837  66.902  1.00  0.00    -0.122 S  
HETATM   30  O   UNL     1     -12.160  11.615  66.854  1.00  0.00    -0.512 OA 
HETATM   31  O   UNL     1     -10.955   9.429  66.586  1.00  0.00     0.022 OA 
BRANCH  29  32
HETATM   32  C   UNL     1     -10.372  10.933  68.679  1.00  0.00    -0.191 C  
HETATM   33  C   UNL     1     -11.281  11.793  69.524  1.00  0.00    -0.265 C  
HETATM   34  C   UNL     1     -11.268  10.297  69.706  1.00  0.00    -0.339 C  
ENDBRANCH  29  32
ENDBRANCH  27  29
ENDBRANCH  24  27
ENDBRANCH   5  24
BRANCH  22  35
HETATM   35  O   UNL     1      -5.583  10.803  69.737  1.00  0.00    -0.039 OA 
BRANCH  35  36
HETATM   36  C   UNL     1      -6.470   9.903  69.211  1.00  0.00    -0.048 A  
HETATM   37  C   UNL     1      -9.302   7.531  71.281  1.00  0.00    -0.149 A  
HETATM   38  C   UNL     1      -7.892   9.460  71.237  1.00  0.00     0.165 A  
HETATM   39  C   UNL     1      -7.477   9.195  69.913  1.00  0.00    -0.070 A  
HETATM   40  C   UNL     1      -6.306   9.719  67.841  1.00  0.00    -0.056 A  
HETATM   41  C   UNL     1      -9.032   7.331  69.914  1.00  0.00    -0.142 A  
HETATM   42  C   UNL     1      -8.138   8.166  69.213  1.00  0.00    -0.117 A  
HETATM   43  C   UNL     1      -9.686   6.202  69.156  1.00  0.00    -0.164 C  
HETATM   44  C   UNL     1      -8.754   8.621  71.929  1.00  0.00    -0.256 A  
HETATM   45  C   UNL     1      -7.081   8.773  67.204  1.00  0.00    -0.075 A  
HETATM   46  N   UNL     1      -7.939   7.977  67.892  1.00  0.00    -0.126 NA 
BRANCH  37  47
HETATM   47  O   UNL     1     -10.169   6.666  71.900  1.00  0.00    -0.187 OA 
HETATM   48  C   UNL     1     -11.524   7.107  71.991  1.00  0.00    -0.274 C  
ENDBRANCH  37  47
BRANCH  45  49
HETATM   49  C   UNL     1      -7.023   8.604  65.737  1.00  0.00    -0.075 A  
HETATM   50  N   UNL     1      -7.053   9.592  64.856  1.00  0.00    -0.108 NA 
HETATM   51  C   UNL     1      -7.041   9.097  63.555  1.00  0.00    -0.089 A  
HETATM   52  C   UNL     1      -6.995   7.720  63.471  1.00  0.00    -0.072 A  
HETATM   53  C   UNL     1      -7.076  10.051  62.389  1.00  0.00    -0.131 C  
HETATM   54  C   UNL     1      -8.352  10.893  62.383  1.00  0.00    -0.293 C  
HETATM   55  S   UNL     1      -6.960   7.029  65.032  1.00  0.00    -0.053 SA 
HETATM   56  C   UNL     1      -5.838  10.946  62.358  1.00  0.00    -0.135 C  
ENDBRANCH  45  49
ENDBRANCH  35  36
ENDBRANCH  22  35
TORSDOF 8
ENDMDL
MODEL        9
REMARK 921   NORMALIZED FREE ENERGY PREDICTED BY IDOCK:   -6.12 KCAL/MOL
REMARK 922        TOTAL FREE ENERGY PREDICTED BY IDOCK:  -11.55 KCAL/MOL
REMARK 923 INTER-LIGAND FREE ENERGY PREDICTED BY IDOCK:   -9.24 KCAL/MOL
REMARK 924 INTRA-LIGAND FREE ENERGY PREDICTED BY IDOCK:   -2.31 KCAL/MOL
REMARK 927      BINDING AFFINITY PREDICTED BY RF-SCORE:    0.00 PKD
ROOT
HETATM    1  C   UNL     1     -10.540   5.947  66.888  1.00  0.00    -0.384 C  
HETATM    2  C   UNL     1     -11.024   6.453  68.047  1.00  0.00    -0.400 C  
HETATM    3  C   UNL     1     -10.610   6.510  69.462  1.00  0.00    -0.293 C  
HETATM    4  C   UNL     1      -9.272   6.069  69.941  1.00  0.00    -0.159 C  
HETATM    5  C   UNL     1      -9.665   7.533  70.077  1.00  0.00    -0.172 C  
HETATM    6  C   UNL     1      -9.314   5.136  66.512  1.00  0.00    -0.142 C  
HETATM    7  N   UNL     1      -8.773   8.441  69.401  1.00  0.00    -0.136 NA 
HETATM    8  C   UNL     1      -8.997   9.135  68.347  1.00  0.00    -0.133 C  
HETATM    9  C   UNL     1      -6.606   9.903  68.080  1.00  0.00    -0.056 C  
HETATM   10  C   UNL     1      -8.633   5.465  65.137  1.00  0.00    -0.149 C  
HETATM   11  H   UNL     1      -7.847   8.544  69.814  1.00  0.00     0.000 HD 
HETATM   12  C   UNL     1      -6.580   7.409  65.159  1.00  0.00    -0.044 C  
HETATM   13  C   UNL     1      -5.972  11.248  68.495  1.00  0.00    -0.042 C  
HETATM   14  C   UNL     1      -8.097  10.237  67.943  1.00  0.00    -0.102 C  
HETATM   15  O   UNL     1     -10.007   9.014  67.489  1.00  0.00    -0.180 OA 
HETATM   16  C   UNL     1      -6.180   9.285  66.734  1.00  0.00    -0.065 C  
HETATM   17  C   UNL     1      -8.329  11.434  68.841  1.00  0.00    -0.042 C  
HETATM   18  C   UNL     1      -6.783   7.004  67.573  1.00  0.00    -0.068 C  
HETATM   19  C   UNL     1      -7.183   5.998  64.886  1.00  0.00    -0.066 C  
HETATM   20  H   UNL     1     -10.173   9.528  66.708  1.00  0.00     0.000 HD 
HETATM   21  N   UNL     1      -6.579   7.953  66.514  1.00  0.00    -0.053 N  
HETATM   22  C   UNL     1      -7.125  12.265  68.457  1.00  0.00    -0.099 C  
HETATM   23  O   UNL     1      -5.676   9.976  65.853  1.00  0.00    -0.059 OA 
ENDROOT
BRANCH   5  24
HETATM   24  C   UNL     1      -9.772   7.987  71.523  1.00  0.00    -0.167 C  
HETATM   25  H   UNL     1     -10.859   9.166  72.602  1.00  0.00     0.000 HD 
HETATM   26  O   UNL     1     -10.792   8.882  71.698  1.00  0.00    -0.296 OA 
BRANCH  24  27
HETATM   27  N   UNL     1      -9.081   7.507  72.470  1.00  0.00    -0.139 N  
HETATM   28  H   UNL     1      -9.333   6.614  72.893  1.00  0.00     0.000 HD 
BRANCH  27  29
HETATM   29  S   UNL     1      -7.801   8.324  72.994  1.00  0.00    -0.094 S  
HETATM   30  O   UNL     1      -7.359   9.213  71.922  1.00  0.00    -0.334 OA 
HETATM   31  O   UNL     1      -7.997   8.854  74.324  1.00  0.00    -0.342 OA 
BRANCH  29  32
HETATM   32  C   UNL     1      -6.438   7.065  73.159  1.00  0.00    -0.065 C  
HETATM   33  C   UNL     1      -6.914   5.656  72.896  1.00  0.00    -0.084 C  
HETATM   34  C   UNL     1      -6.016   6.350  71.905  1.00  0.00    -0.037 C  
ENDBRANCH  29  32
ENDBRANCH  27  29
ENDBRANCH  24  27
ENDBRANCH   5  24
BRANCH  22  35
HETATM   35  O   UNL     1      -7.051  13.386  69.320  1.00  0.00    -0.056 OA 
BRANCH  35  36
HETATM   36  C   UNL     1      -7.396  14.608  68.808  1.00  0.00    -0.131 A  
HETATM   37  C   UNL     1      -5.944  18.415  69.961  1.00  0.00    -0.172 A  
HETATM   38  C   UNL     1      -5.641  16.046  69.892  1.00  0.00    -0.154 A  
HETATM   39  C   UNL     1      -6.823  15.861  69.141  1.00  0.00    -0.170 A  
HETATM   40  C   UNL     1      -8.421  14.531  67.870  1.00  0.00    -0.161 A  
HETATM   41  C   UNL     1      -7.035  18.278  69.081  1.00  0.00    -0.230 A  
HETATM   42  C   UNL     1      -7.473  17.009  68.648  1.00  0.00    -0.229 A  
HETATM   43  C   UNL     1      -7.781  19.491  68.583  1.00  0.00    -0.390 C  
HETATM   44  C   UNL     1      -5.229  17.294  70.335  1.00  0.00    -0.246 A  
HETATM   45  C   UNL     1      -8.921  15.702  67.340  1.00  0.00    -0.194 A  
HETATM   46  N   UNL     1      -8.489  16.916  67.766  1.00  0.00    -0.193 NA 
BRANCH  37  47
HETATM   47  O   UNL     1      -5.588  19.681  70.353  1.00  0.00    -0.227 OA 
HETATM   48  C   UNL     1      -5.129  19.806  71.699  1.00  0.00    -0.390 C  
ENDBRANCH  37  47
BRANCH  45  49
HETATM   49  C   UNL     1      -9.938  15.678  66.268  1.00  0.00    -0.295 A  
HETATM   50  N   UNL     1     -10.538  14.589  65.812  1.00  0.00    -0.302 NA 
HETATM   51  C   UNL     1     -11.397  14.898  64.762  1.00  0.00    -0.397 A  
HETATM   52  C   UNL     1     -11.440  16.240  64.439  1.00  0.00    -0.111 A  
HETATM   53  C   UNL     1     -12.183  13.804  64.088  1.00  0.00    -0.443 C  
HETATM   54  C   UNL     1     -11.267  12.767  63.437  1.00  0.00    -0.325 C  
HETATM   55  S   UNL     1     -10.400  17.132  65.458  1.00  0.00     0.005 SA 
HETATM   56  C   UNL     1     -13.156  13.132  65.057  1.00  0.00    -0.026 C  
ENDBRANCH  45  49
ENDBRANCH  35  36
ENDBRANCH  22  35
TORSDOF 8
ENDMDL
MODEL       10
REMARK 921   NORMALIZED FREE ENERGY PREDICTED BY IDOCK:   -5.93 KCAL/MOL
REMARK 922        TOTAL FREE ENERGY PREDICTED BY IDOCK:  -11.27 KCAL/MOL
REMARK 923 INTER-LIGAND FREE ENERGY PREDICTED BY IDOCK:  -10.40 KCAL/MOL
REMARK 924 INTRA-LIGAND FREE ENERGY PREDICTED BY IDOCK:   -0.87 KCAL/MOL
REMARK 927      BINDING AFFINITY PREDICTED BY RF-SCORE:    0.00 PKD
ROOT
HETATM    1  C   UNL     1      -9.795   4.165  66.107  1.00  0.00    -0.207 C  
HETATM    2  C   UNL     1     -10.017   4.575  67.378  1.00  0.00    -0.171 C  
HETATM    3  C   UNL     1      -9.220   5.102  68.503  1.00  0.00    -0.145 C  
HETATM    4  C   UNL     1      -7.789   5.489  68.381  1.00  0.00    -0.088 C  
HETATM    5  C   UNL     1      -8.822   6.556  68.713  1.00  0.00    -0.125 C  
HETATM    6  C   UNL     1      -8.560   4.019  65.238  1.00  0.00    -0.114 C  
HETATM    7  N   UNL     1      -8.868   7.638  67.762  1.00  0.00    -0.126 NA 
HETATM    8  C   UNL     1      -9.790   7.910  66.914  1.00  0.00    -0.239 C  
HETATM    9  C   UNL     1      -8.467   9.700  65.721  1.00  0.00    -0.142 C  
HETATM   10  C   UNL     1      -8.711   4.372  63.717  1.00  0.00    -0.129 C  
HETATM   11  H   UNL     1      -8.066   8.267  67.764  1.00  0.00     0.000 HD 
HETATM   12  C   UNL     1      -8.170   7.043  62.963  1.00  0.00     0.060 C  
HETATM   13  C   UNL     1      -8.550  11.233  65.885  1.00  0.00    -0.096 C  
HETATM   14  C   UNL     1      -9.834   9.212  66.214  1.00  0.00    -0.359 C  
HETATM   15  O   UNL     1     -10.807   7.139  66.539  1.00  0.00    -0.482 OA 
HETATM   16  C   UNL     1      -8.297   9.131  64.299  1.00  0.00    -0.173 C  
HETATM   17  C   UNL     1     -10.327  10.282  67.167  1.00  0.00    -0.292 C  
HETATM   18  C   UNL     1      -7.238   7.065  65.235  1.00  0.00    -0.074 C  
HETATM   19  C   UNL     1      -7.977   5.497  62.914  1.00  0.00    -0.098 C  
HETATM   20  H   UNL     1     -11.490   7.340  65.910  1.00  0.00     0.000 HD 
HETATM   21  N   UNL     1      -7.971   7.764  64.217  1.00  0.00    -0.135 N  
HETATM   22  C   UNL     1      -9.988  11.510  66.353  1.00  0.00    -0.209 C  
HETATM   23  O   UNL     1      -8.598   9.797  63.311  1.00  0.00    -0.166 OA 
ENDROOT
BRANCH   5  24
HETATM   24  C   UNL     1      -8.624   7.165  70.091  1.00  0.00    -0.140 C  
HETATM   25  H   UNL     1      -7.306   8.207  71.046  1.00  0.00     0.000 HD 
HETATM   26  O   UNL     1      -7.429   7.826  70.184  1.00  0.00    -0.079 OA 
BRANCH  24  27
HETATM   27  N   UNL     1      -9.506   7.165  70.999  1.00  0.00    -0.159 N  
HETATM   28  H   UNL     1      -9.963   6.296  71.276  1.00  0.00     0.000 HD 
BRANCH  27  29
HETATM   29  S   UNL     1      -9.897   8.552  71.709  1.00  0.00    -0.297 S  
HETATM   30  O   UNL     1      -8.978   8.766  72.825  1.00  0.00    -0.361 OA 
HETATM   31  O   UNL     1     -10.116   9.613  70.754  1.00  0.00    -0.278 OA 
BRANCH  29  32
HETATM   32  C   UNL     1     -11.553   8.255  72.507  1.00  0.00    -0.385 C  
HETATM   33  C   UNL     1     -12.616   9.209  72.014  1.00  0.00    -0.463 C  
HETATM   34  C   UNL     1     -12.660   7.756  71.619  1.00  0.00    -0.357 C  
ENDBRANCH  29  32
ENDBRANCH  27  29
ENDBRANCH  24  27
ENDBRANCH   5  24
BRANCH  22  35
HETATM   35  O   UNL     1     -10.218  12.661  67.147  1.00  0.00    -0.223 OA 
BRANCH  35  36
HETATM   36  C   UNL     1      -9.126  13.338  67.618  1.00  0.00    -0.204 A  
HETATM   37  C   UNL     1      -6.148  11.936  70.282  1.00  0.00    -0.103 A  
HETATM   38  C   UNL     1      -7.880  11.446  68.710  1.00  0.00    -0.128 A  
HETATM   39  C   UNL     1      -8.088  12.815  68.430  1.00  0.00    -0.129 A  
HETATM   40  C   UNL     1      -9.100  14.670  67.216  1.00  0.00    -0.215 A  
HETATM   41  C   UNL     1      -6.222  13.291  69.907  1.00  0.00    -0.097 A  
HETATM   42  C   UNL     1      -7.174  13.741  68.969  1.00  0.00    -0.063 A  
HETATM   43  C   UNL     1      -5.289  14.310  70.513  1.00  0.00    -0.118 C  
HETATM   44  C   UNL     1      -6.958  11.012  69.651  1.00  0.00    -0.110 A  
HETATM   45  C   UNL     1      -8.096  15.485  67.694  1.00  0.00    -0.146 A  
HETATM   46  N   UNL     1      -7.186  15.037  68.596  1.00  0.00    -0.110 NA 
BRANCH  37  47
HETATM   47  O   UNL     1      -5.208  11.575  71.215  1.00  0.00    -0.203 OA 
HETATM   48  C   UNL     1      -5.130  10.181  71.509  1.00  0.00    -0.081 C  
ENDBRANCH  37  47
BRANCH  45  49
HETATM   49  C   UNL     1      -7.959  16.879  67.223  1.00  0.00    -0.174 A  
HETATM   50  N   UNL     1      -8.946  17.760  67.155  1.00  0.00    -0.242 NA 
HETATM   51  C   UNL     1      -8.503  18.962  66.614  1.00  0.00    -0.302 A  
HETATM   52  C   UNL     1      -7.162  18.977  66.282  1.00  0.00    -0.248 A  
HETATM   53  C   UNL     1      -9.466  20.108  66.440  1.00  0.00    -0.479 C  
HETATM   54  C   UNL     1     -10.608  19.749  65.488  1.00  0.00    -0.345 C  
HETATM   55  S   UNL     1      -6.441  17.473  66.652  1.00  0.00    -0.240 SA 
HETATM   56  C   UNL     1     -10.013  20.591  67.782  1.00  0.00    -0.410 C  
ENDBRANCH  45  49
ENDBRANCH  35  36
ENDBRANCH  22  35
TORSDOF 8
ENDMDL
MODEL       11
REMARK 921   NORMALIZED FREE ENERGY PREDICTED BY IDOCK:   -5.88 KCAL/MOL
REMARK 922        TOTAL FREE ENERGY PREDICTED BY IDOCK:  -11.19 KCAL/MOL
REMARK 923 INTER-LIGAND FREE ENERGY PREDICTED BY IDOCK:   -8.74 KCAL/MOL
REMARK 924 INTRA-LIGAND FREE ENERGY PREDICTED BY IDOCK:   -2.45 KCAL/MOL
REMARK 927      BINDING AFFINITY PREDICTED BY RF-SCORE:    0.00 PKD
ROOT
HETATM    1  C   UNL     1     -11.485  16.647  68.916  1.00  0.00    -0.023 C  
HETATM    2  C   UNL     1     -11.899  15.361  68.832  1.00  0.00    -0.350 C  
HETATM    3  C   UNL     1     -12.033  14.332  67.783  1.00  0.00    -0.384 C  
HETATM    4  C   UNL     1     -11.506  14.498  66.401  1.00  0.00    -0.362 C  
HETATM    5  C   UNL     1     -10.928  13.407  67.291  1.00  0.00    -0.272 C  
HETATM    6  C   UNL     1     -10.986  17.671  67.915  1.00  0.00    -0.115 C  
HETATM    7  N   UNL     1      -9.508  13.523  67.506  1.00  0.00    -0.215 NA 
HETATM    8  C   UNL     1      -8.893  13.846  68.583  1.00  0.00    -0.076 C  
HETATM    9  C   UNL     1      -6.622  14.025  67.492  1.00  0.00    -0.101 C  
HETATM   10  C   UNL     1      -9.845  18.638  68.388  1.00  0.00    -0.424 C  
HETATM   11  H   UNL     1      -8.917  13.322  66.700  1.00  0.00     0.000 HD 
HETATM   12  C   UNL     1      -7.184  17.800  67.926  1.00  0.00    -0.210 C  
HETATM   13  C   UNL     1      -5.475  12.992  67.476  1.00  0.00    -0.043 C  
HETATM   14  C   UNL     1      -7.436  13.637  68.732  1.00  0.00    -0.088 C  
HETATM   15  O   UNL     1      -9.407  14.380  69.688  1.00  0.00    -0.290 OA 
HETATM   16  C   UNL     1      -6.257  15.512  67.668  1.00  0.00    -0.149 C  
HETATM   17  C   UNL     1      -7.157  12.165  68.956  1.00  0.00    -0.062 C  
HETATM   18  C   UNL     1      -8.372  16.184  66.508  1.00  0.00    -0.317 C  
HETATM   19  C   UNL     1      -8.397  18.772  67.809  1.00  0.00    -0.293 C  
HETATM   20  H   UNL     1      -8.951  14.619  70.487  1.00  0.00     0.000 HD 
HETATM   21  N   UNL     1      -7.292  16.433  67.422  1.00  0.00    -0.140 N  
HETATM   22  C   UNL     1      -5.658  12.167  68.761  1.00  0.00    -0.050 C  
HETATM   23  O   UNL     1      -5.180  15.845  68.156  1.00  0.00    -0.100 OA 
ENDROOT
BRANCH   5  24
HETATM   24  C   UNL     1     -11.198  12.007  66.765  1.00  0.00    -0.322 C  
HETATM   25  H   UNL     1     -12.381  11.123  65.518  1.00  0.00     0.000 HD 
HETATM   26  O   UNL     1     -12.212  11.999  65.846  1.00  0.00    -0.531 OA 
BRANCH  24  27
HETATM   27  N   UNL     1     -10.494  10.994  67.052  1.00  0.00    -0.228 N  
HETATM   28  H   UNL     1      -9.836  10.613  66.373  1.00  0.00     0.000 HD 
BRANCH  27  29
HETATM   29  S   UNL     1     -10.652  10.318  68.500  1.00  0.00    -0.227 S  
HETATM   30  O   UNL     1     -11.029   8.919  68.310  1.00  0.00    -0.051 OA 
HETATM   31  O   UNL     1      -9.556  10.646  69.381  1.00  0.00    -0.187 OA 
BRANCH  29  32
HETATM   32  C   UNL     1     -12.154  11.115  69.261  1.00  0.00    -0.308 C  
HETATM   33  C   UNL     1     -12.514  10.515  70.600  1.00  0.00    -0.456 C  
HETATM   34  C   UNL     1     -11.941  11.906  70.522  1.00  0.00    -0.360 C  
ENDBRANCH  29  32
ENDBRANCH  27  29
ENDBRANCH  24  27
ENDBRANCH   5  24
BRANCH  22  35
HETATM   35  O   UNL     1      -5.196  10.828  68.762  1.00  0.00    -0.042 OA 
BRANCH  35  36
HETATM   36  C   UNL     1      -6.074   9.852  68.373  1.00  0.00    -0.046 A  
HETATM   37  C   UNL     1      -7.750   9.244  64.533  1.00  0.00    -0.114 A  
HETATM   38  C   UNL     1      -6.015  10.183  65.881  1.00  0.00    -0.084 A  
HETATM   39  C   UNL     1      -6.543   9.608  67.058  1.00  0.00    -0.067 A  
HETATM   40  C   UNL     1      -6.504   9.058  69.432  1.00  0.00    -0.044 A  
HETATM   41  C   UNL     1      -8.206   8.530  65.656  1.00  0.00    -0.130 A  
HETATM   42  C   UNL     1      -7.601   8.687  66.920  1.00  0.00    -0.084 A  
HETATM   43  C   UNL     1      -9.372   7.579  65.545  1.00  0.00     0.375 C  
HETATM   44  C   UNL     1      -6.630  10.044  64.645  1.00  0.00    -0.128 A  
HETATM   45  C   UNL     1      -7.457   8.091  69.188  1.00  0.00    -0.095 A  
HETATM   46  N   UNL     1      -8.030   7.951  67.966  1.00  0.00    -0.126 NA 
BRANCH  37  47
HETATM   47  O   UNL     1      -8.402   9.053  63.339  1.00  0.00    -0.178 OA 
HETATM   48  C   UNL     1      -9.149  10.169  62.856  1.00  0.00    -0.286 C  
ENDBRANCH  37  47
BRANCH  45  49
HETATM   49  C   UNL     1      -7.877   7.153  70.250  1.00  0.00    -0.104 A  
HETATM   50  N   UNL     1      -7.615   7.297  71.540  1.00  0.00    -0.085 NA 
HETATM   51  C   UNL     1      -8.096   6.213  72.268  1.00  0.00    -0.109 A  
HETATM   52  C   UNL     1      -8.733   5.254  71.506  1.00  0.00    -0.134 A  
HETATM   53  C   UNL     1      -7.902   6.167  73.761  1.00  0.00    -0.097 C  
HETATM   54  C   UNL     1      -6.421   6.154  74.140  1.00  0.00    -0.071 C  
HETATM   55  S   UNL     1      -8.737   5.707  69.860  1.00  0.00    -0.127 SA 
HETATM   56  C   UNL     1      -8.628   7.317  74.459  1.00  0.00    -0.230 C  
ENDBRANCH  45  49
ENDBRANCH  35  36
ENDBRANCH  22  35
TORSDOF 8
ENDMDL
MODEL       12
REMARK 921   NORMALIZED FREE ENERGY PREDICTED BY IDOCK:   -5.86 KCAL/MOL
REMARK 922        TOTAL FREE ENERGY PREDICTED BY IDOCK:  -11.16 KCAL/MOL
REMARK 923 INTER-LIGAND FREE ENERGY PREDICTED BY IDOCK:  -10.44 KCAL/MOL
REMARK 924 INTRA-LIGAND FREE ENERGY PREDICTED BY IDOCK:   -0.72 KCAL/MOL
REMARK 927      BINDING AFFINITY PREDICTED BY RF-SCORE:    0.00 PKD
ROOT
HETATM    1  C   UNL     1     -11.224  16.835  68.864  1.00  0.00    -0.113 C  
HETATM    2  C   UNL     1     -11.856  15.647  68.718  1.00  0.00    -0.336 C  
HETATM    3  C   UNL     1     -12.153  14.703  67.623  1.00  0.00    -0.216 C  
HETATM    4  C   UNL     1     -11.583  14.833  66.254  1.00  0.00    -0.298 C  
HETATM    5  C   UNL     1     -11.220  13.620  67.098  1.00  0.00    -0.309 C  
HETATM    6  C   UNL     1     -10.536  17.797  67.914  1.00  0.00    -0.401 C  
HETATM    7  N   UNL     1      -9.805  13.474  67.331  1.00  0.00    -0.224 NA 
HETATM    8  C   UNL     1      -9.161  13.637  68.426  1.00  0.00    -0.165 C  
HETATM    9  C   UNL     1      -6.876  13.459  67.363  1.00  0.00    -0.081 C  
HETATM   10  C   UNL     1      -9.250  18.525  68.440  1.00  0.00    -0.347 C  
HETATM   11  H   UNL     1      -9.247  13.207  66.521  1.00  0.00     0.000 HD 
HETATM   12  C   UNL     1      -6.772  17.251  67.962  1.00  0.00    -0.173 C  
HETATM   13  C   UNL     1      -5.929  12.241  67.310  1.00  0.00    -0.150 C  
HETATM   14  C   UNL     1      -7.766  13.167  68.578  1.00  0.00    -0.117 C  
HETATM   15  O   UNL     1      -9.591  14.205  69.550  1.00  0.00    -0.300 OA 
HETATM   16  C   UNL     1      -6.258  14.848  67.608  1.00  0.00    -0.100 C  
HETATM   17  C   UNL     1      -7.754  11.661  68.737  1.00  0.00    -0.111 C  
HETATM   18  C   UNL     1      -8.203  15.933  66.463  1.00  0.00    -0.272 C  
HETATM   19  C   UNL     1      -7.793  18.427  67.879  1.00  0.00    -0.267 C  
HETATM   20  H   UNL     1      -9.112  14.326  70.362  1.00  0.00     0.000 HD 
HETATM   21  N   UNL     1      -7.111  15.948  67.396  1.00  0.00    -0.178 N  
HETATM   22  C   UNL     1      -6.275  11.407  68.554  1.00  0.00    -0.046 C  
HETATM   23  O   UNL     1      -5.148  14.965  68.120  1.00  0.00    -0.103 OA 
ENDROOT
BRANCH   5  24
HETATM   24  C   UNL     1     -11.725  12.313  66.508  1.00  0.00    -0.352 C  
HETATM   25  H   UNL     1     -11.997  10.479  67.053  1.00  0.00     0.000 HD 
HETATM   26  O   UNL     1     -11.681  11.296  67.423  1.00  0.00    -0.580 OA 
BRANCH  24  27
HETATM   27  N   UNL     1     -12.234  12.207  65.354  1.00  0.00    -0.204 N  
HETATM   28  H   UNL     1     -13.243  12.270  65.226  1.00  0.00     0.000 HD 
BRANCH  27  29
HETATM   29  S   UNL     1     -11.267  11.973  64.093  1.00  0.00    -0.403 S  
HETATM   30  O   UNL     1     -12.086  11.527  62.968  1.00  0.00    -0.142 OA 
HETATM   31  O   UNL     1     -10.334  13.060  63.908  1.00  0.00    -0.382 OA 
BRANCH  29  32
HETATM   32  C   UNL     1     -10.222  10.495  64.534  1.00  0.00    -0.285 C  
HETATM   33  C   UNL     1      -9.043  10.320  63.606  1.00  0.00    -0.284 C  
HETATM   34  C   UNL     1      -8.828  10.768  65.028  1.00  0.00    -0.190 C  
ENDBRANCH  29  32
ENDBRANCH  27  29
ENDBRANCH  24  27
ENDBRANCH   5  24
BRANCH  22  35
HETATM   35  O   UNL     1      -6.056  10.008  68.499  1.00  0.00    -0.045 OA 
BRANCH  35  36
HETATM   36  C   UNL     1      -7.095   9.218  68.085  1.00  0.00    -0.077 A  
HETATM   37  C   UNL     1     -10.632   8.256  70.205  1.00  0.00    -0.233 A  
HETATM   38  C   UNL     1      -8.768   9.718  69.895  1.00  0.00    -0.238 A  
HETATM   39  C   UNL     1      -8.314   8.992  68.772  1.00  0.00    -0.122 A  
HETATM   40  C   UNL     1      -6.856   8.609  66.857  1.00  0.00    -0.070 A  
HETATM   41  C   UNL     1     -10.297   7.610  69.000  1.00  0.00    -0.220 A  
HETATM   42  C   UNL     1      -9.152   7.979  68.263  1.00  0.00    -0.135 A  
HETATM   43  C   UNL     1     -11.149   6.486  68.464  1.00  0.00    -0.347 C  
HETATM   44  C   UNL     1      -9.881   9.335  70.629  1.00  0.00    -0.332 A  
HETATM   45  C   UNL     1      -7.789   7.719  66.368  1.00  0.00    -0.094 A  
HETATM   46  N   UNL     1      -8.887   7.373  67.088  1.00  0.00    -0.124 NA 
BRANCH  37  47
HETATM   47  O   UNL     1     -11.751   7.829  70.876  1.00  0.00    -0.289 OA 
HETATM   48  C   UNL     1     -11.787   8.125  72.272  1.00  0.00    -0.382 C  
ENDBRANCH  37  47
BRANCH  45  49
HETATM   49  C   UNL     1      -7.639   7.120  65.026  1.00  0.00    -0.104 A  
HETATM   50  N   UNL     1      -8.243   6.016  64.613  1.00  0.00    -0.130 NA 
HETATM   51  C   UNL     1      -7.845   5.685  63.322  1.00  0.00    -0.100 A  
HETATM   52  C   UNL     1      -6.935   6.562  62.765  1.00  0.00    -0.043 A  
HETATM   53  C   UNL     1      -8.407   4.457  62.654  1.00  0.00    -0.089 C  
HETATM   54  C   UNL     1      -8.050   3.182  63.419  1.00  0.00    -0.084 C  
HETATM   55  S   UNL     1      -6.573   7.820  63.861  1.00  0.00    -0.062 SA 
HETATM   56  C   UNL     1      -9.919   4.565  62.461  1.00  0.00     0.012 C  
ENDBRANCH  45  49
ENDBRANCH  35  36
ENDBRANCH  22  35
TORSDOF 8
ENDMDL
MODEL       13
REMARK 921   NORMALIZED FREE ENERGY PREDICTED BY IDOCK:   -5.81 KCAL/MOL
REMARK 922        TOTAL FREE ENERGY PREDICTED BY IDOCK:  -11.09 KCAL/MOL
REMARK 923 INTER-LIGAND FREE ENERGY PREDICTED BY IDOCK:   -9.76 KCAL/MOL
REMARK 924 INTRA-LIGAND FREE ENERGY PREDICTED BY IDOCK:   -1.33 KCAL/MOL
REMARK 927      BINDING AFFINITY PREDICTED BY RF-SCORE:    0.00 PKD
ROOT
HETATM    1  C   UNL     1     -10.273   5.803  66.706  1.00  0.00    -0.269 C  
HETATM    2  C   UNL     1     -10.383   6.327  67.949  1.00  0.00    -0.239 C  
HETATM    3  C   UNL     1      -9.528   6.479  69.142  1.00  0.00    -0.136 C  
HETATM    4  C   UNL     1      -8.076   6.156  69.155  1.00  0.00    -0.109 C  
HETATM    5  C   UNL     1      -8.520   7.593  69.385  1.00  0.00    -0.132 C  
HETATM    6  C   UNL     1      -9.179   5.064  65.957  1.00  0.00    -0.154 C  
HETATM    7  N   UNL     1      -7.981   8.530  68.430  1.00  0.00    -0.116 NA 
HETATM    8  C   UNL     1      -8.599   9.156  67.499  1.00  0.00    -0.116 C  
HETATM    9  C   UNL     1      -6.504  10.078  66.430  1.00  0.00    -0.075 C  
HETATM   10  C   UNL     1      -9.024   5.376  64.428  1.00  0.00     0.138 C  
HETATM   11  H   UNL     1      -6.982   8.717  68.507  1.00  0.00     0.000 HD 
HETATM   12  C   UNL     1      -7.247   7.459  63.720  1.00  0.00    -0.078 C  
HETATM   13  C   UNL     1      -5.880  11.481  66.582  1.00  0.00    -0.137 C  
HETATM   14  C   UNL     1      -7.977  10.299  66.794  1.00  0.00    -0.114 C  
HETATM   15  O   UNL     1      -9.823   8.925  67.031  1.00  0.00    -0.178 OA 
HETATM   16  C   UNL     1      -6.501   9.429  65.032  1.00  0.00    -0.076 C  
HETATM   17  C   UNL     1      -7.994  11.518  67.693  1.00  0.00    -0.126 C  
HETATM   18  C   UNL     1      -6.601   7.153  66.071  1.00  0.00    -0.052 C  
HETATM   19  C   UNL     1      -7.789   5.997  63.694  1.00  0.00    -0.112 C  
HETATM   20  H   UNL     1     -10.281   9.390  66.341  1.00  0.00     0.000 HD 
HETATM   21  N   UNL     1      -6.840   8.064  64.986  1.00  0.00    -0.054 N  
HETATM   22  C   UNL     1      -7.059  12.412  66.911  1.00  0.00     0.104 C  
HETATM   23  O   UNL     1      -6.377  10.112  64.019  1.00  0.00    -0.128 OA 
ENDROOT
BRANCH   5  24
HETATM   24  C   UNL     1      -8.176   8.106  70.773  1.00  0.00    -0.111 C  
HETATM   25  H   UNL     1      -6.611   8.581  71.803  1.00  0.00     0.000 HD 
HETATM   26  O   UNL     1      -6.826   8.261  70.935  1.00  0.00    -0.040 OA 
BRANCH  24  27
HETATM   27  N   UNL     1      -9.038   8.460  71.631  1.00  0.00    -0.183 N  
HETATM   28  H   UNL     1      -9.544   9.338  71.523  1.00  0.00     0.000 HD 
BRANCH  27  29
HETATM   29  S   UNL     1      -9.321   7.507  72.892  1.00  0.00    -0.203 S  
HETATM   30  O   UNL     1      -8.865   6.160  72.555  1.00  0.00    -0.126 OA 
HETATM   31  O   UNL     1      -8.906   8.108  74.138  1.00  0.00    -0.198 OA 
BRANCH  29  32
HETATM   32  C   UNL     1     -11.175   7.365  73.005  1.00  0.00    -0.297 C  
HETATM   33  C   UNL     1     -11.887   8.515  72.333  1.00  0.00    -0.437 C  
HETATM   34  C   UNL     1     -11.921   7.141  71.718  1.00  0.00    -0.348 C  
ENDBRANCH  29  32
ENDBRANCH  27  29
ENDBRANCH  24  27
ENDBRANCH   5  24
BRANCH  22  35
HETATM   35  O   UNL     1      -6.794  13.575  67.677  1.00  0.00    -0.152 OA 
BRANCH  35  36
HETATM   36  C   UNL     1      -7.830  14.443  67.894  1.00  0.00    -0.150 A  
HETATM   37  C   UNL     1      -8.106  18.504  66.726  1.00  0.00    -0.254 A  
HETATM   38  C   UNL     1      -7.112  16.352  66.423  1.00  0.00     0.087 A  
HETATM   39  C   UNL     1      -7.942  15.769  67.406  1.00  0.00    -0.194 A  
HETATM   40  C   UNL     1      -8.839  13.896  68.682  1.00  0.00    -0.076 A  
HETATM   41  C   UNL     1      -9.051  17.920  67.591  1.00  0.00    -0.250 A  
HETATM   42  C   UNL     1      -8.993  16.551  67.925  1.00  0.00    -0.205 A  
HETATM   43  C   UNL     1     -10.153  18.750  68.202  1.00  0.00    -0.427 C  
HETATM   44  C   UNL     1      -7.159  17.705  66.117  1.00  0.00    -0.347 A  
HETATM   45  C   UNL     1      -9.900  14.697  69.046  1.00  0.00    -0.177 A  
HETATM   46  N   UNL     1      -9.943  16.014  68.717  1.00  0.00    -0.215 NA 
BRANCH  37  47
HETATM   47  O   UNL     1      -8.216  19.847  66.463  1.00  0.00    -0.306 OA 
HETATM   48  C   UNL     1      -7.365  20.699  67.227  1.00  0.00    -0.344 C  
ENDBRANCH  37  47
BRANCH  45  49
HETATM   49  C   UNL     1     -11.048  14.145  69.796  1.00  0.00    -0.092 A  
HETATM   50  N   UNL     1     -11.676  14.760  70.786  1.00  0.00    -0.296 NA 
HETATM   51  C   UNL     1     -12.673  13.949  71.321  1.00  0.00    -0.367 A  
HETATM   52  C   UNL     1     -12.789  12.715  70.713  1.00  0.00    -0.021 A  
HETATM   53  C   UNL     1     -13.514  14.450  72.466  1.00  0.00    -0.593 C  
HETATM   54  C   UNL     1     -12.667  14.748  73.704  1.00  0.00    -0.511 C  
HETATM   55  S   UNL     1     -11.645  12.561  69.454  1.00  0.00    -0.290 SA 
HETATM   56  C   UNL     1     -14.336  15.674  72.066  1.00  0.00    -0.486 C  
ENDBRANCH  45  49
ENDBRANCH  35  36
ENDBRANCH  22  35
TORSDOF 8
ENDMDL
MODEL       14
REMARK 921   NORMALIZED FREE ENERGY PREDICTED BY IDOCK:   -5.71 KCAL/MOL
REMARK 922        TOTAL FREE ENERGY PREDICTED BY IDOCK:  -10.94 KCAL/MOL
REMARK 923 INTER-LIGAND FREE ENERGY PREDICTED BY IDOCK:   -8.84 KCAL/MOL
REMARK 924 INTRA-LIGAND FREE ENERGY PREDICTED BY IDOCK:   -2.10 KCAL/MOL
REMARK 927      BINDING AFFINITY PREDICTED BY RF-SCORE:    0.00 PKD
ROOT
HETATM    1  C   UNL     1      -6.171  17.736  66.260  1.00  0.00    -0.265 C  
HETATM    2  C   UNL     1      -5.639  16.597  66.765  1.00  0.00    -0.027 C  
HETATM    3  C   UNL     1      -5.311  16.051  68.096  1.00  0.00    -0.115 C  
HETATM    4  C   UNL     1      -5.709  16.707  69.371  1.00  0.00    -0.162 C  
HETATM    5  C   UNL     1      -6.275  15.335  69.032  1.00  0.00    -0.103 C  
HETATM    6  C   UNL     1      -6.656  19.041  66.863  1.00  0.00    -0.203 C  
HETATM    7  N   UNL     1      -7.715  15.299  68.969  1.00  0.00    -0.166 NA 
HETATM    8  C   UNL     1      -8.460  15.161  67.936  1.00  0.00    -0.149 C  
HETATM    9  C   UNL     1     -10.618  15.642  69.158  1.00  0.00    -0.237 C  
HETATM   10  C   UNL     1      -7.919  19.704  66.211  1.00  0.00    -0.339 C  
HETATM   11  H   UNL     1      -8.202  15.394  69.860  1.00  0.00     0.000 HD 
HETATM   12  C   UNL     1     -10.436  18.989  67.283  1.00  0.00    -0.451 C  
HETATM   13  C   UNL     1     -11.662  14.644  69.702  1.00  0.00    -0.358 C  
HETATM   14  C   UNL     1      -9.901  14.847  68.060  1.00  0.00    -0.216 C  
HETATM   15  O   UNL     1      -8.108  15.257  66.656  1.00  0.00    -0.324 OA 
HETATM   16  C   UNL     1     -11.128  16.933  68.489  1.00  0.00    -0.213 C  
HETATM   17  C   UNL     1     -10.070  13.390  68.437  1.00  0.00    -0.244 C  
HETATM   18  C   UNL     1      -8.975  18.087  69.039  1.00  0.00    -0.014 C  
HETATM   19  C   UNL     1      -9.308  19.985  66.876  1.00  0.00    -0.515 C  
HETATM   20  H   UNL     1      -8.661  15.155  65.890  1.00  0.00     0.000 HD 
HETATM   21  N   UNL     1     -10.158  17.923  68.241  1.00  0.00    -0.353 N  
HETATM   22  C   UNL     1     -11.537  13.401  68.804  1.00  0.00    -0.325 C  
HETATM   23  O   UNL     1     -12.273  17.008  68.051  1.00  0.00     1.159 OA 
ENDROOT
BRANCH   5  24
HETATM   24  C   UNL     1      -5.832  14.253  70.002  1.00  0.00    -0.131 C  
HETATM   25  H   UNL     1      -6.087  13.765  71.855  1.00  0.00     0.000 HD 
HETATM   26  O   UNL     1      -6.365  14.442  71.248  1.00  0.00    -0.041 OA 
BRANCH  24  27
HETATM   27  N   UNL     1      -5.152  13.238  69.669  1.00  0.00    -0.083 N  
HETATM   28  H   UNL     1      -4.135  13.249  69.745  1.00  0.00     0.000 HD 
BRANCH  27  29
HETATM   29  S   UNL     1      -5.914  11.933  69.124  1.00  0.00    -0.079 S  
HETATM   30  O   UNL     1      -5.275  10.756  69.710  1.00  0.00    -0.038 OA 
HETATM   31  O   UNL     1      -7.350  12.070  69.188  1.00  0.00    -0.062 OA 
BRANCH  29  32
HETATM   32  C   UNL     1      -5.507  11.839  67.308  1.00  0.00    -0.108 C  
HETATM   33  C   UNL     1      -5.789  10.477  66.720  1.00  0.00    -0.061 C  
HETATM   34  C   UNL     1      -6.659  11.653  66.360  1.00  0.00     0.121 C  
ENDBRANCH  29  32
ENDBRANCH  27  29
ENDBRANCH  24  27
ENDBRANCH   5  24
BRANCH  22  35
HETATM   35  O   UNL     1     -11.877  12.143  69.360  1.00  0.00    -0.299 OA 
BRANCH  35  36
HETATM   36  C   UNL     1     -11.154  11.052  68.956  1.00  0.00    -0.244 A  
HETATM   37  C   UNL     1      -9.634   7.910  71.352  1.00  0.00    -0.153 A  
HETATM   38  C   UNL     1     -11.197   9.695  71.073  1.00  0.00    -0.445 A  
HETATM   39  C   UNL     1     -10.742   9.962  69.762  1.00  0.00    -0.298 A  
HETATM   40  C   UNL     1     -10.828  11.090  67.604  1.00  0.00    -0.306 A  
HETATM   41  C   UNL     1      -9.271   8.046  69.999  1.00  0.00    -0.156 A  
HETATM   42  C   UNL     1      -9.830   9.054  69.187  1.00  0.00    -0.175 A  
HETATM   43  C   UNL     1      -8.255   7.120  69.376  1.00  0.00    -0.132 C  
HETATM   44  C   UNL     1     -10.625   8.717  71.874  1.00  0.00    -0.411 A  
HETATM   45  C   UNL     1     -10.028  10.092  67.089  1.00  0.00    -0.196 A  
HETATM   46  N   UNL     1      -9.497   9.127  67.882  1.00  0.00    -0.140 NA 
BRANCH  37  47
HETATM   47  O   UNL     1      -9.032   6.916  72.084  1.00  0.00    -0.133 OA 
HETATM   48  C   UNL     1      -9.056   7.088  73.500  1.00  0.00    -0.156 C  
ENDBRANCH  37  47
BRANCH  45  49
HETATM   49  C   UNL     1      -9.733  10.024  65.643  1.00  0.00    -0.272 A  
HETATM   50  N   UNL     1      -8.850   9.210  65.084  1.00  0.00    -0.198 NA 
HETATM   51  C   UNL     1      -8.767   9.434  63.713  1.00  0.00    -0.201 A  
HETATM   52  C   UNL     1      -9.606  10.426  63.247  1.00  0.00    -0.308 A  
HETATM   53  C   UNL     1      -7.816   8.619  62.876  1.00  0.00    -0.137 C  
HETATM   54  C   UNL     1      -6.363   8.821  63.307  1.00  0.00    -0.089 C  
HETATM   55  S   UNL     1     -10.517  11.088  64.531  1.00  0.00    -0.313 SA 
HETATM   56  C   UNL     1      -8.183   7.135  62.894  1.00  0.00     0.028 C  
ENDBRANCH  45  49
ENDBRANCH  35  36
ENDBRANCH  22  35
TORSDOF 8
ENDMDL
MODEL       15
REMARK 921   NORMALIZED FREE ENERGY PREDICTED BY IDOCK:   -5.66 KCAL/MOL
REMARK 922        TOTAL FREE ENERGY PREDICTED BY IDOCK:  -10.87 KCAL/MOL
REMARK 923 INTER-LIGAND FREE ENERGY PREDICTED BY IDOCK:   -8.50 KCAL/MOL
REMARK 924 INTRA-LIGAND FREE ENERGY PREDICTED BY IDOCK:   -2.36 KCAL/MOL
REMARK 927      BINDING AFFINITY PREDICTED BY RF-SCORE:    0.00 PKD
ROOT
HETATM    1  C   UNL     1     -11.543  16.192  68.489  1.00  0.00    -0.265 C  
HETATM    2  C   UNL     1     -11.891  14.932  68.135  1.00  0.00    -0.307 C  
HETATM    3  C   UNL     1     -11.799  14.078  66.936  1.00  0.00    -0.458 C  
HETATM    4  C   UNL     1     -11.041  14.461  65.714  1.00  0.00    -0.316 C  
HETATM    5  C   UNL     1     -10.593  13.248  66.518  1.00  0.00    -0.286 C  
HETATM    6  C   UNL     1     -10.909  17.363  67.762  1.00  0.00    -0.257 C  
HETATM    7  N   UNL     1      -9.239  13.339  67.003  1.00  0.00    -0.231 NA 
HETATM    8  C   UNL     1      -8.838  13.495  68.210  1.00  0.00    -0.179 C  
HETATM    9  C   UNL     1      -6.416  13.856  67.591  1.00  0.00    -0.161 C  
HETATM   10  C   UNL     1      -9.906  18.251  68.576  1.00  0.00    -0.400 C  
HETATM   11  H   UNL     1      -8.508  13.270  66.297  1.00  0.00     0.000 HD 
HETATM   12  C   UNL     1      -7.177  17.514  68.484  1.00  0.00    -0.240 C  
HETATM   13  C   UNL     1      -5.250  12.846  67.627  1.00  0.00    -0.090 C  
HETATM   14  C   UNL     1      -7.425  13.274  68.589  1.00  0.00    -0.099 C  
HETATM   15  O   UNL     1      -9.560  13.846  69.272  1.00  0.00    -0.394 OA 
HETATM   16  C   UNL     1      -6.141  15.300  68.054  1.00  0.00    -0.145 C  
HETATM   17  C   UNL     1      -7.139  11.787  68.633  1.00  0.00    -0.101 C  
HETATM   18  C   UNL     1      -8.036  16.130  66.644  1.00  0.00    -0.288 C  
HETATM   19  C   UNL     1      -8.383  18.484  68.297  1.00  0.00    -0.344 C  
HETATM   20  H   UNL     1      -9.262  13.961  70.167  1.00  0.00     0.000 HD 
HETATM   21  N   UNL     1      -7.147  16.241  67.767  1.00  0.00    -0.125 N  
HETATM   22  C   UNL     1      -5.630  11.830  68.716  1.00  0.00    -0.049 C  
HETATM   23  O   UNL     1      -5.181  15.560  68.774  1.00  0.00    -0.097 OA 
ENDROOT
BRANCH   5  24
HETATM   24  C   UNL     1     -10.716  11.945  65.745  1.00  0.00    -0.284 C  
HETATM   25  H   UNL     1     -10.105  11.176  64.081  1.00  0.00     0.000 HD 
HETATM   26  O   UNL     1     -10.027  11.991  64.564  1.00  0.00    -0.257 OA 
BRANCH  24  27
HETATM   27  N   UNL     1     -11.285  10.907  66.194  1.00  0.00     0.058 N  
HETATM   28  H   UNL     1     -12.269  10.728  65.994  1.00  0.00     0.000 HD 
BRANCH  27  29
HETATM   29  S   UNL     1     -10.434   9.874  67.083  1.00  0.00    -0.227 S  
HETATM   30  O   UNL     1     -10.609   8.538  66.519  1.00  0.00    -0.200 OA 
HETATM   31  O   UNL     1      -9.104  10.360  67.365  1.00  0.00    -0.135 OA 
BRANCH  29  32
HETATM   32  C   UNL     1     -11.296   9.808  68.734  1.00  0.00     0.072 C  
HETATM   33  C   UNL     1     -10.382  10.165  69.881  1.00  0.00    -0.308 C  
HETATM   34  C   UNL     1     -11.475  11.112  69.462  1.00  0.00    -0.374 C  
ENDBRANCH  29  32
ENDBRANCH  27  29
ENDBRANCH  24  27
ENDBRANCH   5  24
BRANCH  22  35
HETATM   35  O   UNL     1      -5.130  10.509  68.597  1.00  0.00    -0.039 OA 
BRANCH  35  36
HETATM   36  C   UNL     1      -6.039   9.490  68.509  1.00  0.00    -0.044 A  
HETATM   37  C   UNL     1      -7.990   7.467  71.677  1.00  0.00    -0.090 A  
HETATM   38  C   UNL     1      -6.825   9.402  70.897  1.00  0.00    -0.100 A  
HETATM   39  C   UNL     1      -6.755   8.897  69.580  1.00  0.00    -0.047 A  
HETATM   40  C   UNL     1      -6.229   9.045  67.204  1.00  0.00    -0.059 A  
HETATM   41  C   UNL     1      -8.077   7.012  70.348  1.00  0.00    -0.119 A  
HETATM   42  C   UNL     1      -7.481   7.725  69.287  1.00  0.00    -0.093 A  
HETATM   43  C   UNL     1      -8.803   5.731  70.017  1.00  0.00    -0.139 C  
HETATM   44  C   UNL     1      -7.392   8.684  71.940  1.00  0.00    -0.092 A  
HETATM   45  C   UNL     1      -7.056   7.963  66.989  1.00  0.00    -0.078 A  
HETATM   46  N   UNL     1      -7.624   7.287  68.020  1.00  0.00    -0.112 NA 
BRANCH  37  47
HETATM   47  O   UNL     1      -8.580   6.709  72.658  1.00  0.00    -0.124 OA 
HETATM   48  C   UNL     1      -7.698   6.188  73.652  1.00  0.00    -0.095 C  
ENDBRANCH  37  47
BRANCH  45  49
HETATM   49  C   UNL     1      -7.374   7.510  65.619  1.00  0.00    -0.067 A  
HETATM   50  N   UNL     1      -7.584   6.251  65.264  1.00  0.00    -0.085 NA 
HETATM   51  C   UNL     1      -7.800   6.152  63.893  1.00  0.00    -0.113 A  
HETATM   52  C   UNL     1      -7.756   7.358  63.221  1.00  0.00    -0.121 A  
HETATM   53  C   UNL     1      -8.056   4.805  63.269  1.00  0.00    -0.096 C  
HETATM   54  C   UNL     1      -6.871   3.857  63.460  1.00  0.00    -0.044 C  
HETATM   55  S   UNL     1      -7.446   8.635  64.311  1.00  0.00    -0.115 SA 
HETATM   56  C   UNL     1      -9.343   4.175  63.800  1.00  0.00    -0.147 C  
ENDBRANCH  45  49
ENDBRANCH  35  36
ENDBRANCH  22  35
TORSDOF 8
ENDMDL
MODEL       16
REMARK 921   NORMALIZED FREE ENERGY PREDICTED BY IDOCK:   -5.56 KCAL/MOL
REMARK 922        TOTAL FREE ENERGY PREDICTED BY IDOCK:  -10.72 KCAL/MOL
REMARK 923 INTER-LIGAND FREE ENERGY PREDICTED BY IDOCK:   -8.01 KCAL/MOL
REMARK 924 INTRA-LIGAND FREE ENERGY PREDICTED BY IDOCK:   -2.71 KCAL/MOL
REMARK 927      BINDING AFFINITY PREDICTED BY RF-SCORE:    0.00 PKD
ROOT
HETATM    1  C   UNL     1     -10.264  12.320  65.023  1.00  0.00    -0.312 C  
HETATM    2  C   UNL     1      -9.562  11.162  65.008  1.00  0.00    -0.278 C  
HETATM    3  C   UNL     1      -8.353  10.618  65.656  1.00  0.00    -0.162 C  
HETATM    4  C   UNL     1      -7.632  11.313  66.757  1.00  0.00    -0.151 C  
HETATM    5  C   UNL     1      -8.292   9.969  67.032  1.00  0.00    -0.121 C  
HETATM    6  C   UNL     1     -10.092  13.658  65.718  1.00  0.00    -0.311 C  
HETATM    7  N   UNL     1      -9.280  10.008  68.080  1.00  0.00    -0.127 NA 
HETATM    8  C   UNL     1     -10.552   9.897  67.975  1.00  0.00    -0.242 C  
HETATM    9  C   UNL     1     -11.024  10.510  70.380  1.00  0.00    -0.252 C  
HETATM   10  C   UNL     1     -11.394  14.378  66.213  1.00  0.00    -0.350 C  
HETATM   11  H   UNL     1      -8.921  10.142  69.025  1.00  0.00     0.000 HD 
HETATM   12  C   UNL     1     -12.244  13.815  68.851  1.00  0.00    -0.200 C  
HETATM   13  C   UNL     1     -11.319   9.577  71.574  1.00  0.00    -0.456 C  
HETATM   14  C   UNL     1     -11.407   9.662  69.160  1.00  0.00     0.029 C  
HETATM   15  O   UNL     1     -11.289   9.955  66.868  1.00  0.00    -0.043 OA 
HETATM   16  C   UNL     1     -11.832  11.816  70.263  1.00  0.00    -0.295 C  
HETATM   17  C   UNL     1     -11.267   8.222  69.608  1.00  0.00     0.085 C  
HETATM   18  C   UNL     1      -9.982  12.861  68.939  1.00  0.00     0.107 C  
HETATM   19  C   UNL     1     -11.791  14.743  67.682  1.00  0.00    -0.319 C  
HETATM   20  H   UNL     1     -12.232   9.872  66.791  1.00  0.00     0.000 HD 
HETATM   21  N   UNL     1     -11.363  12.749  69.320  1.00  0.00    -0.263 N  
HETATM   22  C   UNL     1     -11.946   8.317  70.955  1.00  0.00    -0.241 C  
HETATM   23  O   UNL     1     -12.910  11.947  70.839  1.00  0.00    -0.248 OA 
ENDROOT
BRANCH   5  24
HETATM   24  C   UNL     1      -7.294   8.878  67.385  1.00  0.00    -0.081 C  
HETATM   25  H   UNL     1      -6.826   7.767  68.895  1.00  0.00     0.000 HD 
HETATM   26  O   UNL     1      -7.450   8.448  68.674  1.00  0.00    -0.089 OA 
BRANCH  24  27
HETATM   27  N   UNL     1      -6.498   8.350  66.553  1.00  0.00    -0.054 N  
HETATM   28  H   UNL     1      -5.677   8.860  66.227  1.00  0.00     0.000 HD 
BRANCH  27  29
HETATM   29  S   UNL     1      -6.799   6.866  66.020  1.00  0.00    -0.061 S  
HETATM   30  O   UNL     1      -5.900   5.943  66.710  1.00  0.00    -0.016 OA 
HETATM   31  O   UNL     1      -8.214   6.578  65.970  1.00  0.00    -0.115 OA 
BRANCH  29  32
HETATM   32  C   UNL     1      -6.228   6.847  64.247  1.00  0.00    -0.036 C  
HETATM   33  C   UNL     1      -7.377   6.848  63.266  1.00  0.00    -0.080 C  
HETATM   34  C   UNL     1      -6.516   8.073  63.425  1.00  0.00    -0.072 C  
ENDBRANCH  29  32
ENDBRANCH  27  29
ENDBRANCH  24  27
ENDBRANCH   5  24
BRANCH  22  35
HETATM   35  O   UNL     1     -11.778   7.086  71.638  1.00  0.00    -0.267 OA 
BRANCH  35  36
HETATM   36  C   UNL     1     -10.563   6.463  71.536  1.00  0.00    -0.231 A  
HETATM   37  C   UNL     1      -7.021   7.308  73.698  1.00  0.00    -0.075 A  
HETATM   38  C   UNL     1      -9.401   7.451  73.536  1.00  0.00    -0.287 A  
HETATM   39  C   UNL     1      -9.420   6.697  72.342  1.00  0.00    -0.154 A  
HETATM   40  C   UNL     1     -10.524   5.517  70.517  1.00  0.00    -0.347 A  
HETATM   41  C   UNL     1      -7.023   6.424  72.603  1.00  0.00    -0.074 A  
HETATM   42  C   UNL     1      -8.216   6.094  71.927  1.00  0.00    -0.114 A  
HETATM   43  C   UNL     1      -5.737   5.808  72.107  1.00  0.00    -0.026 C  
HETATM   44  C   UNL     1      -8.221   7.791  74.182  1.00  0.00    -0.282 A  
HETATM   45  C   UNL     1      -9.330   4.878  70.254  1.00  0.00    -0.154 A  
HETATM   46  N   UNL     1      -8.189   5.205  70.913  1.00  0.00    -0.107 NA 
BRANCH  37  47
HETATM   47  O   UNL     1      -5.818   7.596  74.293  1.00  0.00    -0.071 OA 
HETATM   48  C   UNL     1      -5.530   8.982  74.470  1.00  0.00    -0.122 C  
ENDBRANCH  37  47
BRANCH  45  49
HETATM   49  C   UNL     1      -9.252   3.794  69.254  1.00  0.00    -0.160 A  
HETATM   50  N   UNL     1      -9.020   3.966  67.961  1.00  0.00    -0.112 NA 
HETATM   51  C   UNL     1      -9.069   2.753  67.282  1.00  0.00    -0.174 A  
HETATM   52  C   UNL     1      -9.335   1.662  68.085  1.00  0.00    -0.187 A  
HETATM   53  C   UNL     1      -8.838   2.717  65.793  1.00  0.00    -0.134 C  
HETATM   54  C   UNL     1      -9.887   3.532  65.036  1.00  0.00    -0.111 C  
HETATM   55  S   UNL     1      -9.522   2.150  69.710  1.00  0.00     0.012 SA 
HETATM   56  C   UNL     1      -7.428   3.182  65.432  1.00  0.00    -0.076 C  
ENDBRANCH  45  49
ENDBRANCH  35  36
ENDBRANCH  22  35
TORSDOF 8
ENDMDL
MODEL       17
REMARK 921   NORMALIZED FREE ENERGY PREDICTED BY IDOCK:   -5.55 KCAL/MOL
REMARK 922        TOTAL FREE ENERGY PREDICTED BY IDOCK:  -10.71 KCAL/MOL
REMARK 923 INTER-LIGAND FREE ENERGY PREDICTED BY IDOCK:  -10.58 KCAL/MOL
REMARK 924 INTRA-LIGAND FREE ENERGY PREDICTED BY IDOCK:   -0.13 KCAL/MOL
REMARK 927      BINDING AFFINITY PREDICTED BY RF-SCORE:    0.00 PKD
ROOT
HETATM    1  C   UNL     1      -6.828   5.582  67.066  1.00  0.00    -0.064 C  
HETATM    2  C   UNL     1      -7.088   6.223  65.902  1.00  0.00    -0.066 C  
HETATM    3  C   UNL     1      -8.222   6.940  65.288  1.00  0.00    -0.129 C  
HETATM    4  C   UNL     1      -9.470   7.280  66.024  1.00  0.00     0.020 C  
HETATM    5  C   UNL     1      -8.581   8.403  65.509  1.00  0.00    -0.176 C  
HETATM    6  C   UNL     1      -7.640   5.262  68.307  1.00  0.00    -0.080 C  
HETATM    7  N   UNL     1      -8.107   9.290  66.541  1.00  0.00    -0.104 NA 
HETATM    8  C   UNL     1      -6.915   9.411  66.996  1.00  0.00    -0.085 C  
HETATM    9  C   UNL     1      -7.565  10.933  68.905  1.00  0.00    -0.128 C  
HETATM   10  C   UNL     1      -6.895   5.328  69.686  1.00  0.00    -0.056 C  
HETATM   11  H   UNL     1      -8.808   9.899  66.961  1.00  0.00     0.000 HD 
HETATM   12  C   UNL     1      -6.940   7.806  71.047  1.00  0.00    -0.049 C  
HETATM   13  C   UNL     1      -7.458  12.470  68.993  1.00  0.00     0.088 C  
HETATM   14  C   UNL     1      -6.525  10.562  67.841  1.00  0.00    -0.060 C  
HETATM   15  O   UNL     1      -5.881   8.596  66.805  1.00  0.00    -0.050 OA 
HETATM   16  C   UNL     1      -7.210  10.108  70.157  1.00  0.00    -0.154 C  
HETATM   17  C   UNL     1      -6.373  11.796  66.975  1.00  0.00    -0.150 C  
HETATM   18  C   UNL     1      -8.672   8.238  69.359  1.00  0.00    -0.142 C  
HETATM   19  C   UNL     1      -7.194   6.275  70.895  1.00  0.00    -0.071 C  
HETATM   20  H   UNL     1      -4.997   8.687  67.142  1.00  0.00     0.000 HD 
HETATM   21  N   UNL     1      -7.562   8.745  70.117  1.00  0.00    -0.066 N  
HETATM   22  C   UNL     1      -6.297  12.847  68.059  1.00  0.00    -0.109 C  
HETATM   23  O   UNL     1      -6.512  10.582  71.050  1.00  0.00    -0.346 OA 
ENDROOT
BRANCH   5  24
HETATM   24  C   UNL     1      -9.256   9.255  64.447  1.00  0.00     0.043 C  
HETATM   25  H   UNL     1      -9.125   9.588  62.548  1.00  0.00     0.000 HD 
HETATM   26  O   UNL     1      -8.703   9.055  63.211  1.00  0.00    -0.188 OA 
BRANCH  24  27
HETATM   27  N   UNL     1     -10.280   9.970  64.657  1.00  0.00    -0.331 N  
HETATM   28  H   UNL     1     -11.193   9.538  64.797  1.00  0.00     0.000 HD 
BRANCH  27  29
HETATM   29  S   UNL     1     -10.121  11.568  64.701  1.00  0.00    -0.287 S  
HETATM   30  O   UNL     1      -9.407  11.920  65.926  1.00  0.00    -0.231 OA 
HETATM   31  O   UNL     1      -9.676  12.109  63.437  1.00  0.00    -0.330 OA 
BRANCH  29  32
HETATM   32  C   UNL     1     -11.843  12.235  64.946  1.00  0.00    -0.358 C  
HETATM   33  C   UNL     1     -12.206  13.292  63.931  1.00  0.00    -0.491 C  
HETATM   34  C   UNL     1     -12.851  11.932  63.872  1.00  0.00    -0.346 C  
ENDBRANCH  29  32
ENDBRANCH  27  29
ENDBRANCH  24  27
ENDBRANCH   5  24
BRANCH  22  35
HETATM   35  O   UNL     1      -6.320  14.128  67.454  1.00  0.00    -0.324 OA 
BRANCH  35  36
HETATM   36  C   UNL     1      -7.377  14.949  67.741  1.00  0.00    -0.166 A  
HETATM   37  C   UNL     1      -7.720  19.103  66.996  1.00  0.00    -0.243 A  
HETATM   38  C   UNL     1      -6.676  17.014  66.489  1.00  0.00    -0.267 A  
HETATM   39  C   UNL     1      -7.509  16.316  67.391  1.00  0.00    -0.190 A  
HETATM   40  C   UNL     1      -8.387  14.303  68.449  1.00  0.00    -0.164 A  
HETATM   41  C   UNL     1      -8.666  18.414  67.778  1.00  0.00    -0.278 A  
HETATM   42  C   UNL     1      -8.585  17.020  67.969  1.00  0.00    -0.217 A  
HETATM   43  C   UNL     1      -9.796  19.155  68.451  1.00  0.00    -0.473 C  
HETATM   44  C   UNL     1      -6.746  18.390  66.325  1.00  0.00    -0.262 A  
HETATM   45  C   UNL     1      -9.471  15.041  68.874  1.00  0.00    -0.211 A  
HETATM   46  N   UNL     1      -9.536  16.384  68.683  1.00  0.00    -0.229 NA 
BRANCH  37  47
HETATM   47  O   UNL     1      -7.854  20.464  66.872  1.00  0.00    -0.314 OA 
HETATM   48  C   UNL     1      -6.718  21.236  67.259  1.00  0.00    -0.311 C  
ENDBRANCH  37  47
BRANCH  45  49
HETATM   49  C   UNL     1     -10.618  14.392  69.541  1.00  0.00    -0.060 A  
HETATM   50  N   UNL     1     -11.314  14.915  70.539  1.00  0.00    -0.254 NA 
HETATM   51  C   UNL     1     -12.290  14.027  70.982  1.00  0.00    -0.369 A  
HETATM   52  C   UNL     1     -12.323  12.829  70.297  1.00  0.00    -0.204 A  
HETATM   53  C   UNL     1     -13.198  14.417  72.120  1.00  0.00    -0.472 C  
HETATM   54  C   UNL     1     -12.415  14.676  73.407  1.00  0.00    -0.441 C  
HETATM   55  S   UNL     1     -11.126  12.807  69.080  1.00  0.00    -0.201 SA 
HETATM   56  C   UNL     1     -14.062  15.625  71.760  1.00  0.00    -0.431 C  
ENDBRANCH  45  49
ENDBRANCH  35  36
ENDBRANCH  22  35
TORSDOF 8
ENDMDL
MODEL       18
REMARK 921   NORMALIZED FREE ENERGY PREDICTED BY IDOCK:   -5.43 KCAL/MOL
REMARK 922        TOTAL FREE ENERGY PREDICTED BY IDOCK:  -10.53 KCAL/MOL
REMARK 923 INTER-LIGAND FREE ENERGY PREDICTED BY IDOCK:   -9.10 KCAL/MOL
REMARK 924 INTRA-LIGAND FREE ENERGY PREDICTED BY IDOCK:   -1.43 KCAL/MOL
REMARK 927      BINDING AFFINITY PREDICTED BY RF-SCORE:    0.00 PKD
ROOT
HETATM    1  C   UNL     1      -6.305  17.816  66.632  1.00  0.00    -0.226 C  
HETATM    2  C   UNL     1      -5.695  16.680  67.042  1.00  0.00    -0.165 C  
HETATM    3  C   UNL     1      -5.403  16.006  68.322  1.00  0.00    -0.107 C  
HETATM    4  C   UNL     1      -5.952  16.459  69.629  1.00  0.00    -0.191 C  
HETATM    5  C   UNL     1      -6.349  15.093  69.089  1.00  0.00    -0.109 C  
HETATM    6  C   UNL     1      -6.962  18.986  67.342  1.00  0.00    -0.217 C  
HETATM    7  N   UNL     1      -7.770  14.929  68.907  1.00  0.00    -0.138 NA 
HETATM    8  C   UNL     1      -8.425  14.851  67.809  1.00  0.00    -0.154 C  
HETATM    9  C   UNL     1     -10.699  14.972  68.903  1.00  0.00    -0.240 C  
HETATM   10  C   UNL     1      -8.239  19.602  66.673  1.00  0.00    -0.342 C  
HETATM   11  H   UNL     1      -8.323  14.867  69.761  1.00  0.00     0.000 HD 
HETATM   12  C   UNL     1     -10.736  18.527  67.450  1.00  0.00    -0.381 C  
HETATM   13  C   UNL     1     -11.669  13.820  69.242  1.00  0.00    -0.376 C  
HETATM   14  C   UNL     1      -9.831  14.390  67.780  1.00  0.00    -0.221 C  
HETATM   15  O   UNL     1      -7.999  15.137  66.581  1.00  0.00    -0.329 OA 
HETATM   16  C   UNL     1     -11.292  16.282  68.350  1.00  0.00    -0.312 C  
HETATM   17  C   UNL     1      -9.875  12.888  67.971  1.00  0.00    -0.223 C  
HETATM   18  C   UNL     1      -9.312  17.557  69.201  1.00  0.00     0.015 C  
HETATM   19  C   UNL     1      -9.691  19.668  67.253  1.00  0.00    -0.474 C  
HETATM   20  H   UNL     1      -8.485  15.078  65.767  1.00  0.00     0.000 HD 
HETATM   21  N   UNL     1     -10.415  17.382  68.297  1.00  0.00    -0.372 N  
HETATM   22  C   UNL     1     -11.356  12.716  68.219  1.00  0.00    -0.295 C  
HETATM   23  O   UNL     1     -12.407  16.303  67.834  1.00  0.00     0.792 OA 
ENDROOT
BRANCH   5  24
HETATM   24  C   UNL     1      -5.864  13.946  69.959  1.00  0.00    -0.135 C  
HETATM   25  H   UNL     1      -6.105  13.280  71.757  1.00  0.00     0.000 HD 
HETATM   26  O   UNL     1      -6.408  13.997  71.213  1.00  0.00    -0.082 OA 
BRANCH  24  27
HETATM   27  N   UNL     1      -5.141  12.995  69.539  1.00  0.00    -0.075 N  
HETATM   28  H   UNL     1      -4.166  13.158  69.289  1.00  0.00     0.000 HD 
BRANCH  27  29
HETATM   29  S   UNL     1      -5.781  11.528  69.405  1.00  0.00    -0.067 S  
HETATM   30  O   UNL     1      -5.157  10.666  70.406  1.00  0.00    -0.046 OA 
HETATM   31  O   UNL     1      -7.221  11.566  69.297  1.00  0.00    -0.110 OA 
BRANCH  29  32
HETATM   32  C   UNL     1      -5.180  10.868  67.769  1.00  0.00    -0.039 C  
HETATM   33  C   UNL     1      -5.676   9.469  67.490  1.00  0.00    -0.041 C  
HETATM   34  C   UNL     1      -6.217  10.635  66.705  1.00  0.00    -0.076 C  
ENDBRANCH  29  32
ENDBRANCH  27  29
ENDBRANCH  24  27
ENDBRANCH   5  24
BRANCH  22  35
HETATM   35  O   UNL     1     -11.602  11.372  68.596  1.00  0.00    -0.266 OA 
BRANCH  35  36
HETATM   36  C   UNL     1     -10.700  10.423  68.194  1.00  0.00    -0.236 A  
HETATM   37  C   UNL     1      -9.311   9.657  64.268  1.00  0.00    -0.114 A  
HETATM   38  C   UNL     1     -10.315  11.168  65.823  1.00  0.00    -0.316 A  
HETATM   39  C   UNL     1     -10.174  10.252  66.889  1.00  0.00    -0.286 A  
HETATM   40  C   UNL     1     -10.304   9.580  69.228  1.00  0.00    -0.219 A  
HETATM   41  C   UNL     1      -9.013   8.790  65.337  1.00  0.00    -0.211 A  
HETATM   42  C   UNL     1      -9.422   9.084  66.655  1.00  0.00    -0.194 A  
HETATM   43  C   UNL     1      -8.256   7.507  65.102  1.00  0.00    -0.122 C  
HETATM   44  C   UNL     1      -9.933  10.863  64.525  1.00  0.00    -0.376 A  
HETATM   45  C   UNL     1      -9.463   8.527  68.936  1.00  0.00    -0.147 A  
HETATM   46  N   UNL     1      -9.078   8.257  67.663  1.00  0.00    -0.131 NA 
BRANCH  37  47
HETATM   47  O   UNL     1      -8.897   9.294  63.010  1.00  0.00    -0.225 OA 
HETATM   48  C   UNL     1      -8.037  10.222  62.350  1.00  0.00    -0.156 C  
ENDBRANCH  37  47
BRANCH  45  49
HETATM   49  C   UNL     1      -8.930   7.660  70.008  1.00  0.00    -0.143 A  
HETATM   50  N   UNL     1      -9.105   7.860  71.306  1.00  0.00    -0.136 NA 
HETATM   51  C   UNL     1      -8.427   6.900  72.051  1.00  0.00    -0.110 A  
HETATM   52  C   UNL     1      -7.744   5.969  71.294  1.00  0.00    -0.110 A  
HETATM   53  C   UNL     1      -8.485   6.940  73.556  1.00  0.00    -0.147 C  
HETATM   54  C   UNL     1      -7.889   8.234  74.112  1.00  0.00    -0.276 C  
HETATM   55  S   UNL     1      -7.952   6.289  69.629  1.00  0.00    -0.113 SA 
HETATM   56  C   UNL     1      -9.910   6.737  74.069  1.00  0.00    -0.334 C  
ENDBRANCH  45  49
ENDBRANCH  35  36
ENDBRANCH  22  35
TORSDOF 8
ENDMDL
MODEL       19
REMARK 921   NORMALIZED FREE ENERGY PREDICTED BY IDOCK:   -5.43 KCAL/MOL
REMARK 922        TOTAL FREE ENERGY PREDICTED BY IDOCK:  -10.52 KCAL/MOL
REMARK 923 INTER-LIGAND FREE ENERGY PREDICTED BY IDOCK:   -9.14 KCAL/MOL
REMARK 924 INTRA-LIGAND FREE ENERGY PREDICTED BY IDOCK:   -1.38 KCAL/MOL
REMARK 927      BINDING AFFINITY PREDICTED BY RF-SCORE:    0.00 PKD
ROOT
HETATM    1  C   UNL     1      -9.780  14.704  66.194  1.00  0.00    -0.344 C  
HETATM    2  C   UNL     1      -9.981  14.835  67.527  1.00  0.00    -0.219 C  
HETATM    3  C   UNL     1     -11.062  14.561  68.493  1.00  0.00    -0.271 C  
HETATM    4  C   UNL     1     -12.304  13.821  68.143  1.00  0.00     0.017 C  
HETATM    5  C   UNL     1     -11.346  13.223  69.162  1.00  0.00    -0.282 C  
HETATM    6  C   UNL     1     -10.634  14.232  65.032  1.00  0.00    -0.444 C  
HETATM    7  N   UNL     1     -10.845  11.921  68.797  1.00  0.00    -0.224 NA 
HETATM    8  C   UNL     1      -9.659  11.601  68.436  1.00  0.00    -0.195 C  
HETATM    9  C   UNL     1     -10.265   9.241  67.766  1.00  0.00    -0.271 C  
HETATM   10  C   UNL     1      -9.915  13.415  63.903  1.00  0.00     1.010 C  
HETATM   11  H   UNL     1     -11.522  11.159  68.832  1.00  0.00     0.000 HD 
HETATM   12  C   UNL     1      -9.854  10.603  64.199  1.00  0.00    -0.335 C  
HETATM   13  C   UNL     1     -10.077   7.934  68.564  1.00  0.00    -0.216 C  
HETATM   14  C   UNL     1      -9.225  10.187  68.379  1.00  0.00    -0.133 C  
HETATM   15  O   UNL     1      -8.666  12.412  68.080  1.00  0.00    -0.170 OA 
HETATM   16  C   UNL     1      -9.980   9.215  66.252  1.00  0.00    -0.282 C  
HETATM   17  C   UNL     1      -8.988   9.674  69.785  1.00  0.00    -0.226 C  
HETATM   18  C   UNL     1     -11.524  11.157  65.912  1.00  0.00     0.344 C  
HETATM   19  C   UNL     1     -10.187  11.938  63.464  1.00  0.00    -0.485 C  
HETATM   20  H   UNL     1      -7.786  12.174  67.812  1.00  0.00     0.000 HD 
HETATM   21  N   UNL     1     -10.405  10.344  65.526  1.00  0.00    -0.238 N  
HETATM   22  C   UNL     1      -8.878   8.195  69.490  1.00  0.00    -0.143 C  
HETATM   23  O   UNL     1      -9.277   8.339  65.756  1.00  0.00    -0.167 OA 
ENDROOT
BRANCH   5  24
HETATM   24  C   UNL     1     -11.951  13.108  70.551  1.00  0.00    -0.222 C  
HETATM   25  H   UNL     1     -12.653  11.742  71.724  1.00  0.00     0.000 HD 
HETATM   26  O   UNL     1     -12.274  11.814  70.856  1.00  0.00    -0.362 OA 
BRANCH  24  27
HETATM   27  N   UNL     1     -12.035  14.071  71.369  1.00  0.00    -0.404 N  
HETATM   28  H   UNL     1     -11.193  14.507  71.743  1.00  0.00     0.000 HD 
BRANCH  27  29
HETATM   29  S   UNL     1     -13.488  14.595  71.811  1.00  0.00    -0.410 S  
HETATM   30  O   UNL     1     -14.177  15.082  70.618  1.00  0.00     0.037 OA 
HETATM   31  O   UNL     1     -14.159  13.671  72.693  1.00  0.00    -0.746 OA 
BRANCH  29  32
HETATM   32  C   UNL     1     -13.177  16.120  72.835  1.00  0.00    -0.333 C  
HETATM   33  C   UNL     1     -12.419  15.822  74.107  1.00  0.00    -0.793 C  
HETATM   34  C   UNL     1     -11.748  16.564  72.981  1.00  0.00    -0.242 C  
ENDBRANCH  29  32
ENDBRANCH  27  29
ENDBRANCH  24  27
ENDBRANCH   5  24
BRANCH  22  35
HETATM   35  O   UNL     1      -8.819   7.490  70.718  1.00  0.00    -0.145 OA 
BRANCH  35  36
HETATM   36  C   UNL     1      -8.727   6.125  70.663  1.00  0.00    -0.139 A  
HETATM   37  C   UNL     1     -10.383   3.300  73.347  1.00  0.00    -0.158 A  
HETATM   38  C   UNL     1     -10.406   5.506  72.430  1.00  0.00    -0.251 A  
HETATM   39  C   UNL     1      -9.374   5.196  71.516  1.00  0.00    -0.187 A  
HETATM   40  C   UNL     1      -7.897   5.679  69.639  1.00  0.00    -0.091 A  
HETATM   41  C   UNL     1      -9.471   2.917  72.345  1.00  0.00    -0.173 A  
HETATM   42  C   UNL     1      -8.973   3.849  71.412  1.00  0.00    -0.107 A  
HETATM   43  C   UNL     1      -8.985   1.492  72.248  1.00  0.00    -0.095 C  
HETATM   44  C   UNL     1     -10.874   4.590  73.361  1.00  0.00    -0.350 A  
HETATM   45  C   UNL     1      -7.651   4.326  69.530  1.00  0.00    -0.054 A  
HETATM   46  N   UNL     1      -8.138   3.440  70.435  1.00  0.00    -0.046 NA 
BRANCH  37  47
HETATM   47  O   UNL     1     -10.809   2.340  74.231  1.00  0.00    -0.155 OA 
HETATM   48  C   UNL     1     -11.920   1.552  73.803  1.00  0.00    -0.133 C  
ENDBRANCH  37  47
BRANCH  45  49
HETATM   49  C   UNL     1      -6.861   3.786  68.404  1.00  0.00    -0.047 A  
HETATM   50  N   UNL     1      -7.299   3.650  67.162  1.00  0.00    -0.063 NA 
HETATM   51  C   UNL     1      -6.333   3.056  66.356  1.00  0.00    -0.028 A  
HETATM   52  C   UNL     1      -5.156   2.752  67.010  1.00  0.00    -0.004 A  
HETATM   53  C   UNL     1      -6.623   2.801  64.900  1.00  0.00    -0.039 C  
HETATM   54  C   UNL     1      -7.803   1.847  64.715  1.00  0.00    -0.069 C  
HETATM   55  S   UNL     1      -5.249   3.215  68.651  1.00  0.00    -0.013 SA 
HETATM   56  C   UNL     1      -6.859   4.105  64.138  1.00  0.00    -0.045 C  
ENDBRANCH  45  49
ENDBRANCH  35  36
ENDBRANCH  22  35
TORSDOF 8
ENDMDL
MODEL       20
REMARK 921   NORMALIZED FREE ENERGY PREDICTED BY IDOCK:   -5.39 KCAL/MOL
REMARK 922        TOTAL FREE ENERGY PREDICTED BY IDOCK:  -10.46 KCAL/MOL
REMARK 923 INTER-LIGAND FREE ENERGY PREDICTED BY IDOCK:   -8.77 KCAL/MOL
REMARK 924 INTRA-LIGAND FREE ENERGY PREDICTED BY IDOCK:   -1.70 KCAL/MOL
REMARK 927      BINDING AFFINITY PREDICTED BY RF-SCORE:    0.00 PKD
ROOT
HETATM    1  C   UNL     1      -7.299   1.565  70.423  1.00  0.00    -0.033 C  
HETATM    2  C   UNL     1      -7.730   2.153  71.564  1.00  0.00    -0.040 C  
HETATM    3  C   UNL     1      -7.273   3.221  72.473  1.00  0.00    -0.047 C  
HETATM    4  C   UNL     1      -6.119   4.112  72.175  1.00  0.00    -0.016 C  
HETATM    5  C   UNL     1      -7.512   4.714  72.292  1.00  0.00    -0.083 C  
HETATM    6  C   UNL     1      -6.070   1.720  69.546  1.00  0.00    -0.024 C  
HETATM    7  N   UNL     1      -7.948   5.408  71.106  1.00  0.00    -0.107 NA 
HETATM    8  C   UNL     1      -8.858   5.060  70.273  1.00  0.00    -0.115 C  
HETATM    9  C   UNL     1      -8.322   6.872  68.596  1.00  0.00    -0.121 C  
HETATM   10  C   UNL     1      -6.277   1.588  67.997  1.00  0.00    -0.024 C  
HETATM   11  H   UNL     1      -7.473   6.287  70.905  1.00  0.00     0.000 HD 
HETATM   12  C   UNL     1      -6.834   3.966  66.573  1.00  0.00    -0.058 C  
HETATM   13  C   UNL     1      -9.030   8.226  68.380  1.00  0.00    -0.136 C  
HETATM   14  C   UNL     1      -9.395   6.012  69.275  1.00  0.00    -0.146 C  
HETATM   15  O   UNL     1      -9.454   3.876  70.161  1.00  0.00    -0.158 OA 
HETATM   16  C   UNL     1      -7.866   6.085  67.353  1.00  0.00    -0.102 C  
HETATM   17  C   UNL     1     -10.326   6.991  69.960  1.00  0.00    -0.217 C  
HETATM   18  C   UNL     1      -6.104   4.933  68.710  1.00  0.00    -0.030 C  
HETATM   19  C   UNL     1      -6.026   2.673  66.898  1.00  0.00    -0.023 C  
HETATM   20  H   UNL     1     -10.128   3.618  69.544  1.00  0.00     0.000 HD 
HETATM   21  N   UNL     1      -7.008   4.995  67.595  1.00  0.00    -0.060 N  
HETATM   22  C   UNL     1     -10.477   8.004  68.848  1.00  0.00    -0.191 C  
HETATM   23  O   UNL     1      -8.363   6.300  66.251  1.00  0.00    -0.113 OA 
ENDROOT
BRANCH   5  24
HETATM   24  C   UNL     1      -7.648   5.675  73.461  1.00  0.00    -0.095 C  
HETATM   25  H   UNL     1      -8.738   5.902  75.040  1.00  0.00     0.000 HD 
HETATM   26  O   UNL     1      -8.654   5.301  74.309  1.00  0.00    -0.116 OA 
BRANCH  24  27
HETATM   27  N   UNL     1      -6.851   6.634  73.686  1.00  0.00    -0.076 N  
HETATM   28  H   UNL     1      -5.967   6.470  74.167  1.00  0.00     0.000 HD 
BRANCH  27  29
HETATM   29  S   UNL     1      -7.254   8.112  73.203  1.00  0.00    -0.110 S  
HETATM   30  O   UNL     1      -8.610   8.060  72.661  1.00  0.00    -0.144 OA 
HETATM   31  O   UNL     1      -6.916   9.119  74.181  1.00  0.00    -0.368 OA 
BRANCH  29  32
HETATM   32  C   UNL     1      -6.169   8.469  71.731  1.00  0.00    -0.064 C  
HETATM   33  C   UNL     1      -6.661   9.642  70.917  1.00  0.00    -0.073 C  
HETATM   34  C   UNL     1      -5.408   9.766  71.744  1.00  0.00    -0.065 C  
ENDBRANCH  29  32
ENDBRANCH  27  29
ENDBRANCH  24  27
ENDBRANCH   5  24
BRANCH  22  35
HETATM   35  O   UNL     1     -11.195   9.121  69.344  1.00  0.00    -0.085 OA 
BRANCH  35  36
HETATM   36  C   UNL     1     -11.124  10.289  68.633  1.00  0.00    -0.239 A  
HETATM   37  C   UNL     1     -12.348  14.153  69.857  1.00  0.00    -0.327 A  
HETATM   38  C   UNL     1     -11.683  11.936  70.449  1.00  0.00    -0.213 A  
HETATM   39  C   UNL     1     -11.447  11.587  69.101  1.00  0.00    -0.362 A  
HETATM   40  C   UNL     1     -10.681  10.102  67.327  1.00  0.00    -0.316 A  
HETATM   41  C   UNL     1     -11.971  13.887  68.527  1.00  0.00    -0.394 A  
HETATM   42  C   UNL     1     -11.501  12.615  68.139  1.00  0.00    -0.313 A  
HETATM   43  C   UNL     1     -12.071  14.957  67.468  1.00  0.00    -0.031 C  
HETATM   44  C   UNL     1     -12.168  13.182  70.822  1.00  0.00    -0.375 A  
HETATM   45  C   UNL     1     -10.646  11.189  66.480  1.00  0.00    -0.262 A  
HETATM   46  N   UNL     1     -11.101  12.407  66.867  1.00  0.00    -0.272 NA 
BRANCH  37  47
HETATM   47  O   UNL     1     -12.814  15.410  70.155  1.00  0.00    -0.303 OA 
HETATM   48  C   UNL     1     -13.313  15.587  71.481  1.00  0.00    -0.509 C  
ENDBRANCH  37  47
BRANCH  45  49
HETATM   49  C   UNL     1     -10.090  11.072  65.115  1.00  0.00    -0.289 A  
HETATM   50  N   UNL     1      -9.133  10.232  64.753  1.00  0.00    -0.199 NA 
HETATM   51  C   UNL     1      -8.794  10.412  63.416  1.00  0.00    -0.213 A  
HETATM   52  C   UNL     1      -9.518  11.397  62.773  1.00  0.00    -0.281 A  
HETATM   53  C   UNL     1      -7.718   9.561  62.793  1.00  0.00    -0.116 C  
HETATM   54  C   UNL     1      -6.367   9.763  63.478  1.00  0.00    -0.116 C  
HETATM   55  S   UNL     1     -10.640  12.107  63.847  1.00  0.00    -0.458 SA 
HETATM   56  C   UNL     1      -8.105   8.082  62.786  1.00  0.00    -0.139 C  
ENDBRANCH  45  49
ENDBRANCH  35  36
ENDBRANCH  22  35
TORSDOF 8
ENDMDL
MODEL       21
REMARK 921   NORMALIZED FREE ENERGY PREDICTED BY IDOCK:   -5.26 KCAL/MOL
REMARK 922        TOTAL FREE ENERGY PREDICTED BY IDOCK:  -10.29 KCAL/MOL
REMARK 923 INTER-LIGAND FREE ENERGY PREDICTED BY IDOCK:   -8.07 KCAL/MOL
REMARK 924 INTRA-LIGAND FREE ENERGY PREDICTED BY IDOCK:   -2.22 KCAL/MOL
REMARK 927      BINDING AFFINITY PREDICTED BY RF-SCORE:    0.00 PKD
ROOT
HETATM    1  C   UNL     1      -9.746  15.709  69.460  1.00  0.00    -0.287 C  
HETATM    2  C   UNL     1     -10.758  15.375  68.624  1.00  0.00    -0.246 C  
HETATM    3  C   UNL     1     -10.977  15.287  67.168  1.00  0.00    -0.331 C  
HETATM    4  C   UNL     1      -9.887  15.435  66.166  1.00  0.00    -0.337 C  
HETATM    5  C   UNL     1     -10.617  14.105  66.279  1.00  0.00    -0.284 C  
HETATM    6  C   UNL     1      -8.326  16.205  69.265  1.00  0.00    -0.178 C  
HETATM    7  N   UNL     1      -9.755  12.990  66.585  1.00  0.00    -0.250 NA 
HETATM    8  C   UNL     1      -9.681  12.321  67.674  1.00  0.00    -0.194 C  
HETATM    9  C   UNL     1      -7.624  11.022  66.993  1.00  0.00    -0.127 C  
HETATM   10  C   UNL     1      -7.239  15.673  70.262  1.00  0.00     0.499 C  
HETATM   11  H   UNL     1      -9.124  12.699  65.839  1.00  0.00     0.000 HD 
HETATM   12  C   UNL     1      -5.862  13.319  69.517  1.00  0.00    -0.100 C  
HETATM   13  C   UNL     1      -7.531   9.588  66.430  1.00  0.00    -0.097 C  
HETATM   14  C   UNL     1      -8.965  11.028  67.738  1.00  0.00    -0.140 C  
HETATM   15  O   UNL     1     -10.202  12.629  68.860  1.00  0.00    -0.405 OA 
HETATM   16  C   UNL     1      -6.564  11.470  68.017  1.00  0.00    -0.058 C  
HETATM   17  C   UNL     1      -9.802   9.953  67.076  1.00  0.00    -0.241 C  
HETATM   18  C   UNL     1      -6.929  13.862  67.373  1.00  0.00    -0.043 C  
HETATM   19  C   UNL     1      -5.971  14.817  69.935  1.00  0.00    -0.132 C  
HETATM   20  H   UNL     1     -10.147  12.132  69.667  1.00  0.00     0.000 HD 
HETATM   21  N   UNL     1      -6.531  12.847  68.309  1.00  0.00    -0.077 N  
HETATM   22  C   UNL     1      -8.764   8.856  66.985  1.00  0.00    -0.123 C  
HETATM   23  O   UNL     1      -5.913  10.647  68.656  1.00  0.00    -0.041 OA 
ENDROOT
BRANCH   5  24
HETATM   24  C   UNL     1     -11.399  13.748  65.026  1.00  0.00    -0.328 C  
HETATM   25  H   UNL     1     -13.159  14.031  64.278  1.00  0.00     0.000 HD 
HETATM   26  O   UNL     1     -12.670  14.254  65.061  1.00  0.00    -0.625 OA 
BRANCH  24  27
HETATM   27  N   UNL     1     -10.899  13.159  64.022  1.00  0.00    -0.507 N  
HETATM   28  H   UNL     1     -10.198  13.624  63.446  1.00  0.00     0.000 HD 
BRANCH  27  29
HETATM   29  S   UNL     1     -11.385  11.669  63.669  1.00  0.00    -0.310 S  
HETATM   30  O   UNL     1     -11.335  10.873  64.894  1.00  0.00     0.127 OA 
HETATM   31  O   UNL     1     -12.582  11.660  62.861  1.00  0.00    -0.206 OA 
BRANCH  29  32
HETATM   32  C   UNL     1     -10.050  10.953  62.584  1.00  0.00     0.075 C  
HETATM   33  C   UNL     1      -8.665  11.377  63.011  1.00  0.00     0.021 C  
HETATM   34  C   UNL     1      -9.119   9.956  63.216  1.00  0.00    -0.294 C  
ENDBRANCH  29  32
ENDBRANCH  27  29
ENDBRANCH  24  27
ENDBRANCH   5  24
BRANCH  22  35
HETATM   35  O   UNL     1      -9.299   7.785  66.227  1.00  0.00    -0.185 OA 
BRANCH  35  36
HETATM   36  C   UNL     1      -9.184   6.522  66.741  1.00  0.00    -0.147 A  
HETATM   37  C   UNL     1      -8.534   2.907  64.634  1.00  0.00    -0.091 A  
HETATM   38  C   UNL     1      -8.390   5.291  64.697  1.00  0.00    -0.141 A  
HETATM   39  C   UNL     1      -8.866   5.340  66.026  1.00  0.00    -0.141 A  
HETATM   40  C   UNL     1      -9.415   6.473  68.113  1.00  0.00    -0.114 A  
HETATM   41  C   UNL     1      -8.856   2.913  66.005  1.00  0.00    -0.142 A  
HETATM   42  C   UNL     1      -9.006   4.120  66.718  1.00  0.00    -0.126 A  
HETATM   43  C   UNL     1      -9.065   1.620  66.754  1.00  0.00    -0.074 C  
HETATM   44  C   UNL     1      -8.267   4.101  63.994  1.00  0.00    -0.093 A  
HETATM   45  C   UNL     1      -9.414   5.245  68.739  1.00  0.00    -0.128 A  
HETATM   46  N   UNL     1      -9.267   4.090  68.040  1.00  0.00    -0.141 NA 
BRANCH  37  47
HETATM   47  O   UNL     1      -8.423   1.692  64.004  1.00  0.00    -0.076 OA 
HETATM   48  C   UNL     1      -7.204   1.472  63.295  1.00  0.00    -0.035 C  
ENDBRANCH  37  47
BRANCH  45  49
HETATM   49  C   UNL     1      -9.553   5.140  70.207  1.00  0.00    -0.184 A  
HETATM   50  N   UNL     1      -9.605   4.004  70.887  1.00  0.00    -0.170 NA 
HETATM   51  C   UNL     1      -9.799   4.246  72.243  1.00  0.00    -0.166 A  
HETATM   52  C   UNL     1      -9.887   5.584  72.575  1.00  0.00    -0.164 A  
HETATM   53  C   UNL     1      -9.893   3.091  73.206  1.00  0.00    -0.166 C  
HETATM   54  C   UNL     1     -11.079   2.181  72.886  1.00  0.00    -0.098 C  
HETATM   55  S   UNL     1      -9.720   6.556  71.181  1.00  0.00    -0.174 SA 
HETATM   56  C   UNL     1      -8.593   2.289  73.249  1.00  0.00    -0.070 C  
ENDBRANCH  45  49
ENDBRANCH  35  36
ENDBRANCH  22  35
TORSDOF 8
ENDMDL
MODEL       22
REMARK 921   NORMALIZED FREE ENERGY PREDICTED BY IDOCK:   -4.90 KCAL/MOL
REMARK 922        TOTAL FREE ENERGY PREDICTED BY IDOCK:   -9.75 KCAL/MOL
REMARK 923 INTER-LIGAND FREE ENERGY PREDICTED BY IDOCK:   -7.62 KCAL/MOL
REMARK 924 INTRA-LIGAND FREE ENERGY PREDICTED BY IDOCK:   -2.13 KCAL/MOL
REMARK 927      BINDING AFFINITY PREDICTED BY RF-SCORE:    0.00 PKD
ROOT
HETATM    1  C   UNL     1     -12.029  14.473  67.514  1.00  0.00    -0.358 C  
HETATM    2  C   UNL     1     -12.176  13.354  66.766  1.00  0.00    -0.367 C  
HETATM    3  C   UNL     1     -11.660  12.828  65.488  1.00  0.00    -0.400 C  
HETATM    4  C   UNL     1     -10.573  13.485  64.712  1.00  0.00    -0.429 C  
HETATM    5  C   UNL     1     -10.340  12.096  65.289  1.00  0.00    -0.277 C  
HETATM    6  C   UNL     1     -11.261  15.771  67.345  1.00  0.00    -0.179 C  
HETATM    7  N   UNL     1      -9.219  12.021  66.192  1.00  0.00    -0.321 NA 
HETATM    8  C   UNL     1      -9.233  11.855  67.462  1.00  0.00    -0.177 C  
HETATM    9  C   UNL     1      -6.764  12.291  67.767  1.00  0.00    -0.107 C  
HETATM   10  C   UNL     1     -10.620  16.394  68.634  1.00  0.00    -0.305 C  
HETATM   11  H   UNL     1      -8.297  12.112  65.765  1.00  0.00     0.000 HD 
HETATM   12  C   UNL     1      -7.969  15.625  69.245  1.00  0.00    -0.237 C  
HETATM   13  C   UNL     1      -5.616  11.271  67.925  1.00  0.00    -0.043 C  
HETATM   14  C   UNL     1      -8.005  11.505  68.209  1.00  0.00    -0.142 C  
HETATM   15  O   UNL     1     -10.274  11.948  68.286  1.00  0.00    -0.193 OA 
HETATM   16  C   UNL     1      -6.730  13.562  68.637  1.00  0.00    -0.094 C  
HETATM   17  C   UNL     1      -7.667  10.048  67.972  1.00  0.00    -0.089 C  
HETATM   18  C   UNL     1      -8.119  14.777  66.945  1.00  0.00    -0.048 C  
HETATM   19  C   UNL     1      -9.104  16.646  68.927  1.00  0.00    -0.238 C  
HETATM   20  H   UNL     1     -10.284  11.825  69.228  1.00  0.00     0.000 HD 
HETATM   21  N   UNL     1      -7.642  14.575  68.285  1.00  0.00    -0.112 N  
HETATM   22  C   UNL     1      -6.268  10.024  68.545  1.00  0.00    -0.045 C  
HETATM   23  O   UNL     1      -6.066  13.604  69.670  1.00  0.00    -0.107 OA 
ENDROOT
BRANCH   5  24
HETATM   24  C   UNL     1     -10.139  11.035  64.220  1.00  0.00    -0.339 C  
HETATM   25  H   UNL     1     -10.228  10.871  62.297  1.00  0.00     0.000 HD 
HETATM   26  O   UNL     1     -10.354  11.535  62.965  1.00  0.00    -0.322 OA 
BRANCH  24  27
HETATM   27  N   UNL     1      -9.709   9.867  64.454  1.00  0.00    -0.408 N  
HETATM   28  H   UNL     1     -10.231   9.235  65.060  1.00  0.00     0.000 HD 
BRANCH  27  29
HETATM   29  S   UNL     1      -8.329   9.395  63.781  1.00  0.00    -0.195 S  
HETATM   30  O   UNL     1      -8.647   8.661  62.558  1.00  0.00    -0.202 OA 
HETATM   31  O   UNL     1      -7.348  10.454  63.741  1.00  0.00    -0.106 OA 
BRANCH  29  32
HETATM   32  C   UNL     1      -7.625   8.111  64.934  1.00  0.00    -0.098 C  
HETATM   33  C   UNL     1      -8.103   6.716  64.611  1.00  0.00    -0.088 C  
HETATM   34  C   UNL     1      -6.675   7.109  64.339  1.00  0.00    -0.046 C  
ENDBRANCH  29  32
ENDBRANCH  27  29
ENDBRANCH  24  27
ENDBRANCH   5  24
BRANCH  22  35
HETATM   35  O   UNL     1      -5.685   8.762  68.270  1.00  0.00    -0.038 OA 
BRANCH  35  36
HETATM   36  C   UNL     1      -6.388   7.644  68.628  1.00  0.00    -0.036 A  
HETATM   37  C   UNL     1      -6.170   3.777  66.917  1.00  0.00    -0.028 A  
HETATM   38  C   UNL     1      -5.156   5.908  67.290  1.00  0.00    -0.005 A  
HETATM   39  C   UNL     1      -6.225   6.336  68.107  1.00  0.00    -0.032 A  
HETATM   40  C   UNL     1      -7.342   7.896  69.610  1.00  0.00    -0.090 A  
HETATM   41  C   UNL     1      -7.167   4.114  67.852  1.00  0.00    -0.064 A  
HETATM   42  C   UNL     1      -7.197   5.381  68.469  1.00  0.00    -0.074 A  
HETATM   43  C   UNL     1      -8.250   3.127  68.213  1.00  0.00    -0.085 C  
HETATM   44  C   UNL     1      -5.145   4.668  66.667  1.00  0.00    -0.008 A  
HETATM   45  C   UNL     1      -8.177   6.870  69.998  1.00  0.00    -0.134 A  
HETATM   46  N   UNL     1      -8.137   5.654  69.396  1.00  0.00    -0.098 NA 
BRANCH  37  47
HETATM   47  O   UNL     1      -6.218   2.530  66.344  1.00  0.00    -0.023 OA 
HETATM   48  C   UNL     1      -6.493   2.502  64.944  1.00  0.00    -0.027 C  
ENDBRANCH  37  47
BRANCH  45  49
HETATM   49  C   UNL     1      -9.140   7.051  71.105  1.00  0.00    -0.153 A  
HETATM   50  N   UNL     1      -9.727   6.068  71.770  1.00  0.00    -0.151 NA 
HETATM   51  C   UNL     1     -10.623   6.570  72.710  1.00  0.00    -0.230 A  
HETATM   52  C   UNL     1     -10.695   7.948  72.746  1.00  0.00    -0.371 A  
HETATM   53  C   UNL     1     -11.408   5.623  73.579  1.00  0.00     0.072 C  
HETATM   54  C   UNL     1     -12.315   4.712  72.750  1.00  0.00     0.626 C  
HETATM   55  S   UNL     1      -9.631   8.631  71.599  1.00  0.00    -0.297 SA 
HETATM   56  C   UNL     1     -10.492   4.797  74.481  1.00  0.00    -0.303 C  
ENDBRANCH  45  49
ENDBRANCH  35  36
ENDBRANCH  22  35
TORSDOF 8
ENDMDL
MODEL       23
REMARK 921   NORMALIZED FREE ENERGY PREDICTED BY IDOCK:   -4.84 KCAL/MOL
REMARK 922        TOTAL FREE ENERGY PREDICTED BY IDOCK:   -9.67 KCAL/MOL
REMARK 923 INTER-LIGAND FREE ENERGY PREDICTED BY IDOCK:   -8.72 KCAL/MOL
REMARK 924 INTRA-LIGAND FREE ENERGY PREDICTED BY IDOCK:   -0.95 KCAL/MOL
REMARK 927      BINDING AFFINITY PREDICTED BY RF-SCORE:    0.00 PKD
ROOT
HETATM    1  C   UNL     1      -6.706   6.319  74.566  1.00  0.00    -0.082 C  
HETATM    2  C   UNL     1      -6.331   7.547  74.135  1.00  0.00    -0.077 C  
HETATM    3  C   UNL     1      -5.892   8.165  72.869  1.00  0.00    -0.058 C  
HETATM    4  C   UNL     1      -5.927   7.460  71.559  1.00  0.00    -0.036 C  
HETATM    5  C   UNL     1      -6.802   8.687  71.766  1.00  0.00    -0.080 C  
HETATM    6  C   UNL     1      -6.812   4.952  73.917  1.00  0.00    -0.075 C  
HETATM    7  N   UNL     1      -8.210   8.437  71.580  1.00  0.00    -0.139 NA 
HETATM    8  C   UNL     1      -9.134   8.410  72.467  1.00  0.00    -0.256 C  
HETATM    9  C   UNL     1     -10.911   7.528  70.903  1.00  0.00    -0.252 C  
HETATM   10  C   UNL     1      -8.013   4.043  74.356  1.00  0.00    -0.090 C  
HETATM   11  H   UNL     1      -8.507   8.259  70.621  1.00  0.00     0.000 HD 
HETATM   12  C   UNL     1     -10.398   4.258  72.853  1.00  0.00    -0.175 C  
HETATM   13  C   UNL     1     -12.021   8.306  70.166  1.00  0.00     0.436 C  
HETATM   14  C   UNL     1     -10.565   8.434  72.090  1.00  0.00    -0.400 C  
HETATM   15  O   UNL     1      -8.996   8.370  73.790  1.00  0.00    -0.182 OA 
HETATM   16  C   UNL     1     -11.263   6.153  71.502  1.00  0.00    -0.288 C  
HETATM   17  C   UNL     1     -10.951   9.834  71.658  1.00  0.00     0.027 C  
HETATM   18  C   UNL     1      -8.863   5.455  71.355  1.00  0.00    -0.135 C  
HETATM   19  C   UNL     1      -9.183   3.501  73.469  1.00  0.00    -0.109 C  
HETATM   20  H   UNL     1      -9.682   8.350  74.447  1.00  0.00     0.000 HD 
HETATM   21  N   UNL     1     -10.175   5.371  71.934  1.00  0.00    -0.197 N  
HETATM   22  C   UNL     1     -12.301   9.537  71.045  1.00  0.00    -0.282 C  
HETATM   23  O   UNL     1     -12.429   5.846  71.738  1.00  0.00     0.141 OA 
ENDROOT
BRANCH   5  24
HETATM   24  C   UNL     1      -6.420   9.848  70.863  1.00  0.00    -0.038 C  
HETATM   25  H   UNL     1      -5.437  11.509  70.965  1.00  0.00     0.000 HD 
HETATM   26  O   UNL     1      -5.676  10.783  71.530  1.00  0.00    -0.331 OA 
BRANCH  24  27
HETATM   27  N   UNL     1      -6.659   9.887  69.620  1.00  0.00    -0.050 N  
HETATM   28  H   UNL     1      -7.062   9.080  69.145  1.00  0.00     0.000 HD 
BRANCH  27  29
HETATM   29  S   UNL     1      -6.318  11.227  68.802  1.00  0.00    -0.055 S  
HETATM   30  O   UNL     1      -7.559  11.733  68.221  1.00  0.00    -0.106 OA 
HETATM   31  O   UNL     1      -5.463  12.121  69.547  1.00  0.00    -0.066 OA 
BRANCH  29  32
HETATM   32  C   UNL     1      -5.302  10.674  67.341  1.00  0.00    -0.040 C  
HETATM   33  C   UNL     1      -5.939   9.528  66.591  1.00  0.00    -0.059 C  
HETATM   34  C   UNL     1      -5.890  10.903  65.976  1.00  0.00    -0.143 C  
ENDBRANCH  29  32
ENDBRANCH  27  29
ENDBRANCH  24  27
ENDBRANCH   5  24
BRANCH  22  35
HETATM   35  O   UNL     1     -12.781  10.710  70.411  1.00  0.00    -0.333 OA 
BRANCH  35  36
HETATM   36  C   UNL     1     -12.023  11.247  69.406  1.00  0.00    -0.341 A  
HETATM   37  C   UNL     1     -11.450  15.339  68.483  1.00  0.00    -0.342 A  
HETATM   38  C   UNL     1     -12.060  13.669  70.080  1.00  0.00    -0.417 A  
HETATM   39  C   UNL     1     -11.766  12.622  69.179  1.00  0.00    -0.375 A  
HETATM   40  C   UNL     1     -11.481  10.281  68.562  1.00  0.00    -0.169 A  
HETATM   41  C   UNL     1     -10.999  14.320  67.623  1.00  0.00    -0.286 A  
HETATM   42  C   UNL     1     -11.132  12.959  67.966  1.00  0.00    -0.253 A  
HETATM   43  C   UNL     1     -10.367  14.656  66.295  1.00  0.00    -0.301 C  
HETATM   44  C   UNL     1     -11.948  15.006  69.728  1.00  0.00    -0.366 A  
HETATM   45  C   UNL     1     -10.767  10.694  67.458  1.00  0.00    -0.272 A  
HETATM   46  N   UNL     1     -10.645  12.009  67.141  1.00  0.00    -0.219 NA 
BRANCH  37  47
HETATM   47  O   UNL     1     -11.302  16.641  68.073  1.00  0.00    -0.251 OA 
HETATM   48  C   UNL     1     -10.105  17.292  68.497  1.00  0.00    -0.341 C  
ENDBRANCH  37  47
BRANCH  45  49
HETATM   49  C   UNL     1     -10.085   9.717  66.584  1.00  0.00    -0.237 A  
HETATM   50  N   UNL     1      -9.735   8.491  66.942  1.00  0.00    -0.200 NA 
HETATM   51  C   UNL     1      -9.058   7.847  65.910  1.00  0.00    -0.087 A  
HETATM   52  C   UNL     1      -8.910   8.606  64.767  1.00  0.00     0.008 A  
HETATM   53  C   UNL     1      -8.562   6.438  66.103  1.00  0.00    -0.144 C  
HETATM   54  C   UNL     1      -7.544   6.345  67.240  1.00  0.00    -0.096 C  
HETATM   55  S   UNL     1      -9.626  10.142  64.974  1.00  0.00    -0.318 SA 
HETATM   56  C   UNL     1      -9.717   5.462  66.331  1.00  0.00    -0.183 C  
ENDBRANCH  45  49
ENDBRANCH  35  36
ENDBRANCH  22  35
TORSDOF 8
ENDMDL
MODEL       24
REMARK 921   NORMALIZED FREE ENERGY PREDICTED BY IDOCK:   -4.79 KCAL/MOL
REMARK 922        TOTAL FREE ENERGY PREDICTED BY IDOCK:   -9.59 KCAL/MOL
REMARK 923 INTER-LIGAND FREE ENERGY PREDICTED BY IDOCK:   -8.08 KCAL/MOL
REMARK 924 INTRA-LIGAND FREE ENERGY PREDICTED BY IDOCK:   -1.51 KCAL/MOL
REMARK 927      BINDING AFFINITY PREDICTED BY RF-SCORE:    0.00 PKD
ROOT
HETATM    1  C   UNL     1      -7.944   2.289  66.531  1.00  0.00    -0.077 C  
HETATM    2  C   UNL     1      -8.287   2.681  67.781  1.00  0.00    -0.094 C  
HETATM    3  C   UNL     1      -7.684   3.464  68.876  1.00  0.00    -0.051 C  
HETATM    4  C   UNL     1      -6.417   4.232  68.731  1.00  0.00    -0.037 C  
HETATM    5  C   UNL     1      -7.712   4.980  69.012  1.00  0.00    -0.080 C  
HETATM    6  C   UNL     1      -6.707   2.454  65.667  1.00  0.00    -0.035 C  
HETATM    7  N   UNL     1      -8.049   5.958  68.008  1.00  0.00    -0.105 NA 
HETATM    8  C   UNL     1      -9.000   5.919  67.150  1.00  0.00    -0.113 C  
HETATM    9  C   UNL     1      -8.219   7.949  65.866  1.00  0.00    -0.126 C  
HETATM   10  C   UNL     1      -6.933   2.676  64.131  1.00  0.00    -0.041 C  
HETATM   11  H   UNL     1      -7.456   6.787  67.978  1.00  0.00     0.000 HD 
HETATM   12  C   UNL     1      -7.155   5.352  63.244  1.00  0.00    -0.043 C  
HETATM   13  C   UNL     1      -8.731   9.402  65.955  1.00  0.00    -0.177 C  
HETATM   14  C   UNL     1      -9.400   7.121  66.386  1.00  0.00    -0.190 C  
HETATM   15  O   UNL     1      -9.755   4.875  66.816  1.00  0.00    -0.149 OA 
HETATM   16  C   UNL     1      -7.879   7.383  64.474  1.00  0.00    -0.129 C  
HETATM   17  C   UNL     1     -10.185   8.054  67.286  1.00  0.00    -0.345 C  
HETATM   18  C   UNL     1      -6.293   5.745  65.510  1.00  0.00    -0.041 C  
HETATM   19  C   UNL     1      -6.534   3.922  63.271  1.00  0.00    -0.026 C  
HETATM   20  H   UNL     1     -10.460   4.847  66.179  1.00  0.00     0.000 HD 
HETATM   21  N   UNL     1      -7.181   6.160  64.460  1.00  0.00    -0.060 N  
HETATM   22  C   UNL     1     -10.195   9.287  66.411  1.00  0.00    -0.228 C  
HETATM   23  O   UNL     1      -8.343   7.888  63.455  1.00  0.00    -0.062 OA 
ENDROOT
BRANCH   5  24
HETATM   24  C   UNL     1      -7.710   5.687  70.358  1.00  0.00    -0.094 C  
HETATM   25  H   UNL     1      -6.909   7.239  71.185  1.00  0.00     0.000 HD 
HETATM   26  O   UNL     1      -6.911   6.797  70.344  1.00  0.00    -0.058 OA 
BRANCH  24  27
HETATM   27  N   UNL     1      -8.450   5.358  71.332  1.00  0.00    -0.125 N  
HETATM   28  H   UNL     1      -8.071   4.817  72.109  1.00  0.00     0.000 HD 
BRANCH  27  29
HETATM   29  S   UNL     1      -9.992   5.805  71.326  1.00  0.00    -0.197 S  
HETATM   30  O   UNL     1     -10.664   5.105  70.233  1.00  0.00    -0.229 OA 
HETATM   31  O   UNL     1     -10.573   5.786  72.648  1.00  0.00    -0.201 OA 
BRANCH  29  32
HETATM   32  C   UNL     1      -9.991   7.596  70.812  1.00  0.00    -0.181 C  
HETATM   33  C   UNL     1     -11.356   8.233  70.924  1.00  0.00    -0.292 C  
HETATM   34  C   UNL     1     -10.261   8.614  71.886  1.00  0.00    -0.404 C  
ENDBRANCH  29  32
ENDBRANCH  27  29
ENDBRANCH  24  27
ENDBRANCH   5  24
BRANCH  22  35
HETATM   35  O   UNL     1     -10.748  10.363  67.147  1.00  0.00    -0.259 OA 
BRANCH  35  36
HETATM   36  C   UNL     1      -9.949  11.449  67.387  1.00  0.00    -0.186 A  
HETATM   37  C   UNL     1      -6.588  11.684  69.951  1.00  0.00    -0.030 A  
HETATM   38  C   UNL     1      -8.085  10.341  68.662  1.00  0.00    -0.114 A  
HETATM   39  C   UNL     1      -8.769  11.476  68.172  1.00  0.00    -0.157 A  
HETATM   40  C   UNL     1     -10.404  12.605  66.761  1.00  0.00    -0.246 A  
HETATM   41  C   UNL     1      -7.144  12.833  69.358  1.00  0.00     0.186 A  
HETATM   42  C   UNL     1      -8.221  12.743  68.453  1.00  0.00    -0.128 A  
HETATM   43  C   UNL     1      -6.609  14.206  69.686  1.00  0.00    -0.120 C  
HETATM   44  C   UNL     1      -7.041  10.436  69.570  1.00  0.00    -0.113 A  
HETATM   45  C   UNL     1      -9.735  13.788  66.992  1.00  0.00    -0.251 A  
HETATM   46  N   UNL     1      -8.698  13.860  67.866  1.00  0.00    -0.173 NA 
BRANCH  37  47
HETATM   47  O   UNL     1      -5.552  11.852  70.837  1.00  0.00    -0.253 OA 
HETATM   48  C   UNL     1      -5.147  10.682  71.546  1.00  0.00    -0.071 C  
ENDBRANCH  37  47
BRANCH  45  49
HETATM   49  C   UNL     1     -10.110  15.026  66.278  1.00  0.00    -0.282 A  
HETATM   50  N   UNL     1      -9.931  16.255  66.739  1.00  0.00    -0.252 NA 
HETATM   51  C   UNL     1     -10.446  17.197  65.854  1.00  0.00    -0.258 A  
HETATM   52  C   UNL     1     -11.010  16.659  64.715  1.00  0.00    -0.109 A  
HETATM   53  C   UNL     1     -10.353  18.665  66.183  1.00  0.00    -0.481 C  
HETATM   54  C   UNL     1     -11.110  19.007  67.466  1.00  0.00    -0.188 C  
HETATM   55  S   UNL     1     -10.895  14.955  64.741  1.00  0.00    -0.300 SA 
HETATM   56  C   UNL     1      -8.900  19.130  66.272  1.00  0.00    -0.308 C  
ENDBRANCH  45  49
ENDBRANCH  35  36
ENDBRANCH  22  35
TORSDOF 8
ENDMDL
MODEL       25
REMARK 921   NORMALIZED FREE ENERGY PREDICTED BY IDOCK:   -4.70 KCAL/MOL
REMARK 922        TOTAL FREE ENERGY PREDICTED BY IDOCK:   -9.46 KCAL/MOL
REMARK 923 INTER-LIGAND FREE ENERGY PREDICTED BY IDOCK:   -7.12 KCAL/MOL
REMARK 924 INTRA-LIGAND FREE ENERGY PREDICTED BY IDOCK:   -2.33 KCAL/MOL
REMARK 927      BINDING AFFINITY PREDICTED BY RF-SCORE:    0.00 PKD
ROOT
HETATM    1  C   UNL     1      -8.388   1.485  67.638  1.00  0.00    -0.078 C  
HETATM    2  C   UNL     1      -9.300   1.488  68.639  1.00  0.00    -0.225 C  
HETATM    3  C   UNL     1      -9.324   1.793  70.083  1.00  0.00    -0.165 C  
HETATM    4  C   UNL     1      -8.178   2.403  70.810  1.00  0.00    -0.069 C  
HETATM    5  C   UNL     1      -9.486   3.174  70.703  1.00  0.00    -0.163 C  
HETATM    6  C   UNL     1      -6.900   1.768  67.554  1.00  0.00    -0.038 C  
HETATM    7  N   UNL     1      -9.355   4.458  70.063  1.00  0.00    -0.139 NA 
HETATM    8  C   UNL     1      -9.784   4.817  68.910  1.00  0.00    -0.174 C  
HETATM    9  C   UNL     1      -8.587   7.042  68.915  1.00  0.00    -0.128 C  
HETATM   10  C   UNL     1      -6.383   2.503  66.269  1.00  0.00    -0.024 C  
HETATM   11  H   UNL     1      -8.858   5.172  70.595  1.00  0.00     0.000 HD 
HETATM   12  C   UNL     1      -6.287   5.327  66.361  1.00  0.00    -0.039 C  
HETATM   13  C   UNL     1      -9.149   8.439  69.253  1.00  0.00    -0.150 C  
HETATM   14  C   UNL     1      -9.833   6.242  68.514  1.00  0.00    -0.152 C  
HETATM   15  O   UNL     1     -10.241   4.041  67.931  1.00  0.00     0.115 OA 
HETATM   16  C   UNL     1      -7.603   6.921  67.736  1.00  0.00    -0.107 C  
HETATM   17  C   UNL     1     -10.993   6.921  69.213  1.00  0.00    -0.260 C  
HETATM   18  C   UNL     1      -6.619   4.853  68.748  1.00  0.00    -0.048 C  
HETATM   19  C   UNL     1      -5.686   3.901  66.176  1.00  0.00    -0.018 C  
HETATM   20  H   UNL     1     -10.559   4.307  67.076  1.00  0.00     0.000 HD 
HETATM   21  N   UNL     1      -6.924   5.693  67.623  1.00  0.00    -0.064 N  
HETATM   22  C   UNL     1     -10.647   8.363  68.916  1.00  0.00    -0.140 C  
HETATM   23  O   UNL     1      -7.554   7.783  66.862  1.00  0.00    -0.095 OA 
ENDROOT
BRANCH   5  24
HETATM   24  C   UNL     1     -10.154   3.399  72.050  1.00  0.00    -0.109 C  
HETATM   25  H   UNL     1     -10.579   2.400  73.649  1.00  0.00     0.000 HD 
HETATM   26  O   UNL     1     -10.161   2.259  72.807  1.00  0.00    -0.128 OA 
BRANCH  24  27
HETATM   27  N   UNL     1     -10.545   4.529  72.466  1.00  0.00    -0.185 N  
HETATM   28  H   UNL     1     -11.413   4.935  72.119  1.00  0.00     0.000 HD 
BRANCH  27  29
HETATM   29  S   UNL     1      -9.655   5.313  73.549  1.00  0.00    -0.135 S  
HETATM   30  O   UNL     1     -10.557   5.903  74.536  1.00  0.00    -0.189 OA 
HETATM   31  O   UNL     1      -8.523   4.535  73.994  1.00  0.00    -0.102 OA 
BRANCH  29  32
HETATM   32  C   UNL     1      -8.929   6.768  72.640  1.00  0.00    -0.129 C  
HETATM   33  C   UNL     1      -9.840   7.973  72.650  1.00  0.00    -0.347 C  
HETATM   34  C   UNL     1      -8.571   7.976  73.461  1.00  0.00    -0.318 C  
ENDBRANCH  29  32
ENDBRANCH  27  29
ENDBRANCH  24  27
ENDBRANCH   5  24
BRANCH  22  35
HETATM   35  O   UNL     1     -11.534   9.202  69.635  1.00  0.00    -0.005 OA 
BRANCH  35  36
HETATM   36  C   UNL     1     -11.604  10.519  69.268  1.00  0.00    -0.236 A  
HETATM   37  C   UNL     1     -13.061  13.778  71.544  1.00  0.00    -0.357 A  
HETATM   38  C   UNL     1     -12.181  11.557  71.484  1.00  0.00     0.044 A  
HETATM   39  C   UNL     1     -12.002  11.607  70.084  1.00  0.00    -0.441 A  
HETATM   40  C   UNL     1     -11.229  10.732  67.945  1.00  0.00    -0.386 A  
HETATM   41  C   UNL     1     -12.747  13.915  70.179  1.00  0.00    -0.182 A  
HETATM   42  C   UNL     1     -12.200  12.845  69.441  1.00  0.00    -0.091 A  
HETATM   43  C   UNL     1     -13.001  15.215  69.456  1.00  0.00     0.412 C  
HETATM   44  C   UNL     1     -12.742  12.605  72.200  1.00  0.00    -0.053 A  
HETATM   45  C   UNL     1     -11.337  12.004  67.425  1.00  0.00    -0.327 A  
HETATM   46  N   UNL     1     -11.865  13.025  68.147  1.00  0.00    -0.348 NA 
BRANCH  37  47
HETATM   47  O   UNL     1     -13.608  14.858  72.192  1.00  0.00    -0.349 OA 
HETATM   48  C   UNL     1     -12.816  15.421  73.237  1.00  0.00    -0.518 C  
ENDBRANCH  37  47
BRANCH  45  49
HETATM   49  C   UNL     1     -10.860  12.311  66.060  1.00  0.00    -0.275 A  
HETATM   50  N   UNL     1     -10.148  11.492  65.301  1.00  0.00    -0.257 NA 
HETATM   51  C   UNL     1      -9.807  12.101  64.097  1.00  0.00    -0.163 A  
HETATM   52  C   UNL     1     -10.280  13.391  63.958  1.00  0.00     0.288 A  
HETATM   53  C   UNL     1      -8.990  11.348  63.080  1.00  0.00    -0.150 C  
HETATM   54  C   UNL     1      -7.615  10.966  63.627  1.00  0.00     0.434 C  
HETATM   55  S   UNL     1     -11.166  13.852  65.344  1.00  0.00    -0.317 SA 
HETATM   56  C   UNL     1      -9.730  10.112  62.568  1.00  0.00    -0.043 C  
ENDBRANCH  45  49
ENDBRANCH  35  36
ENDBRANCH  22  35
TORSDOF 8
ENDMDL
MODEL       26
REMARK 921   NORMALIZED FREE ENERGY PREDICTED BY IDOCK:   -4.66 KCAL/MOL
REMARK 922        TOTAL FREE ENERGY PREDICTED BY IDOCK:   -9.40 KCAL/MOL
REMARK 923 INTER-LIGAND FREE ENERGY PREDICTED BY IDOCK:   -7.87 KCAL/MOL
REMARK 924 INTRA-LIGAND FREE ENERGY PREDICTED BY IDOCK:   -1.53 KCAL/MOL
REMARK 927      BINDING AFFINITY PREDICTED BY RF-SCORE:    0.00 PKD
ROOT
HETATM    1  C   UNL     1      -6.351   5.644  69.293  1.00  0.00    -0.037 C  
HETATM    2  C   UNL     1      -6.729   6.037  68.054  1.00  0.00    -0.061 C  
HETATM    3  C   UNL     1      -7.889   6.707  67.435  1.00  0.00    -0.113 C  
HETATM    4  C   UNL     1      -8.997   7.316  68.220  1.00  0.00    -0.125 C  
HETATM    5  C   UNL     1      -8.118   8.210  67.358  1.00  0.00    -0.122 C  
HETATM    6  C   UNL     1      -7.001   5.680  70.664  1.00  0.00    -0.057 C  
HETATM    7  N   UNL     1      -7.446   9.252  68.094  1.00  0.00    -0.083 NA 
HETATM    8  C   UNL     1      -6.198   9.356  68.361  1.00  0.00    -0.052 C  
HETATM    9  C   UNL     1      -6.474  11.311  69.936  1.00  0.00    -0.132 C  
HETATM   10  C   UNL     1      -6.067   5.974  71.889  1.00  0.00    -0.040 C  
HETATM   11  H   UNL     1      -8.041  10.001  68.447  1.00  0.00     0.000 HD 
HETATM   12  C   UNL     1      -5.760   8.682  72.644  1.00  0.00    -0.073 C  
HETATM   13  C   UNL     1      -6.256  12.813  69.657  1.00  0.00    -0.120 C  
HETATM   14  C   UNL     1      -5.619  10.620  68.867  1.00  0.00    -0.040 C  
HETATM   15  O   UNL     1      -5.255   8.424  68.236  1.00  0.00    -0.032 OA 
HETATM   16  C   UNL     1      -6.001  10.749  71.290  1.00  0.00     0.283 C  
HETATM   17  C   UNL     1      -5.510  11.616  67.730  1.00  0.00    -0.053 C  
HETATM   18  C   UNL     1      -7.679   8.897  71.125  1.00  0.00    -0.129 C  
HETATM   19  C   UNL     1      -6.132   7.186  72.878  1.00  0.00    -0.055 C  
HETATM   20  H   UNL     1      -4.330   8.502  68.434  1.00  0.00     0.000 HD 
HETATM   21  N   UNL     1      -6.443   9.450  71.607  1.00  0.00     0.031 N  
HETATM   22  C   UNL     1      -5.214  12.866  68.527  1.00  0.00    -0.062 C  
HETATM   23  O   UNL     1      -5.156  11.338  71.960  1.00  0.00    -0.308 OA 
ENDROOT
BRANCH   5  24
HETATM   24  C   UNL     1      -8.877   8.871  66.219  1.00  0.00    -0.158 C  
HETATM   25  H   UNL     1     -10.669   8.913  65.497  1.00  0.00     0.000 HD 
HETATM   26  O   UNL     1     -10.195   8.500  66.209  1.00  0.00    -0.237 OA 
BRANCH  24  27
HETATM   27  N   UNL     1      -8.382   9.747  65.451  1.00  0.00    -0.133 N  
HETATM   28  H   UNL     1      -8.152  10.675  65.806  1.00  0.00     0.000 HD 
BRANCH  27  29
HETATM   29  S   UNL     1      -8.120   9.377  63.911  1.00  0.00    -0.167 S  
HETATM   30  O   UNL     1      -6.995  10.179  63.435  1.00  0.00    -0.131 OA 
HETATM   31  O   UNL     1      -8.126   7.951  63.681  1.00  0.00    -0.141 OA 
BRANCH  29  32
HETATM   32  C   UNL     1      -9.596  10.033  62.982  1.00  0.00    -0.056 C  
HETATM   33  C   UNL     1     -10.229  11.224  63.663  1.00  0.00    -0.446 C  
HETATM   34  C   UNL     1      -9.466  11.403  62.376  1.00  0.00     0.076 C  
ENDBRANCH  29  32
ENDBRANCH  27  29
ENDBRANCH  24  27
ENDBRANCH   5  24
BRANCH  22  35
HETATM   35  O   UNL     1      -5.238  13.981  67.652  1.00  0.00    -0.300 OA 
BRANCH  35  36
HETATM   36  C   UNL     1      -6.334  14.801  67.697  1.00  0.00    -0.116 A  
HETATM   37  C   UNL     1      -6.407  19.024  68.000  1.00  0.00    -0.216 A  
HETATM   38  C   UNL     1      -5.213  17.036  67.424  1.00  0.00    -0.152 A  
HETATM   39  C   UNL     1      -6.332  16.219  67.697  1.00  0.00    -0.181 A  
HETATM   40  C   UNL     1      -7.534  14.099  67.744  1.00  0.00    -0.174 A  
HETATM   41  C   UNL     1      -7.580  18.256  68.126  1.00  0.00    -0.278 A  
HETATM   42  C   UNL     1      -7.562  16.856  67.958  1.00  0.00    -0.179 A  
HETATM   43  C   UNL     1      -8.898  18.910  68.460  1.00  0.00    -0.387 C  
HETATM   44  C   UNL     1      -5.231  18.410  67.614  1.00  0.00    -0.155 A  
HETATM   45  C   UNL     1      -8.709  14.808  67.877  1.00  0.00    -0.167 A  
HETATM   46  N   UNL     1      -8.712  16.156  68.037  1.00  0.00    -0.174 NA 
BRANCH  37  47
HETATM   47  O   UNL     1      -6.500  20.380  68.196  1.00  0.00    -0.273 OA 
HETATM   48  C   UNL     1      -5.619  21.181  67.409  1.00  0.00    -0.290 C  
ENDBRANCH  37  47
BRANCH  45  49
HETATM   49  C   UNL     1     -10.019  14.125  67.831  1.00  0.00    -0.231 A  
HETATM   50  N   UNL     1     -10.379  13.117  68.612  1.00  0.00    -0.229 NA 
HETATM   51  C   UNL     1     -11.650  12.660  68.277  1.00  0.00    -0.332 A  
HETATM   52  C   UNL     1     -12.245  13.345  67.236  1.00  0.00    -0.233 A  
HETATM   53  C   UNL     1     -12.259  11.511  69.037  1.00  0.00    -0.186 C  
HETATM   54  C   UNL     1     -11.429  10.234  68.896  1.00  0.00    -0.190 C  
HETATM   55  S   UNL     1     -11.211  14.578  66.667  1.00  0.00    -0.353 SA 
HETATM   56  C   UNL     1     -12.467  11.859  70.511  1.00  0.00    -0.301 C  
ENDBRANCH  45  49
ENDBRANCH  35  36
ENDBRANCH  22  35
TORSDOF 8
ENDMDL
MODEL       27
REMARK 921   NORMALIZED FREE ENERGY PREDICTED BY IDOCK:   -4.54 KCAL/MOL
REMARK 922        TOTAL FREE ENERGY PREDICTED BY IDOCK:   -9.23 KCAL/MOL
REMARK 923 INTER-LIGAND FREE ENERGY PREDICTED BY IDOCK:   -7.52 KCAL/MOL
REMARK 924 INTRA-LIGAND FREE ENERGY PREDICTED BY IDOCK:   -1.71 KCAL/MOL
REMARK 927      BINDING AFFINITY PREDICTED BY RF-SCORE:    0.00 PKD
ROOT
HETATM    1  C   UNL     1     -10.458  17.956  68.150  1.00  0.00    -0.380 C  
HETATM    2  C   UNL     1     -10.976  16.832  67.599  1.00  0.00    -0.178 C  
HETATM    3  C   UNL     1     -10.666  15.937  66.468  1.00  0.00    -0.258 C  
HETATM    4  C   UNL     1      -9.418  16.037  65.663  1.00  0.00    -0.175 C  
HETATM    5  C   UNL     1      -9.674  14.782  66.486  1.00  0.00    -0.278 C  
HETATM    6  C   UNL     1      -9.293  18.866  67.811  1.00  0.00    -0.330 C  
HETATM    7  N   UNL     1      -8.649  14.505  67.460  1.00  0.00    -0.177 NA 
HETATM    8  C   UNL     1      -8.723  14.591  68.736  1.00  0.00    -0.147 C  
HETATM    9  C   UNL     1      -6.255  14.223  69.124  1.00  0.00    -0.099 C  
HETATM   10  C   UNL     1      -8.482  19.466  69.011  1.00  0.00    -0.248 C  
HETATM   11  H   UNL     1      -7.750  14.201  67.086  1.00  0.00     0.000 HD 
HETATM   12  C   UNL     1      -6.255  17.981  69.921  1.00  0.00    -0.105 C  
HETATM   13  C   UNL     1      -5.525  12.926  69.532  1.00  0.00    -0.084 C  
HETATM   14  C   UNL     1      -7.690  13.995  69.612  1.00  0.00     0.473 C  
HETATM   15  O   UNL     1      -9.673  15.178  69.461  1.00  0.00    -0.310 OA 
HETATM   16  C   UNL     1      -5.792  15.547  69.762  1.00  0.00    -0.138 C  
HETATM   17  C   UNL     1      -7.870  12.491  69.654  1.00  0.00     1.229 C  
HETATM   18  C   UNL     1      -6.677  16.822  67.797  1.00  0.00    -0.137 C  
HETATM   19  C   UNL     1      -6.971  19.245  69.357  1.00  0.00    -0.300 C  
HETATM   20  H   UNL     1      -9.728  15.242  70.408  1.00  0.00     0.000 HD 
HETATM   21  N   UNL     1      -6.302  16.723  69.180  1.00  0.00    -0.187 N  
HETATM   22  C   UNL     1      -6.565  12.107  70.314  1.00  0.00     0.478 C  
HETATM   23  O   UNL     1      -5.157  15.555  70.814  1.00  0.00    -0.138 OA 
ENDROOT
BRANCH   5  24
HETATM   24  C   UNL     1      -9.844  13.537  65.632  1.00  0.00    -0.167 C  
HETATM   25  H   UNL     1      -9.569  11.629  65.771  1.00  0.00     0.000 HD 
HETATM   26  O   UNL     1      -9.463  12.408  66.305  1.00  0.00    -0.233 OA 
BRANCH  24  27
HETATM   27  N   UNL     1     -10.384  13.531  64.487  1.00  0.00    -0.557 N  
HETATM   28  H   UNL     1      -9.981  14.073  63.723  1.00  0.00     0.000 HD 
BRANCH  27  29
HETATM   29  S   UNL     1     -11.711  12.657  64.254  1.00  0.00    -0.416 S  
HETATM   30  O   UNL     1     -12.187  12.198  65.557  1.00  0.00    -0.549 OA 
HETATM   31  O   UNL     1     -12.633  13.293  63.342  1.00  0.00    -0.730 OA 
BRANCH  29  32
HETATM   32  C   UNL     1     -11.144  11.110  63.384  1.00  0.00     0.063 C  
HETATM   33  C   UNL     1      -9.707  11.194  62.927  1.00  0.00    -0.349 C  
HETATM   34  C   UNL     1     -10.086  10.290  64.071  1.00  0.00    -0.076 C  
ENDBRANCH  29  32
ENDBRANCH  27  29
ENDBRANCH  24  27
ENDBRANCH   5  24
BRANCH  22  35
HETATM   35  O   UNL     1      -6.446  10.695  70.300  1.00  0.00    -0.138 OA 
BRANCH  35  36
HETATM   36  C   UNL     1      -7.265   9.995  69.455  1.00  0.00    -0.087 A  
HETATM   37  C   UNL     1     -10.919   8.066  70.381  1.00  0.00    -0.248 A  
HETATM   38  C   UNL     1      -9.277   9.712  70.936  1.00  0.00     0.048 A  
HETATM   39  C   UNL     1      -8.533   9.444  69.765  1.00  0.00    -0.170 A  
HETATM   40  C   UNL     1      -6.730   9.854  68.177  1.00  0.00    -0.060 A  
HETATM   41  C   UNL     1     -10.288   7.890  69.135  1.00  0.00    -0.225 A  
HETATM   42  C   UNL     1      -9.107   8.586  68.806  1.00  0.00    -0.143 A  
HETATM   43  C   UNL     1     -10.854   6.936  68.112  1.00  0.00    -0.258 C  
HETATM   44  C   UNL     1     -10.426   9.006  71.264  1.00  0.00    -0.381 A  
HETATM   45  C   UNL     1      -7.418   9.096  67.254  1.00  0.00    -0.088 A  
HETATM   46  N   UNL     1      -8.555   8.432  67.585  1.00  0.00    -0.129 NA 
BRANCH  37  47
HETATM   47  O   UNL     1     -12.055   7.340  70.636  1.00  0.00    -0.274 OA 
HETATM   48  C   UNL     1     -12.763   7.694  71.824  1.00  0.00    -0.330 C  
ENDBRANCH  37  47
BRANCH  45  49
HETATM   49  C   UNL     1      -6.952   8.993  65.855  1.00  0.00    -0.088 A  
HETATM   50  N   UNL     1      -6.981   7.890  65.123  1.00  0.00    -0.058 NA 
HETATM   51  C   UNL     1      -6.415   8.111  63.871  1.00  0.00    -0.067 A  
HETATM   52  C   UNL     1      -5.964   9.400  63.670  1.00  0.00    -0.090 A  
HETATM   53  C   UNL     1      -6.340   6.985  62.872  1.00  0.00    -0.048 C  
HETATM   54  C   UNL     1      -5.491   5.823  63.390  1.00  0.00    -0.017 C  
HETATM   55  S   UNL     1      -6.252  10.355  65.056  1.00  0.00    -0.069 SA 
HETATM   56  C   UNL     1      -7.731   6.499  62.467  1.00  0.00    -0.098 C  
ENDBRANCH  45  49
ENDBRANCH  35  36
ENDBRANCH  22  35
TORSDOF 8
ENDMDL
MODEL       28
REMARK 921   NORMALIZED FREE ENERGY PREDICTED BY IDOCK:   -4.54 KCAL/MOL
REMARK 922        TOTAL FREE ENERGY PREDICTED BY IDOCK:   -9.22 KCAL/MOL
REMARK 923 INTER-LIGAND FREE ENERGY PREDICTED BY IDOCK:   -7.27 KCAL/MOL
REMARK 924 INTRA-LIGAND FREE ENERGY PREDICTED BY IDOCK:   -1.95 KCAL/MOL
REMARK 927      BINDING AFFINITY PREDICTED BY RF-SCORE:    0.00 PKD
ROOT
HETATM    1  C   UNL     1     -10.522   3.564  72.983  1.00  0.00    -0.251 C  
HETATM    2  C   UNL     1     -10.532   4.860  73.375  1.00  0.00    -0.267 C  
HETATM    3  C   UNL     1      -9.566   5.972  73.469  1.00  0.00    -0.142 C  
HETATM    4  C   UNL     1      -8.187   5.907  72.914  1.00  0.00    -0.118 C  
HETATM    5  C   UNL     1      -9.172   6.914  72.339  1.00  0.00    -0.133 C  
HETATM    6  C   UNL     1      -9.453   2.615  72.478  1.00  0.00    -0.160 C  
HETATM    7  N   UNL     1      -9.408   6.756  70.926  1.00  0.00    -0.158 NA 
HETATM    8  C   UNL     1     -10.468   6.337  70.341  1.00  0.00    -0.222 C  
HETATM    9  C   UNL     1      -9.415   6.206  68.049  1.00  0.00    -0.113 C  
HETATM   10  C   UNL     1      -9.872   1.594  71.363  1.00  0.00    -0.197 C  
HETATM   11  H   UNL     1      -8.633   7.010  70.315  1.00  0.00     0.000 HD 
HETATM   12  C   UNL     1      -9.534   2.419  68.680  1.00  0.00    -0.128 C  
HETATM   13  C   UNL     1      -9.505   7.217  66.886  1.00  0.00    -0.200 C  
HETATM   14  C   UNL     1     -10.665   6.509  68.884  1.00  0.00    -0.318 C  
HETATM   15  O   UNL     1     -11.516   5.726  70.888  1.00  0.00    -0.158 OA 
HETATM   16  C   UNL     1      -9.479   4.704  67.712  1.00  0.00    -0.152 C  
HETATM   17  C   UNL     1     -11.011   7.953  68.587  1.00  0.00     0.140 C  
HETATM   18  C   UNL     1      -8.224   4.163  69.810  1.00  0.00    -0.058 C  
HETATM   19  C   UNL     1      -9.314   1.480  69.905  1.00  0.00    -0.162 C  
HETATM   20  H   UNL     1     -12.302   5.416  70.454  1.00  0.00     0.000 HD 
HETATM   21  N   UNL     1      -9.139   3.823  68.755  1.00  0.00    -0.129 N  
HETATM   22  C   UNL     1     -10.848   7.940  67.084  1.00  0.00    -0.116 C  
HETATM   23  O   UNL     1      -9.961   4.314  66.651  1.00  0.00    -0.224 OA 
ENDROOT
BRANCH   5  24
HETATM   24  C   UNL     1      -8.755   8.355  72.576  1.00  0.00    -0.206 C  
HETATM   25  H   UNL     1      -8.759   9.656  74.005  1.00  0.00     0.000 HD 
HETATM   26  O   UNL     1      -9.020   8.755  73.858  1.00  0.00     0.093 OA 
BRANCH  24  27
HETATM   27  N   UNL     1      -8.130   9.060  71.729  1.00  0.00     0.035 N  
HETATM   28  H   UNL     1      -8.638   9.664  71.083  1.00  0.00     0.000 HD 
BRANCH  27  29
HETATM   29  S   UNL     1      -6.526   8.990  71.687  1.00  0.00    -0.013 S  
HETATM   30  O   UNL     1      -6.022  10.318  71.347  1.00  0.00    -0.298 OA 
HETATM   31  O   UNL     1      -5.978   8.291  72.826  1.00  0.00    -0.055 OA 
BRANCH  29  32
HETATM   32  C   UNL     1      -6.111   7.932  70.211  1.00  0.00    -0.032 C  
HETATM   33  C   UNL     1      -6.867   8.344  68.970  1.00  0.00    -0.056 C  
HETATM   34  C   UNL     1      -5.386   8.600  69.076  1.00  0.00    -0.036 C  
ENDBRANCH  29  32
ENDBRANCH  27  29
ENDBRANCH  24  27
ENDBRANCH   5  24
BRANCH  22  35
HETATM   35  O   UNL     1     -10.965   9.267  66.602  1.00  0.00     0.032 OA 
BRANCH  35  36
HETATM   36  C   UNL     1      -9.820  10.009  66.493  1.00  0.00    -0.210 A  
HETATM   37  C   UNL     1      -6.357   9.124  64.223  1.00  0.00    -0.076 A  
HETATM   38  C   UNL     1      -8.692   8.791  64.604  1.00  0.00    -0.103 A  
HETATM   39  C   UNL     1      -8.714   9.742  65.648  1.00  0.00    -0.168 A  
HETATM   40  C   UNL     1      -9.815  11.123  67.327  1.00  0.00    -0.198 A  
HETATM   41  C   UNL     1      -6.381  10.187  65.145  1.00  0.00    -0.121 A  
HETATM   42  C   UNL     1      -7.556  10.519  65.851  1.00  0.00    -0.148 A  
HETATM   43  C   UNL     1      -5.139  10.998  65.419  1.00  0.00    -0.073 C  
HETATM   44  C   UNL     1      -7.527   8.451  63.931  1.00  0.00    -0.116 A  
HETATM   45  C   UNL     1      -8.682  11.907  67.376  1.00  0.00    -0.166 A  
HETATM   46  N   UNL     1      -7.558  11.574  66.691  1.00  0.00    -0.125 NA 
BRANCH  37  47
HETATM   47  O   UNL     1      -5.171   8.847  63.589  1.00  0.00    -0.060 OA 
HETATM   48  C   UNL     1      -5.275   8.093  62.382  1.00  0.00    -0.065 C  
ENDBRANCH  37  47
BRANCH  45  49
HETATM   49  C   UNL     1      -8.654  13.156  68.165  1.00  0.00    -0.181 A  
HETATM   50  N   UNL     1      -9.701  13.936  68.391  1.00  0.00    -0.226 NA 
HETATM   51  C   UNL     1      -9.331  15.064  69.116  1.00  0.00    -0.189 A  
HETATM   52  C   UNL     1      -7.989  15.119  69.439  1.00  0.00    -0.205 A  
HETATM   53  C   UNL     1     -10.367  16.094  69.483  1.00  0.00    -0.282 C  
HETATM   54  C   UNL     1     -11.005  16.724  68.244  1.00  0.00    -0.327 C  
HETATM   55  S   UNL     1      -7.175  13.744  68.835  1.00  0.00    -0.063 SA 
HETATM   56  C   UNL     1     -11.439  15.510  70.403  1.00  0.00    -0.364 C  
ENDBRANCH  45  49
ENDBRANCH  35  36
ENDBRANCH  22  35
TORSDOF 8
ENDMDL
MODEL       29
REMARK 921   NORMALIZED FREE ENERGY PREDICTED BY IDOCK:   -3.98 KCAL/MOL
REMARK 922        TOTAL FREE ENERGY PREDICTED BY IDOCK:   -8.39 KCAL/MOL
REMARK 923 INTER-LIGAND FREE ENERGY PREDICTED BY IDOCK:   -7.81 KCAL/MOL
REMARK 924 INTRA-LIGAND FREE ENERGY PREDICTED BY IDOCK:   -0.58 KCAL/MOL
REMARK 927      BINDING AFFINITY PREDICTED BY RF-SCORE:    0.00 PKD
ROOT
HETATM    1  C   UNL     1     -10.779   6.120  67.271  1.00  0.00    -0.414 C  
HETATM    2  C   UNL     1     -11.184   6.717  68.417  1.00  0.00    -0.215 C  
HETATM    3  C   UNL     1     -10.734   6.789  69.820  1.00  0.00    -0.288 C  
HETATM    4  C   UNL     1      -9.435   6.238  70.292  1.00  0.00    -0.173 C  
HETATM    5  C   UNL     1      -9.680   7.738  70.374  1.00  0.00    -0.179 C  
HETATM    6  C   UNL     1      -9.647   5.178  66.906  1.00  0.00    -0.157 C  
HETATM    7  N   UNL     1      -8.720   8.526  69.643  1.00  0.00    -0.131 NA 
HETATM    8  C   UNL     1      -8.900   9.196  68.566  1.00  0.00    -0.129 C  
HETATM    9  C   UNL     1      -6.452   9.715  68.221  1.00  0.00    -0.056 C  
HETATM   10  C   UNL     1      -8.970   5.383  65.507  1.00  0.00    -0.149 C  
HETATM   11  H   UNL     1      -7.779   8.554  70.033  1.00  0.00     0.000 HD 
HETATM   12  C   UNL     1      -6.737   7.116  65.407  1.00  0.00    -0.051 C  
HETATM   13  C   UNL     1      -5.681  11.006  68.567  1.00  0.00    -0.043 C  
HETATM   14  C   UNL     1      -7.905  10.187  68.099  1.00  0.00    -0.096 C  
HETATM   15  O   UNL     1      -9.936   9.141  67.733  1.00  0.00    -0.169 OA 
HETATM   16  C   UNL     1      -6.120   9.004  66.894  1.00  0.00    -0.058 C  
HETATM   17  C   UNL     1      -7.999  11.437  68.950  1.00  0.00    -0.085 C  
HETATM   18  C   UNL     1      -6.922   6.829  67.839  1.00  0.00    -0.083 C  
HETATM   19  C   UNL     1      -7.481   5.760  65.205  1.00  0.00    -0.078 C  
HETATM   20  H   UNL     1     -10.069   9.638  66.934  1.00  0.00     0.000 HD 
HETATM   21  N   UNL     1      -6.652   7.711  66.738  1.00  0.00    -0.060 N  
HETATM   22  C   UNL     1      -6.729  12.129  68.508  1.00  0.00    -0.071 C  
HETATM   23  O   UNL     1      -5.571   9.607  65.975  1.00  0.00    -0.046 OA 
ENDROOT
BRANCH   5  24
HETATM   24  C   UNL     1      -9.708   8.258  71.802  1.00  0.00    -0.212 C  
HETATM   25  H   UNL     1     -11.005   8.795  73.130  1.00  0.00     0.000 HD 
HETATM   26  O   UNL     1     -10.988   8.470  72.237  1.00  0.00    -0.338 OA 
BRANCH  24  27
HETATM   27  N   UNL     1      -8.683   8.367  72.536  1.00  0.00    -0.214 N  
HETATM   28  H   UNL     1      -8.075   9.182  72.457  1.00  0.00     0.000 HD 
BRANCH  27  29
HETATM   29  S   UNL     1      -8.353   7.204  73.594  1.00  0.00    -0.145 S  
HETATM   30  O   UNL     1      -7.365   7.718  74.540  1.00  0.00    -0.128 OA 
HETATM   31  O   UNL     1      -9.546   6.560  74.090  1.00  0.00    -0.187 OA 
BRANCH  29  32
HETATM   32  C   UNL     1      -7.448   5.893  72.628  1.00  0.00    -0.096 C  
HETATM   33  C   UNL     1      -6.459   5.127  73.474  1.00  0.00    -0.062 C  
HETATM   34  C   UNL     1      -7.724   4.462  72.998  1.00  0.00    -0.086 C  
ENDBRANCH  29  32
ENDBRANCH  27  29
ENDBRANCH  24  27
ENDBRANCH   5  24
BRANCH  22  35
HETATM   35  O   UNL     1      -6.526  13.271  69.322  1.00  0.00    -0.103 OA 
BRANCH  35  36
HETATM   36  C   UNL     1      -7.243  14.399  69.026  1.00  0.00    -0.129 A  
HETATM   37  C   UNL     1      -5.899  17.884  67.033  1.00  0.00    -0.141 A  
HETATM   38  C   UNL     1      -5.618  15.557  67.496  1.00  0.00    -0.035 A  
HETATM   39  C   UNL     1      -6.799  15.512  68.269  1.00  0.00    -0.120 A  
HETATM   40  C   UNL     1      -8.530  14.376  69.555  1.00  0.00     0.386 A  
HETATM   41  C   UNL     1      -7.158  17.834  67.660  1.00  0.00    -0.194 A  
HETATM   42  C   UNL     1      -7.629  16.651  68.266  1.00  0.00    -0.181 A  
HETATM   43  C   UNL     1      -8.041  19.057  67.717  1.00  0.00    -0.297 C  
HETATM   44  C   UNL     1      -5.148  16.731  66.923  1.00  0.00    -0.111 A  
HETATM   45  C   UNL     1      -9.327  15.491  69.401  1.00  0.00    -0.279 A  
HETATM   46  N   UNL     1      -8.861  16.623  68.815  1.00  0.00    -0.259 NA 
BRANCH  37  47
HETATM   47  O   UNL     1      -5.501  19.078  66.482  1.00  0.00    -0.153 OA 
HETATM   48  C   UNL     1      -5.189  20.115  67.411  1.00  0.00    -0.168 C  
ENDBRANCH  37  47
BRANCH  45  49
HETATM   49  C   UNL     1     -10.735  15.488  69.853  1.00  0.00    -0.311 A  
HETATM   50  N   UNL     1     -11.169  14.954  70.984  1.00  0.00    -0.215 NA 
HETATM   51  C   UNL     1     -12.553  15.065  71.085  1.00  0.00    -0.348 A  
HETATM   52  C   UNL     1     -13.153  15.697  70.015  1.00  0.00     0.388 A  
HETATM   53  C   UNL     1     -13.262  14.517  72.296  1.00  0.00    -0.477 C  
HETATM   54  C   UNL     1     -13.067  13.007  72.434  1.00  0.00    -0.380 C  
HETATM   55  S   UNL     1     -11.980  16.165  68.866  1.00  0.00     0.196 SA 
HETATM   56  C   UNL     1     -12.831  15.237  73.574  1.00  0.00    -0.681 C  
ENDBRANCH  45  49
ENDBRANCH  35  36
ENDBRANCH  22  35
TORSDOF 8
ENDMDL
MODEL       30
REMARK 921   NORMALIZED FREE ENERGY PREDICTED BY IDOCK:   -3.97 KCAL/MOL
REMARK 922        TOTAL FREE ENERGY PREDICTED BY IDOCK:   -8.38 KCAL/MOL
REMARK 923 INTER-LIGAND FREE ENERGY PREDICTED BY IDOCK:   -7.29 KCAL/MOL
REMARK 924 INTRA-LIGAND FREE ENERGY PREDICTED BY IDOCK:   -1.09 KCAL/MOL
REMARK 927      BINDING AFFINITY PREDICTED BY RF-SCORE:    0.00 PKD
ROOT
HETATM    1  C   UNL     1     -11.386  16.904  68.947  1.00  0.00     0.117 C  
HETATM    2  C   UNL     1     -11.851  15.638  68.830  1.00  0.00    -0.368 C  
HETATM    3  C   UNL     1     -12.041  14.648  67.753  1.00  0.00    -0.211 C  
HETATM    4  C   UNL     1     -11.531  14.837  66.368  1.00  0.00    -0.319 C  
HETATM    5  C   UNL     1     -10.982  13.697  67.213  1.00  0.00    -0.287 C  
HETATM    6  C   UNL     1     -10.864  17.939  67.969  1.00  0.00    -0.206 C  
HETATM    7  N   UNL     1      -9.554  13.752  67.407  1.00  0.00    -0.223 NA 
HETATM    8  C   UNL     1      -8.910  14.018  68.483  1.00  0.00    -0.160 C  
HETATM    9  C   UNL     1      -6.652  14.144  67.359  1.00  0.00     0.058 C  
HETATM   10  C   UNL     1      -9.679  18.846  68.453  1.00  0.00    -0.432 C  
HETATM   11  H   UNL     1      -8.986  13.555  66.585  1.00  0.00     0.000 HD 
HETATM   12  C   UNL     1      -7.060  17.922  67.918  1.00  0.00    -0.210 C  
HETATM   13  C   UNL     1      -5.546  13.069  67.290  1.00  0.00     0.125 C  
HETATM   14  C   UNL     1      -7.460  13.748  68.600  1.00  0.00    -0.116 C  
HETATM   15  O   UNL     1      -9.386  14.536  69.613  1.00  0.00    -0.381 OA 
HETATM   16  C   UNL     1      -6.227  15.609  67.574  1.00  0.00    -0.131 C  
HETATM   17  C   UNL     1      -7.235  12.260  68.774  1.00  0.00    -0.098 C  
HETATM   18  C   UNL     1      -8.333  16.398  66.472  1.00  0.00    -0.302 C  
HETATM   19  C   UNL     1      -8.236  18.943  67.852  1.00  0.00    -0.305 C  
HETATM   20  H   UNL     1      -8.908  14.732  70.410  1.00  0.00     0.000 HD 
HETATM   21  N   UNL     1      -7.230  16.577  67.375  1.00  0.00    -0.135 N  
HETATM   22  C   UNL     1      -5.740  12.212  68.552  1.00  0.00    -0.053 C  
HETATM   23  O   UNL     1      -5.130  15.886  68.053  1.00  0.00    -0.104 OA 
ENDROOT
BRANCH   5  24
HETATM   24  C   UNL     1     -11.314  12.326  66.649  1.00  0.00    -0.343 C  
HETATM   25  H   UNL     1     -10.770  10.486  66.880  1.00  0.00     0.000 HD 
HETATM   26  O   UNL     1     -10.561  11.344  67.233  1.00  0.00    -0.207 OA 
BRANCH  24  27
HETATM   27  N   UNL     1     -12.255  12.105  65.830  1.00  0.00    -0.117 N  
HETATM   28  H   UNL     1     -13.195  11.899  66.166  1.00  0.00     0.000 HD 
BRANCH  27  29
HETATM   29  S   UNL     1     -11.945  12.155  64.255  1.00  0.00    -0.368 S  
HETATM   30  O   UNL     1     -12.545  10.975  63.636  1.00  0.00     0.825 OA 
HETATM   31  O   UNL     1     -12.194  13.460  63.689  1.00  0.00    -0.616 OA 
BRANCH  29  32
HETATM   32  C   UNL     1     -10.108  11.891  64.099  1.00  0.00    -0.310 C  
HETATM   33  C   UNL     1      -9.758  10.494  63.643  1.00  0.00    -0.375 C  
HETATM   34  C   UNL     1      -9.566  11.665  62.714  1.00  0.00    -0.096 C  
ENDBRANCH  29  32
ENDBRANCH  27  29
ENDBRANCH  24  27
ENDBRANCH   5  24
BRANCH  22  35
HETATM   35  O   UNL     1      -5.331  10.856  68.504  1.00  0.00    -0.041 OA 
BRANCH  35  36
HETATM   36  C   UNL     1      -6.289   9.910  68.256  1.00  0.00    -0.054 A  
HETATM   37  C   UNL     1      -7.447   8.303  64.514  1.00  0.00    -0.101 A  
HETATM   38  C   UNL     1      -5.803   9.425  65.837  1.00  0.00    -0.054 A  
HETATM   39  C   UNL     1      -6.589   9.315  67.005  1.00  0.00    -0.068 A  
HETATM   40  C   UNL     1      -6.998   9.546  69.397  1.00  0.00    -0.050 A  
HETATM   41  C   UNL     1      -8.178   8.038  65.687  1.00  0.00    -0.135 A  
HETATM   42  C   UNL     1      -7.752   8.520  66.942  1.00  0.00    -0.091 A  
HETATM   43  C   UNL     1      -9.455   7.236  65.635  1.00  0.00     0.399 C  
HETATM   44  C   UNL     1      -6.240   8.968  64.601  1.00  0.00    -0.066 A  
HETATM   45  C   UNL     1      -8.050   8.664  69.267  1.00  0.00    -0.112 A  
HETATM   46  N   UNL     1      -8.448   8.207  68.053  1.00  0.00    -0.132 NA 
BRANCH  37  47
HETATM   47  O   UNL     1      -7.935   7.816  63.326  1.00  0.00    -0.140 OA 
HETATM   48  C   UNL     1      -7.861   6.401  63.161  1.00  0.00    -0.102 C  
ENDBRANCH  37  47
BRANCH  45  49
HETATM   49  C   UNL     1      -8.773   8.164  70.455  1.00  0.00    -0.136 A  
HETATM   50  N   UNL     1      -8.360   7.180  71.239  1.00  0.00    -0.112 NA 
HETATM   51  C   UNL     1      -9.297   6.912  72.233  1.00  0.00    -0.137 A  
HETATM   52  C   UNL     1     -10.419   7.714  72.189  1.00  0.00    -0.221 A  
HETATM   53  C   UNL     1      -9.032   5.821  73.238  1.00  0.00    -0.127 C  
HETATM   54  C   UNL     1      -8.897   4.453  72.569  1.00  0.00    -0.122 C  
HETATM   55  S   UNL     1     -10.308   8.823  70.895  1.00  0.00    -0.243 SA 
HETATM   56  C   UNL     1      -7.801   6.129  74.090  1.00  0.00    -0.099 C  
ENDBRANCH  45  49
ENDBRANCH  35  36
ENDBRANCH  22  35
TORSDOF 8
ENDMDL
MODEL       31
REMARK 921   NORMALIZED FREE ENERGY PREDICTED BY IDOCK:   -3.93 KCAL/MOL
REMARK 922        TOTAL FREE ENERGY PREDICTED BY IDOCK:   -8.33 KCAL/MOL
REMARK 923 INTER-LIGAND FREE ENERGY PREDICTED BY IDOCK:   -7.16 KCAL/MOL
REMARK 924 INTRA-LIGAND FREE ENERGY PREDICTED BY IDOCK:   -1.17 KCAL/MOL
REMARK 927      BINDING AFFINITY PREDICTED BY RF-SCORE:    0.00 PKD
ROOT
HETATM    1  C   UNL     1     -12.750  15.886  69.204  1.00  0.00     0.814 C  
HETATM    2  C   UNL     1     -11.769  15.859  68.270  1.00  0.00    -0.191 C  
HETATM    3  C   UNL     1     -10.305  15.681  68.240  1.00  0.00    -0.244 C  
HETATM    4  C   UNL     1      -9.505  15.281  69.429  1.00  0.00    -0.231 C  
HETATM    5  C   UNL     1      -9.565  14.351  68.226  1.00  0.00    -0.211 C  
HETATM    6  C   UNL     1     -12.780  15.780  70.717  1.00  0.00    -0.388 C  
HETATM    7  N   UNL     1     -10.084  13.041  68.529  1.00  0.00    -0.326 NA 
HETATM    8  C   UNL     1     -11.207  12.533  68.180  1.00  0.00    -0.267 C  
HETATM    9  C   UNL     1     -10.979  10.479  69.634  1.00  0.00    -0.333 C  
HETATM   10  C   UNL     1     -13.983  15.004  71.356  1.00  0.00    -0.565 C  
HETATM   11  H   UNL     1      -9.480  12.442  69.092  1.00  0.00     0.000 HD 
HETATM   12  C   UNL     1     -13.634  12.231  71.786  1.00  0.00     0.028 C  
HETATM   13  C   UNL     1     -10.526   9.059  69.233  1.00  0.00    -0.238 C  
HETATM   14  C   UNL     1     -11.473  11.083  68.314  1.00  0.00    -0.374 C  
HETATM   15  O   UNL     1     -12.262  13.159  67.663  1.00  0.00    -0.279 OA 
HETATM   16  C   UNL     1     -12.146  10.616  70.630  1.00  0.00    -0.365 C  
HETATM   17  C   UNL     1     -10.738  10.331  67.223  1.00  0.00    -0.323 C  
HETATM   18  C   UNL     1     -11.306  12.869  71.330  1.00  0.00     2.628 C  
HETATM   19  C   UNL     1     -13.936  13.699  72.218  1.00  0.00    -0.661 C  
HETATM   20  H   UNL     1     -13.094  12.781  67.404  1.00  0.00     0.000 HD 
HETATM   21  N   UNL     1     -12.356  11.903  71.161  1.00  0.00    -0.271 N  
HETATM   22  C   UNL     1     -10.897   8.922  67.747  1.00  0.00    -0.036 C  
HETATM   23  O   UNL     1     -12.936   9.693  70.808  1.00  0.00    -0.219 OA 
ENDROOT
BRANCH   5  24
HETATM   24  C   UNL     1      -8.217  14.165  67.551  1.00  0.00    -0.186 C  
HETATM   25  H   UNL     1      -6.597  15.170  67.232  1.00  0.00     0.000 HD 
HETATM   26  O   UNL     1      -7.440  15.287  67.654  1.00  0.00    -0.141 OA 
BRANCH  24  27
HETATM   27  N   UNL     1      -7.816  13.069  67.060  1.00  0.00    -0.393 N  
HETATM   28  H   UNL     1      -8.315  12.637  66.282  1.00  0.00     0.000 HD 
BRANCH  27  29
HETATM   29  S   UNL     1      -6.509  12.368  67.678  1.00  0.00    -0.144 S  
HETATM   30  O   UNL     1      -5.339  12.888  66.974  1.00  0.00    -0.336 OA 
HETATM   31  O   UNL     1      -6.525  12.357  69.122  1.00  0.00    -0.088 OA 
BRANCH  29  32
HETATM   32  C   UNL     1      -6.614  10.579  67.168  1.00  0.00    -0.074 C  
HETATM   33  C   UNL     1      -5.585   9.717  67.861  1.00  0.00    -0.040 C  
HETATM   34  C   UNL     1      -7.042   9.594  68.221  1.00  0.00    -0.078 C  
ENDBRANCH  29  32
ENDBRANCH  27  29
ENDBRANCH  24  27
ENDBRANCH   5  24
BRANCH  22  35
HETATM   35  O   UNL     1     -10.121   8.048  66.946  1.00  0.00    -0.238 OA 
BRANCH  35  36
HETATM   36  C   UNL     1      -9.905   6.779  67.414  1.00  0.00    -0.137 A  
HETATM   37  C   UNL     1      -8.636   3.384  65.226  1.00  0.00    -0.110 A  
HETATM   38  C   UNL     1      -8.783   5.762  65.407  1.00  0.00    -0.122 A  
HETATM   39  C   UNL     1      -9.384   5.683  66.682  1.00  0.00    -0.151 A  
HETATM   40  C   UNL     1     -10.257   6.629  68.752  1.00  0.00    -0.186 A  
HETATM   41  C   UNL     1      -9.084   3.278  66.556  1.00  0.00    -0.173 A  
HETATM   42  C   UNL     1      -9.443   4.419  67.302  1.00  0.00    -0.171 A  
HETATM   43  C   UNL     1      -9.207   1.930  67.223  1.00  0.00    -0.109 C  
HETATM   44  C   UNL     1      -8.454   4.635  64.668  1.00  0.00    -0.135 A  
HETATM   45  C   UNL     1     -10.169   5.376  69.321  1.00  0.00    -0.245 A  
HETATM   46  N   UNL     1      -9.821   4.286  68.590  1.00  0.00    -0.100 NA 
BRANCH  37  47
HETATM   47  O   UNL     1      -8.322   2.227  64.556  1.00  0.00    -0.084 OA 
HETATM   48  C   UNL     1      -8.285   2.325  63.133  1.00  0.00    -0.073 C  
ENDBRANCH  37  47
BRANCH  45  49
HETATM   49  C   UNL     1     -10.432   5.175  70.761  1.00  0.00    -0.193 A  
HETATM   50  N   UNL     1      -9.947   4.183  71.492  1.00  0.00    -0.181 NA 
HETATM   51  C   UNL     1     -10.430   4.243  72.795  1.00  0.00    -0.179 A  
HETATM   52  C   UNL     1     -11.284   5.302  73.037  1.00  0.00    -0.324 A  
HETATM   53  C   UNL     1     -10.009   3.204  73.801  1.00  0.00    -0.165 C  
HETATM   54  C   UNL     1     -10.441   1.799  73.381  1.00  0.00    -0.197 C  
HETATM   55  S   UNL     1     -11.484   6.239  71.623  1.00  0.00    -0.281 SA 
HETATM   56  C   UNL     1      -8.503   3.251  74.060  1.00  0.00    -0.074 C  
ENDBRANCH  45  49
ENDBRANCH  35  36
ENDBRANCH  22  35
TORSDOF 8
ENDMDL
MODEL       32
REMARK 921   NORMALIZED FREE ENERGY PREDICTED BY IDOCK:   -3.79 KCAL/MOL
REMARK 922        TOTAL FREE ENERGY PREDICTED BY IDOCK:   -8.13 KCAL/MOL
REMARK 923 INTER-LIGAND FREE ENERGY PREDICTED BY IDOCK:   -5.50 KCAL/MOL
REMARK 924 INTRA-LIGAND FREE ENERGY PREDICTED BY IDOCK:   -2.63 KCAL/MOL
REMARK 927      BINDING AFFINITY PREDICTED BY RF-SCORE:    0.00 PKD
ROOT
HETATM    1  C   UNL     1     -11.330  14.377  66.669  1.00  0.00    -0.359 C  
HETATM    2  C   UNL     1     -10.468  13.440  66.208  1.00  0.00    -0.289 C  
HETATM    3  C   UNL     1      -9.149  12.899  66.588  1.00  0.00    -0.181 C  
HETATM    4  C   UNL     1      -8.459  13.243  67.861  1.00  0.00    -0.177 C  
HETATM    5  C   UNL     1      -8.892  11.805  67.615  1.00  0.00    -0.162 C  
HETATM    6  C   UNL     1     -11.306  15.370  67.816  1.00  0.00    -0.308 C  
HETATM    7  N   UNL     1      -9.797  11.290  68.613  1.00  0.00    -0.203 NA 
HETATM    8  C   UNL     1     -11.043  11.019  68.488  1.00  0.00    -0.243 C  
HETATM    9  C   UNL     1     -11.423  10.609  70.952  1.00  0.00    -0.205 C  
HETATM   10  C   UNL     1     -12.660  15.632  68.563  1.00  0.00     0.872 C  
HETATM   11  H   UNL     1      -9.394  11.120  69.533  1.00  0.00     0.000 HD 
HETATM   12  C   UNL     1     -13.223  13.999  70.802  1.00  0.00    -0.110 C  
HETATM   13  C   UNL     1     -11.489   9.265  71.708  1.00  0.00    -0.448 C  
HETATM   14  C   UNL     1     -11.765  10.225  69.507  1.00  0.00    -0.193 C  
HETATM   15  O   UNL     1     -11.859  11.362  67.495  1.00  0.00    -0.614 OA 
HETATM   16  C   UNL     1     -12.420  11.715  71.348  1.00  0.00    -0.208 C  
HETATM   17  C   UNL     1     -11.383   8.765  69.375  1.00  0.00     0.300 C  
HETATM   18  C   UNL     1     -10.845  13.464  70.495  1.00  0.00     1.720 C  
HETATM   19  C   UNL     1     -12.998  15.355  70.066  1.00  0.00     0.002 C  
HETATM   20  H   UNL     1     -12.783  11.161  67.403  1.00  0.00     0.000 HD 
HETATM   21  N   UNL     1     -12.163  12.994  70.822  1.00  0.00    -0.342 N  
HETATM   22  C   UNL     1     -11.968   8.240  70.666  1.00  0.00    -0.025 C  
HETATM   23  O   UNL     1     -13.460  11.444  71.944  1.00  0.00    -0.360 OA 
ENDROOT
BRANCH   5  24
HETATM   24  C   UNL     1      -7.722  10.840  67.517  1.00  0.00    -0.105 C  
HETATM   25  H   UNL     1      -6.572   9.824  68.691  1.00  0.00     0.000 HD 
HETATM   26  O   UNL     1      -7.303  10.427  68.752  1.00  0.00    -0.079 OA 
BRANCH  24  27
HETATM   27  N   UNL     1      -7.270  10.383  66.426  1.00  0.00    -0.112 N  
HETATM   28  H   UNL     1      -6.679  10.961  65.829  1.00  0.00     0.000 HD 
BRANCH  27  29
HETATM   29  S   UNL     1      -7.641   8.881  65.995  1.00  0.00    -0.095 S  
HETATM   30  O   UNL     1      -6.420   8.228  65.527  1.00  0.00    -0.048 OA 
HETATM   31  O   UNL     1      -8.471   8.220  66.974  1.00  0.00    -0.120 OA 
BRANCH  29  32
HETATM   32  C   UNL     1      -8.704   9.046  64.475  1.00  0.00    -0.120 C  
HETATM   33  C   UNL     1      -9.900   9.941  64.696  1.00  0.00    -0.185 C  
HETATM   34  C   UNL     1      -8.760  10.401  63.825  1.00  0.00    -0.198 C  
ENDBRANCH  29  32
ENDBRANCH  27  29
ENDBRANCH  24  27
ENDBRANCH   5  24
BRANCH  22  35
HETATM   35  O   UNL     1     -11.572   6.890  70.831  1.00  0.00    -0.299 OA 
BRANCH  35  36
HETATM   36  C   UNL     1     -10.332   6.531  70.374  1.00  0.00    -0.198 A  
HETATM   37  C   UNL     1      -6.574   8.071  71.570  1.00  0.00    -0.045 A  
HETATM   38  C   UNL     1      -8.888   7.723  72.052  1.00  0.00    -0.169 A  
HETATM   39  C   UNL     1      -9.083   6.989  70.861  1.00  0.00    -0.153 A  
HETATM   40  C   UNL     1     -10.386   5.618  69.324  1.00  0.00    -0.340 A  
HETATM   41  C   UNL     1      -6.699   7.212  70.461  1.00  0.00    -0.052 A  
HETATM   42  C   UNL     1      -7.942   6.649  70.106  1.00  0.00    -0.112 A  
HETATM   43  C   UNL     1      -5.502   6.877  69.606  1.00  0.00    -0.015 C  
HETATM   44  C   UNL     1      -7.668   8.294  72.383  1.00  0.00    -0.168 A  
HETATM   45  C   UNL     1      -9.208   5.241  68.716  1.00  0.00    -0.116 A  
HETATM   46  N   UNL     1      -8.018   5.791  69.069  1.00  0.00    -0.097 NA 
BRANCH  37  47
HETATM   47  O   UNL     1      -5.335   8.596  71.842  1.00  0.00    -0.036 OA 
HETATM   48  C   UNL     1      -5.242  10.019  71.800  1.00  0.00    -0.057 C  
ENDBRANCH  37  47
BRANCH  45  49
HETATM   49  C   UNL     1      -9.193   4.202  67.665  1.00  0.00    -0.152 A  
HETATM   50  N   UNL     1      -9.242   4.436  66.363  1.00  0.00    -0.132 NA 
HETATM   51  C   UNL     1      -9.272   3.245  65.645  1.00  0.00    -0.150 A  
HETATM   52  C   UNL     1      -9.238   2.108  66.427  1.00  0.00     0.023 A  
HETATM   53  C   UNL     1      -9.334   3.277  64.140  1.00  0.00    -0.132 C  
HETATM   54  C   UNL     1     -10.603   3.966  63.638  1.00  0.00    -0.208 C  
HETATM   55  S   UNL     1      -9.163   2.526  68.081  1.00  0.00    -0.210 SA 
HETATM   56  C   UNL     1      -8.090   3.932  63.540  1.00  0.00    -0.089 C  
ENDBRANCH  45  49
ENDBRANCH  35  36
ENDBRANCH  22  35
TORSDOF 8
ENDMDL
MODEL       33
REMARK 921   NORMALIZED FREE ENERGY PREDICTED BY IDOCK:   -3.73 KCAL/MOL
REMARK 922        TOTAL FREE ENERGY PREDICTED BY IDOCK:   -8.04 KCAL/MOL
REMARK 923 INTER-LIGAND FREE ENERGY PREDICTED BY IDOCK:   -6.74 KCAL/MOL
REMARK 924 INTRA-LIGAND FREE ENERGY PREDICTED BY IDOCK:   -1.29 KCAL/MOL
REMARK 927      BINDING AFFINITY PREDICTED BY RF-SCORE:    0.00 PKD
ROOT
HETATM    1  C   UNL     1      -5.835   2.377  67.328  1.00  0.00    -0.019 C  
HETATM    2  C   UNL     1      -6.467   3.101  66.374  1.00  0.00    -0.032 C  
HETATM    3  C   UNL     1      -7.820   3.641  66.142  1.00  0.00    -0.089 C  
HETATM    4  C   UNL     1      -8.901   3.610  67.164  1.00  0.00    -0.140 C  
HETATM    5  C   UNL     1      -8.367   4.953  66.688  1.00  0.00    -0.107 C  
HETATM    6  C   UNL     1      -6.266   1.729  68.630  1.00  0.00    -0.025 C  
HETATM    7  N   UNL     1      -7.826   5.771  67.744  1.00  0.00    -0.097 NA 
HETATM    8  C   UNL     1      -6.600   6.076  67.962  1.00  0.00    -0.055 C  
HETATM    9  C   UNL     1      -7.040   7.155  70.204  1.00  0.00    -0.066 C  
HETATM   10  C   UNL     1      -5.242   1.762  69.818  1.00  0.00    -0.008 C  
HETATM   11  H   UNL     1      -8.504   6.157  68.400  1.00  0.00     0.000 HD 
HETATM   12  C   UNL     1      -5.397   3.967  71.580  1.00  0.00     0.000 C  
HETATM   13  C   UNL     1      -7.185   8.654  70.542  1.00  0.00    -0.053 C  
HETATM   14  C   UNL     1      -6.230   7.157  68.902  1.00  0.00    -0.027 C  
HETATM   15  O   UNL     1      -5.514   5.530  67.422  1.00  0.00    -0.011 OA 
HETATM   16  C   UNL     1      -6.263   6.260  71.189  1.00  0.00    -0.043 C  
HETATM   17  C   UNL     1      -6.501   8.502  68.258  1.00  0.00    -0.060 C  
HETATM   18  C   UNL     1      -7.523   4.252  70.384  1.00  0.00    -0.045 C  
HETATM   19  C   UNL     1      -5.409   2.452  71.212  1.00  0.00    -0.004 C  
HETATM   20  H   UNL     1      -4.606   5.756  67.584  1.00  0.00     0.000 HD 
HETATM   21  N   UNL     1      -6.373   4.873  70.979  1.00  0.00    -0.019 N  
HETATM   22  C   UNL     1      -6.358   9.389  69.474  1.00  0.00    -0.040 C  
HETATM   23  O   UNL     1      -5.470   6.745  71.992  1.00  0.00    -0.035 OA 
ENDROOT
BRANCH   5  24
HETATM   24  C   UNL     1      -9.409   5.781  65.956  1.00  0.00    -0.117 C  
HETATM   25  H   UNL     1     -11.200   5.580  65.258  1.00  0.00     0.000 HD 
HETATM   26  O   UNL     1     -10.549   5.062  65.716  1.00  0.00    -0.203 OA 
BRANCH  24  27
HETATM   27  N   UNL     1      -9.285   7.016  65.706  1.00  0.00    -0.381 N  
HETATM   28  H   UNL     1      -9.874   7.701  66.178  1.00  0.00     0.000 HD 
BRANCH  27  29
HETATM   29  S   UNL     1      -8.186   7.489  64.634  1.00  0.00     0.015 S  
HETATM   30  O   UNL     1      -6.868   7.105  65.136  1.00  0.00    -0.049 OA 
HETATM   31  O   UNL     1      -8.559   7.151  63.281  1.00  0.00     0.234 OA 
BRANCH  29  32
HETATM   32  C   UNL     1      -8.194   9.351  64.699  1.00  0.00    -0.148 C  
HETATM   33  C   UNL     1      -9.007   9.967  63.586  1.00  0.00    -0.280 C  
HETATM   34  C   UNL     1      -9.507  10.017  65.006  1.00  0.00    -0.339 C  
ENDBRANCH  29  32
ENDBRANCH  27  29
ENDBRANCH  24  27
ENDBRANCH   5  24
BRANCH  22  35
HETATM   35  O   UNL     1      -6.744  10.707  69.125  1.00  0.00    -0.059 OA 
BRANCH  35  36
HETATM   36  C   UNL     1      -8.084  10.978  69.048  1.00  0.00    -0.104 A  
HETATM   37  C   UNL     1      -9.981  14.143  66.972  1.00  0.00    -0.260 A  
HETATM   38  C   UNL     1      -8.069  12.738  67.252  1.00  0.00    -0.172 A  
HETATM   39  C   UNL     1      -8.703  11.984  68.265  1.00  0.00    -0.178 A  
HETATM   40  C   UNL     1      -8.853  10.137  69.848  1.00  0.00    -0.089 A  
HETATM   41  C   UNL     1     -10.692  13.314  67.860  1.00  0.00    -0.252 A  
HETATM   42  C   UNL     1     -10.072  12.221  68.499  1.00  0.00    -0.187 A  
HETATM   43  C   UNL     1     -12.145  13.581  68.169  1.00  0.00    -0.290 C  
HETATM   44  C   UNL     1      -8.677  13.827  66.645  1.00  0.00    -0.026 A  
HETATM   45  C   UNL     1     -10.211  10.360  69.927  1.00  0.00    -0.141 A  
HETATM   46  N   UNL     1     -10.794  11.417  69.306  1.00  0.00    -0.219 NA 
BRANCH  37  47
HETATM   47  O   UNL     1     -10.647  15.200  66.404  1.00  0.00    -0.291 OA 
HETATM   48  C   UNL     1      -9.914  16.421  66.318  1.00  0.00    -0.323 C  
ENDBRANCH  37  47
BRANCH  45  49
HETATM   49  C   UNL     1     -11.091   9.441  70.678  1.00  0.00    -0.289 A  
HETATM   50  N   UNL     1     -10.708   8.295  71.221  1.00  0.00    -0.221 NA 
HETATM   51  C   UNL     1     -11.786   7.638  71.805  1.00  0.00    -0.283 A  
HETATM   52  C   UNL     1     -12.987   8.311  71.701  1.00  0.00    -0.337 A  
HETATM   53  C   UNL     1     -11.577   6.307  72.480  1.00  0.00    -0.273 C  
HETATM   54  C   UNL     1     -11.070   5.248  71.500  1.00  0.00    -0.017 C  
HETATM   55  S   UNL     1     -12.772   9.786  70.867  1.00  0.00    -0.201 SA 
HETATM   56  C   UNL     1     -10.639   6.426  73.680  1.00  0.00    -0.288 C  
ENDBRANCH  45  49
ENDBRANCH  35  36
ENDBRANCH  22  35
TORSDOF 8
ENDMDL
MODEL       34
REMARK 921   NORMALIZED FREE ENERGY PREDICTED BY IDOCK:   -3.62 KCAL/MOL
REMARK 922        TOTAL FREE ENERGY PREDICTED BY IDOCK:   -7.88 KCAL/MOL
REMARK 923 INTER-LIGAND FREE ENERGY PREDICTED BY IDOCK:   -7.54 KCAL/MOL
REMARK 924 INTRA-LIGAND FREE ENERGY PREDICTED BY IDOCK:   -0.34 KCAL/MOL
REMARK 927      BINDING AFFINITY PREDICTED BY RF-SCORE:    0.00 PKD
ROOT
HETATM    1  C   UNL     1      -8.744  16.114  69.355  1.00  0.00    -0.101 C  
HETATM    2  C   UNL     1      -9.675  15.795  68.424  1.00  0.00    -0.203 C  
HETATM    3  C   UNL     1      -9.714  15.548  66.970  1.00  0.00    -0.230 C  
HETATM    4  C   UNL     1      -8.494  15.441  66.125  1.00  0.00     0.142 C  
HETATM    5  C   UNL     1      -9.402  14.229  66.278  1.00  0.00    -0.208 C  
HETATM    6  C   UNL     1      -7.258  16.414  69.312  1.00  0.00    -0.221 C  
HETATM    7  N   UNL     1      -8.740  13.071  66.825  1.00  0.00    -0.394 NA 
HETATM    8  C   UNL     1      -8.896  12.541  67.981  1.00  0.00    -0.187 C  
HETATM    9  C   UNL     1      -6.958  10.938  67.750  1.00  0.00    -0.077 C  
HETATM   10  C   UNL     1      -6.388  15.892  70.508  1.00  0.00     0.319 C  
HETATM   11  H   UNL     1      -8.062  12.616  66.214  1.00  0.00     0.000 HD 
HETATM   12  C   UNL     1      -5.248  13.319  70.232  1.00  0.00    -0.104 C  
HETATM   13  C   UNL     1      -6.982   9.443  67.367  1.00  0.00    -0.085 C  
HETATM   14  C   UNL     1      -8.370  11.193  68.289  1.00  0.00    -0.143 C  
HETATM   15  O   UNL     1      -9.520  13.056  69.038  1.00  0.00    -0.379 OA 
HETATM   16  C   UNL     1      -5.988  11.388  68.860  1.00  0.00    -0.048 C  
HETATM   17  C   UNL     1      -9.249  10.146  67.636  1.00  0.00    -0.151 C  
HETATM   18  C   UNL     1      -5.949  13.704  67.910  1.00  0.00    -0.145 C  
HETATM   19  C   UNL     1      -5.212  14.861  70.462  1.00  0.00    -0.124 C  
HETATM   20  H   UNL     1      -9.636  12.663  69.895  1.00  0.00     0.000 HD 
HETATM   21  N   UNL     1      -5.812  12.778  68.999  1.00  0.00    -0.072 N  
HETATM   22  C   UNL     1      -8.362   8.935  67.816  1.00  0.00    -0.110 C  
HETATM   23  O   UNL     1      -5.539  10.583  69.672  1.00  0.00    -0.038 OA 
ENDROOT
BRANCH   5  24
HETATM   24  C   UNL     1     -10.056  13.808  64.972  1.00  0.00    -0.283 C  
HETATM   25  H   UNL     1     -10.303  12.207  63.918  1.00  0.00     0.000 HD 
HETATM   26  O   UNL     1      -9.895  12.470  64.734  1.00  0.00    -0.179 OA 
BRANCH  24  27
HETATM   27  N   UNL     1     -10.764  14.575  64.255  1.00  0.00    -0.478 N  
HETATM   28  H   UNL     1     -10.324  15.240  63.619  1.00  0.00     0.000 HD 
BRANCH  27  29
HETATM   29  S   UNL     1     -12.364  14.484  64.359  1.00  0.00    -0.290 S  
HETATM   30  O   UNL     1     -12.706  14.042  65.709  1.00  0.00    -0.516 OA 
HETATM   31  O   UNL     1     -13.016  15.647  63.804  1.00  0.00    -0.403 OA 
BRANCH  29  32
HETATM   32  C   UNL     1     -12.857  13.066  63.256  1.00  0.00     0.369 C  
HETATM   33  C   UNL     1     -11.750  12.053  63.083  1.00  0.00    -0.276 C  
HETATM   34  C   UNL     1     -12.970  11.711  63.898  1.00  0.00     0.031 C  
ENDBRANCH  29  32
ENDBRANCH  27  29
ENDBRANCH  24  27
ENDBRANCH   5  24
BRANCH  22  35
HETATM   35  O   UNL     1      -8.930   7.845  67.112  1.00  0.00    -0.125 OA 
BRANCH  35  36
HETATM   36  C   UNL     1      -8.924   6.620  67.723  1.00  0.00    -0.112 A  
HETATM   37  C   UNL     1      -9.115   2.804  65.897  1.00  0.00    -0.121 A  
HETATM   38  C   UNL     1      -8.623   5.135  65.716  1.00  0.00    -0.135 A  
HETATM   39  C   UNL     1      -8.888   5.354  67.086  1.00  0.00    -0.109 A  
HETATM   40  C   UNL     1      -8.958   6.707  69.111  1.00  0.00    -0.131 A  
HETATM   41  C   UNL     1      -9.230   2.960  67.291  1.00  0.00    -0.205 A  
HETATM   42  C   UNL     1      -9.100   4.225  67.901  1.00  0.00    -0.131 A  
HETATM   43  C   UNL     1      -9.512   1.773  68.180  1.00  0.00    -0.218 C  
HETATM   44  C   UNL     1      -8.776   3.892  65.118  1.00  0.00    -0.116 A  
HETATM   45  C   UNL     1      -9.042   5.543  69.845  1.00  0.00    -0.134 A  
HETATM   46  N   UNL     1      -9.167   4.332  69.244  1.00  0.00    -0.130 NA 
BRANCH  37  47
HETATM   47  O   UNL     1      -9.273   1.544  65.374  1.00  0.00    -0.116 OA 
HETATM   48  C   UNL     1      -9.875   1.481  64.082  1.00  0.00    -0.085 C  
ENDBRANCH  37  47
BRANCH  45  49
HETATM   49  C   UNL     1      -8.980   5.568  71.321  1.00  0.00    -0.142 A  
HETATM   50  N   UNL     1      -8.051   6.187  72.033  1.00  0.00    -0.110 NA 
HETATM   51  C   UNL     1      -8.241   5.969  73.394  1.00  0.00    -0.114 A  
HETATM   52  C   UNL     1      -9.333   5.180  73.697  1.00  0.00    -0.132 A  
HETATM   53  C   UNL     1      -7.292   6.580  74.392  1.00  0.00    -0.099 C  
HETATM   54  C   UNL     1      -5.862   6.073  74.199  1.00  0.00    -0.061 C  
HETATM   55  S   UNL     1     -10.139   4.706  72.268  1.00  0.00    -0.193 SA 
HETATM   56  C   UNL     1      -7.334   8.107  74.346  1.00  0.00    -0.237 C  
ENDBRANCH  45  49
ENDBRANCH  35  36
ENDBRANCH  22  35
TORSDOF 8
ENDMDL
MODEL       35
REMARK 921   NORMALIZED FREE ENERGY PREDICTED BY IDOCK:   -3.42 KCAL/MOL
REMARK 922        TOTAL FREE ENERGY PREDICTED BY IDOCK:   -7.58 KCAL/MOL
REMARK 923 INTER-LIGAND FREE ENERGY PREDICTED BY IDOCK:   -5.85 KCAL/MOL
REMARK 924 INTRA-LIGAND FREE ENERGY PREDICTED BY IDOCK:   -1.73 KCAL/MOL
REMARK 927      BINDING AFFINITY PREDICTED BY RF-SCORE:    0.00 PKD
ROOT
HETATM    1  C   UNL     1      -9.018  17.291  65.729  1.00  0.00     0.190 C  
HETATM    2  C   UNL     1      -8.016  17.106  66.620  1.00  0.00    -0.300 C  
HETATM    3  C   UNL     1      -7.887  16.789  68.055  1.00  0.00    -0.178 C  
HETATM    4  C   UNL     1      -9.037  16.400  68.915  1.00  0.00    -0.256 C  
HETATM    5  C   UNL     1      -7.919  15.396  68.670  1.00  0.00    -0.149 C  
HETATM    6  C   UNL     1     -10.533  17.297  65.818  1.00  0.00    -0.237 C  
HETATM    7  N   UNL     1      -8.363  14.166  68.065  1.00  0.00    -0.149 NA 
HETATM    8  C   UNL     1      -8.143  13.743  66.876  1.00  0.00     0.145 C  
HETATM    9  C   UNL     1      -9.731  11.785  67.043  1.00  0.00    -0.198 C  
HETATM   10  C   UNL     1     -11.322  16.685  64.608  1.00  0.00     0.039 C  
HETATM   11  H   UNL     1      -8.923  13.554  68.659  1.00  0.00     0.000 HD 
HETATM   12  C   UNL     1     -11.940  13.929  64.745  1.00  0.00    -0.406 C  
HETATM   13  C   UNL     1      -9.409  10.304  67.332  1.00  0.00    -0.163 C  
HETATM   14  C   UNL     1      -8.410  12.339  66.494  1.00  0.00     0.060 C  
HETATM   15  O   UNL     1      -7.662  14.428  65.841  1.00  0.00     1.537 OA 
HETATM   16  C   UNL     1     -10.802  12.102  65.981  1.00  0.00    -0.282 C  
HETATM   17  C   UNL     1      -7.328  11.445  67.065  1.00  0.00    -0.144 C  
HETATM   18  C   UNL     1     -11.255  14.309  67.073  1.00  0.00    -0.323 C  
HETATM   19  C   UNL     1     -12.277  15.446  64.612  1.00  0.00    -0.058 C  
HETATM   20  H   UNL     1      -7.499  14.114  64.959  1.00  0.00     0.000 HD 
HETATM   21  N   UNL     1     -11.245  13.437  65.931  1.00  0.00    -0.298 N  
HETATM   22  C   UNL     1      -7.972  10.098  66.826  1.00  0.00    -0.115 C  
HETATM   23  O   UNL     1     -11.112  11.273  65.130  1.00  0.00    -0.197 OA 
ENDROOT
BRANCH   5  24
HETATM   24  C   UNL     1      -7.158  15.036  69.935  1.00  0.00    -0.121 C  
HETATM   25  H   UNL     1      -6.023  15.891  71.245  1.00  0.00     0.000 HD 
HETATM   26  O   UNL     1      -6.499  16.117  70.454  1.00  0.00     0.091 OA 
BRANCH  24  27
HETATM   27  N   UNL     1      -7.223  13.906  70.504  1.00  0.00     0.332 N  
HETATM   28  H   UNL     1      -8.099  13.585  70.916  1.00  0.00     0.000 HD 
BRANCH  27  29
HETATM   29  S   UNL     1      -5.908  12.987  70.567  1.00  0.00    -0.091 S  
HETATM   30  O   UNL     1      -5.132  13.220  69.350  1.00  0.00    -0.075 OA 
HETATM   31  O   UNL     1      -5.253  13.054  71.852  1.00  0.00    -0.297 OA 
BRANCH  29  32
HETATM   32  C   UNL     1      -6.516  11.233  70.413  1.00  0.00     0.122 C  
HETATM   33  C   UNL     1      -5.462  10.298  69.871  1.00  0.00    -0.039 C  
HETATM   34  C   UNL     1      -5.883  10.210  71.315  1.00  0.00     0.028 C  
ENDBRANCH  29  32
ENDBRANCH  27  29
ENDBRANCH  24  27
ENDBRANCH   5  24
BRANCH  22  35
HETATM   35  O   UNL     1      -7.184   9.100  67.452  1.00  0.00    -0.079 OA 
BRANCH  35  36
HETATM   36  C   UNL     1      -7.830   8.002  67.954  1.00  0.00    -0.126 A  
HETATM   37  C   UNL     1      -7.803   4.050  66.435  1.00  0.00    -0.094 A  
HETATM   38  C   UNL     1      -6.764   6.198  66.563  1.00  0.00    -0.060 A  
HETATM   39  C   UNL     1      -7.725   6.668  67.486  1.00  0.00    -0.110 A  
HETATM   40  C   UNL     1      -8.653   8.305  69.034  1.00  0.00    -0.135 A  
HETATM   41  C   UNL     1      -8.676   4.435  67.469  1.00  0.00    -0.112 A  
HETATM   42  C   UNL     1      -8.636   5.734  68.017  1.00  0.00    -0.105 A  
HETATM   43  C   UNL     1      -9.698   3.469  68.016  1.00  0.00    -0.083 C  
HETATM   44  C   UNL     1      -6.824   4.927  66.010  1.00  0.00    -0.058 A  
HETATM   45  C   UNL     1      -9.426   7.301  69.578  1.00  0.00    -0.155 A  
HETATM   46  N   UNL     1      -9.454   6.055  69.040  1.00  0.00    -0.126 NA 
BRANCH  37  47
HETATM   47  O   UNL     1      -7.914   2.774  65.939  1.00  0.00    -0.081 OA 
HETATM   48  C   UNL     1      -6.931   2.396  64.976  1.00  0.00    -0.048 C  
ENDBRANCH  37  47
BRANCH  45  49
HETATM   49  C   UNL     1     -10.242   7.540  70.787  1.00  0.00    -0.194 A  
HETATM   50  N   UNL     1     -11.427   8.130  70.800  1.00  0.00    -0.277 NA 
HETATM   51  C   UNL     1     -11.905   8.256  72.101  1.00  0.00    -0.369 A  
HETATM   52  C   UNL     1     -11.062   7.745  73.068  1.00  0.00    -0.359 A  
HETATM   53  C   UNL     1     -13.241   8.906  72.351  1.00  0.00    -0.482 C  
HETATM   54  C   UNL     1     -13.262  10.360  71.877  1.00  0.00    -0.535 C  
HETATM   55  S   UNL     1      -9.657   7.093  72.349  1.00  0.00    -0.147 SA 
HETATM   56  C   UNL     1     -14.380   8.113  71.711  1.00  0.00    -0.582 C  
ENDBRANCH  45  49
ENDBRANCH  35  36
ENDBRANCH  22  35
TORSDOF 8
ENDMDL
MODEL       36
REMARK 921   NORMALIZED FREE ENERGY PREDICTED BY IDOCK:   -3.39 KCAL/MOL
REMARK 922        TOTAL FREE ENERGY PREDICTED BY IDOCK:   -7.53 KCAL/MOL
REMARK 923 INTER-LIGAND FREE ENERGY PREDICTED BY IDOCK:   -9.40 KCAL/MOL
REMARK 924 INTRA-LIGAND FREE ENERGY PREDICTED BY IDOCK:    1.87 KCAL/MOL
REMARK 927      BINDING AFFINITY PREDICTED BY RF-SCORE:    0.00 PKD
ROOT
HETATM    1  C   UNL     1      -8.686   4.629  72.163  1.00  0.00    -0.127 C  
HETATM    2  C   UNL     1      -8.270   5.884  72.455  1.00  0.00    -0.110 C  
HETATM    3  C   UNL     1      -7.151   6.770  72.082  1.00  0.00    -0.075 C  
HETATM    4  C   UNL     1      -6.172   6.445  71.010  1.00  0.00    -0.043 C  
HETATM    5  C   UNL     1      -7.082   7.653  70.844  1.00  0.00    -0.054 C  
HETATM    6  C   UNL     1      -8.140   3.500  71.310  1.00  0.00    -0.062 C  
HETATM    7  N   UNL     1      -7.911   7.600  69.666  1.00  0.00    -0.121 NA 
HETATM    8  C   UNL     1      -9.179   7.429  69.596  1.00  0.00    -0.146 C  
HETATM    9  C   UNL     1      -9.226   7.171  67.083  1.00  0.00    -0.153 C  
HETATM   10  C   UNL     1      -9.181   2.630  70.524  1.00  0.00    -0.206 C  
HETATM   11  H   UNL     1      -7.427   7.712  68.776  1.00  0.00     0.000 HD 
HETATM   12  C   UNL     1      -9.832   3.468  67.903  1.00  0.00     0.130 C  
HETATM   13  C   UNL     1      -9.586   8.222  66.012  1.00  0.00    -0.151 C  
HETATM   14  C   UNL     1      -9.925   7.692  68.345  1.00  0.00    -0.192 C  
HETATM   15  O   UNL     1     -10.004   7.026  70.559  1.00  0.00    -0.183 OA 
HETATM   16  C   UNL     1      -9.726   5.728  66.882  1.00  0.00    -0.148 C  
HETATM   17  C   UNL     1     -10.065   9.187  68.144  1.00  0.00    -0.225 C  
HETATM   18  C   UNL     1      -7.849   4.863  68.296  1.00  0.00    -0.082 C  
HETATM   19  C   UNL     1      -9.317   2.459  68.974  1.00  0.00    -0.203 C  
HETATM   20  H   UNL     1     -10.944   6.900  70.507  1.00  0.00     0.000 HD 
HETATM   21  N   UNL     1      -9.168   4.757  67.735  1.00  0.00    -0.119 N  
HETATM   22  C   UNL     1     -10.548   9.196  66.711  1.00  0.00    -0.136 C  
HETATM   23  O   UNL     1     -10.674   5.485  66.139  1.00  0.00    -0.187 OA 
ENDROOT
BRANCH   5  24
HETATM   24  C   UNL     1      -6.323   8.969  70.810  1.00  0.00    -0.055 C  
HETATM   25  H   UNL     1      -5.744  10.346  72.035  1.00  0.00     0.000 HD 
HETATM   26  O   UNL     1      -6.218   9.524  72.057  1.00  0.00    -0.289 OA 
BRANCH  24  27
HETATM   27  N   UNL     1      -5.754   9.433  69.778  1.00  0.00    -0.032 N  
HETATM   28  H   UNL     1      -5.002   8.915  69.325  1.00  0.00     0.000 HD 
BRANCH  27  29
HETATM   29  S   UNL     1      -6.235  10.849  69.192  1.00  0.00    -0.052 S  
HETATM   30  O   UNL     1      -7.695  10.894  69.254  1.00  0.00    -0.135 OA 
HETATM   31  O   UNL     1      -5.466  11.950  69.720  1.00  0.00    -0.072 OA 
BRANCH  29  32
HETATM   32  C   UNL     1      -5.840  10.796  67.372  1.00  0.00    -0.045 C  
HETATM   33  C   UNL     1      -6.147   9.455  66.749  1.00  0.00    -0.064 C  
HETATM   34  C   UNL     1      -7.000  10.654  66.426  1.00  0.00    -0.129 C  
ENDBRANCH  29  32
ENDBRANCH  27  29
ENDBRANCH  24  27
ENDBRANCH   5  24
BRANCH  22  35
HETATM   35  O   UNL     1     -10.586  10.537  66.252  1.00  0.00    -0.212 OA 
BRANCH  35  36
HETATM   36  C   UNL     1     -10.770  11.523  67.183  1.00  0.00    -0.254 A  
HETATM   37  C   UNL     1     -12.619  11.201  70.979  1.00  0.00    -0.403 A  
HETATM   38  C   UNL     1     -11.525  10.137  69.140  1.00  0.00    -0.155 A  
HETATM   39  C   UNL     1     -11.301  11.369  68.488  1.00  0.00    -0.333 A  
HETATM   40  C   UNL     1     -10.369  12.777  66.730  1.00  0.00    -0.248 A  
HETATM   41  C   UNL     1     -12.270  12.451  70.433  1.00  0.00    -0.370 A  
HETATM   42  C   UNL     1     -11.595  12.550  69.199  1.00  0.00    -0.320 A  
HETATM   43  C   UNL     1     -12.623  13.731  71.150  1.00  0.00    -0.452 C  
HETATM   44  C   UNL     1     -12.211  10.045  70.343  1.00  0.00    -0.249 A  
HETATM   45  C   UNL     1     -10.581  13.871  67.542  1.00  0.00    -0.256 A  
HETATM   46  N   UNL     1     -11.232  13.761  68.728  1.00  0.00    -0.256 NA 
BRANCH  37  47
HETATM   47  O   UNL     1     -13.292  11.186  72.175  1.00  0.00    -0.452 OA 
HETATM   48  C   UNL     1     -13.851   9.929  72.555  1.00  0.00     0.084 C  
ENDBRANCH  37  47
BRANCH  45  49
HETATM   49  C   UNL     1     -10.087  15.210  67.158  1.00  0.00    -0.239 A  
HETATM   50  N   UNL     1      -9.707  16.153  68.007  1.00  0.00    -0.227 NA 
HETATM   51  C   UNL     1      -9.352  17.316  67.330  1.00  0.00    -0.236 A  
HETATM   52  C   UNL     1      -9.465  17.232  65.957  1.00  0.00    -0.115 A  
HETATM   53  C   UNL     1      -8.892  18.523  68.104  1.00  0.00    -0.327 C  
HETATM   54  C   UNL     1      -9.977  19.040  69.050  1.00  0.00    -0.390 C  
HETATM   55  S   UNL     1     -10.015  15.682  65.498  1.00  0.00    -0.285 SA 
HETATM   56  C   UNL     1      -7.599  18.241  68.869  1.00  0.00    -0.239 C  
ENDBRANCH  45  49
ENDBRANCH  35  36
ENDBRANCH  22  35
TORSDOF 8
ENDMDL
MODEL       37
REMARK 921   NORMALIZED FREE ENERGY PREDICTED BY IDOCK:   -3.15 KCAL/MOL
REMARK 922        TOTAL FREE ENERGY PREDICTED BY IDOCK:   -7.18 KCAL/MOL
REMARK 923 INTER-LIGAND FREE ENERGY PREDICTED BY IDOCK:   -7.19 KCAL/MOL
REMARK 924 INTRA-LIGAND FREE ENERGY PREDICTED BY IDOCK:    0.01 KCAL/MOL
REMARK 927      BINDING AFFINITY PREDICTED BY RF-SCORE:    0.00 PKD
ROOT
HETATM    1  C   UNL     1      -6.782   6.338  74.506  1.00  0.00    -0.082 C  
HETATM    2  C   UNL     1      -6.344   7.509  73.986  1.00  0.00    -0.077 C  
HETATM    3  C   UNL     1      -5.884   8.009  72.676  1.00  0.00    -0.045 C  
HETATM    4  C   UNL     1      -5.968   7.214  71.421  1.00  0.00    -0.037 C  
HETATM    5  C   UNL     1      -6.773   8.500  71.542  1.00  0.00    -0.073 C  
HETATM    6  C   UNL     1      -6.967   4.935  73.958  1.00  0.00    -0.076 C  
HETATM    7  N   UNL     1      -8.194   8.314  71.381  1.00  0.00    -0.119 NA 
HETATM    8  C   UNL     1      -9.111   8.402  72.272  1.00  0.00    -0.243 C  
HETATM    9  C   UNL     1     -10.946   7.507  70.784  1.00  0.00    -0.265 C  
HETATM   10  C   UNL     1      -8.212   4.128  74.468  1.00  0.00    -0.090 C  
HETATM   11  H   UNL     1      -8.508   8.083  70.439  1.00  0.00     0.000 HD 
HETATM   12  C   UNL     1     -10.594   4.364  72.964  1.00  0.00    -0.195 C  
HETATM   13  C   UNL     1     -12.019   8.290  69.998  1.00  0.00     0.571 C  
HETATM   14  C   UNL     1     -10.541   8.476  71.901  1.00  0.00    -0.392 C  
HETATM   15  O   UNL     1      -8.964   8.449  73.594  1.00  0.00    -0.195 OA 
HETATM   16  C   UNL     1     -11.367   6.200  71.483  1.00  0.00    -0.280 C  
HETATM   17  C   UNL     1     -10.855   9.860  71.371  1.00  0.00    -0.012 C  
HETATM   18  C   UNL     1      -9.009   5.364  71.376  1.00  0.00    -0.138 C  
HETATM   19  C   UNL     1      -9.417   3.587  73.628  1.00  0.00    -0.123 C  
HETATM   20  H   UNL     1      -9.645   8.515  74.253  1.00  0.00     0.000 HD 
HETATM   21  N   UNL     1     -10.319   5.394  71.966  1.00  0.00    -0.206 N  
HETATM   22  C   UNL     1     -12.224   9.594  70.786  1.00  0.00    -0.230 C  
HETATM   23  O   UNL     1     -12.546   5.975  71.746  1.00  0.00     0.064 OA 
ENDROOT
BRANCH   5  24
HETATM   24  C   UNL     1      -6.337   9.570  70.556  1.00  0.00    -0.080 C  
HETATM   25  H   UNL     1      -5.412   9.700  68.864  1.00  0.00     0.000 HD 
HETATM   26  O   UNL     1      -5.685   9.030  69.481  1.00  0.00    -0.034 OA 
BRANCH  24  27
HETATM   27  N   UNL     1      -6.644  10.794  70.657  1.00  0.00    -0.075 N  
HETATM   28  H   UNL     1      -7.352  11.096  71.327  1.00  0.00     0.000 HD 
BRANCH  27  29
HETATM   29  S   UNL     1      -5.905  11.865  69.716  1.00  0.00    -0.135 S  
HETATM   30  O   UNL     1      -5.129  12.762  70.570  1.00  0.00    -0.091 OA 
HETATM   31  O   UNL     1      -5.273  11.246  68.574  1.00  0.00    -0.044 OA 
BRANCH  29  32
HETATM   32  C   UNL     1      -7.260  12.933  69.013  1.00  0.00     0.017 C  
HETATM   33  C   UNL     1      -7.093  14.391  69.368  1.00  0.00    -0.113 C  
HETATM   34  C   UNL     1      -6.867  13.925  67.954  1.00  0.00    -0.166 C  
ENDBRANCH  29  32
ENDBRANCH  27  29
ENDBRANCH  24  27
ENDBRANCH   5  24
BRANCH  22  35
HETATM   35  O   UNL     1     -12.645  10.743  70.072  1.00  0.00    -0.308 OA 
BRANCH  35  36
HETATM   36  C   UNL     1     -11.798  11.249  69.123  1.00  0.00    -0.355 A  
HETATM   37  C   UNL     1      -9.547   9.111  66.243  1.00  0.00    -0.255 A  
HETATM   38  C   UNL     1     -11.403   9.182  67.747  1.00  0.00     0.681 A  
HETATM   39  C   UNL     1     -11.133  10.521  68.105  1.00  0.00    -0.346 A  
HETATM   40  C   UNL     1     -11.622  12.625  69.233  1.00  0.00    -0.376 A  
HETATM   41  C   UNL     1      -9.351  10.489  66.458  1.00  0.00    -0.189 A  
HETATM   42  C   UNL     1     -10.147  11.210  67.370  1.00  0.00    -0.185 A  
HETATM   43  C   UNL     1      -8.265  11.236  65.723  1.00  0.00     0.071 C  
HETATM   44  C   UNL     1     -10.600   8.471  66.866  1.00  0.00    -0.279 A  
HETATM   45  C   UNL     1     -10.725  13.246  68.390  1.00  0.00    -0.257 A  
HETATM   46  N   UNL     1      -9.965  12.538  67.516  1.00  0.00    -0.199 NA 
BRANCH  37  47
HETATM   47  O   UNL     1      -8.720   8.473  65.353  1.00  0.00    -0.175 OA 
HETATM   48  C   UNL     1      -8.610   7.059  65.514  1.00  0.00    -0.081 C  
ENDBRANCH  37  47
BRANCH  45  49
HETATM   49  C   UNL     1     -10.571  14.716  68.393  1.00  0.00    -0.241 A  
HETATM   50  N   UNL     1     -10.158  15.439  67.363  1.00  0.00    -0.232 NA 
HETATM   51  C   UNL     1     -10.064  16.784  67.708  1.00  0.00    -0.281 A  
HETATM   52  C   UNL     1     -10.419  17.063  69.012  1.00  0.00    -0.337 A  
HETATM   53  C   UNL     1      -9.607  17.791  66.684  1.00  0.00    -0.311 C  
HETATM   54  C   UNL     1      -8.187  17.501  66.197  1.00  0.00    -0.222 C  
HETATM   55  S   UNL     1     -10.881  15.633  69.823  1.00  0.00    -0.338 SA 
HETATM   56  C   UNL     1     -10.576  17.872  65.505  1.00  0.00    -0.016 C  
ENDBRANCH  45  49
ENDBRANCH  35  36
ENDBRANCH  22  35
TORSDOF 8
ENDMDL
MODEL       38
REMARK 921   NORMALIZED FREE ENERGY PREDICTED BY IDOCK:   -2.71 KCAL/MOL
REMARK 922        TOTAL FREE ENERGY PREDICTED BY IDOCK:   -6.54 KCAL/MOL
REMARK 923 INTER-LIGAND FREE ENERGY PREDICTED BY IDOCK:   -5.09 KCAL/MOL
REMARK 924 INTRA-LIGAND FREE ENERGY PREDICTED BY IDOCK:   -1.45 KCAL/MOL
REMARK 927      BINDING AFFINITY PREDICTED BY RF-SCORE:    0.00 PKD
ROOT
HETATM    1  C   UNL     1      -7.663   3.158  67.319  1.00  0.00    -0.074 C  
HETATM    2  C   UNL     1      -8.005   4.156  66.471  1.00  0.00    -0.098 C  
HETATM    3  C   UNL     1      -9.060   5.183  66.373  1.00  0.00    -0.131 C  
HETATM    4  C   UNL     1     -10.038   5.457  67.460  1.00  0.00    -0.220 C  
HETATM    5  C   UNL     1      -9.051   6.543  67.057  1.00  0.00    -0.128 C  
HETATM    6  C   UNL     1      -8.264   2.593  68.593  1.00  0.00    -0.077 C  
HETATM    7  N   UNL     1      -8.205   6.991  68.135  1.00  0.00    -0.119 NA 
HETATM    8  C   UNL     1      -6.950   6.793  68.293  1.00  0.00    -0.080 C  
HETATM    9  C   UNL     1      -6.874   7.732  70.637  1.00  0.00    -0.042 C  
HETATM   10  C   UNL     1      -7.266   2.124  69.708  1.00  0.00    -0.036 C  
HETATM   11  H   UNL     1      -8.666   7.536  68.864  1.00  0.00     0.000 HD 
HETATM   12  C   UNL     1      -6.516   4.042  71.645  1.00  0.00    -0.015 C  
HETATM   13  C   UNL     1      -6.429   9.135  71.101  1.00  0.00    -0.084 C  
HETATM   14  C   UNL     1      -6.167   7.559  69.288  1.00  0.00    -0.035 C  
HETATM   15  O   UNL     1      -6.169   5.936  67.640  1.00  0.00    -0.030 OA 
HETATM   16  C   UNL     1      -6.462   6.519  71.494  1.00  0.00    -0.046 C  
HETATM   17  C   UNL     1      -5.930   8.963  68.771  1.00  0.00    -0.044 C  
HETATM   18  C   UNL     1      -8.415   5.218  70.621  1.00  0.00    -0.117 C  
HETATM   19  C   UNL     1      -7.113   2.686  71.160  1.00  0.00    -0.033 C  
HETATM   20  H   UNL     1      -5.238   5.789  67.757  1.00  0.00     0.000 HD 
HETATM   21  N   UNL     1      -7.096   5.301  71.184  1.00  0.00    -0.059 N  
HETATM   22  C   UNL     1      -5.421   9.608  70.041  1.00  0.00    -0.032 C  
HETATM   23  O   UNL     1      -5.518   6.590  72.278  1.00  0.00    -0.035 OA 
ENDROOT
BRANCH   5  24
HETATM   24  C   UNL     1      -9.725   7.768  66.463  1.00  0.00    -0.195 C  
HETATM   25  H   UNL     1     -11.043   9.091  66.964  1.00  0.00     0.000 HD 
HETATM   26  O   UNL     1     -10.621   8.324  67.336  1.00  0.00    -0.284 OA 
BRANCH  24  27
HETATM   27  N   UNL     1      -9.410   8.281  65.349  1.00  0.00    -0.391 N  
HETATM   28  H   UNL     1      -9.906   8.016  64.499  1.00  0.00     0.000 HD 
BRANCH  27  29
HETATM   29  S   UNL     1      -8.217   9.355  65.294  1.00  0.00    -0.140 S  
HETATM   30  O   UNL     1      -7.773   9.611  66.663  1.00  0.00    -0.097 OA 
HETATM   31  O   UNL     1      -7.242   9.040  64.277  1.00  0.00    -0.089 OA 
BRANCH  29  32
HETATM   32  C   UNL     1      -9.006  10.951  64.745  1.00  0.00    -0.140 C  
HETATM   33  C   UNL     1     -10.265  10.729  63.940  1.00  0.00    -0.377 C  
HETATM   34  C   UNL     1     -10.348  11.286  65.337  1.00  0.00    -0.328 C  
ENDBRANCH  29  32
ENDBRANCH  27  29
ENDBRANCH  24  27
ENDBRANCH   5  24
BRANCH  22  35
HETATM   35  O   UNL     1      -5.291  11.003  69.823  1.00  0.00    -0.041 OA 
BRANCH  35  36
HETATM   36  C   UNL     1      -6.385  11.678  69.351  1.00  0.00    -0.106 A  
HETATM   37  C   UNL     1      -6.463  15.357  67.257  1.00  0.00     0.032 A  
HETATM   38  C   UNL     1      -5.244  13.419  67.940  1.00  0.00    -0.096 A  
HETATM   39  C   UNL     1      -6.379  12.857  68.565  1.00  0.00    -0.079 A  
HETATM   40  C   UNL     1      -7.588  11.083  69.719  1.00  0.00     0.194 A  
HETATM   41  C   UNL     1      -7.643  14.753  67.729  1.00  0.00    -0.174 A  
HETATM   42  C   UNL     1      -7.620  13.496  68.367  1.00  0.00    -0.133 A  
HETATM   43  C   UNL     1      -8.977  15.443  67.577  1.00  0.00    -0.191 C  
HETATM   44  C   UNL     1      -5.269  14.667  67.334  1.00  0.00     0.381 A  
HETATM   45  C   UNL     1      -8.767  11.713  69.379  1.00  0.00     0.747 A  
HETATM   46  N   UNL     1      -8.774  12.923  68.763  1.00  0.00     0.081 NA 
BRANCH  37  47
HETATM   47  O   UNL     1      -6.563  16.591  66.663  1.00  0.00    -0.233 OA 
HETATM   48  C   UNL     1      -5.360  17.358  66.622  1.00  0.00    -0.186 C  
ENDBRANCH  37  47
BRANCH  45  49
HETATM   49  C   UNL     1     -10.074  11.080  69.654  1.00  0.00     0.176 A  
HETATM   50  N   UNL     1     -10.242   9.918  70.267  1.00  0.00    -0.279 NA 
HETATM   51  C   UNL     1     -11.590   9.575  70.317  1.00  0.00    -0.169 A  
HETATM   52  C   UNL     1     -12.435  10.501  69.738  1.00  0.00    -0.064 A  
HETATM   53  C   UNL     1     -12.011   8.283  70.968  1.00  0.00    -0.260 C  
HETATM   54  C   UNL     1     -11.414   7.068  70.258  1.00  0.00    -0.333 C  
HETATM   55  S   UNL     1     -11.541  11.821  69.126  1.00  0.00    -0.336 SA 
HETATM   56  C   UNL     1     -11.663   8.265  72.456  1.00  0.00    -0.451 C  
ENDBRANCH  45  49
ENDBRANCH  35  36
ENDBRANCH  22  35
TORSDOF 8
ENDMDL
MODEL       39
REMARK 921   NORMALIZED FREE ENERGY PREDICTED BY IDOCK:   -2.57 KCAL/MOL
REMARK 922        TOTAL FREE ENERGY PREDICTED BY IDOCK:   -6.33 KCAL/MOL
REMARK 923 INTER-LIGAND FREE ENERGY PREDICTED BY IDOCK:   -8.17 KCAL/MOL
REMARK 924 INTRA-LIGAND FREE ENERGY PREDICTED BY IDOCK:    1.84 KCAL/MOL
REMARK 927      BINDING AFFINITY PREDICTED BY RF-SCORE:    0.00 PKD
ROOT
HETATM    1  C   UNL     1      -9.295   6.116  72.388  1.00  0.00    -0.146 C  
HETATM    2  C   UNL     1      -8.655   7.245  72.775  1.00  0.00    -0.141 C  
HETATM    3  C   UNL     1      -7.348   7.886  72.536  1.00  0.00    -0.108 C  
HETATM    4  C   UNL     1      -6.368   7.397  71.529  1.00  0.00    -0.036 C  
HETATM    5  C   UNL     1      -6.990   8.774  71.352  1.00  0.00    -0.089 C  
HETATM    6  C   UNL     1      -8.922   4.924  71.526  1.00  0.00    -0.160 C  
HETATM    7  N   UNL     1      -7.706   8.934  70.111  1.00  0.00    -0.075 NA 
HETATM    8  C   UNL     1      -8.970   9.037  69.933  1.00  0.00    -0.164 C  
HETATM    9  C   UNL     1      -8.849   8.875  67.415  1.00  0.00    -0.136 C  
HETATM   10  C   UNL     1     -10.048   4.318  70.618  1.00  0.00    -0.140 C  
HETATM   11  H   UNL     1      -7.133   8.971  69.269  1.00  0.00     0.000 HD 
HETATM   12  C   UNL     1     -10.279   5.359  67.999  1.00  0.00    -0.164 C  
HETATM   13  C   UNL     1      -8.889  10.012  66.372  1.00  0.00    -0.158 C  
HETATM   14  C   UNL     1      -9.533   9.491  68.642  1.00  0.00    -0.143 C  
HETATM   15  O   UNL     1      -9.942   8.786  70.807  1.00  0.00    -0.188 OA 
HETATM   16  C   UNL     1      -9.617   7.577  67.103  1.00  0.00    -0.161 C  
HETATM   17  C   UNL     1      -9.342  10.987  68.504  1.00  0.00    -0.188 C  
HETATM   18  C   UNL     1      -8.092   6.291  68.616  1.00  0.00    -0.109 C  
HETATM   19  C   UNL     1     -10.079   4.230  69.056  1.00  0.00     0.095 C  
HETATM   20  H   UNL     1     -10.879   8.863  70.674  1.00  0.00     0.000 HD 
HETATM   21  N   UNL     1      -9.349   6.484  67.948  1.00  0.00    -0.113 N  
HETATM   22  C   UNL     1      -9.685  11.145  67.040  1.00  0.00    -0.186 C  
HETATM   23  O   UNL     1     -10.526   7.563  66.276  1.00  0.00     0.076 OA 
ENDROOT
BRANCH   5  24
HETATM   24  C   UNL     1      -5.975   9.901  71.444  1.00  0.00     0.043 C  
HETATM   25  H   UNL     1      -4.852  10.743  72.773  1.00  0.00     0.000 HD 
HETATM   26  O   UNL     1      -5.487  10.039  72.715  1.00  0.00    -0.312 OA 
BRANCH  24  27
HETATM   27  N   UNL     1      -5.545  10.551  70.446  1.00  0.00    -0.068 N  
HETATM   28  H   UNL     1      -4.879  10.127  69.800  1.00  0.00     0.000 HD 
BRANCH  27  29
HETATM   29  S   UNL     1      -6.064  12.052  70.210  1.00  0.00     0.001 S  
HETATM   30  O   UNL     1      -7.458  11.989  69.775  1.00  0.00     0.445 OA 
HETATM   31  O   UNL     1      -5.696  12.935  71.292  1.00  0.00    -0.352 OA 
BRANCH  29  32
HETATM   32  C   UNL     1      -5.131  12.676  68.724  1.00  0.00    -0.056 C  
HETATM   33  C   UNL     1      -5.615  12.059  67.433  1.00  0.00    -0.120 C  
HETATM   34  C   UNL     1      -5.900  13.507  67.734  1.00  0.00    -0.120 C  
ENDBRANCH  29  32
ENDBRANCH  27  29
ENDBRANCH  24  27
ENDBRANCH   5  24
BRANCH  22  35
HETATM   35  O   UNL     1      -9.404  12.477  66.647  1.00  0.00    -0.227 OA 
BRANCH  35  36
HETATM   36  C   UNL     1      -9.908  13.488  67.420  1.00  0.00    -0.227 A  
HETATM   37  C   UNL     1     -12.773  13.205  70.525  1.00  0.00    -0.070 A  
HETATM   38  C   UNL     1     -11.129  12.140  69.156  1.00  0.00    -0.263 A  
HETATM   39  C   UNL     1     -10.792  13.355  68.520  1.00  0.00    -0.285 A  
HETATM   40  C   UNL     1      -9.462  14.746  67.024  1.00  0.00    -0.241 A  
HETATM   41  C   UNL     1     -12.349  14.451  70.026  1.00  0.00    -0.391 A  
HETATM   42  C   UNL     1     -11.346  14.543  69.038  1.00  0.00    -0.272 A  
HETATM   43  C   UNL     1     -12.967  15.733  70.526  1.00  0.00    -0.090 C  
HETATM   44  C   UNL     1     -12.133  12.053  70.110  1.00  0.00    -0.377 A  
HETATM   45  C   UNL     1      -9.964  15.857  67.667  1.00  0.00    -0.237 A  
HETATM   46  N   UNL     1     -10.928  15.754  68.617  1.00  0.00    -0.288 NA 
BRANCH  37  47
HETATM   47  O   UNL     1     -13.767  13.195  71.472  1.00  0.00    -0.148 OA 
HETATM   48  C   UNL     1     -13.782  12.063  72.341  1.00  0.00     0.185 C  
ENDBRANCH  37  47
BRANCH  45  49
HETATM   49  C   UNL     1      -9.453  17.209  67.360  1.00  0.00    -0.247 A  
HETATM   50  N   UNL     1      -8.286  17.691  67.758  1.00  0.00    -0.221 NA 
HETATM   51  C   UNL     1      -8.130  19.013  67.354  1.00  0.00    -0.266 A  
HETATM   52  C   UNL     1      -9.197  19.518  66.637  1.00  0.00    -0.354 A  
HETATM   53  C   UNL     1      -6.871  19.762  67.706  1.00  0.00    -0.279 C  
HETATM   54  C   UNL     1      -6.687  19.883  69.219  1.00  0.00    -0.361 C  
HETATM   55  S   UNL     1     -10.410  18.330  66.459  1.00  0.00    -0.378 SA 
HETATM   56  C   UNL     1      -5.640  19.126  67.061  1.00  0.00    -0.163 C  
ENDBRANCH  45  49
ENDBRANCH  35  36
ENDBRANCH  22  35
TORSDOF 8
ENDMDL
MODEL       40
REMARK 921   NORMALIZED FREE ENERGY PREDICTED BY IDOCK:   -2.19 KCAL/MOL
REMARK 922        TOTAL FREE ENERGY PREDICTED BY IDOCK:   -5.77 KCAL/MOL
REMARK 923 INTER-LIGAND FREE ENERGY PREDICTED BY IDOCK:   -4.94 KCAL/MOL
REMARK 924 INTRA-LIGAND FREE ENERGY PREDICTED BY IDOCK:   -0.83 KCAL/MOL
REMARK 927      BINDING AFFINITY PREDICTED BY RF-SCORE:    0.00 PKD
ROOT
HETATM    1  C   UNL     1      -7.438   2.683  67.738  1.00  0.00    -0.056 C  
HETATM    2  C   UNL     1      -7.792   2.792  69.040  1.00  0.00    -0.052 C  
HETATM    3  C   UNL     1      -7.355   3.558  70.223  1.00  0.00    -0.041 C  
HETATM    4  C   UNL     1      -6.358   4.662  70.160  1.00  0.00    -0.030 C  
HETATM    5  C   UNL     1      -7.787   4.973  70.582  1.00  0.00    -0.078 C  
HETATM    6  C   UNL     1      -6.354   3.303  66.876  1.00  0.00    -0.036 C  
HETATM    7  N   UNL     1      -8.444   5.943  69.743  1.00  0.00    -0.123 NA 
HETATM    8  C   UNL     1      -9.402   5.755  68.914  1.00  0.00    -0.123 C  
HETATM    9  C   UNL     1      -9.293   8.076  67.923  1.00  0.00    -0.148 C  
HETATM   10  C   UNL     1      -6.733   3.657  65.396  1.00  0.00    -0.048 C  
HETATM   11  H   UNL     1      -8.103   6.901  69.819  1.00  0.00     0.000 HD 
HETATM   12  C   UNL     1      -7.736   6.257  64.919  1.00  0.00    -0.099 C  
HETATM   13  C   UNL     1     -10.175   9.302  68.238  1.00  0.00    -0.236 C  
HETATM   14  C   UNL     1     -10.166   6.888  68.346  1.00  0.00    -0.191 C  
HETATM   15  O   UNL     1      -9.865   4.596  68.449  1.00  0.00    -0.149 OA 
HETATM   16  C   UNL     1      -8.904   7.819  66.454  1.00  0.00    -0.155 C  
HETATM   17  C   UNL     1     -11.114   7.434  69.394  1.00  0.00    -0.052 C  
HETATM   18  C   UNL     1      -6.866   6.567  67.195  1.00  0.00    -0.066 C  
HETATM   19  C   UNL     1      -6.748   5.068  64.719  1.00  0.00    -0.048 C  
HETATM   20  H   UNL     1     -10.575   4.457  67.834  1.00  0.00     0.000 HD 
HETATM   21  N   UNL     1      -7.902   6.855  66.241  1.00  0.00    -0.098 N  
HETATM   22  C   UNL     1     -11.518   8.721  68.711  1.00  0.00     0.861 C  
HETATM   23  O   UNL     1      -9.555   8.307  65.533  1.00  0.00     0.100 OA 
ENDROOT
BRANCH   5  24
HETATM   24  C   UNL     1      -7.889   5.464  72.016  1.00  0.00    -0.106 C  
HETATM   25  H   UNL     1      -7.456   4.854  73.798  1.00  0.00     0.000 HD 
HETATM   26  O   UNL     1      -7.392   4.546  72.902  1.00  0.00    -0.078 OA 
BRANCH  24  27
HETATM   27  N   UNL     1      -8.274   6.626  72.342  1.00  0.00    -0.104 N  
HETATM   28  H   UNL     1      -7.721   7.444  72.087  1.00  0.00     0.000 HD 
BRANCH  27  29
HETATM   29  S   UNL     1      -9.645   6.793  73.162  1.00  0.00    -0.164 S  
HETATM   30  O   UNL     1      -9.412   6.344  74.533  1.00  0.00    -0.202 OA 
HETATM   31  O   UNL     1     -10.270   8.073  72.928  1.00  0.00    -0.295 OA 
BRANCH  29  32
HETATM   32  C   UNL     1     -10.813   5.533  72.442  1.00  0.00    -0.248 C  
HETATM   33  C   UNL     1     -11.595   4.793  73.501  1.00  0.00    -0.119 C  
HETATM   34  C   UNL     1     -12.285   5.793  72.611  1.00  0.00     0.034 C  
ENDBRANCH  29  32
ENDBRANCH  27  29
ENDBRANCH  24  27
ENDBRANCH   5  24
BRANCH  22  35
HETATM   35  O   UNL     1     -12.295   9.491  69.612  1.00  0.00     0.540 OA 
BRANCH  35  36
HETATM   36  C   UNL     1     -12.208  10.854  69.524  1.00  0.00    -0.261 A  
HETATM   37  C   UNL     1     -13.334  13.724  72.426  1.00  0.00    -0.535 A  
HETATM   38  C   UNL     1     -12.709  11.477  71.908  1.00  0.00    -0.250 A  
HETATM   39  C   UNL     1     -12.498  11.791  70.547  1.00  0.00    -0.317 A  
HETATM   40  C   UNL     1     -11.785  11.289  68.271  1.00  0.00    -0.344 A  
HETATM   41  C   UNL     1     -12.979  14.100  71.117  1.00  0.00    -0.419 A  
HETATM   42  C   UNL     1     -12.542  13.149  70.173  1.00  0.00    -0.009 A  
HETATM   43  C   UNL     1     -13.071  15.541  70.677  1.00  0.00    -0.361 C  
HETATM   44  C   UNL     1     -13.162  12.413  72.826  1.00  0.00     0.877 A  
HETATM   45  C   UNL     1     -11.739  12.645  68.024  1.00  0.00    -0.350 A  
HETATM   46  N   UNL     1     -12.163  13.550  68.942  1.00  0.00    -0.260 NA 
BRANCH  37  47
HETATM   47  O   UNL     1     -13.769  14.704  73.283  1.00  0.00    -0.449 OA 
HETATM   48  C   UNL     1     -12.747  15.471  73.918  1.00  0.00    -0.580 C  
ENDBRANCH  37  47
BRANCH  45  49
HETATM   49  C   UNL     1     -11.203  13.167  66.749  1.00  0.00    -0.299 A  
HETATM   50  N   UNL     1     -11.494  14.350  66.230  1.00  0.00    -0.351 NA 
HETATM   51  C   UNL     1     -10.875  14.515  64.995  1.00  0.00    -0.412 A  
HETATM   52  C   UNL     1     -10.107  13.440  64.595  1.00  0.00    -0.229 A  
HETATM   53  C   UNL     1     -11.074  15.793  64.221  1.00  0.00     0.002 C  
HETATM   54  C   UNL     1     -12.543  16.013  63.857  1.00  0.00     1.260 C  
HETATM   55  S   UNL     1     -10.151  12.206  65.774  1.00  0.00    -0.250 SA 
HETATM   56  C   UNL     1     -10.517  17.000  64.975  1.00  0.00     0.202 C  
ENDBRANCH  45  49
ENDBRANCH  35  36
ENDBRANCH  22  35
TORSDOF 8
ENDMDL
MODEL       41
REMARK 921   NORMALIZED FREE ENERGY PREDICTED BY IDOCK:   -2.15 KCAL/MOL
REMARK 922        TOTAL FREE ENERGY PREDICTED BY IDOCK:   -5.72 KCAL/MOL
REMARK 923 INTER-LIGAND FREE ENERGY PREDICTED BY IDOCK:   -3.65 KCAL/MOL
REMARK 924 INTRA-LIGAND FREE ENERGY PREDICTED BY IDOCK:   -2.07 KCAL/MOL
REMARK 927      BINDING AFFINITY PREDICTED BY RF-SCORE:    0.00 PKD
ROOT
HETATM    1  C   UNL     1      -8.995  17.294  66.089  1.00  0.00    -0.189 C  
HETATM    2  C   UNL     1      -7.942  16.999  66.888  1.00  0.00    -0.256 C  
HETATM    3  C   UNL     1      -7.727  16.558  68.280  1.00  0.00    -0.176 C  
HETATM    4  C   UNL     1      -8.831  16.140  69.186  1.00  0.00    -0.239 C  
HETATM    5  C   UNL     1      -7.774  15.122  68.781  1.00  0.00    -0.143 C  
HETATM    6  C   UNL     1     -10.498  17.345  66.288  1.00  0.00    -0.276 C  
HETATM    7  N   UNL     1      -8.309  13.962  68.111  1.00  0.00    -0.154 NA 
HETATM    8  C   UNL     1      -8.189  13.633  66.879  1.00  0.00     0.067 C  
HETATM    9  C   UNL     1      -9.841  11.726  67.001  1.00  0.00    -0.213 C  
HETATM   10  C   UNL     1     -11.394  16.865  65.093  1.00  0.00     0.356 C  
HETATM   11  H   UNL     1      -8.851  13.324  68.692  1.00  0.00     0.000 HD 
HETATM   12  C   UNL     1     -12.113  14.131  65.050  1.00  0.00    -0.421 C  
HETATM   13  C   UNL     1      -9.561  10.215  67.145  1.00  0.00    -0.202 C  
HETATM   14  C   UNL     1      -8.539  12.276  66.405  1.00  0.00     0.037 C  
HETATM   15  O   UNL     1      -7.753  14.385  65.871  1.00  0.00     1.537 OA 
HETATM   16  C   UNL     1     -10.968  12.168  66.049  1.00  0.00    -0.293 C  
HETATM   17  C   UNL     1      -7.458  11.300  66.822  1.00  0.00    -0.146 C  
HETATM   18  C   UNL     1     -11.254  14.290  67.346  1.00  0.00    -0.316 C  
HETATM   19  C   UNL     1     -12.397  15.664  65.065  1.00  0.00     0.607 C  
HETATM   20  H   UNL     1      -7.664  14.141  64.957  1.00  0.00     0.000 HD 
HETATM   21  N   UNL     1     -11.358  13.517  66.140  1.00  0.00    -0.303 N  
HETATM   22  C   UNL     1      -8.171  10.001  66.522  1.00  0.00    -0.119 C  
HETATM   23  O   UNL     1     -11.371  11.424  65.157  1.00  0.00    -0.154 OA 
ENDROOT
BRANCH   5  24
HETATM   24  C   UNL     1      -6.943  14.630  69.954  1.00  0.00    -0.099 C  
HETATM   25  H   UNL     1      -5.609  15.307  71.178  1.00  0.00     0.000 HD 
HETATM   26  O   UNL     1      -6.129  15.615  70.444  1.00  0.00    -0.115 OA 
BRANCH  24  27
HETATM   27  N   UNL     1      -7.074  13.489  70.487  1.00  0.00     0.530 N  
HETATM   28  H   UNL     1      -7.890  13.277  71.061  1.00  0.00     0.000 HD 
BRANCH  27  29
HETATM   29  S   UNL     1      -5.939  12.379  70.246  1.00  0.00    -0.072 S  
HETATM   30  O   UNL     1      -5.287  12.666  68.970  1.00  0.00    -0.066 OA 
HETATM   31  O   UNL     1      -5.133  12.155  71.423  1.00  0.00    -0.184 OA 
BRANCH  29  32
HETATM   32  C   UNL     1      -6.854  10.781  69.962  1.00  0.00    -0.122 C  
HETATM   33  C   UNL     1      -5.927   9.597  69.829  1.00  0.00    -0.040 C  
HETATM   34  C   UNL     1      -6.785   9.752  71.057  1.00  0.00     0.029 C  
ENDBRANCH  29  32
ENDBRANCH  27  29
ENDBRANCH  24  27
ENDBRANCH   5  24
BRANCH  22  35
HETATM   35  O   UNL     1      -7.384   8.927  67.006  1.00  0.00    -0.082 OA 
BRANCH  35  36
HETATM   36  C   UNL     1      -7.960   7.686  67.052  1.00  0.00    -0.116 A  
HETATM   37  C   UNL     1      -8.953   5.161  63.801  1.00  0.00     0.104 A  
HETATM   38  C   UNL     1      -7.663   6.981  64.656  1.00  0.00    -0.116 A  
HETATM   39  C   UNL     1      -8.191   6.817  65.956  1.00  0.00    -0.129 A  
HETATM   40  C   UNL     1      -8.328   7.308  68.339  1.00  0.00    -0.125 A  
HETATM   41  C   UNL     1      -9.373   4.872  65.113  1.00  0.00    -0.104 A  
HETATM   42  C   UNL     1      -8.985   5.679  66.202  1.00  0.00    -0.151 A  
HETATM   43  C   UNL     1     -10.268   3.690  65.394  1.00  0.00     0.123 C  
HETATM   44  C   UNL     1      -8.068   6.198  63.584  1.00  0.00    -0.065 A  
HETATM   45  C   UNL     1      -8.997   6.114  68.511  1.00  0.00    -0.115 A  
HETATM   46  N   UNL     1      -9.364   5.347  67.453  1.00  0.00    -0.111 NA 
BRANCH  37  47
HETATM   47  O   UNL     1      -9.388   4.340  62.790  1.00  0.00    -0.126 OA 
HETATM   48  C   UNL     1      -8.646   3.134  62.610  1.00  0.00    -0.078 C  
ENDBRANCH  37  47
BRANCH  45  49
HETATM   49  C   UNL     1      -9.324   5.613  69.862  1.00  0.00    -0.147 A  
HETATM   50  N   UNL     1      -9.325   6.346  70.965  1.00  0.00    -0.164 NA 
HETATM   51  C   UNL     1      -9.617   5.564  72.079  1.00  0.00    -0.151 A  
HETATM   52  C   UNL     1      -9.843   4.232  71.797  1.00  0.00    -0.180 A  
HETATM   53  C   UNL     1      -9.666   6.196  73.447  1.00  0.00    -0.163 C  
HETATM   54  C   UNL     1      -8.318   6.799  73.842  1.00  0.00    -0.144 C  
HETATM   55  S   UNL     1      -9.695   3.946  70.120  1.00  0.00    -0.103 SA 
HETATM   56  C   UNL     1     -10.775   7.243  73.542  1.00  0.00    -0.367 C  
ENDBRANCH  45  49
ENDBRANCH  35  36
ENDBRANCH  22  35
TORSDOF 8
ENDMDL
MODEL       42
REMARK 921   NORMALIZED FREE ENERGY PREDICTED BY IDOCK:   -2.00 KCAL/MOL
REMARK 922        TOTAL FREE ENERGY PREDICTED BY IDOCK:   -5.50 KCAL/MOL
REMARK 923 INTER-LIGAND FREE ENERGY PREDICTED BY IDOCK:   -5.81 KCAL/MOL
REMARK 924 INTRA-LIGAND FREE ENERGY PREDICTED BY IDOCK:    0.31 KCAL/MOL
REMARK 927      BINDING AFFINITY PREDICTED BY RF-SCORE:    0.00 PKD
ROOT
HETATM    1  C   UNL     1      -9.360   3.465  65.552  1.00  0.00    -0.150 C  
HETATM    2  C   UNL     1      -9.552   3.679  66.876  1.00  0.00    -0.180 C  
HETATM    3  C   UNL     1      -8.758   4.156  68.024  1.00  0.00    -0.116 C  
HETATM    4  C   UNL     1      -7.393   4.734  67.891  1.00  0.00    -0.070 C  
HETATM    5  C   UNL     1      -8.525   5.610  68.408  1.00  0.00    -0.105 C  
HETATM    6  C   UNL     1      -8.171   3.589  64.618  1.00  0.00    -0.090 C  
HETATM    7  N   UNL     1      -8.758   6.790  67.613  1.00  0.00    -0.120 NA 
HETATM    8  C   UNL     1      -9.755   7.047  66.851  1.00  0.00    -0.175 C  
HETATM    9  C   UNL     1      -8.732   9.128  65.849  1.00  0.00    -0.184 C  
HETATM   10  C   UNL     1      -8.454   4.110  63.166  1.00  0.00    -0.095 C  
HETATM   11  H   UNL     1      -8.039   7.510  67.664  1.00  0.00     0.000 HD 
HETATM   12  C   UNL     1      -8.285   6.902  62.752  1.00  0.00     0.017 C  
HETATM   13  C   UNL     1      -8.989  10.604  66.221  1.00  0.00    -0.180 C  
HETATM   14  C   UNL     1      -9.999   8.412  66.333  1.00  0.00    -0.291 C  
HETATM   15  O   UNL     1     -10.694   6.207  66.421  1.00  0.00    -0.488 OA 
HETATM   16  C   UNL     1      -8.581   8.770  64.359  1.00  0.00    -0.084 C  
HETATM   17  C   UNL     1     -10.558   9.281  67.441  1.00  0.00    -0.324 C  
HETATM   18  C   UNL     1      -7.227   6.753  64.963  1.00  0.00    -0.074 C  
HETATM   19  C   UNL     1      -7.910   5.412  62.488  1.00  0.00    -0.079 C  
HETATM   20  H   UNL     1     -11.433   6.399  65.856  1.00  0.00     0.000 HD 
HETATM   21  N   UNL     1      -8.099   7.478  64.081  1.00  0.00    -0.101 N  
HETATM   22  C   UNL     1     -10.419  10.635  66.784  1.00  0.00    -0.247 C  
HETATM   23  O   UNL     1      -9.019   9.512  63.483  1.00  0.00    -0.233 OA 
ENDROOT
BRANCH   5  24
HETATM   24  C   UNL     1      -8.319   6.060  69.845  1.00  0.00    -0.123 C  
HETATM   25  H   UNL     1      -8.616   7.628  70.936  1.00  0.00     0.000 HD 
HETATM   26  O   UNL     1      -8.744   7.347  70.037  1.00  0.00    -0.139 OA 
BRANCH  24  27
HETATM   27  N   UNL     1      -7.917   5.300  70.775  1.00  0.00    -0.095 N  
HETATM   28  H   UNL     1      -7.109   5.559  71.341  1.00  0.00     0.000 HD 
BRANCH  27  29
HETATM   29  S   UNL     1      -8.697   3.924  71.051  1.00  0.00    -0.084 S  
HETATM   30  O   UNL     1     -10.107   4.128  70.726  1.00  0.00    -0.164 OA 
HETATM   31  O   UNL     1      -8.000   2.781  70.509  1.00  0.00    -0.042 OA 
BRANCH  29  32
HETATM   32  C   UNL     1      -8.665   3.693  72.899  1.00  0.00    -0.093 C  
HETATM   33  C   UNL     1      -9.613   2.615  73.367  1.00  0.00    -0.129 C  
HETATM   34  C   UNL     1      -8.125   2.387  73.414  1.00  0.00    -0.058 C  
ENDBRANCH  29  32
ENDBRANCH  27  29
ENDBRANCH  24  27
ENDBRANCH   5  24
BRANCH  22  35
HETATM   35  O   UNL     1     -10.737  11.637  67.734  1.00  0.00    -0.190 OA 
BRANCH  35  36
HETATM   36  C   UNL     1      -9.911  12.726  67.813  1.00  0.00    -0.220 A  
HETATM   37  C   UNL     1      -6.278  13.081  69.958  1.00  0.00    -0.062 A  
HETATM   38  C   UNL     1      -7.919  11.678  68.935  1.00  0.00    -0.026 A  
HETATM   39  C   UNL     1      -8.649  12.788  68.456  1.00  0.00    -0.048 A  
HETATM   40  C   UNL     1     -10.430  13.847  67.171  1.00  0.00    -0.269 A  
HETATM   41  C   UNL     1      -6.893  14.198  69.362  1.00  0.00    -0.104 A  
HETATM   42  C   UNL     1      -8.067  14.065  68.592  1.00  0.00    -0.113 A  
HETATM   43  C   UNL     1      -6.319  15.582  69.540  1.00  0.00    -0.155 C  
HETATM   44  C   UNL     1      -6.778  11.818  69.711  1.00  0.00     0.015 A  
HETATM   45  C   UNL     1      -9.733  15.034  67.250  1.00  0.00    -0.220 A  
HETATM   46  N   UNL     1      -8.604  15.148  67.994  1.00  0.00    -0.153 NA 
BRANCH  37  47
HETATM   47  O   UNL     1      -5.148  13.292  70.709  1.00  0.00    -0.102 OA 
HETATM   48  C   UNL     1      -5.258  12.978  72.097  1.00  0.00     0.029 C  
ENDBRANCH  37  47
BRANCH  45  49
HETATM   49  C   UNL     1     -10.183  16.230  66.506  1.00  0.00    -0.300 A  
HETATM   50  N   UNL     1     -10.014  17.481  66.905  1.00  0.00    -0.300 NA 
HETATM   51  C   UNL     1     -10.603  18.370  66.011  1.00  0.00    -0.309 A  
HETATM   52  C   UNL     1     -11.212  17.769  64.928  1.00  0.00     1.319 A  
HETATM   53  C   UNL     1     -10.535  19.852  66.273  1.00  0.00    -0.590 C  
HETATM   54  C   UNL     1     -11.232  20.230  67.581  1.00  0.00     0.727 C  
HETATM   55  S   UNL     1     -11.047  16.071  65.019  1.00  0.00    -0.260 SA 
HETATM   56  C   UNL     1      -9.094  20.360  66.262  1.00  0.00    -0.181 C  
ENDBRANCH  45  49
ENDBRANCH  35  36
ENDBRANCH  22  35
TORSDOF 8
ENDMDL
MODEL       43
REMARK 921   NORMALIZED FREE ENERGY PREDICTED BY IDOCK:   -1.92 KCAL/MOL
REMARK 922        TOTAL FREE ENERGY PREDICTED BY IDOCK:   -5.38 KCAL/MOL
REMARK 923 INTER-LIGAND FREE ENERGY PREDICTED BY IDOCK:   -6.34 KCAL/MOL
REMARK 924 INTRA-LIGAND FREE ENERGY PREDICTED BY IDOCK:    0.96 KCAL/MOL
REMARK 927      BINDING AFFINITY PREDICTED BY RF-SCORE:    0.00 PKD
ROOT
HETATM    1  C   UNL     1      -6.419   2.363  67.164  1.00  0.00    -0.035 C  
HETATM    2  C   UNL     1      -7.043   3.216  66.317  1.00  0.00    -0.058 C  
HETATM    3  C   UNL     1      -8.348   3.898  66.232  1.00  0.00    -0.105 C  
HETATM    4  C   UNL     1      -9.350   3.890  67.333  1.00  0.00    -0.225 C  
HETATM    5  C   UNL     1      -8.719   5.209  66.911  1.00  0.00    -0.107 C  
HETATM    6  C   UNL     1      -6.817   1.660  68.448  1.00  0.00    -0.032 C  
HETATM    7  N   UNL     1      -8.023   5.889  67.975  1.00  0.00    -0.104 NA 
HETATM    8  C   UNL     1      -6.760   6.058  68.115  1.00  0.00    -0.064 C  
HETATM    9  C   UNL     1      -6.925   6.997  70.454  1.00  0.00    -0.062 C  
HETATM   10  C   UNL     1      -5.711   1.504  69.549  1.00  0.00    -0.018 C  
HETATM   11  H   UNL     1      -8.609   6.285  68.708  1.00  0.00     0.000 HD 
HETATM   12  C   UNL     1      -5.515   3.571  71.469  1.00  0.00    -0.008 C  
HETATM   13  C   UNL     1      -6.893   8.472  70.906  1.00  0.00    -0.052 C  
HETATM   14  C   UNL     1      -6.216   7.023  69.095  1.00  0.00    -0.031 C  
HETATM   15  O   UNL     1      -5.777   5.454  67.452  1.00  0.00    -0.012 OA 
HETATM   16  C   UNL     1      -6.173   5.959  71.309  1.00  0.00    -0.039 C  
HETATM   17  C   UNL     1      -6.397   8.433  68.570  1.00  0.00    -0.054 C  
HETATM   18  C   UNL     1      -7.683   4.148  70.469  1.00  0.00    -0.048 C  
HETATM   19  C   UNL     1      -5.706   2.097  70.998  1.00  0.00    -0.013 C  
HETATM   20  H   UNL     1      -4.841   5.580  67.556  1.00  0.00     0.000 HD 
HETATM   21  N   UNL     1      -6.436   4.608  71.012  1.00  0.00    -0.026 N  
HETATM   22  C   UNL     1      -6.077   9.206  69.830  1.00  0.00    -0.038 C  
HETATM   23  O   UNL     1      -5.278   6.302  72.078  1.00  0.00    -0.025 OA 
ENDROOT
BRANCH   5  24
HETATM   24  C   UNL     1      -9.723   6.187  66.323  1.00  0.00    -0.061 C  
HETATM   25  H   UNL     1     -11.633   6.330  66.060  1.00  0.00     0.000 HD 
HETATM   26  O   UNL     1     -11.005   5.718  66.428  1.00  0.00    -0.206 OA 
BRANCH  24  27
HETATM   27  N   UNL     1      -9.423   7.342  65.900  1.00  0.00    -0.403 N  
HETATM   28  H   UNL     1      -9.888   8.168  66.277  1.00  0.00     0.000 HD 
BRANCH  27  29
HETATM   29  S   UNL     1      -8.300   7.489  64.762  1.00  0.00     0.070 S  
HETATM   30  O   UNL     1      -6.996   7.563  65.417  1.00  0.00    -0.057 OA 
HETATM   31  O   UNL     1      -8.498   6.561  63.674  1.00  0.00     0.099 OA 
BRANCH  29  32
HETATM   32  C   UNL     1      -8.557   9.180  64.023  1.00  0.00    -0.166 C  
HETATM   33  C   UNL     1      -9.734   9.906  64.629  1.00  0.00    -0.265 C  
HETATM   34  C   UNL     1      -8.329  10.360  64.926  1.00  0.00    -0.165 C  
ENDBRANCH  29  32
ENDBRANCH  27  29
ENDBRANCH  24  27
ENDBRANCH   5  24
BRANCH  22  35
HETATM   35  O   UNL     1      -6.353  10.577  69.605  1.00  0.00    -0.054 OA 
BRANCH  35  36
HETATM   36  C   UNL     1      -7.650  10.931  69.346  1.00  0.00    -0.094 A  
HETATM   37  C   UNL     1     -11.182   9.064  70.749  1.00  0.00    -0.275 A  
HETATM   38  C   UNL     1      -8.840   9.461  71.004  1.00  0.00    -0.092 A  
HETATM   39  C   UNL     1      -8.816  10.352  69.908  1.00  0.00     0.140 A  
HETATM   40  C   UNL     1      -7.754  11.973  68.429  1.00  0.00    -0.138 A  
HETATM   41  C   UNL     1     -11.221  10.064  69.759  1.00  0.00    -0.307 A  
HETATM   42  C   UNL     1     -10.050  10.730  69.342  1.00  0.00    -0.139 A  
HETATM   43  C   UNL     1     -12.523  10.447  69.100  1.00  0.00     0.552 C  
HETATM   44  C   UNL     1      -9.991   8.792  71.393  1.00  0.00    -0.354 A  
HETATM   45  C   UNL     1      -9.010  12.367  68.017  1.00  0.00    -0.194 A  
HETATM   46  N   UNL     1     -10.129  11.717  68.427  1.00  0.00    -0.198 NA 
BRANCH  37  47
HETATM   47  O   UNL     1     -12.361   8.447  71.089  1.00  0.00    -0.283 OA 
HETATM   48  C   UNL     1     -13.099   9.062  72.144  1.00  0.00    -0.435 C  
ENDBRANCH  37  47
BRANCH  45  49
HETATM   49  C   UNL     1      -9.186  13.531  67.124  1.00  0.00    -0.236 A  
HETATM   50  N   UNL     1      -8.657  14.729  67.321  1.00  0.00    -0.199 NA 
HETATM   51  C   UNL     1      -9.062  15.620  66.332  1.00  0.00    -0.320 A  
HETATM   52  C   UNL     1      -9.900  15.072  65.382  1.00  0.00    -0.277 A  
HETATM   53  C   UNL     1      -8.580  17.047  66.365  1.00  0.00    -0.311 C  
HETATM   54  C   UNL     1      -9.036  17.771  67.632  1.00  0.00    -0.249 C  
HETATM   55  S   UNL     1     -10.186  13.422  65.720  1.00  0.00    -0.290 SA 
HETATM   56  C   UNL     1      -7.062  17.130  66.211  1.00  0.00    -0.280 C  
ENDBRANCH  45  49
ENDBRANCH  35  36
ENDBRANCH  22  35
TORSDOF 8
ENDMDL
MODEL       44
REMARK 921   NORMALIZED FREE ENERGY PREDICTED BY IDOCK:   -1.49 KCAL/MOL
REMARK 922        TOTAL FREE ENERGY PREDICTED BY IDOCK:   -4.75 KCAL/MOL
REMARK 923 INTER-LIGAND FREE ENERGY PREDICTED BY IDOCK:   -5.36 KCAL/MOL
REMARK 924 INTRA-LIGAND FREE ENERGY PREDICTED BY IDOCK:    0.61 KCAL/MOL
REMARK 927      BINDING AFFINITY PREDICTED BY RF-SCORE:    0.00 PKD
ROOT
HETATM    1  C   UNL     1     -13.138  15.576  69.273  1.00  0.00     1.104 C  
HETATM    2  C   UNL     1     -12.167  15.608  68.330  1.00  0.00     0.249 C  
HETATM    3  C   UNL     1     -10.693  15.549  68.288  1.00  0.00    -0.271 C  
HETATM    4  C   UNL     1      -9.852  15.242  69.477  1.00  0.00    -0.230 C  
HETATM    5  C   UNL     1      -9.848  14.283  68.295  1.00  0.00    -0.235 C  
HETATM    6  C   UNL     1     -13.145  15.503  70.789  1.00  0.00    -0.446 C  
HETATM    7  N   UNL     1     -10.255  12.942  68.632  1.00  0.00    -0.374 NA 
HETATM    8  C   UNL     1     -11.337  12.337  68.307  1.00  0.00    -0.289 C  
HETATM    9  C   UNL     1     -10.929  10.342  69.803  1.00  0.00    -0.345 C  
HETATM   10  C   UNL     1     -14.276  14.647  71.457  1.00  0.00    -0.540 C  
HETATM   11  H   UNL     1      -9.600  12.408  69.202  1.00  0.00     0.000 HD 
HETATM   12  C   UNL     1     -13.698  11.922  71.945  1.00  0.00     0.170 C  
HETATM   13  C   UNL     1     -10.366   8.955  69.429  1.00  0.00    -0.217 C  
HETATM   14  C   UNL     1     -11.483  10.874  68.475  1.00  0.00    -0.380 C  
HETATM   15  O   UNL     1     -12.443  12.863  67.787  1.00  0.00    -0.061 OA 
HETATM   16  C   UNL     1     -12.094  10.406  70.809  1.00  0.00    -0.364 C  
HETATM   17  C   UNL     1     -10.699  10.160  67.393  1.00  0.00    -0.336 C  
HETATM   18  C   UNL     1     -11.434  12.735  71.449  1.00  0.00     2.537 C  
HETATM   19  C   UNL     1     -14.115  13.369  72.348  1.00  0.00    -0.517 C  
HETATM   20  H   UNL     1     -13.244  12.414  67.546  1.00  0.00     0.000 HD 
HETATM   21  N   UNL     1     -12.403  11.684  71.313  1.00  0.00    -0.249 N  
HETATM   22  C   UNL     1     -10.738   8.755  67.950  1.00  0.00    -0.107 C  
HETATM   23  O   UNL     1     -12.805   9.426  71.015  1.00  0.00    -0.277 OA 
ENDROOT
BRANCH   5  24
HETATM   24  C   UNL     1      -8.495  14.192  67.609  1.00  0.00    -0.185 C  
HETATM   25  H   UNL     1      -7.031  15.353  67.117  1.00  0.00     0.000 HD 
HETATM   26  O   UNL     1      -7.877  15.411  67.546  1.00  0.00    -0.140 OA 
BRANCH  24  27
HETATM   27  N   UNL     1      -7.954  13.104  67.250  1.00  0.00    -0.296 N  
HETATM   28  H   UNL     1      -8.377  12.533  66.518  1.00  0.00     0.000 HD 
BRANCH  27  29
HETATM   29  S   UNL     1      -6.594  12.635  67.963  1.00  0.00    -0.112 S  
HETATM   30  O   UNL     1      -5.643  12.252  66.921  1.00  0.00    -0.303 OA 
HETATM   31  O   UNL     1      -6.179  13.546  69.005  1.00  0.00    -0.083 OA 
BRANCH  29  32
HETATM   32  C   UNL     1      -7.010  11.043  68.835  1.00  0.00    -0.088 C  
HETATM   33  C   UNL     1      -5.821  10.118  68.954  1.00  0.00    -0.037 C  
HETATM   34  C   UNL     1      -6.367  10.811  70.175  1.00  0.00    -0.147 C  
ENDBRANCH  29  32
ENDBRANCH  27  29
ENDBRANCH  24  27
ENDBRANCH   5  24
BRANCH  22  35
HETATM   35  O   UNL     1      -9.900   7.928  67.160  1.00  0.00    -0.170 OA 
BRANCH  35  36
HETATM   36  C   UNL     1      -9.527   6.718  67.680  1.00  0.00    -0.118 A  
HETATM   37  C   UNL     1     -10.655   5.026  71.394  1.00  0.00    -0.091 A  
HETATM   38  C   UNL     1     -11.101   6.583  69.637  1.00  0.00    -0.435 A  
HETATM   39  C   UNL     1      -9.997   6.129  68.881  1.00  0.00    -0.185 A  
HETATM   40  C   UNL     1      -8.588   6.057  66.894  1.00  0.00    -0.108 A  
HETATM   41  C   UNL     1      -9.650   4.448  70.596  1.00  0.00    -0.262 A  
HETATM   42  C   UNL     1      -9.323   4.976  69.331  1.00  0.00    -0.124 A  
HETATM   43  C   UNL     1      -8.877   3.246  71.081  1.00  0.00    -0.139 C  
HETATM   44  C   UNL     1     -11.402   6.074  70.892  1.00  0.00    -0.299 A  
HETATM   45  C   UNL     1      -8.065   4.866  67.350  1.00  0.00    -0.106 A  
HETATM   46  N   UNL     1      -8.389   4.369  68.571  1.00  0.00    -0.084 NA 
BRANCH  37  47
HETATM   47  O   UNL     1     -10.904   4.468  72.624  1.00  0.00    -0.187 OA 
HETATM   48  C   UNL     1     -10.799   5.352  73.739  1.00  0.00    -0.233 C  
ENDBRANCH  37  47
BRANCH  45  49
HETATM   49  C   UNL     1      -7.142   4.070  66.513  1.00  0.00    -0.064 A  
HETATM   50  N   UNL     1      -7.053   4.148  65.194  1.00  0.00    -0.061 NA 
HETATM   51  C   UNL     1      -6.133   3.226  64.705  1.00  0.00    -0.023 A  
HETATM   52  C   UNL     1      -5.525   2.457  65.677  1.00  0.00    -0.012 A  
HETATM   53  C   UNL     1      -5.875   3.138  63.223  1.00  0.00    -0.013 C  
HETATM   54  C   UNL     1      -7.136   2.749  62.450  1.00  0.00    -0.035 C  
HETATM   55  S   UNL     1      -6.102   2.889  67.225  1.00  0.00    -0.028 SA 
HETATM   56  C   UNL     1      -5.286   4.438  62.676  1.00  0.00    -0.009 C  
ENDBRANCH  45  49
ENDBRANCH  35  36
ENDBRANCH  22  35
TORSDOF 8
ENDMDL
MODEL       45
REMARK 921   NORMALIZED FREE ENERGY PREDICTED BY IDOCK:   -1.08 KCAL/MOL
REMARK 922        TOTAL FREE ENERGY PREDICTED BY IDOCK:   -4.14 KCAL/MOL
REMARK 923 INTER-LIGAND FREE ENERGY PREDICTED BY IDOCK:   -4.56 KCAL/MOL
REMARK 924 INTRA-LIGAND FREE ENERGY PREDICTED BY IDOCK:    0.42 KCAL/MOL
REMARK 927      BINDING AFFINITY PREDICTED BY RF-SCORE:    0.00 PKD
ROOT
HETATM    1  C   UNL     1      -7.200   1.764  65.650  1.00  0.00    -0.052 C  
HETATM    2  C   UNL     1      -7.391   2.029  66.964  1.00  0.00    -0.060 C  
HETATM    3  C   UNL     1      -6.729   2.821  68.018  1.00  0.00    -0.040 C  
HETATM    4  C   UNL     1      -5.608   3.763  67.751  1.00  0.00    -0.021 C  
HETATM    5  C   UNL     1      -6.928   4.308  68.278  1.00  0.00    -0.052 C  
HETATM    6  C   UNL     1      -6.145   2.150  64.630  1.00  0.00    -0.018 C  
HETATM    7  N   UNL     1      -7.539   5.288  67.416  1.00  0.00    -0.087 NA 
HETATM    8  C   UNL     1      -8.599   5.169  66.707  1.00  0.00    -0.109 C  
HETATM    9  C   UNL     1      -8.293   7.361  65.489  1.00  0.00    -0.139 C  
HETATM   10  C   UNL     1      -6.633   2.430  63.167  1.00  0.00    -0.026 C  
HETATM   11  H   UNL     1      -7.068   6.191  67.366  1.00  0.00     0.000 HD 
HETATM   12  C   UNL     1      -7.330   5.098  62.539  1.00  0.00    -0.039 C  
HETATM   13  C   UNL     1      -8.965   8.722  65.768  1.00  0.00    -0.253 C  
HETATM   14  C   UNL     1      -9.263   6.349  66.109  1.00  0.00    -0.132 C  
HETATM   15  O   UNL     1      -9.259   4.054  66.404  1.00  0.00    -0.142 OA 
HETATM   16  C   UNL     1      -8.105   6.932  64.021  1.00  0.00    -0.008 C  
HETATM   17  C   UNL     1     -10.010   7.109  67.186  1.00  0.00    -0.270 C  
HETATM   18  C   UNL     1      -6.182   5.469  64.679  1.00  0.00    -0.022 C  
HETATM   19  C   UNL     1      -6.536   3.768  62.360  1.00  0.00    -0.022 C  
HETATM   20  H   UNL     1     -10.045   3.966  65.878  1.00  0.00     0.000 HD 
HETATM   21  N   UNL     1      -7.268   5.820  63.807  1.00  0.00    -0.052 N  
HETATM   22  C   UNL     1     -10.313   8.379  66.423  1.00  0.00     0.025 C  
HETATM   23  O   UNL     1      -8.783   7.429  63.125  1.00  0.00     0.333 OA 
ENDROOT
BRANCH   5  24
HETATM   24  C   UNL     1      -6.806   4.926  69.661  1.00  0.00    -0.052 C  
HETATM   25  H   UNL     1      -6.302   6.611  70.463  1.00  0.00     0.000 HD 
HETATM   26  O   UNL     1      -6.378   6.224  69.598  1.00  0.00    -0.032 OA 
BRANCH  24  27
HETATM   27  N   UNL     1      -7.170   4.351  70.729  1.00  0.00    -0.041 N  
HETATM   28  H   UNL     1      -6.496   3.831  71.292  1.00  0.00     0.000 HD 
BRANCH  27  29
HETATM   29  S   UNL     1      -8.706   4.451  71.185  1.00  0.00    -0.108 S  
HETATM   30  O   UNL     1      -8.755   5.143  72.471  1.00  0.00    -0.120 OA 
HETATM   31  O   UNL     1      -9.569   4.883  70.111  1.00  0.00    -0.158 OA 
BRANCH  29  32
HETATM   32  C   UNL     1      -9.229   2.704  71.566  1.00  0.00    -0.114 C  
HETATM   33  C   UNL     1      -9.526   1.902  70.321  1.00  0.00    -0.143 C  
HETATM   34  C   UNL     1      -8.296   1.604  71.138  1.00  0.00    -0.062 C  
ENDBRANCH  29  32
ENDBRANCH  27  29
ENDBRANCH  24  27
ENDBRANCH   5  24
BRANCH  22  35
HETATM   35  O   UNL     1     -10.878   9.323  67.317  1.00  0.00    -0.238 OA 
BRANCH  35  36
HETATM   36  C   UNL     1     -10.068  10.327  67.776  1.00  0.00    -0.180 A  
HETATM   37  C   UNL     1      -6.341   9.963  69.751  1.00  0.00    -0.054 A  
HETATM   38  C   UNL     1      -8.004   9.002  68.330  1.00  0.00    -0.104 A  
HETATM   39  C   UNL     1      -8.778  10.184  68.344  1.00  0.00    -0.123 A  
HETATM   40  C   UNL     1     -10.639  11.589  67.636  1.00  0.00    -0.235 A  
HETATM   41  C   UNL     1      -7.005  11.200  69.654  1.00  0.00    -0.088 A  
HETATM   42  C   UNL     1      -8.213  11.330  68.939  1.00  0.00    -0.079 A  
HETATM   43  C   UNL     1      -6.448  12.430  70.329  1.00  0.00     0.307 C  
HETATM   44  C   UNL     1      -6.828   8.874  69.056  1.00  0.00    -0.059 A  
HETATM   45  C   UNL     1      -9.962  12.679  68.138  1.00  0.00    -0.225 A  
HETATM   46  N   UNL     1      -8.799  12.540  68.824  1.00  0.00     0.072 NA 
BRANCH  37  47
HETATM   47  O   UNL     1      -5.178   9.911  70.480  1.00  0.00    -0.035 OA 
HETATM   48  C   UNL     1      -5.338   9.892  71.898  1.00  0.00    -0.027 C  
ENDBRANCH  37  47
BRANCH  45  49
HETATM   49  C   UNL     1     -10.469  14.052  67.931  1.00  0.00    -0.241 A  
HETATM   50  N   UNL     1     -10.083  14.867  66.961  1.00  0.00    -0.242 NA 
HETATM   51  C   UNL     1     -10.705  16.107  67.078  1.00  0.00    -0.254 A  
HETATM   52  C   UNL     1     -11.572  16.210  68.148  1.00  0.00    -0.133 A  
HETATM   53  C   UNL     1     -10.406  17.193  66.078  1.00  0.00    -0.317 C  
HETATM   54  C   UNL     1      -8.929  17.590  66.096  1.00  0.00    -0.156 C  
HETATM   55  S   UNL     1     -11.619  14.742  69.019  1.00  0.00    -0.314 SA 
HETATM   56  C   UNL     1     -10.840  16.795  64.668  1.00  0.00     0.181 C  
ENDBRANCH  45  49
ENDBRANCH  35  36
ENDBRANCH  22  35
TORSDOF 8
ENDMDL
MODEL       46
REMARK 921   NORMALIZED FREE ENERGY PREDICTED BY IDOCK:   -0.87 KCAL/MOL
REMARK 922        TOTAL FREE ENERGY PREDICTED BY IDOCK:   -3.83 KCAL/MOL
REMARK 923 INTER-LIGAND FREE ENERGY PREDICTED BY IDOCK:   -3.12 KCAL/MOL
REMARK 924 INTRA-LIGAND FREE ENERGY PREDICTED BY IDOCK:   -0.71 KCAL/MOL
REMARK 927      BINDING AFFINITY PREDICTED BY RF-SCORE:    0.00 PKD
ROOT
HETATM    1  C   UNL     1     -11.766  16.604  69.589  1.00  0.00     0.484 C  
HETATM    2  C   UNL     1     -11.965  15.407  70.191  1.00  0.00    -0.378 C  
HETATM    3  C   UNL     1     -12.314  14.033  69.783  1.00  0.00    -0.344 C  
HETATM    4  C   UNL     1     -12.383  13.593  68.363  1.00  0.00     0.033 C  
HETATM    5  C   UNL     1     -11.342  12.973  69.283  1.00  0.00    -0.251 C  
HETATM    6  C   UNL     1     -11.857  17.103  68.159  1.00  0.00     1.144 C  
HETATM    7  N   UNL     1      -9.985  13.152  68.832  1.00  0.00    -0.434 NA 
HETATM    8  C   UNL     1      -9.071  13.893  69.340  1.00  0.00     0.712 C  
HETATM    9  C   UNL     1      -7.442  13.566  67.437  1.00  0.00    -0.136 C  
HETATM   10  C   UNL     1     -10.796  18.165  67.704  1.00  0.00    -0.260 C  
HETATM   11  H   UNL     1      -9.719  12.622  68.002  1.00  0.00     0.000 HD 
HETATM   12  C   UNL     1      -8.409  17.177  66.555  1.00  0.00    -0.274 C  
HETATM   13  C   UNL     1      -6.234  12.609  67.355  1.00  0.00    -0.149 C  
HETATM   14  C   UNL     1      -7.653  13.748  68.945  1.00  0.00    -0.040 C  
HETATM   15  O   UNL     1      -9.210  14.850  70.254  1.00  0.00    -0.179 OA 
HETATM   16  C   UNL     1      -7.287  14.983  66.853  1.00  0.00     0.294 C  
HETATM   17  C   UNL     1      -7.073  12.505  69.589  1.00  0.00     0.375 C  
HETATM   18  C   UNL     1      -9.762  15.128  66.505  1.00  0.00    -0.271 C  
HETATM   19  C   UNL     1      -9.718  18.024  66.579  1.00  0.00    -0.338 C  
HETATM   20  H   UNL     1      -8.532  15.398  70.631  1.00  0.00     0.000 HD 
HETATM   21  N   UNL     1      -8.474  15.728  66.717  1.00  0.00    -0.244 N  
HETATM   22  C   UNL     1      -5.781  12.407  68.810  1.00  0.00    -0.058 C  
HETATM   23  O   UNL     1      -6.176  15.479  66.682  1.00  0.00     0.138 OA 
ENDROOT
BRANCH   5  24
HETATM   24  C   UNL     1     -11.558  11.486  69.507  1.00  0.00    -0.333 C  
HETATM   25  H   UNL     1     -11.796  10.255  70.978  1.00  0.00     0.000 HD 
HETATM   26  O   UNL     1     -11.662  11.185  70.838  1.00  0.00    -0.246 OA 
BRANCH  24  27
HETATM   27  N   UNL     1     -11.739  10.648  68.575  1.00  0.00    -0.484 N  
HETATM   28  H   UNL     1     -12.619  10.629  68.060  1.00  0.00     0.000 HD 
BRANCH  27  29
HETATM   29  S   UNL     1     -10.563   9.615  68.214  1.00  0.00    -0.211 S  
HETATM   30  O   UNL     1      -9.292  10.219  68.608  1.00  0.00    -0.148 OA 
HETATM   31  O   UNL     1     -10.870   8.267  68.632  1.00  0.00    -0.083 OA 
BRANCH  29  32
HETATM   32  C   UNL     1     -10.504   9.556  66.353  1.00  0.00    -0.098 C  
HETATM   33  C   UNL     1     -10.607  10.925  65.725  1.00  0.00    -0.230 C  
HETATM   34  C   UNL     1      -9.303  10.172  65.689  1.00  0.00    -0.250 C  
ENDBRANCH  29  32
ENDBRANCH  27  29
ENDBRANCH  24  27
ENDBRANCH   5  24
BRANCH  22  35
HETATM   35  O   UNL     1      -5.140  11.187  69.143  1.00  0.00    -0.042 OA 
BRANCH  35  36
HETATM   36  C   UNL     1      -5.789  10.022  68.834  1.00  0.00    -0.034 A  
HETATM   37  C   UNL     1      -6.834   6.858  71.447  1.00  0.00    -0.061 A  
HETATM   38  C   UNL     1      -6.252   9.157  71.149  1.00  0.00    -0.070 A  
HETATM   39  C   UNL     1      -6.218   9.023  69.744  1.00  0.00    -0.038 A  
HETATM   40  C   UNL     1      -6.019   9.876  67.469  1.00  0.00    -0.054 A  
HETATM   41  C   UNL     1      -6.964   6.734  70.051  1.00  0.00    -0.062 A  
HETATM   42  C   UNL     1      -6.678   7.813  69.188  1.00  0.00    -0.048 A  
HETATM   43  C   UNL     1      -7.403   5.431  69.430  1.00  0.00    -0.065 C  
HETATM   44  C   UNL     1      -6.511   8.085  71.992  1.00  0.00    -0.055 A  
HETATM   45  C   UNL     1      -6.589   8.705  67.017  1.00  0.00    -0.058 A  
HETATM   46  N   UNL     1      -6.860   7.675  67.859  1.00  0.00    -0.066 NA 
BRANCH  37  47
HETATM   47  O   UNL     1      -7.113   5.759  72.220  1.00  0.00    -0.080 OA 
HETATM   48  C   UNL     1      -6.830   5.893  73.613  1.00  0.00    -0.080 C  
ENDBRANCH  37  47
BRANCH  45  49
HETATM   49  C   UNL     1      -6.948   8.534  65.594  1.00  0.00    -0.071 A  
HETATM   50  N   UNL     1      -7.235   7.378  65.015  1.00  0.00    -0.064 NA 
HETATM   51  C   UNL     1      -7.471   7.549  63.655  1.00  0.00    -0.105 A  
HETATM   52  C   UNL     1      -7.364   8.854  63.218  1.00  0.00    -0.098 A  
HETATM   53  C   UNL     1      -7.812   6.358  62.797  1.00  0.00    -0.100 C  
HETATM   54  C   UNL     1      -6.683   5.327  62.783  1.00  0.00    -0.026 C  
HETATM   55  S   UNL     1      -6.968   9.886  64.520  1.00  0.00    -0.133 SA 
HETATM   56  C   UNL     1      -9.128   5.713  63.229  1.00  0.00     0.550 C  
ENDBRANCH  45  49
ENDBRANCH  35  36
ENDBRANCH  22  35
TORSDOF 8
ENDMDL
MODEL       47
REMARK 921   NORMALIZED FREE ENERGY PREDICTED BY IDOCK:   -0.50 KCAL/MOL
REMARK 922        TOTAL FREE ENERGY PREDICTED BY IDOCK:   -3.30 KCAL/MOL
REMARK 923 INTER-LIGAND FREE ENERGY PREDICTED BY IDOCK:   -1.89 KCAL/MOL
REMARK 924 INTRA-LIGAND FREE ENERGY PREDICTED BY IDOCK:   -1.41 KCAL/MOL
REMARK 927      BINDING AFFINITY PREDICTED BY RF-SCORE:    0.00 PKD
ROOT
HETATM    1  C   UNL     1      -7.042   1.781  66.551  1.00  0.00    -0.047 C  
HETATM    2  C   UNL     1      -7.788   1.574  67.661  1.00  0.00    -0.059 C  
HETATM    3  C   UNL     1      -7.687   1.860  69.105  1.00  0.00    -0.045 C  
HETATM    4  C   UNL     1      -6.621   2.713  69.697  1.00  0.00    -0.033 C  
HETATM    5  C   UNL     1      -8.072   3.165  69.787  1.00  0.00    -0.044 C  
HETATM    6  C   UNL     1      -5.681   2.396  66.284  1.00  0.00    -0.021 C  
HETATM    7  N   UNL     1      -8.321   4.448  69.179  1.00  0.00    -0.078 NA 
HETATM    8  C   UNL     1      -8.970   4.703  68.104  1.00  0.00    -0.114 C  
HETATM    9  C   UNL     1      -8.317   7.142  68.028  1.00  0.00    -0.119 C  
HETATM   10  C   UNL     1      -5.520   3.233  64.968  1.00  0.00    -0.010 C  
HETATM   11  H   UNL     1      -7.931   5.255  69.666  1.00  0.00     0.000 HD 
HETATM   12  C   UNL     1      -6.052   6.005  65.142  1.00  0.00    -0.029 C  
HETATM   13  C   UNL     1      -9.129   8.373  68.483  1.00  0.00    -0.136 C  
HETATM   14  C   UNL     1      -9.392   6.081  67.766  1.00  0.00    -0.106 C  
HETATM   15  O   UNL     1      -9.367   3.846  67.167  1.00  0.00    -0.163 OA 
HETATM   16  C   UNL     1      -7.498   7.252  66.728  1.00  0.00    -0.092 C  
HETATM   17  C   UNL     1     -10.571   6.475  68.631  1.00  0.00    -0.289 C  
HETATM   18  C   UNL     1      -5.946   5.460  67.534  1.00  0.00    -0.025 C  
HETATM   19  C   UNL     1      -5.175   4.754  64.833  1.00  0.00    -0.013 C  
HETATM   20  H   UNL     1      -9.849   4.036  66.370  1.00  0.00     0.000 HD 
HETATM   21  N   UNL     1      -6.580   6.212  66.487  1.00  0.00    -0.053 N  
HETATM   22  C   UNL     1     -10.602   7.959  68.340  1.00  0.00    -0.107 C  
HETATM   23  O   UNL     1      -7.762   8.106  65.885  1.00  0.00    -0.086 OA 
ENDROOT
BRANCH   5  24
HETATM   24  C   UNL     1      -8.587   3.228  71.216  1.00  0.00    -0.068 C  
HETATM   25  H   UNL     1     -10.271   3.389  72.150  1.00  0.00     0.000 HD 
HETATM   26  O   UNL     1      -9.949   3.349  71.257  1.00  0.00    -0.163 OA 
BRANCH  24  27
HETATM   27  N   UNL     1      -7.858   3.067  72.239  1.00  0.00    -0.054 N  
HETATM   28  H   UNL     1      -7.474   2.149  72.461  1.00  0.00     0.000 HD 
BRANCH  27  29
HETATM   29  S   UNL     1      -7.549   4.330  73.183  1.00  0.00    -0.082 S  
HETATM   30  O   UNL     1      -8.663   4.483  74.116  1.00  0.00    -0.103 OA 
HETATM   31  O   UNL     1      -6.195   4.319  73.686  1.00  0.00    -0.029 OA 
BRANCH  29  32
HETATM   32  C   UNL     1      -7.652   5.821  72.072  1.00  0.00    -0.101 C  
HETATM   33  C   UNL     1      -6.943   7.024  72.647  1.00  0.00    -0.069 C  
HETATM   34  C   UNL     1      -6.368   6.303  71.456  1.00  0.00    -0.045 C  
ENDBRANCH  29  32
ENDBRANCH  27  29
ENDBRANCH  24  27
ENDBRANCH   5  24
BRANCH  22  35
HETATM   35  O   UNL     1     -11.551   8.571  69.197  1.00  0.00     0.558 OA 
BRANCH  35  36
HETATM   36  C   UNL     1     -11.676   9.933  69.138  1.00  0.00     0.227 A  
HETATM   37  C   UNL     1     -13.584  12.490  71.921  1.00  0.00    -0.180 A  
HETATM   38  C   UNL     1     -12.547  10.389  71.452  1.00  0.00    -0.539 A  
HETATM   39  C   UNL     1     -12.231  10.778  70.132  1.00  0.00    -0.425 A  
HETATM   40  C   UNL     1     -11.185  10.471  67.952  1.00  0.00    -0.358 A  
HETATM   41  C   UNL     1     -13.143  12.961  70.670  1.00  0.00     0.221 A  
HETATM   42  C   UNL     1     -12.450  12.123  69.773  1.00  0.00     0.115 A  
HETATM   43  C   UNL     1     -13.414  14.383  70.242  1.00  0.00     0.489 C  
HETATM   44  C   UNL     1     -13.251  11.211  72.321  1.00  0.00    -0.097 A  
HETATM   45  C   UNL     1     -11.329  11.824  67.731  1.00  0.00    -0.289 A  
HETATM   46  N   UNL     1     -11.999  12.619  68.603  1.00  0.00    -0.282 NA 
BRANCH  37  47
HETATM   47  O   UNL     1     -14.270  13.361  72.733  1.00  0.00    -0.693 OA 
HETATM   48  C   UNL     1     -13.465  14.223  73.536  1.00  0.00     1.049 C  
ENDBRANCH  37  47
BRANCH  45  49
HETATM   49  C   UNL     1     -10.739  12.466  66.538  1.00  0.00    -0.236 A  
HETATM   50  N   UNL     1     -10.998  13.700  66.131  1.00  0.00    -0.283 NA 
HETATM   51  C   UNL     1     -10.330  13.982  64.944  1.00  0.00    -0.409 A  
HETATM   52  C   UNL     1      -9.556  12.943  64.466  1.00  0.00     0.323 A  
HETATM   53  C   UNL     1     -10.487  15.334  64.298  1.00  0.00     0.915 C  
HETATM   54  C   UNL     1     -11.938  15.609  63.903  1.00  0.00     0.248 C  
HETATM   55  S   UNL     1      -9.657  11.596  65.510  1.00  0.00    -0.190 SA 
HETATM   56  C   UNL     1      -9.950  16.451  65.193  1.00  0.00     0.330 C  
ENDBRANCH  45  49
ENDBRANCH  35  36
ENDBRANCH  22  35
TORSDOF 8
ENDMDL
MODEL       48
REMARK 921   NORMALIZED FREE ENERGY PREDICTED BY IDOCK:   -0.38 KCAL/MOL
REMARK 922        TOTAL FREE ENERGY PREDICTED BY IDOCK:   -3.11 KCAL/MOL
REMARK 923 INTER-LIGAND FREE ENERGY PREDICTED BY IDOCK:   -1.29 KCAL/MOL
REMARK 924 INTRA-LIGAND FREE ENERGY PREDICTED BY IDOCK:   -1.82 KCAL/MOL
REMARK 927      BINDING AFFINITY PREDICTED BY RF-SCORE:    0.00 PKD
ROOT
HETATM    1  C   UNL     1     -12.534  14.829  68.055  1.00  0.00     0.352 C  
HETATM    2  C   UNL     1     -11.778  14.312  67.057  1.00  0.00    -0.427 C  
HETATM    3  C   UNL     1     -10.372  13.913  66.858  1.00  0.00    -0.266 C  
HETATM    4  C   UNL     1      -9.373  13.855  67.959  1.00  0.00    -0.204 C  
HETATM    5  C   UNL     1      -9.760  12.572  67.239  1.00  0.00    -0.202 C  
HETATM    6  C   UNL     1     -12.252  15.288  69.473  1.00  0.00    -0.273 C  
HETATM    7  N   UNL     1     -10.306  11.559  68.107  1.00  0.00    -0.188 NA 
HETATM    8  C   UNL     1     -11.514  11.138  68.172  1.00  0.00    -0.303 C  
HETATM    9  C   UNL     1     -11.149   9.747  70.249  1.00  0.00    -0.349 C  
HETATM   10  C   UNL     1     -13.352  14.993  70.552  1.00  0.00    -0.177 C  
HETATM   11  H   UNL     1      -9.647  11.122  68.750  1.00  0.00     0.000 HD 
HETATM   12  C   UNL     1     -13.142  12.550  71.960  1.00  0.00    -0.366 C  
HETATM   13  C   UNL     1     -10.906   8.227  70.362  1.00  0.00    -0.241 C  
HETATM   14  C   UNL     1     -11.861   9.897  68.899  1.00  0.00     0.410 C  
HETATM   15  O   UNL     1     -12.601  11.687  67.634  1.00  0.00     0.453 OA 
HETATM   16  C   UNL     1     -12.064  10.416  71.293  1.00  0.00    -0.362 C  
HETATM   17  C   UNL     1     -11.435   8.696  68.081  1.00  0.00     1.145 C  
HETATM   18  C   UNL     1     -10.920  12.610  70.915  1.00  0.00     3.089 C  
HETATM   19  C   UNL     1     -13.228  14.102  71.832  1.00  0.00    -0.468 C  
HETATM   20  H   UNL     1     -13.497  11.375  67.683  1.00  0.00     0.000 HD 
HETATM   21  N   UNL     1     -12.055  11.823  71.309  1.00  0.00     0.024 N  
HETATM   22  C   UNL     1     -11.591   7.617  69.129  1.00  0.00     0.786 C  
HETATM   23  O   UNL     1     -12.871   9.755  71.942  1.00  0.00    -0.384 OA 
ENDROOT
BRANCH   5  24
HETATM   24  C   UNL     1      -8.604  11.947  66.476  1.00  0.00    -0.126 C  
HETATM   25  H   UNL     1      -6.672  11.991  66.469  1.00  0.00     0.000 HD 
HETATM   26  O   UNL     1      -7.394  12.382  66.946  1.00  0.00    -0.066 OA 
BRANCH  24  27
HETATM   27  N   UNL     1      -8.739  11.045  65.598  1.00  0.00    -0.249 N  
HETATM   28  H   UNL     1      -8.078  10.270  65.546  1.00  0.00     0.000 HD 
BRANCH  27  29
HETATM   29  S   UNL     1      -9.968  11.138  64.567  1.00  0.00    -0.322 S  
HETATM   30  O   UNL     1     -11.118  10.468  65.170  1.00  0.00     0.208 OA 
HETATM   31  O   UNL     1     -10.123  12.465  64.018  1.00  0.00    -0.352 OA 
BRANCH  29  32
HETATM   32  C   UNL     1      -9.492  10.058  63.125  1.00  0.00    -0.184 C  
HETATM   33  C   UNL     1      -8.073  10.296  62.664  1.00  0.00    -0.164 C  
HETATM   34  C   UNL     1      -8.436   9.017  63.372  1.00  0.00    -0.176 C  
ENDBRANCH  29  32
ENDBRANCH  27  29
ENDBRANCH  24  27
ENDBRANCH   5  24
BRANCH  22  35
HETATM   35  O   UNL     1     -11.074   6.403  68.613  1.00  0.00    -0.317 OA 
BRANCH  35  36
HETATM   36  C   UNL     1     -10.034   6.480  67.726  1.00  0.00    -0.131 A  
HETATM   37  C   UNL     1      -9.337   4.057  64.324  1.00  0.00    -0.158 A  
HETATM   38  C   UNL     1     -10.871   4.917  65.942  1.00  0.00    -0.140 A  
HETATM   39  C   UNL     1      -9.876   5.723  66.538  1.00  0.00    -0.193 A  
HETATM   40  C   UNL     1      -9.077   7.420  68.095  1.00  0.00    -0.131 A  
HETATM   41  C   UNL     1      -8.368   4.964  64.793  1.00  0.00    -0.136 A  
HETATM   42  C   UNL     1      -8.630   5.816  65.886  1.00  0.00    -0.146 A  
HETATM   43  C   UNL     1      -7.008   5.043  64.146  1.00  0.00    -0.049 C  
HETATM   44  C   UNL     1     -10.601   4.064  64.882  1.00  0.00    -0.148 A  
HETATM   45  C   UNL     1      -7.936   7.535  67.329  1.00  0.00    -0.118 A  
HETATM   46  N   UNL     1      -7.698   6.708  66.279  1.00  0.00    -0.096 NA 
BRANCH  37  47
HETATM   47  O   UNL     1      -9.003   3.246  63.267  1.00  0.00    -0.092 OA 
HETATM   48  C   UNL     1      -9.795   2.070  63.115  1.00  0.00    -0.106 C  
ENDBRANCH  37  47
BRANCH  45  49
HETATM   49  C   UNL     1      -6.932   8.582  67.613  1.00  0.00    -0.078 A  
HETATM   50  N   UNL     1      -6.888   9.314  68.715  1.00  0.00    -0.060 NA 
HETATM   51  C   UNL     1      -5.861  10.251  68.648  1.00  0.00    -0.037 A  
HETATM   52  C   UNL     1      -5.127  10.208  67.479  1.00  0.00    -0.037 A  
HETATM   53  C   UNL     1      -5.631  11.197  69.798  1.00  0.00    -0.062 C  
HETATM   54  C   UNL     1      -6.844  12.093  70.047  1.00  0.00     0.463 C  
HETATM   55  S   UNL     1      -5.720   8.981  66.449  1.00  0.00    -0.051 SA 
HETATM   56  C   UNL     1      -5.242  10.447  71.073  1.00  0.00    -0.083 C  
ENDBRANCH  45  49
ENDBRANCH  35  36
ENDBRANCH  22  35
TORSDOF 8
ENDMDL
MODEL       49
REMARK 921   NORMALIZED FREE ENERGY PREDICTED BY IDOCK:    0.06 KCAL/MOL
REMARK 922        TOTAL FREE ENERGY PREDICTED BY IDOCK:   -2.47 KCAL/MOL
REMARK 923 INTER-LIGAND FREE ENERGY PREDICTED BY IDOCK:   -3.09 KCAL/MOL
REMARK 924 INTRA-LIGAND FREE ENERGY PREDICTED BY IDOCK:    0.62 KCAL/MOL
REMARK 927      BINDING AFFINITY PREDICTED BY RF-SCORE:    0.00 PKD
ROOT
HETATM    1  C   UNL     1      -9.258   3.809  72.579  1.00  0.00    -0.144 C  
HETATM    2  C   UNL     1      -8.987   5.106  72.859  1.00  0.00    -0.120 C  
HETATM    3  C   UNL     1      -7.912   6.075  72.572  1.00  0.00    -0.105 C  
HETATM    4  C   UNL     1      -6.794   5.802  71.628  1.00  0.00    -0.067 C  
HETATM    5  C   UNL     1      -7.779   6.916  71.310  1.00  0.00    -0.092 C  
HETATM    6  C   UNL     1      -8.525   2.704  71.842  1.00  0.00    -0.075 C  
HETATM    7  N   UNL     1      -8.463   6.748  70.052  1.00  0.00    -0.138 NA 
HETATM    8  C   UNL     1      -9.695   6.462  69.851  1.00  0.00    -0.166 C  
HETATM    9  C   UNL     1      -9.435   6.114  67.362  1.00  0.00    -0.118 C  
HETATM   10  C   UNL     1      -9.393   1.717  70.986  1.00  0.00    -0.180 C  
HETATM   11  H   UNL     1      -7.892   6.873  69.216  1.00  0.00     0.000 HD 
HETATM   12  C   UNL     1      -9.812   2.402  68.275  1.00  0.00     0.414 C  
HETATM   13  C   UNL     1      -9.761   7.090  66.212  1.00  0.00    -0.053 C  
HETATM   14  C   UNL     1     -10.314   6.613  68.516  1.00  0.00    -0.216 C  
HETATM   15  O   UNL     1     -10.586   6.021  70.735  1.00  0.00    -0.228 OA 
HETATM   16  C   UNL     1      -9.784   4.625  67.172  1.00  0.00    -0.192 C  
HETATM   17  C   UNL     1     -10.558   8.082  68.234  1.00  0.00    -0.155 C  
HETATM   18  C   UNL     1      -8.013   3.982  68.820  1.00  0.00    -0.071 C  
HETATM   19  C   UNL     1      -9.337   1.481  69.440  1.00  0.00    -0.167 C  
HETATM   20  H   UNL     1     -11.500   5.809  70.586  1.00  0.00     0.000 HD 
HETATM   21  N   UNL     1      -9.245   3.739  68.124  1.00  0.00    -0.148 N  
HETATM   22  C   UNL     1     -10.875   7.998  66.758  1.00  0.00     0.201 C  
HETATM   23  O   UNL     1     -10.618   4.272  66.341  1.00  0.00     0.017 OA 
ENDROOT
BRANCH   5  24
HETATM   24  C   UNL     1      -7.136   8.293  71.301  1.00  0.00    -0.063 C  
HETATM   25  H   UNL     1      -5.392   9.087  71.555  1.00  0.00     0.000 HD 
HETATM   26  O   UNL     1      -5.794   8.226  71.561  1.00  0.00    -0.034 OA 
BRANCH  24  27
HETATM   27  N   UNL     1      -7.742   9.356  70.975  1.00  0.00    -0.072 N  
HETATM   28  H   UNL     1      -8.703   9.517  71.277  1.00  0.00     0.000 HD 
BRANCH  27  29
HETATM   29  S   UNL     1      -6.977  10.448  70.079  1.00  0.00    -0.135 S  
HETATM   30  O   UNL     1      -6.676   9.841  68.784  1.00  0.00    -0.050 OA 
HETATM   31  O   UNL     1      -7.615  11.742  70.128  1.00  0.00     0.903 OA 
BRANCH  29  32
HETATM   32  C   UNL     1      -5.316  10.683  70.890  1.00  0.00    -0.100 C  
HETATM   33  C   UNL     1      -5.175  12.039  71.540  1.00  0.00     0.009 C  
HETATM   34  C   UNL     1      -5.301  10.802  72.389  1.00  0.00     0.430 C  
ENDBRANCH  29  32
ENDBRANCH  27  29
ENDBRANCH  24  27
ENDBRANCH   5  24
BRANCH  22  35
HETATM   35  O   UNL     1     -10.975   9.313  66.238  1.00  0.00     0.322 OA 
BRANCH  35  36
HETATM   36  C   UNL     1      -9.812  10.008  66.038  1.00  0.00    -0.257 A  
HETATM   37  C   UNL     1      -6.435   8.827  63.774  1.00  0.00    -0.087 A  
HETATM   38  C   UNL     1      -8.768   8.597  64.237  1.00  0.00     0.022 A  
HETATM   39  C   UNL     1      -8.736   9.636  65.194  1.00  0.00    -0.192 A  
HETATM   40  C   UNL     1      -9.756  11.190  66.771  1.00  0.00    -0.220 A  
HETATM   41  C   UNL     1      -6.406   9.966  64.600  1.00  0.00    -0.117 A  
HETATM   42  C   UNL     1      -7.553  10.394  65.301  1.00  0.00    -0.118 A  
HETATM   43  C   UNL     1      -5.136  10.761  64.773  1.00  0.00    -0.135 C  
HETATM   44  C   UNL     1      -7.631   8.166  63.569  1.00  0.00    -0.136 A  
HETATM   45  C   UNL     1      -8.600  11.941  66.724  1.00  0.00    -0.181 A  
HETATM   46  N   UNL     1      -7.504  11.517  66.045  1.00  0.00     0.199 NA 
BRANCH  37  47
HETATM   47  O   UNL     1      -5.274   8.461  63.138  1.00  0.00    -0.060 OA 
HETATM   48  C   UNL     1      -5.207   7.104  62.704  1.00  0.00    -0.033 C  
ENDBRANCH  37  47
BRANCH  45  49
HETATM   49  C   UNL     1      -8.518  13.253  67.400  1.00  0.00    -0.206 A  
HETATM   50  N   UNL     1      -7.594  14.172  67.166  1.00  0.00    -0.058 NA 
HETATM   51  C   UNL     1      -7.760  15.267  68.008  1.00  0.00    -0.126 A  
HETATM   52  C   UNL     1      -8.829  15.162  68.875  1.00  0.00    -0.205 A  
HETATM   53  C   UNL     1      -6.811  16.434  67.917  1.00  0.00    -0.152 C  
HETATM   54  C   UNL     1      -5.373  16.022  68.234  1.00  0.00    -0.107 C  
HETATM   55  S   UNL     1      -9.644  13.680  68.638  1.00  0.00    -0.027 SA 
HETATM   56  C   UNL     1      -6.889  17.117  66.552  1.00  0.00    -0.295 C  
ENDBRANCH  45  49
ENDBRANCH  35  36
ENDBRANCH  22  35
TORSDOF 8
ENDMDL
MODEL       50
REMARK 921   NORMALIZED FREE ENERGY PREDICTED BY IDOCK:    0.80 KCAL/MOL
REMARK 922        TOTAL FREE ENERGY PREDICTED BY IDOCK:   -1.38 KCAL/MOL
REMARK 923 INTER-LIGAND FREE ENERGY PREDICTED BY IDOCK:   -3.82 KCAL/MOL
REMARK 924 INTRA-LIGAND FREE ENERGY PREDICTED BY IDOCK:    2.44 KCAL/MOL
REMARK 927      BINDING AFFINITY PREDICTED BY RF-SCORE:    0.00 PKD
ROOT
HETATM    1  C   UNL     1      -6.138  18.979  65.416  1.00  0.00    -0.283 C  
HETATM    2  C   UNL     1      -5.602  17.740  65.514  1.00  0.00    -0.064 C  
HETATM    3  C   UNL     1      -5.130  16.845  66.588  1.00  0.00    -0.074 C  
HETATM    4  C   UNL     1      -5.323  17.130  68.036  1.00  0.00    -0.118 C  
HETATM    5  C   UNL     1      -5.997  15.912  67.422  1.00  0.00    -0.092 C  
HETATM    6  C   UNL     1      -6.473  20.075  66.410  1.00  0.00    -0.221 C  
HETATM    7  N   UNL     1      -7.433  15.912  67.554  1.00  0.00    -0.151 NA 
HETATM    8  C   UNL     1      -8.313  16.073  66.638  1.00  0.00    -0.296 C  
HETATM    9  C   UNL     1     -10.264  16.226  68.235  1.00  0.00    -0.253 C  
HETATM   10  C   UNL     1      -7.776  20.907  66.146  1.00  0.00     0.333 C  
HETATM   11  H   UNL     1      -7.792  15.765  68.497  1.00  0.00     0.000 HD 
HETATM   12  C   UNL     1     -10.162  19.957  67.328  1.00  0.00    -0.433 C  
HETATM   13  C   UNL     1     -11.277  15.130  68.630  1.00  0.00    -0.295 C  
HETATM   14  C   UNL     1      -9.739  15.755  66.873  1.00  0.00    -0.240 C  
HETATM   15  O   UNL     1      -8.128  16.512  65.395  1.00  0.00     0.547 OA 
HETATM   16  C   UNL     1     -10.792  17.658  68.018  1.00  0.00    -0.234 C  
HETATM   17  C   UNL     1      -9.931  14.252  66.863  1.00  0.00    -0.263 C  
HETATM   18  C   UNL     1      -8.530  18.590  68.551  1.00  0.00    -0.329 C  
HETATM   19  C   UNL     1      -9.049  21.013  67.050  1.00  0.00    -0.011 C  
HETATM   20  H   UNL     1      -8.782  16.631  64.716  1.00  0.00     0.000 HD 
HETATM   21  N   UNL     1      -9.815  18.666  67.913  1.00  0.00    -0.315 N  
HETATM   22  C   UNL     1     -11.334  14.181  67.422  1.00  0.00    -0.327 C  
HETATM   23  O   UNL     1     -11.980  17.865  67.782  1.00  0.00     1.462 OA 
ENDROOT
BRANCH   5  24
HETATM   24  C   UNL     1      -5.485  14.600  67.991  1.00  0.00    -0.122 C  
HETATM   25  H   UNL     1      -4.895  12.871  67.360  1.00  0.00     0.000 HD 
HETATM   26  O   UNL     1      -5.216  13.691  67.004  1.00  0.00    -0.033 OA 
BRANCH  24  27
HETATM   27  N   UNL     1      -5.225  14.412  69.217  1.00  0.00    -0.079 N  
HETATM   28  H   UNL     1      -4.282  14.562  69.574  1.00  0.00     0.000 HD 
BRANCH  27  29
HETATM   29  S   UNL     1      -6.402  13.935  70.200  1.00  0.00    -0.031 S  
HETATM   30  O   UNL     1      -5.912  14.027  71.573  1.00  0.00    -0.229 OA 
HETATM   31  O   UNL     1      -7.675  14.525  69.857  1.00  0.00     0.101 OA 
BRANCH  29  32
HETATM   32  C   UNL     1      -6.603  12.109  69.889  1.00  0.00     0.074 C  
HETATM   33  C   UNL     1      -5.375  11.488  69.265  1.00  0.00    -0.047 C  
HETATM   34  C   UNL     1      -5.736  11.181  70.695  1.00  0.00    -0.125 C  
ENDBRANCH  29  32
ENDBRANCH  27  29
ENDBRANCH  24  27
ENDBRANCH   5  24
BRANCH  22  35
HETATM   35  O   UNL     1     -11.660  12.822  67.659  1.00  0.00    -0.315 OA 
BRANCH  35  36
HETATM   36  C   UNL     1     -12.097  12.482  68.912  1.00  0.00    -0.122 A  
HETATM   37  C   UNL     1     -13.622  15.045  71.917  1.00  0.00    -0.420 A  
HETATM   38  C   UNL     1     -13.157  14.654  69.606  1.00  0.00     0.623 A  
HETATM   39  C   UNL     1     -12.697  13.344  69.864  1.00  0.00     0.124 A  
HETATM   40  C   UNL     1     -11.899  11.137  69.207  1.00  0.00    -0.422 A  
HETATM   41  C   UNL     1     -13.322  13.696  72.182  1.00  0.00    -0.587 A  
HETATM   42  C   UNL     1     -12.877  12.829  71.163  1.00  0.00    -0.226 A  
HETATM   43  C   UNL     1     -13.455  13.136  73.577  1.00  0.00     3.436 C  
HETATM   44  C   UNL     1     -13.571  15.509  70.617  1.00  0.00    -0.003 A  
HETATM   45  C   UNL     1     -12.217  10.684  70.469  1.00  0.00    -0.358 A  
HETATM   46  N   UNL     1     -12.645  11.530  71.441  1.00  0.00    -0.348 NA 
BRANCH  37  47
HETATM   47  O   UNL     1     -14.032  15.833  72.965  1.00  0.00    -0.526 OA 
HETATM   48  C   UNL     1     -13.001  16.274  73.847  1.00  0.00    -0.303 C  
ENDBRANCH  37  47
BRANCH  45  49
HETATM   49  C   UNL     1     -12.123   9.249  70.809  1.00  0.00    -0.171 A  
HETATM   50  N   UNL     1     -11.172   8.428  70.388  1.00  0.00    -0.244 NA 
HETATM   51  C   UNL     1     -11.403   7.131  70.835  1.00  0.00    -0.286 A  
HETATM   52  C   UNL     1     -12.540   6.988  71.606  1.00  0.00    -0.380 A  
HETATM   53  C   UNL     1     -10.444   6.029  70.468  1.00  0.00    -0.303 C  
HETATM   54  C   UNL     1     -10.370   5.821  68.955  1.00  0.00    -0.313 C  
HETATM   55  S   UNL     1     -13.332   8.490  71.781  1.00  0.00    -0.372 SA 
HETATM   56  C   UNL     1      -9.051   6.280  71.047  1.00  0.00    -0.156 C  
ENDBRANCH  45  49
ENDBRANCH  35  36
ENDBRANCH  22  35
TORSDOF 8
ENDMDL
MODEL       51
REMARK 921   NORMALIZED FREE ENERGY PREDICTED BY IDOCK:    0.81 KCAL/MOL
REMARK 922        TOTAL FREE ENERGY PREDICTED BY IDOCK:   -1.37 KCAL/MOL
REMARK 923 INTER-LIGAND FREE ENERGY PREDICTED BY IDOCK:    0.82 KCAL/MOL
REMARK 924 INTRA-LIGAND FREE ENERGY PREDICTED BY IDOCK:   -2.19 KCAL/MOL
REMARK 927      BINDING AFFINITY PREDICTED BY RF-SCORE:    0.00 PKD
ROOT
HETATM    1  C   UNL     1     -12.002  14.592  65.010  1.00  0.00    -0.364 C  
HETATM    2  C   UNL     1     -11.552  14.813  66.268  1.00  0.00    -0.298 C  
HETATM    3  C   UNL     1     -11.663  14.164  67.588  1.00  0.00    -0.421 C  
HETATM    4  C   UNL     1     -12.279  12.825  67.793  1.00  0.00     0.011 C  
HETATM    5  C   UNL     1     -10.801  13.017  68.096  1.00  0.00    -0.247 C  
HETATM    6  C   UNL     1     -12.898  13.549  64.369  1.00  0.00     0.033 C  
HETATM    7  N   UNL     1      -9.933  12.151  67.338  1.00  0.00    -0.198 NA 
HETATM    8  C   UNL     1      -9.130  12.466  66.390  1.00  0.00    -0.149 C  
HETATM    9  C   UNL     1      -8.591  10.080  65.759  1.00  0.00    -0.156 C  
HETATM   10  C   UNL     1     -12.521  13.075  62.922  1.00  0.00     0.345 C  
HETATM   11  H   UNL     1      -9.962  11.163  67.587  1.00  0.00     0.000 HD 
HETATM   12  C   UNL     1     -10.808  10.835  62.715  1.00  0.00     1.023 C  
HETATM   13  C   UNL     1      -7.360   9.234  66.148  1.00  0.00    -0.095 C  
HETATM   14  C   UNL     1      -8.095  11.524  65.910  1.00  0.00     0.221 C  
HETATM   15  O   UNL     1      -9.070  13.613  65.717  1.00  0.00    -0.403 OA 
HETATM   16  C   UNL     1      -9.129   9.961  64.320  1.00  0.00    -0.253 C  
HETATM   17  C   UNL     1      -6.963  11.461  66.916  1.00  0.00    -0.140 C  
HETATM   18  C   UNL     1     -11.401  10.676  65.093  1.00  0.00     0.891 C  
HETATM   19  C   UNL     1     -12.121  11.636  62.456  1.00  0.00     1.422 C  
HETATM   20  H   UNL     1      -8.475  13.846  65.015  1.00  0.00     0.000 HD 
HETATM   21  N   UNL     1     -10.388  10.544  64.083  1.00  0.00    -0.235 N  
HETATM   22  C   UNL     1      -6.230  10.250  66.383  1.00  0.00    -0.076 C  
HETATM   23  O   UNL     1      -8.419   9.535  63.413  1.00  0.00    -0.169 OA 
ENDROOT
BRANCH   5  24
HETATM   24  C   UNL     1     -10.466  12.826  69.566  1.00  0.00     0.566 C  
HETATM   25  H   UNL     1      -9.445  13.703  70.953  1.00  0.00     0.000 HD 
HETATM   26  O   UNL     1      -9.654  13.823  70.034  1.00  0.00     1.459 OA 
BRANCH  24  27
HETATM   27  N   UNL     1     -10.973  11.924  70.297  1.00  0.00     0.058 N  
HETATM   28  H   UNL     1     -11.558  12.172  71.094  1.00  0.00     0.000 HD 
BRANCH  27  29
HETATM   29  S   UNL     1     -10.680  10.383  69.950  1.00  0.00    -0.258 S  
HETATM   30  O   UNL     1     -11.763   9.895  69.098  1.00  0.00     0.024 OA 
HETATM   31  O   UNL     1      -9.309  10.161  69.556  1.00  0.00    -0.210 OA 
BRANCH  29  32
HETATM   32  C   UNL     1     -10.888   9.462  71.556  1.00  0.00    -0.328 C  
HETATM   33  C   UNL     1     -11.418   8.061  71.358  1.00  0.00    -0.293 C  
HETATM   34  C   UNL     1      -9.989   8.278  71.784  1.00  0.00    -0.284 C  
ENDBRANCH  29  32
ENDBRANCH  27  29
ENDBRANCH  24  27
ENDBRANCH   5  24
BRANCH  22  35
HETATM   35  O   UNL     1      -5.203   9.902  67.295  1.00  0.00    -0.038 OA 
BRANCH  35  36
HETATM   36  C   UNL     1      -5.438  10.110  68.628  1.00  0.00    -0.038 A  
HETATM   37  C   UNL     1      -6.313   7.218  71.594  1.00  0.00    -0.036 A  
HETATM   38  C   UNL     1      -5.387   7.735  69.452  1.00  0.00    -0.023 A  
HETATM   39  C   UNL     1      -5.629   9.117  69.620  1.00  0.00    -0.033 A  
HETATM   40  C   UNL     1      -5.477  11.460  68.966  1.00  0.00    -0.039 A  
HETATM   41  C   UNL     1      -6.419   8.597  71.856  1.00  0.00    -0.074 A  
HETATM   42  C   UNL     1      -6.063   9.558  70.886  1.00  0.00    -0.077 A  
HETATM   43  C   UNL     1      -6.933   9.093  73.185  1.00  0.00     0.533 C  
HETATM   44  C   UNL     1      -5.762   6.794  70.401  1.00  0.00    -0.023 A  
HETATM   45  C   UNL     1      -5.791  11.806  70.263  1.00  0.00    -0.163 A  
HETATM   46  N   UNL     1      -6.131  10.871  71.187  1.00  0.00    -0.335 NA 
BRANCH  37  47
HETATM   47  O   UNL     1      -6.696   6.344  72.580  1.00  0.00    -0.063 OA 
HETATM   48  C   UNL     1      -7.456   5.216  72.147  1.00  0.00    -0.093 C  
ENDBRANCH  37  47
BRANCH  45  49
HETATM   49  C   UNL     1      -5.749  13.216  70.705  1.00  0.00    -0.170 A  
HETATM   50  N   UNL     1      -6.068  14.258  69.954  1.00  0.00    -0.130 NA 
HETATM   51  C   UNL     1      -5.865  15.449  70.645  1.00  0.00    -0.025 A  
HETATM   52  C   UNL     1      -5.395  15.286  71.933  1.00  0.00     0.115 A  
HETATM   53  C   UNL     1      -6.161  16.765  69.974  1.00  0.00    -0.139 C  
HETATM   54  C   UNL     1      -5.290  16.980  68.736  1.00  0.00    -0.133 C  
HETATM   55  S   UNL     1      -5.205  13.628  72.292  1.00  0.00    -0.117 SA 
HETATM   56  C   UNL     1      -7.642  16.896  69.622  1.00  0.00     0.445 C  
ENDBRANCH  45  49
ENDBRANCH  35  36
ENDBRANCH  22  35
TORSDOF 8
ENDMDL
MODEL       52
REMARK 921   NORMALIZED FREE ENERGY PREDICTED BY IDOCK:    1.40 KCAL/MOL
REMARK 922        TOTAL FREE ENERGY PREDICTED BY IDOCK:   -0.51 KCAL/MOL
REMARK 923 INTER-LIGAND FREE ENERGY PREDICTED BY IDOCK:    0.45 KCAL/MOL
REMARK 924 INTRA-LIGAND FREE ENERGY PREDICTED BY IDOCK:   -0.96 KCAL/MOL
REMARK 927      BINDING AFFINITY PREDICTED BY RF-SCORE:    0.00 PKD
ROOT
HETATM    1  C   UNL     1     -11.938  14.655  64.928  1.00  0.00    -0.402 C  
HETATM    2  C   UNL     1     -11.416  14.928  66.148  1.00  0.00    -0.272 C  
HETATM    3  C   UNL     1     -11.477  14.355  67.506  1.00  0.00    -0.370 C  
HETATM    4  C   UNL     1     -12.124  13.052  67.817  1.00  0.00    -0.244 C  
HETATM    5  C   UNL     1     -10.626  13.208  68.033  1.00  0.00    -0.236 C  
HETATM    6  C   UNL     1     -12.900  13.611  64.393  1.00  0.00     0.070 C  
HETATM    7  N   UNL     1      -9.828  12.273  67.280  1.00  0.00    -0.203 NA 
HETATM    8  C   UNL     1      -9.067  12.508  66.277  1.00  0.00    -0.069 C  
HETATM    9  C   UNL     1      -8.639  10.074  65.754  1.00  0.00    -0.156 C  
HETATM   10  C   UNL     1     -12.616  13.046  62.958  1.00  0.00     0.186 C  
HETATM   11  H   UNL     1      -9.876  11.301  67.586  1.00  0.00     0.000 HD 
HETATM   12  C   UNL     1     -10.989  10.740  62.789  1.00  0.00     1.207 C  
HETATM   13  C   UNL     1      -7.417   9.207  66.126  1.00  0.00    -0.095 C  
HETATM   14  C   UNL     1      -8.090  11.505  65.798  1.00  0.00     0.306 C  
HETATM   15  O   UNL     1      -9.006  13.613  65.539  1.00  0.00     0.036 OA 
HETATM   16  C   UNL     1      -9.256   9.896  64.353  1.00  0.00    -0.264 C  
HETATM   17  C   UNL     1      -6.909  11.457  66.746  1.00  0.00    -0.132 C  
HETATM   18  C   UNL     1     -11.460  10.730  65.200  1.00  0.00     0.889 C  
HETATM   19  C   UNL     1     -12.287  11.570  62.554  1.00  0.00     1.480 C  
HETATM   20  H   UNL     1      -8.442  13.787  64.795  1.00  0.00     0.000 HD 
HETATM   21  N   UNL     1     -10.507  10.509  64.148  1.00  0.00    -0.130 N  
HETATM   22  C   UNL     1      -6.245  10.194  66.246  1.00  0.00    -0.078 C  
HETATM   23  O   UNL     1      -8.609   9.396  63.436  1.00  0.00    -0.194 OA 
ENDROOT
BRANCH   5  24
HETATM   24  C   UNL     1     -10.221  13.085  69.492  1.00  0.00     0.790 C  
HETATM   25  H   UNL     1      -9.471  11.765  70.689  1.00  0.00     0.000 HD 
HETATM   26  O   UNL     1      -9.724  11.842  69.776  1.00  0.00     1.053 OA 
BRANCH  24  27
HETATM   27  N   UNL     1     -10.229  14.049  70.314  1.00  0.00     0.594 N  
HETATM   28  H   UNL     1      -9.356  14.492  70.600  1.00  0.00     0.000 HD 
BRANCH  27  29
HETATM   29  S   UNL     1     -11.633  14.565  70.898  1.00  0.00    -0.115 S  
HETATM   30  O   UNL     1     -12.050  15.729  70.119  1.00  0.00    -0.365 OA 
HETATM   31  O   UNL     1     -12.565  13.484  71.118  1.00  0.00    -0.350 OA 
BRANCH  29  32
HETATM   32  C   UNL     1     -11.251  15.241  72.592  1.00  0.00     0.071 C  
HETATM   33  C   UNL     1     -12.113  16.427  72.952  1.00  0.00    -0.567 C  
HETATM   34  C   UNL     1     -12.322  15.103  73.639  1.00  0.00    -0.674 C  
ENDBRANCH  29  32
ENDBRANCH  27  29
ENDBRANCH  24  27
ENDBRANCH   5  24
BRANCH  22  35
HETATM   35  O   UNL     1      -5.182   9.861  67.122  1.00  0.00    -0.041 OA 
BRANCH  35  36
HETATM   36  C   UNL     1      -5.384  10.040  68.464  1.00  0.00    -0.039 A  
HETATM   37  C   UNL     1      -6.131   7.079  71.397  1.00  0.00    -0.037 A  
HETATM   38  C   UNL     1      -5.273   7.651  69.242  1.00  0.00    -0.015 A  
HETATM   39  C   UNL     1      -5.532   9.025  69.442  1.00  0.00    -0.035 A  
HETATM   40  C   UNL     1      -5.436  11.382  68.829  1.00  0.00    -0.042 A  
HETATM   41  C   UNL     1      -6.253   8.451  71.688  1.00  0.00    -0.052 A  
HETATM   42  C   UNL     1      -5.939   9.435  70.728  1.00  0.00    -0.063 A  
HETATM   43  C   UNL     1      -6.739   8.912  73.040  1.00  0.00     0.154 C  
HETATM   44  C   UNL     1      -5.606   6.686  70.182  1.00  0.00    -0.019 A  
HETATM   45  C   UNL     1      -5.720  11.699  70.141  1.00  0.00    -0.141 A  
HETATM   46  N   UNL     1      -6.019  10.741  71.055  1.00  0.00    -0.350 NA 
BRANCH  37  47
HETATM   47  O   UNL     1      -6.473   6.179  72.376  1.00  0.00    -0.056 OA 
HETATM   48  C   UNL     1      -7.126   4.993  71.927  1.00  0.00    -0.067 C  
ENDBRANCH  37  47
BRANCH  45  49
HETATM   49  C   UNL     1      -5.689  13.100  70.608  1.00  0.00    -0.171 A  
HETATM   50  N   UNL     1      -5.978  14.157  69.864  1.00  0.00    -0.123 NA 
HETATM   51  C   UNL     1      -5.796  15.335  70.583  1.00  0.00    -0.041 A  
HETATM   52  C   UNL     1      -5.372  15.148  71.883  1.00  0.00     0.073 A  
HETATM   53  C   UNL     1      -6.062  16.664  69.925  1.00  0.00    -0.192 C  
HETATM   54  C   UNL     1      -5.147  16.896  68.723  1.00  0.00    -0.121 C  
HETATM   55  S   UNL     1      -5.202  13.482  72.221  1.00  0.00    -0.068 SA 
HETATM   56  C   UNL     1      -7.530  16.807  69.522  1.00  0.00     0.128 C  
ENDBRANCH  45  49
ENDBRANCH  35  36
ENDBRANCH  22  35
TORSDOF 8
ENDMDL
MODEL       53
REMARK 921   NORMALIZED FREE ENERGY PREDICTED BY IDOCK:    2.01 KCAL/MOL
REMARK 922        TOTAL FREE ENERGY PREDICTED BY IDOCK:    0.40 KCAL/MOL
REMARK 923 INTER-LIGAND FREE ENERGY PREDICTED BY IDOCK:   -2.41 KCAL/MOL
REMARK 924 INTRA-LIGAND FREE ENERGY PREDICTED BY IDOCK:    2.81 KCAL/MOL
REMARK 927      BINDING AFFINITY PREDICTED BY RF-SCORE:    0.00 PKD
ROOT
HETATM    1  C   UNL     1      -7.805  17.744  66.569  1.00  0.00    -0.301 C  
HETATM    2  C   UNL     1      -6.835  17.245  67.371  1.00  0.00    -0.185 C  
HETATM    3  C   UNL     1      -6.737  16.676  68.728  1.00  0.00    -0.174 C  
HETATM    4  C   UNL     1      -7.922  16.350  69.567  1.00  0.00     0.140 C  
HETATM    5  C   UNL     1      -7.001  15.227  69.113  1.00  0.00    -0.148 C  
HETATM    6  C   UNL     1      -9.294  17.990  66.728  1.00  0.00    -0.287 C  
HETATM    7  N   UNL     1      -7.664  14.208  68.339  1.00  0.00    -0.132 NA 
HETATM    8  C   UNL     1      -7.543  13.958  67.088  1.00  0.00     0.070 C  
HETATM    9  C   UNL     1      -9.445  12.297  67.013  1.00  0.00    -0.204 C  
HETATM   10  C   UNL     1     -10.200  17.731  65.474  1.00  0.00     0.138 C  
HETATM   11  H   UNL     1      -8.310  13.610  68.852  1.00  0.00     0.000 HD 
HETATM   12  C   UNL     1     -11.287  15.136  65.195  1.00  0.00    -0.357 C  
HETATM   13  C   UNL     1      -9.382  10.755  67.044  1.00  0.00    -0.174 C  
HETATM   14  C   UNL     1      -8.058  12.702  66.499  1.00  0.00     0.326 C  
HETATM   15  O   UNL     1      -6.968  14.714  66.156  1.00  0.00     1.742 OA 
HETATM   16  C   UNL     1     -10.463  12.963  66.067  1.00  0.00    -0.276 C  
HETATM   17  C   UNL     1      -7.138  11.556  66.867  1.00  0.00    -0.135 C  
HETATM   18  C   UNL     1     -10.504  15.002  67.520  1.00  0.00    -0.256 C  
HETATM   19  C   UNL     1     -11.357  16.688  65.323  1.00  0.00     0.258 C  
HETATM   20  H   UNL     1      -6.879  14.528  65.228  1.00  0.00     0.000 HD 
HETATM   21  N   UNL     1     -10.667  14.343  66.253  1.00  0.00    -0.301 N  
HETATM   22  C   UNL     1      -8.012  10.396  66.446  1.00  0.00    -0.130 C  
HETATM   23  O   UNL     1     -10.929  12.351  65.108  1.00  0.00    -0.286 OA 
ENDROOT
BRANCH   5  24
HETATM   24  C   UNL     1      -6.291  14.538  70.266  1.00  0.00    -0.170 C  
HETATM   25  H   UNL     1      -4.743  14.806  71.392  1.00  0.00     0.000 HD 
HETATM   26  O   UNL     1      -5.187  15.237  70.671  1.00  0.00    -0.127 OA 
BRANCH  24  27
HETATM   27  N   UNL     1      -6.734  13.509  70.857  1.00  0.00     0.316 N  
HETATM   28  H   UNL     1      -7.522  13.581  71.500  1.00  0.00     0.000 HD 
BRANCH  27  29
HETATM   29  S   UNL     1      -6.037  12.089  70.579  1.00  0.00     0.237 S  
HETATM   30  O   UNL     1      -5.158  12.233  69.420  1.00  0.00    -0.064 OA 
HETATM   31  O   UNL     1      -5.529  11.481  71.786  1.00  0.00    -0.350 OA 
BRANCH  29  32
HETATM   32  C   UNL     1      -7.406  10.966  69.998  1.00  0.00     0.235 C  
HETATM   33  C   UNL     1      -6.912   9.583  69.644  1.00  0.00    -0.066 C  
HETATM   34  C   UNL     1      -7.748   9.796  70.879  1.00  0.00     0.251 C  
ENDBRANCH  29  32
ENDBRANCH  27  29
ENDBRANCH  24  27
ENDBRANCH   5  24
BRANCH  22  35
HETATM   35  O   UNL     1      -7.399   9.189  66.865  1.00  0.00    -0.088 OA 
BRANCH  35  36
HETATM   36  C   UNL     1      -8.215   8.130  67.161  1.00  0.00    -0.120 A  
HETATM   37  C   UNL     1     -11.205   7.911  70.151  1.00  0.00    -0.152 A  
HETATM   38  C   UNL     1      -9.827   9.252  68.732  1.00  0.00    -0.174 A  
HETATM   39  C   UNL     1      -9.277   8.115  68.099  1.00  0.00    -0.136 A  
HETATM   40  C   UNL     1      -7.911   6.990  66.424  1.00  0.00    -0.106 A  
HETATM   41  C   UNL     1     -10.796   6.771  69.433  1.00  0.00    -0.312 A  
HETATM   42  C   UNL     1      -9.848   6.860  68.393  1.00  0.00    -0.143 A  
HETATM   43  C   UNL     1     -11.353   5.409  69.766  1.00  0.00     0.926 C  
HETATM   44  C   UNL     1     -10.742   9.155  69.771  1.00  0.00    -0.239 A  
HETATM   45  C   UNL     1      -8.604   5.828  66.689  1.00  0.00    -0.118 A  
HETATM   46  N   UNL     1      -9.515   5.757  67.693  1.00  0.00    -0.111 NA 
BRANCH  37  47
HETATM   47  O   UNL     1     -12.118   7.742  71.163  1.00  0.00    -0.306 OA 
HETATM   48  C   UNL     1     -11.621   7.945  72.485  1.00  0.00    -0.386 C  
ENDBRANCH  37  47
BRANCH  45  49
HETATM   49  C   UNL     1      -8.395   4.614  65.871  1.00  0.00    -0.115 A  
HETATM   50  N   UNL     1      -7.220   4.057  65.623  1.00  0.00    -0.070 NA 
HETATM   51  C   UNL     1      -7.358   2.964  64.773  1.00  0.00    -0.070 A  
HETATM   52  C   UNL     1      -8.659   2.702  64.391  1.00  0.00    -0.092 A  
HETATM   53  C   UNL     1      -6.141   2.181  64.354  1.00  0.00    -0.018 C  
HETATM   54  C   UNL     1      -5.150   3.047  63.576  1.00  0.00    -0.008 C  
HETATM   55  S   UNL     1      -9.727   3.828  65.102  1.00  0.00    -0.158 SA 
HETATM   56  C   UNL     1      -5.458   1.520  65.551  1.00  0.00    -0.005 C  
ENDBRANCH  45  49
ENDBRANCH  35  36
ENDBRANCH  22  35
TORSDOF 8
ENDMDL
MODEL       54
REMARK 921   NORMALIZED FREE ENERGY PREDICTED BY IDOCK:    5.83 KCAL/MOL
REMARK 922        TOTAL FREE ENERGY PREDICTED BY IDOCK:    6.00 KCAL/MOL
REMARK 923 INTER-LIGAND FREE ENERGY PREDICTED BY IDOCK:   -1.66 KCAL/MOL
REMARK 924 INTRA-LIGAND FREE ENERGY PREDICTED BY IDOCK:    7.66 KCAL/MOL
REMARK 927      BINDING AFFINITY PREDICTED BY RF-SCORE:    0.00 PKD
ROOT
HETATM    1  C   UNL     1     -13.346  15.543  69.231  1.00  0.00     1.806 C  
HETATM    2  C   UNL     1     -12.438  15.400  68.237  1.00  0.00     0.638 C  
HETATM    3  C   UNL     1     -10.978  15.228  68.118  1.00  0.00    -0.292 C  
HETATM    4  C   UNL     1     -10.084  14.990  69.284  1.00  0.00    -0.236 C  
HETATM    5  C   UNL     1     -10.220  13.911  68.220  1.00  0.00    -0.247 C  
HETATM    6  C   UNL     1     -13.260  15.635  70.743  1.00  0.00    -0.270 C  
HETATM    7  N   UNL     1     -10.695  12.649  68.729  1.00  0.00    -0.310 NA 
HETATM    8  C   UNL     1     -11.833  12.093  68.535  1.00  0.00    -0.310 C  
HETATM    9  C   UNL     1     -11.465  10.248  70.220  1.00  0.00    -0.395 C  
HETATM   10  C   UNL     1     -14.401  14.942  71.567  1.00  0.00    -0.631 C  
HETATM   11  H   UNL     1     -10.042  12.132  69.316  1.00  0.00     0.000 HD 
HETATM   12  C   UNL     1     -13.978  12.251  72.325  1.00  0.00     0.225 C  
HETATM   13  C   UNL     1     -11.022   8.790  69.974  1.00  0.00    -0.216 C  
HETATM   14  C   UNL     1     -12.066  10.672  68.875  1.00  0.00    -0.014 C  
HETATM   15  O   UNL     1     -12.933  12.641  68.023  1.00  0.00     1.297 OA 
HETATM   16  C   UNL     1     -12.556  10.507  71.277  1.00  0.00    -0.426 C  
HETATM   17  C   UNL     1     -11.404   9.789  67.838  1.00  0.00     0.150 C  
HETATM   18  C   UNL     1     -11.701  12.836  71.613  1.00  0.00     2.118 C  
HETATM   19  C   UNL     1     -14.269  13.760  72.585  1.00  0.00    -0.177 C  
HETATM   20  H   UNL     1     -13.777  12.229  67.880  1.00  0.00     0.000 HD 
HETATM   21  N   UNL     1     -12.746  11.850  71.651  1.00  0.00    -0.286 N  
HETATM   22  C   UNL     1     -11.501   8.459  68.551  1.00  0.00     1.131 C  
HETATM   23  O   UNL     1     -13.317   9.610  71.633  1.00  0.00    -0.373 OA 
ENDROOT
BRANCH   5  24
HETATM   24  C   UNL     1      -8.924  13.646  67.474  1.00  0.00    -0.209 C  
HETATM   25  H   UNL     1      -8.244  12.448  66.118  1.00  0.00     0.000 HD 
HETATM   26  O   UNL     1      -9.055  12.614  66.584  1.00  0.00    -0.222 OA 
BRANCH  24  27
HETATM   27  N   UNL     1      -7.888  14.367  67.574  1.00  0.00    -0.177 N  
HETATM   28  H   UNL     1      -6.969  13.940  67.689  1.00  0.00     0.000 HD 
BRANCH  27  29
HETATM   29  S   UNL     1      -8.041  15.965  67.519  1.00  0.00    -0.163 S  
HETATM   30  O   UNL     1      -8.641  16.319  66.235  1.00  0.00    -0.299 OA 
HETATM   31  O   UNL     1      -8.596  16.505  68.738  1.00  0.00    -0.241 OA 
BRANCH  29  32
HETATM   32  C   UNL     1      -6.303  16.630  67.429  1.00  0.00    -0.169 C  
HETATM   33  C   UNL     1      -5.901  17.375  68.680  1.00  0.00    -0.163 C  
HETATM   34  C   UNL     1      -5.294  16.031  68.371  1.00  0.00    -0.104 C  
ENDBRANCH  29  32
ENDBRANCH  27  29
ENDBRANCH  24  27
ENDBRANCH   5  24
BRANCH  22  35
HETATM   35  O   UNL     1     -10.774   7.492  67.813  1.00  0.00    -0.220 OA 
BRANCH  35  36
HETATM   36  C   UNL     1     -10.153   6.493  68.512  1.00  0.00    -0.160 A  
HETATM   37  C   UNL     1     -10.560   5.557  72.621  1.00  0.00    -0.226 A  
HETATM   38  C   UNL     1     -11.450   6.599  70.664  1.00  0.00    -0.420 A  
HETATM   39  C   UNL     1     -10.381   6.136  69.865  1.00  0.00    -0.272 A  
HETATM   40  C   UNL     1      -9.216   5.801  67.750  1.00  0.00    -0.105 A  
HETATM   41  C   UNL     1      -9.573   4.950  71.822  1.00  0.00    -0.210 A  
HETATM   42  C   UNL     1      -9.483   5.215  70.440  1.00  0.00    -0.169 A  
HETATM   43  C   UNL     1      -8.565   4.003  72.426  1.00  0.00    -0.109 C  
HETATM   44  C   UNL     1     -11.519   6.354  72.028  1.00  0.00    -0.350 A  
HETATM   45  C   UNL     1      -8.459   4.824  68.362  1.00  0.00    -0.094 A  
HETATM   46  N   UNL     1      -8.556   4.579  69.694  1.00  0.00    -0.076 NA 
BRANCH  37  47
HETATM   47  O   UNL     1     -10.572   5.264  73.963  1.00  0.00    -0.267 OA 
HETATM   48  C   UNL     1      -9.496   4.452  74.430  1.00  0.00    -0.113 C  
ENDBRANCH  37  47
BRANCH  45  49
HETATM   49  C   UNL     1      -7.522   3.989  67.583  1.00  0.00    -0.068 A  
HETATM   50  N   UNL     1      -7.296   4.108  66.283  1.00  0.00    -0.078 NA 
HETATM   51  C   UNL     1      -6.406   3.134  65.842  1.00  0.00    -0.032 A  
HETATM   52  C   UNL     1      -5.959   2.282  66.832  1.00  0.00    -0.023 A  
HETATM   53  C   UNL     1      -6.010   3.081  64.390  1.00  0.00    -0.014 C  
HETATM   54  C   UNL     1      -7.214   2.826  63.482  1.00  0.00    -0.048 C  
HETATM   55  S   UNL     1      -6.652   2.701  68.336  1.00  0.00    -0.033 SA 
HETATM   56  C   UNL     1      -5.271   4.349  63.962  1.00  0.00    -0.012 C  
ENDBRANCH  45  49
ENDBRANCH  35  36
ENDBRANCH  22  35
TORSDOF 8
ENDMDL
MODEL       55
REMARK 921   NORMALIZED FREE ENERGY PREDICTED BY IDOCK:    7.17 KCAL/MOL
REMARK 922        TOTAL FREE ENERGY PREDICTED BY IDOCK:    7.96 KCAL/MOL
REMARK 923 INTER-LIGAND FREE ENERGY PREDICTED BY IDOCK:    4.82 KCAL/MOL
REMARK 924 INTRA-LIGAND FREE ENERGY PREDICTED BY IDOCK:    3.14 KCAL/MOL
REMARK 927      BINDING AFFINITY PREDICTED BY RF-SCORE:    0.00 PKD
ROOT
HETATM    1  C   UNL     1      -7.335  18.753  67.230  1.00  0.00    -0.225 C  
HETATM    2  C   UNL     1      -6.442  18.193  68.080  1.00  0.00    -0.189 C  
HETATM    3  C   UNL     1      -6.453  17.607  69.434  1.00  0.00    -0.231 C  
HETATM    4  C   UNL     1      -7.701  17.342  70.200  1.00  0.00     2.053 C  
HETATM    5  C   UNL     1      -6.821  16.172  69.785  1.00  0.00    -0.060 C  
HETATM    6  C   UNL     1      -8.813  19.084  67.309  1.00  0.00    -0.302 C  
HETATM    7  N   UNL     1      -7.495  15.199  68.962  1.00  0.00    -0.147 NA 
HETATM    8  C   UNL     1      -7.318  14.954  67.717  1.00  0.00    -0.166 C  
HETATM    9  C   UNL     1      -9.304  13.406  67.515  1.00  0.00    -0.218 C  
HETATM   10  C   UNL     1      -9.660  18.888  66.003  1.00  0.00    -0.140 C  
HETATM   11  H   UNL     1      -8.203  14.635  69.431  1.00  0.00     0.000 HD 
HETATM   12  C   UNL     1     -10.875  16.362  65.631  1.00  0.00    -0.178 C  
HETATM   13  C   UNL     1      -9.331  11.863  67.531  1.00  0.00    -0.177 C  
HETATM   14  C   UNL     1      -7.869  13.736  67.085  1.00  0.00    -0.030 C  
HETATM   15  O   UNL     1      -6.649  15.684  66.828  1.00  0.00    -0.189 OA 
HETATM   16  C   UNL     1     -10.227  14.138  66.522  1.00  0.00    -0.278 C  
HETATM   17  C   UNL     1      -7.039  12.535  67.490  1.00  0.00    -0.151 C  
HETATM   18  C   UNL     1     -10.235  16.163  67.994  1.00  0.00    -0.252 C  
HETATM   19  C   UNL     1     -10.864  17.915  65.775  1.00  0.00     0.047 C  
HETATM   20  H   UNL     1      -6.518  15.502  65.905  1.00  0.00     0.000 HD 
HETATM   21  N   UNL     1     -10.362  15.526  66.713  1.00  0.00    -0.281 N  
HETATM   22  C   UNL     1      -7.952  11.431  67.006  1.00  0.00    -0.158 C  
HETATM   23  O   UNL     1     -10.672  13.563  65.531  1.00  0.00    -0.278 OA 
ENDROOT
BRANCH   5  24
HETATM   24  C   UNL     1      -6.218  15.432  70.967  1.00  0.00     0.470 C  
HETATM   25  H   UNL     1      -4.975  15.762  72.410  1.00  0.00     0.000 HD 
HETATM   26  O   UNL     1      -5.352  16.225  71.671  1.00  0.00     0.034 OA 
BRANCH  24  27
HETATM   27  N   UNL     1      -6.565  14.269  71.327  1.00  0.00    -0.123 N  
HETATM   28  H   UNL     1      -7.040  13.646  70.674  1.00  0.00     0.000 HD 
BRANCH  27  29
HETATM   29  S   UNL     1      -6.247  13.788  72.826  1.00  0.00     1.844 S  
HETATM   30  O   UNL     1      -5.355  14.770  73.439  1.00  0.00    -0.202 OA 
HETATM   31  O   UNL     1      -7.435  13.368  73.531  1.00  0.00     5.236 OA 
BRANCH  29  32
HETATM   32  C   UNL     1      -5.209  12.251  72.647  1.00  0.00     0.478 C  
HETATM   33  C   UNL     1      -5.183  11.418  73.907  1.00  0.00     0.578 C  
HETATM   34  C   UNL     1      -5.930  10.932  72.693  1.00  0.00     1.841 C  
ENDBRANCH  29  32
ENDBRANCH  27  29
ENDBRANCH  24  27
ENDBRANCH   5  24
BRANCH  22  35
HETATM   35  O   UNL     1      -7.433  10.187  67.444  1.00  0.00    -0.093 OA 
BRANCH  35  36
HETATM   36  C   UNL     1      -8.329   9.218  67.811  1.00  0.00    -0.116 A  
HETATM   37  C   UNL     1     -11.563   9.563  70.521  1.00  0.00    -0.254 A  
HETATM   38  C   UNL     1     -10.001  10.624  69.057  1.00  0.00    -0.226 A  
HETATM   39  C   UNL     1      -9.464   9.385  68.643  1.00  0.00    -0.147 A  
HETATM   40  C   UNL     1      -8.028   7.971  67.272  1.00  0.00    -0.121 A  
HETATM   41  C   UNL     1     -11.160   8.315  70.011  1.00  0.00    -0.147 A  
HETATM   42  C   UNL     1     -10.126   8.212  69.058  1.00  0.00    -0.205 A  
HETATM   43  C   UNL     1     -11.818   7.041  70.481  1.00  0.00    -0.337 C  
HETATM   44  C   UNL     1     -11.002  10.718  70.013  1.00  0.00    -0.280 A  
HETATM   45  C   UNL     1      -8.804   6.891  67.635  1.00  0.00    -0.118 A  
HETATM   46  N   UNL     1      -9.797   7.005  68.553  1.00  0.00    -0.144 NA 
BRANCH  37  47
HETATM   47  O   UNL     1     -12.565   9.583  71.460  1.00  0.00    -0.326 OA 
HETATM   48  C   UNL     1     -13.177  10.852  71.687  1.00  0.00    -0.367 C  
ENDBRANCH  37  47
BRANCH  45  49
HETATM   49  C   UNL     1      -8.595   5.564  67.018  1.00  0.00    -0.109 A  
HETATM   50  N   UNL     1      -8.999   5.216  65.806  1.00  0.00    -0.148 NA 
HETATM   51  C   UNL     1      -8.702   3.881  65.548  1.00  0.00    -0.116 A  
HETATM   52  C   UNL     1      -8.061   3.231  66.583  1.00  0.00    -0.081 A  
HETATM   53  C   UNL     1      -9.079   3.271  64.223  1.00  0.00    -0.122 C  
HETATM   54  C   UNL     1     -10.591   3.296  63.996  1.00  0.00    -0.166 C  
HETATM   55  S   UNL     1      -7.820   4.295  67.896  1.00  0.00    -0.079 SA 
HETATM   56  C   UNL     1      -8.349   3.949  63.064  1.00  0.00    -0.086 C  
ENDBRANCH  45  49
ENDBRANCH  35  36
ENDBRANCH  22  35
TORSDOF 8
ENDMDL
MODEL       56
REMARK 921   NORMALIZED FREE ENERGY PREDICTED BY IDOCK:    7.54 KCAL/MOL
REMARK 922        TOTAL FREE ENERGY PREDICTED BY IDOCK:    8.50 KCAL/MOL
REMARK 923 INTER-LIGAND FREE ENERGY PREDICTED BY IDOCK:    5.98 KCAL/MOL
REMARK 924 INTRA-LIGAND FREE ENERGY PREDICTED BY IDOCK:    2.52 KCAL/MOL
REMARK 927      BINDING AFFINITY PREDICTED BY RF-SCORE:    0.00 PKD
ROOT
HETATM    1  C   UNL     1     -11.724  16.671  68.288  1.00  0.00     0.330 C  
HETATM    2  C   UNL     1     -10.405  16.638  67.982  1.00  0.00    -0.303 C  
HETATM    3  C   UNL     1      -9.124  16.574  68.710  1.00  0.00    -0.256 C  
HETATM    4  C   UNL     1      -9.027  16.344  70.177  1.00  0.00     1.452 C  
HETATM    5  C   UNL     1      -8.448  15.310  69.222  1.00  0.00    -0.238 C  
HETATM    6  C   UNL     1     -12.513  16.697  69.583  1.00  0.00     1.976 C  
HETATM    7  N   UNL     1      -9.019  13.994  69.374  1.00  0.00    -0.114 NA 
HETATM    8  C   UNL     1      -9.798  13.371  68.570  1.00  0.00    -0.178 C  
HETATM    9  C   UNL     1     -10.290  11.478  70.169  1.00  0.00     1.324 C  
HETATM   10  C   UNL     1     -13.857  15.888  69.618  1.00  0.00     3.058 C  
HETATM   11  H   UNL     1      -8.770  13.497  70.228  1.00  0.00     0.000 HD 
HETATM   12  C   UNL     1     -13.710  13.200  70.483  1.00  0.00     1.573 C  
HETATM   13  C   UNL     1      -9.665  10.068  70.217  1.00  0.00    -0.108 C  
HETATM   14  C   UNL     1     -10.062  11.923  68.719  1.00  0.00    -0.133 C  
HETATM   15  O   UNL     1     -10.460  13.865  67.526  1.00  0.00    -0.246 OA 
HETATM   16  C   UNL     1     -11.804  11.610  70.424  1.00  0.00    -0.293 C  
HETATM   17  C   UNL     1      -8.859  11.138  68.239  1.00  0.00    -0.155 C  
HETATM   18  C   UNL     1     -11.487  13.975  71.184  1.00  0.00     0.531 C  
HETATM   19  C   UNL     1     -14.223  14.671  70.532  1.00  0.00     0.894 C  
HETATM   20  H   UNL     1     -11.037  13.402  66.931  1.00  0.00     0.000 HD 
HETATM   21  N   UNL     1     -12.284  12.918  70.625  1.00  0.00    -0.363 N  
HETATM   22  C   UNL     1      -9.229   9.772  68.772  1.00  0.00    -0.143 C  
HETATM   23  O   UNL     1     -12.555  10.647  70.287  1.00  0.00    -0.324 OA 
ENDROOT
BRANCH   5  24
HETATM   24  C   UNL     1      -6.940  15.171  69.340  1.00  0.00    -0.178 C  
HETATM   25  H   UNL     1      -5.644  13.927  70.053  1.00  0.00     0.000 HD 
HETATM   26  O   UNL     1      -6.587  14.013  69.980  1.00  0.00    -0.112 OA 
BRANCH  24  27
HETATM   27  N   UNL     1      -6.111  15.966  68.807  1.00  0.00    -0.104 N  
HETATM   28  H   UNL     1      -5.252  16.221  69.294  1.00  0.00     0.000 HD 
BRANCH  27  29
HETATM   29  S   UNL     1      -6.432  16.568  67.353  1.00  0.00    -0.181 S  
HETATM   30  O   UNL     1      -5.777  15.722  66.357  1.00  0.00     0.674 OA 
HETATM   31  O   UNL     1      -7.827  16.904  67.194  1.00  0.00    -0.159 OA 
BRANCH  29  32
HETATM   32  C   UNL     1      -5.520  18.190  67.271  1.00  0.00    -0.131 C  
HETATM   33  C   UNL     1      -6.371  19.308  66.719  1.00  0.00    -0.190 C  
HETATM   34  C   UNL     1      -6.001  19.289  68.179  1.00  0.00    -0.232 C  
ENDBRANCH  29  32
ENDBRANCH  27  29
ENDBRANCH  24  27
ENDBRANCH   5  24
BRANCH  22  35
HETATM   35  O   UNL     1      -8.134   8.894  68.575  1.00  0.00    -0.106 OA 
BRANCH  35  36
HETATM   36  C   UNL     1      -8.020   8.283  67.355  1.00  0.00    -0.106 A  
HETATM   37  C   UNL     1      -6.756  10.001  63.697  1.00  0.00    -0.128 A  
HETATM   38  C   UNL     1      -6.797  10.077  66.085  1.00  0.00    -0.102 A  
HETATM   39  C   UNL     1      -7.498   8.854  66.167  1.00  0.00    -0.090 A  
HETATM   40  C   UNL     1      -8.481   6.971  67.362  1.00  0.00    -0.122 A  
HETATM   41  C   UNL     1      -7.311   8.709  63.751  1.00  0.00    -0.101 A  
HETATM   42  C   UNL     1      -7.669   8.115  64.979  1.00  0.00    -0.113 A  
HETATM   43  C   UNL     1      -7.553   7.920  62.488  1.00  0.00    -0.113 C  
HETATM   44  C   UNL     1      -6.469  10.667  64.873  1.00  0.00     0.076 A  
HETATM   45  C   UNL     1      -8.501   6.271  66.174  1.00  0.00    -0.138 A  
HETATM   46  N   UNL     1      -8.152   6.856  64.999  1.00  0.00    -0.125 NA 
BRANCH  37  47
HETATM   47  O   UNL     1      -6.450  10.521  62.464  1.00  0.00    -0.140 OA 
HETATM   48  C   UNL     1      -5.383  11.468  62.438  1.00  0.00     0.168 C  
ENDBRANCH  37  47
BRANCH  45  49
HETATM   49  C   UNL     1      -8.885   4.845  66.137  1.00  0.00    -0.122 A  
HETATM   50  N   UNL     1      -9.060   4.132  65.035  1.00  0.00    -0.135 NA 
HETATM   51  C   UNL     1      -9.477   2.840  65.340  1.00  0.00    -0.012 A  
HETATM   52  C   UNL     1      -9.606   2.588  66.691  1.00  0.00     0.270 A  
HETATM   53  C   UNL     1      -9.742   1.855  64.231  1.00  0.00    -0.086 C  
HETATM   54  C   UNL     1     -10.866   2.328  63.309  1.00  0.00    -0.226 C  
HETATM   55  S   UNL     1      -9.199   3.977  67.597  1.00  0.00    -0.174 SA 
HETATM   56  C   UNL     1      -8.475   1.558  63.429  1.00  0.00    -0.065 C  
ENDBRANCH  45  49
ENDBRANCH  35  36
ENDBRANCH  22  35
TORSDOF 8
ENDMDL
MODEL       57
REMARK 921   NORMALIZED FREE ENERGY PREDICTED BY IDOCK:    8.52 KCAL/MOL
REMARK 922        TOTAL FREE ENERGY PREDICTED BY IDOCK:    9.94 KCAL/MOL
REMARK 923 INTER-LIGAND FREE ENERGY PREDICTED BY IDOCK:    9.23 KCAL/MOL
REMARK 924 INTRA-LIGAND FREE ENERGY PREDICTED BY IDOCK:    0.71 KCAL/MOL
REMARK 927      BINDING AFFINITY PREDICTED BY RF-SCORE:    0.00 PKD
ROOT
HETATM    1  C   UNL     1     -13.798  15.772  69.281  1.00  0.00     3.866 C  
HETATM    2  C   UNL     1     -13.075  15.502  68.168  1.00  0.00     2.862 C  
HETATM    3  C   UNL     1     -11.654  15.325  67.814  1.00  0.00    -0.277 C  
HETATM    4  C   UNL     1     -10.562  15.252  68.823  1.00  0.00    -0.240 C  
HETATM    5  C   UNL     1     -10.851  14.039  67.952  1.00  0.00    -0.244 C  
HETATM    6  C   UNL     1     -13.450  16.068  70.727  1.00  0.00     1.083 C  
HETATM    7  N   UNL     1     -11.190  12.853  68.699  1.00  0.00    -0.263 NA 
HETATM    8  C   UNL     1     -12.328  12.270  68.787  1.00  0.00     0.307 C  
HETATM    9  C   UNL     1     -11.613  10.671  70.607  1.00  0.00    -0.432 C  
HETATM   10  C   UNL     1     -14.406  15.486  71.826  1.00  0.00    -0.556 C  
HETATM   11  H   UNL     1     -10.428  12.425  69.223  1.00  0.00     0.000 HD 
HETATM   12  C   UNL     1     -13.776  12.924  72.844  1.00  0.00     0.673 C  
HETATM   13  C   UNL     1     -11.177   9.197  70.480  1.00  0.00    -0.309 C  
HETATM   14  C   UNL     1     -12.454  10.906  69.347  1.00  0.00    -0.037 C  
HETATM   15  O   UNL     1     -13.516  12.736  68.412  1.00  0.00     3.044 OA 
HETATM   16  C   UNL     1     -12.508  11.064  71.799  1.00  0.00    -0.089 C  
HETATM   17  C   UNL     1     -11.958   9.895  68.334  1.00  0.00     1.188 C  
HETATM   18  C   UNL     1     -11.678  13.422  71.666  1.00  0.00     1.499 C  
HETATM   19  C   UNL     1     -14.062  14.453  72.950  1.00  0.00     0.203 C  
HETATM   20  H   UNL     1     -14.359  12.303  68.477  1.00  0.00     0.000 HD 
HETATM   21  N   UNL     1     -12.669  12.444  72.020  1.00  0.00    -0.106 N  
HETATM   22  C   UNL     1     -11.888   8.673  69.222  1.00  0.00     1.318 C  
HETATM   23  O   UNL     1     -13.167  10.219  72.399  1.00  0.00    -0.323 OA 
ENDROOT
BRANCH   5  24
HETATM   24  C   UNL     1      -9.699  13.683  67.027  1.00  0.00    -0.251 C  
HETATM   25  H   UNL     1      -7.874  13.059  67.150  1.00  0.00     0.000 HD 
HETATM   26  O   UNL     1      -8.594  13.281  67.728  1.00  0.00    -0.160 OA 
BRANCH  24  27
HETATM   27  N   UNL     1      -9.788  13.647  65.765  1.00  0.00    -0.442 N  
HETATM   28  H   UNL     1      -9.581  14.476  65.208  1.00  0.00     0.000 HD 
BRANCH  27  29
HETATM   29  S   UNL     1     -10.233  12.278  65.053  1.00  0.00    -0.273 S  
HETATM   30  O   UNL     1      -9.119  11.811  64.231  1.00  0.00     0.156 OA 
HETATM   31  O   UNL     1     -10.872  11.365  65.971  1.00  0.00    -0.279 OA 
BRANCH  29  32
HETATM   32  C   UNL     1     -11.556  12.757  63.831  1.00  0.00    -0.452 C  
HETATM   33  C   UNL     1     -12.287  11.562  63.267  1.00  0.00    -0.075 C  
HETATM   34  C   UNL     1     -12.981  12.490  64.230  1.00  0.00    -0.253 C  
ENDBRANCH  29  32
ENDBRANCH  27  29
ENDBRANCH  24  27
ENDBRANCH   5  24
BRANCH  22  35
HETATM   35  O   UNL     1     -11.273   7.620  68.500  1.00  0.00     0.191 OA 
BRANCH  35  36
HETATM   36  C   UNL     1     -10.054   7.868  67.928  1.00  0.00    -0.191 A  
HETATM   37  C   UNL     1      -7.027  10.492  69.296  1.00  0.00    -0.086 A  
HETATM   38  C   UNL     1      -8.968   9.183  69.775  1.00  0.00    -0.168 A  
HETATM   39  C   UNL     1      -9.017   8.674  68.458  1.00  0.00    -0.139 A  
HETATM   40  C   UNL     1      -9.891   7.226  66.703  1.00  0.00    -0.257 A  
HETATM   41  C   UNL     1      -6.956   9.882  68.030  1.00  0.00    -0.077 A  
HETATM   42  C   UNL     1      -7.932   8.958  67.604  1.00  0.00    -0.102 A  
HETATM   43  C   UNL     1      -5.833  10.212  67.077  1.00  0.00    -0.050 C  
HETATM   44  C   UNL     1      -8.018  10.111  70.179  1.00  0.00    -0.029 A  
HETATM   45  C   UNL     1      -8.740   7.462  65.983  1.00  0.00    -0.153 A  
HETATM   46  N   UNL     1      -7.808   8.355  66.405  1.00  0.00    -0.097 NA 
BRANCH  37  47
HETATM   47  O   UNL     1      -6.050  11.396  69.632  1.00  0.00    -0.082 OA 
HETATM   48  C   UNL     1      -5.198  11.015  70.712  1.00  0.00    -0.106 C  
ENDBRANCH  37  47
BRANCH  45  49
HETATM   49  C   UNL     1      -8.466   6.734  64.727  1.00  0.00     0.095 A  
HETATM   50  N   UNL     1      -8.783   5.469  64.496  1.00  0.00    -0.051 NA 
HETATM   51  C   UNL     1      -8.335   5.065  63.242  1.00  0.00    -0.119 A  
HETATM   52  C   UNL     1      -7.681   6.049  62.528  1.00  0.00    -0.081 A  
HETATM   53  C   UNL     1      -8.585   3.655  62.774  1.00  0.00    -0.086 C  
HETATM   54  C   UNL     1      -7.911   2.627  63.683  1.00  0.00    -0.069 C  
HETATM   55  S   UNL     1      -7.625   7.500  63.427  1.00  0.00    -0.123 SA 
HETATM   56  C   UNL     1     -10.080   3.363  62.644  1.00  0.00    -0.126 C  
ENDBRANCH  45  49
ENDBRANCH  35  36
ENDBRANCH  22  35
TORSDOF 8
ENDMDL
MODEL       58
REMARK 921   NORMALIZED FREE ENERGY PREDICTED BY IDOCK:    8.88 KCAL/MOL
REMARK 922        TOTAL FREE ENERGY PREDICTED BY IDOCK:   10.47 KCAL/MOL
REMARK 923 INTER-LIGAND FREE ENERGY PREDICTED BY IDOCK:   11.48 KCAL/MOL
REMARK 924 INTRA-LIGAND FREE ENERGY PREDICTED BY IDOCK:   -1.01 KCAL/MOL
REMARK 927      BINDING AFFINITY PREDICTED BY RF-SCORE:    0.00 PKD
ROOT
HETATM    1  C   UNL     1      -9.950  15.697  70.839  1.00  0.00     1.033 C  
HETATM    2  C   UNL     1     -10.571  15.608  69.640  1.00  0.00    -0.284 C  
HETATM    3  C   UNL     1     -10.298  16.005  68.245  1.00  0.00    -0.261 C  
HETATM    4  C   UNL     1      -8.989  16.546  67.789  1.00  0.00    -0.202 C  
HETATM    5  C   UNL     1      -9.478  15.216  67.234  1.00  0.00    -0.210 C  
HETATM    6  C   UNL     1      -8.648  16.312  71.319  1.00  0.00     5.888 C  
HETATM    7  N   UNL     1      -8.579  14.116  67.481  1.00  0.00    -0.178 NA 
HETATM    8  C   UNL     1      -8.741  13.123  68.273  1.00  0.00    -0.165 C  
HETATM    9  C   UNL     1      -6.384  12.253  68.016  1.00  0.00    -0.073 C  
HETATM   10  C   UNL     1      -7.859  15.537  72.432  1.00  0.00     7.918 C  
HETATM   11  H   UNL     1      -7.704  14.131  66.958  1.00  0.00     0.000 HD 
HETATM   12  C   UNL     1      -5.934  13.658  71.562  1.00  0.00     0.164 C  
HETATM   13  C   UNL     1      -5.872  11.102  67.124  1.00  0.00    -0.072 C  
HETATM   14  C   UNL     1      -7.871  11.928  68.201  1.00  0.00    -0.134 C  
HETATM   15  O   UNL     1      -9.655  12.981  69.230  1.00  0.00    -0.136 OA 
HETATM   16  C   UNL     1      -5.796  12.389  69.434  1.00  0.00    -0.093 C  
HETATM   17  C   UNL     1      -8.257  11.094  66.996  1.00  0.00    -0.146 C  
HETATM   18  C   UNL     1      -6.343  14.832  69.443  1.00  0.00    -0.124 C  
HETATM   19  C   UNL     1      -6.425  14.918  72.338  1.00  0.00     1.442 C  
HETATM   20  H   UNL     1      -9.775  12.245  69.817  1.00  0.00     0.000 HD 
HETATM   21  N   UNL     1      -6.094  13.585  70.112  1.00  0.00    -0.142 N  
HETATM   22  C   UNL     1      -7.072  10.155  66.959  1.00  0.00    -0.090 C  
HETATM   23  O   UNL     1      -5.250  11.437  69.986  1.00  0.00    -0.061 OA 
ENDROOT
BRANCH   5  24
HETATM   24  C   UNL     1      -9.749  15.260  65.739  1.00  0.00    -0.350 C  
HETATM   25  H   UNL     1      -9.896  16.568  64.324  1.00  0.00     0.000 HD 
HETATM   26  O   UNL     1      -9.727  16.541  65.259  1.00  0.00    -0.440 OA 
BRANCH  24  27
HETATM   27  N   UNL     1      -9.861  14.231  65.009  1.00  0.00    -0.543 N  
HETATM   28  H   UNL     1      -9.036  13.694  64.743  1.00  0.00     0.000 HD 
BRANCH  27  29
HETATM   29  S   UNL     1     -11.320  13.785  64.508  1.00  0.00    -0.370 S  
HETATM   30  O   UNL     1     -12.023  13.181  65.637  1.00  0.00    -0.368 OA 
HETATM   31  O   UNL     1     -11.971  14.814  63.732  1.00  0.00    -0.323 OA 
BRANCH  29  32
HETATM   32  C   UNL     1     -11.031  12.378  63.321  1.00  0.00    -0.267 C  
HETATM   33  C   UNL     1      -9.742  11.642  63.595  1.00  0.00    -0.310 C  
HETATM   34  C   UNL     1     -11.066  10.987  63.891  1.00  0.00     0.032 C  
ENDBRANCH  29  32
ENDBRANCH  27  29
ENDBRANCH  24  27
ENDBRANCH   5  24
BRANCH  22  35
HETATM   35  O   UNL     1      -7.146   9.375  65.779  1.00  0.00    -0.088 OA 
BRANCH  35  36
HETATM   36  C   UNL     1      -7.379   8.033  65.917  1.00  0.00    -0.076 A  
HETATM   37  C   UNL     1      -9.363   5.449  63.212  1.00  0.00     0.620 A  
HETATM   38  C   UNL     1      -8.186   7.492  63.597  1.00  0.00     0.060 A  
HETATM   39  C   UNL     1      -7.957   7.169  64.953  1.00  0.00    -0.127 A  
HETATM   40  C   UNL     1      -6.982   7.539  67.156  1.00  0.00    -0.083 A  
HETATM   41  C   UNL     1      -9.013   5.029  64.509  1.00  0.00    -0.054 A  
HETATM   42  C   UNL     1      -8.294   5.870  65.384  1.00  0.00    -0.149 A  
HETATM   43  C   UNL     1      -9.412   3.663  65.012  1.00  0.00    -0.161 C  
HETATM   44  C   UNL     1      -8.914   6.670  62.749  1.00  0.00     0.836 A  
HETATM   45  C   UNL     1      -7.240   6.218  67.454  1.00  0.00    -0.075 A  
HETATM   46  N   UNL     1      -7.933   5.420  66.602  1.00  0.00    -0.104 NA 
BRANCH  37  47
HETATM   47  O   UNL     1     -10.080   4.581  62.425  1.00  0.00    -0.103 OA 
HETATM   48  C   UNL     1     -11.137   3.881  63.080  1.00  0.00     0.174 C  
ENDBRANCH  37  47
BRANCH  45  49
HETATM   49  C   UNL     1      -6.753   5.613  68.711  1.00  0.00    -0.053 A  
HETATM   50  N   UNL     1      -7.320   4.590  69.333  1.00  0.00    -0.051 NA 
HETATM   51  C   UNL     1      -6.653   4.300  70.519  1.00  0.00    -0.032 A  
HETATM   52  C   UNL     1      -5.570   5.116  70.778  1.00  0.00    -0.012 A  
HETATM   53  C   UNL     1      -7.135   3.171  71.393  1.00  0.00    -0.032 C  
HETATM   54  C   UNL     1      -8.559   3.409  71.895  1.00  0.00    -0.104 C  
HETATM   55  S   UNL     1      -5.373   6.259  69.525  1.00  0.00    -0.013 SA 
HETATM   56  C   UNL     1      -7.032   1.824  70.678  1.00  0.00    -0.033 C  
ENDBRANCH  45  49
ENDBRANCH  35  36
ENDBRANCH  22  35
TORSDOF 8
ENDMDL
MODEL       59
REMARK 921   NORMALIZED FREE ENERGY PREDICTED BY IDOCK:   10.37 KCAL/MOL
REMARK 922        TOTAL FREE ENERGY PREDICTED BY IDOCK:   12.66 KCAL/MOL
REMARK 923 INTER-LIGAND FREE ENERGY PREDICTED BY IDOCK:   12.41 KCAL/MOL
REMARK 924 INTRA-LIGAND FREE ENERGY PREDICTED BY IDOCK:    0.25 KCAL/MOL
REMARK 927      BINDING AFFINITY PREDICTED BY RF-SCORE:    0.00 PKD
ROOT
HETATM    1  C   UNL     1      -8.546  15.765  70.981  1.00  0.00     3.449 C  
HETATM    2  C   UNL     1      -9.265  15.737  69.835  1.00  0.00     0.140 C  
HETATM    3  C   UNL     1      -8.995  15.760  68.384  1.00  0.00    -0.187 C  
HETATM    4  C   UNL     1      -7.629  15.653  67.804  1.00  0.00    -0.158 C  
HETATM    5  C   UNL     1      -8.646  14.557  67.520  1.00  0.00    -0.189 C  
HETATM    6  C   UNL     1      -7.068  15.879  71.307  1.00  0.00     3.017 C  
HETATM    7  N   UNL     1      -8.225  13.246  67.947  1.00  0.00    -0.149 NA 
HETATM    8  C   UNL     1      -8.682  12.543  68.915  1.00  0.00     0.320 C  
HETATM    9  C   UNL     1      -6.883  10.776  68.769  1.00  0.00    -0.067 C  
HETATM   10  C   UNL     1      -6.539  15.046  72.526  1.00  0.00     1.991 C  
HETATM   11  H   UNL     1      -7.467  12.826  67.410  1.00  0.00     0.000 HD 
HETATM   12  C   UNL     1      -5.585  12.441  71.978  1.00  0.00     0.710 C  
HETATM   13  C   UNL     1      -6.945   9.388  68.097  1.00  0.00    -0.075 C  
HETATM   14  C   UNL     1      -8.355  11.106  69.047  1.00  0.00    -0.054 C  
HETATM   15  O   UNL     1      -9.483  12.935  69.903  1.00  0.00     1.424 OA 
HETATM   16  C   UNL     1      -6.155  10.894  70.122  1.00  0.00    -0.132 C  
HETATM   17  C   UNL     1      -9.147  10.311  68.030  1.00  0.00    -0.132 C  
HETATM   18  C   UNL     1      -5.708  13.319  69.687  1.00  0.00    -0.107 C  
HETATM   19  C   UNL     1      -5.473  13.900  72.516  1.00  0.00    -0.150 C  
HETATM   20  H   UNL     1      -9.822  12.413  70.620  1.00  0.00     0.000 HD 
HETATM   21  N   UNL     1      -5.900  12.204  70.572  1.00  0.00    -0.163 N  
HETATM   22  C   UNL     1      -8.429   8.985  68.141  1.00  0.00    -0.129 C  
HETATM   23  O   UNL     1      -5.971   9.907  70.830  1.00  0.00    -0.075 OA 
ENDROOT
BRANCH   5  24
HETATM   24  C   UNL     1      -9.021  14.461  66.050  1.00  0.00     0.251 C  
HETATM   25  H   UNL     1      -9.110  13.127  64.655  1.00  0.00     0.000 HD 
HETATM   26  O   UNL     1      -8.876  13.187  65.573  1.00  0.00     0.742 OA 
BRANCH  24  27
HETATM   27  N   UNL     1      -9.520  15.415  65.382  1.00  0.00    -0.295 N  
HETATM   28  H   UNL     1      -8.941  15.953  64.738  1.00  0.00     0.000 HD 
BRANCH  27  29
HETATM   29  S   UNL     1     -11.077  15.765  65.565  1.00  0.00    -0.127 S  
HETATM   30  O   UNL     1     -11.642  16.024  64.243  1.00  0.00    -0.420 OA 
HETATM   31  O   UNL     1     -11.744  14.845  66.457  1.00  0.00    -0.312 OA 
BRANCH  29  32
HETATM   32  C   UNL     1     -11.120  17.413  66.431  1.00  0.00     0.464 C  
HETATM   33  C   UNL     1      -9.806  17.756  67.093  1.00  0.00    -0.311 C  
HETATM   34  C   UNL     1     -10.253  18.504  65.864  1.00  0.00    -0.264 C  
ENDBRANCH  29  32
ENDBRANCH  27  29
ENDBRANCH  24  27
ENDBRANCH   5  24
BRANCH  22  35
HETATM   35  O   UNL     1      -8.913   8.118  67.129  1.00  0.00    -0.134 OA 
BRANCH  35  36
HETATM   36  C   UNL     1      -9.150   6.814  67.469  1.00  0.00    -0.117 A  
HETATM   37  C   UNL     1      -9.987   3.566  64.885  1.00  0.00    -0.096 A  
HETATM   38  C   UNL     1      -9.069   5.750  65.192  1.00  0.00     0.126 A  
HETATM   39  C   UNL     1      -9.328   5.724  66.580  1.00  0.00    -0.155 A  
HETATM   40  C   UNL     1      -9.206   6.615  68.846  1.00  0.00    -0.130 A  
HETATM   41  C   UNL     1     -10.111   3.446  66.282  1.00  0.00     0.549 A  
HETATM   42  C   UNL     1      -9.767   4.509  67.143  1.00  0.00    -0.197 A  
HETATM   43  C   UNL     1     -10.631   2.174  66.904  1.00  0.00     3.965 C  
HETATM   44  C   UNL     1      -9.431   4.710  64.348  1.00  0.00    -0.010 A  
HETATM   45  C   UNL     1      -9.524   5.359  69.319  1.00  0.00    -0.133 A  
HETATM   46  N   UNL     1      -9.851   4.345  68.479  1.00  0.00    -0.114 NA 
BRANCH  37  47
HETATM   47  O   UNL     1     -10.358   2.494  64.111  1.00  0.00    -0.069 OA 
HETATM   48  C   UNL     1     -11.230   2.791  63.021  1.00  0.00    -0.004 C  
ENDBRANCH  37  47
BRANCH  45  49
HETATM   49  C   UNL     1      -9.500   5.064  70.767  1.00  0.00    -0.169 A  
HETATM   50  N   UNL     1      -8.532   5.416  71.599  1.00  0.00    -0.125 NA 
HETATM   51  C   UNL     1      -8.781   4.936  72.881  1.00  0.00    -0.117 A  
HETATM   52  C   UNL     1      -9.957   4.222  73.003  1.00  0.00    -0.146 A  
HETATM   53  C   UNL     1      -7.802   5.216  73.991  1.00  0.00    -0.101 C  
HETATM   54  C   UNL     1      -6.428   4.612  73.702  1.00  0.00    -0.056 C  
HETATM   55  S   UNL     1     -10.768   4.150  71.502  1.00  0.00     0.732 SA 
HETATM   56  C   UNL     1      -7.685   6.714  74.272  1.00  0.00    -0.106 C  
ENDBRANCH  45  49
ENDBRANCH  35  36
ENDBRANCH  22  35
TORSDOF 8
ENDMDL
MODEL       60
REMARK 921   NORMALIZED FREE ENERGY PREDICTED BY IDOCK:   10.48 KCAL/MOL
REMARK 922        TOTAL FREE ENERGY PREDICTED BY IDOCK:   12.82 KCAL/MOL
REMARK 923 INTER-LIGAND FREE ENERGY PREDICTED BY IDOCK:   10.36 KCAL/MOL
REMARK 924 INTRA-LIGAND FREE ENERGY PREDICTED BY IDOCK:    2.47 KCAL/MOL
REMARK 927      BINDING AFFINITY PREDICTED BY RF-SCORE:    0.00 PKD
ROOT
HETATM    1  C   UNL     1     -11.243  17.000  68.133  1.00  0.00    -0.039 C  
HETATM    2  C   UNL     1      -9.918  16.940  67.864  1.00  0.00    -0.274 C  
HETATM    3  C   UNL     1      -8.658  16.876  68.629  1.00  0.00    -0.267 C  
HETATM    4  C   UNL     1      -8.604  16.684  70.103  1.00  0.00     1.934 C  
HETATM    5  C   UNL     1      -8.016  15.615  69.193  1.00  0.00    -0.227 C  
HETATM    6  C   UNL     1     -12.067  17.073  69.404  1.00  0.00     2.170 C  
HETATM    7  N   UNL     1      -8.612  14.313  69.363  1.00  0.00    -0.313 NA 
HETATM    8  C   UNL     1      -9.379  13.681  68.555  1.00  0.00    -0.128 C  
HETATM    9  C   UNL     1      -9.944  11.839  70.189  1.00  0.00     2.313 C  
HETATM   10  C   UNL     1     -13.424  16.286  69.423  1.00  0.00     3.583 C  
HETATM   11  H   UNL     1      -8.394  13.836  70.237  1.00  0.00     0.000 HD 
HETATM   12  C   UNL     1     -13.343  13.620  70.362  1.00  0.00     0.539 C  
HETATM   13  C   UNL     1      -9.343  10.421  70.292  1.00  0.00     0.540 C  
HETATM   14  C   UNL     1      -9.669  12.241  68.735  1.00  0.00     0.017 C  
HETATM   15  O   UNL     1     -10.003  14.156  67.481  1.00  0.00    -0.232 OA 
HETATM   16  C   UNL     1     -11.462  12.001  70.398  1.00  0.00     0.283 C  
HETATM   17  C   UNL     1      -8.466  11.425  68.310  1.00  0.00    -0.154 C  
HETATM   18  C   UNL     1     -11.128  14.380  71.104  1.00  0.00     0.630 C  
HETATM   19  C   UNL     1     -13.834  15.100  70.359  1.00  0.00     0.410 C  
HETATM   20  H   UNL     1     -10.572  13.686  66.882  1.00  0.00     0.000 HD 
HETATM   21  N   UNL     1     -11.926  13.321  70.551  1.00  0.00    -0.295 N  
HETATM   22  C   UNL     1      -8.872  10.080  68.868  1.00  0.00    -0.148 C  
HETATM   23  O   UNL     1     -12.224  11.046  70.266  1.00  0.00    -0.312 OA 
ENDROOT
BRANCH   5  24
HETATM   24  C   UNL     1      -6.514  15.457  69.356  1.00  0.00    -0.148 C  
HETATM   25  H   UNL     1      -5.264  14.526  70.499  1.00  0.00     0.000 HD 
HETATM   26  O   UNL     1      -6.204  14.625  70.397  1.00  0.00    -0.166 OA 
BRANCH  24  27
HETATM   27  N   UNL     1      -5.660  15.938  68.554  1.00  0.00    -0.098 N  
HETATM   28  H   UNL     1      -4.754  16.259  68.896  1.00  0.00     0.000 HD 
BRANCH  27  29
HETATM   29  S   UNL     1      -6.022  16.034  66.993  1.00  0.00     0.309 S  
HETATM   30  O   UNL     1      -5.143  15.121  66.265  1.00  0.00     2.043 OA 
HETATM   31  O   UNL     1      -7.446  15.991  66.758  1.00  0.00    -0.225 OA 
BRANCH  29  32
HETATM   32  C   UNL     1      -5.485  17.736  66.460  1.00  0.00    -0.178 C  
HETATM   33  C   UNL     1      -6.588  18.506  65.773  1.00  0.00    -0.312 C  
HETATM   34  C   UNL     1      -6.132  18.904  67.152  1.00  0.00    -0.174 C  
ENDBRANCH  29  32
ENDBRANCH  27  29
ENDBRANCH  24  27
ENDBRANCH   5  24
BRANCH  22  35
HETATM   35  O   UNL     1      -7.786   9.181  68.725  1.00  0.00    -0.093 OA 
BRANCH  35  36
HETATM   36  C   UNL     1      -7.611   8.584  67.505  1.00  0.00    -0.098 A  
HETATM   37  C   UNL     1      -8.456  10.193  63.681  1.00  0.00    -0.184 A  
HETATM   38  C   UNL     1      -7.999  10.559  65.997  1.00  0.00    -0.149 A  
HETATM   39  C   UNL     1      -7.807   9.180  66.234  1.00  0.00    -0.103 A  
HETATM   40  C   UNL     1      -7.196   7.260  67.605  1.00  0.00    -0.091 A  
HETATM   41  C   UNL     1      -8.115   8.838  63.851  1.00  0.00    -0.165 A  
HETATM   42  C   UNL     1      -7.770   8.321  65.117  1.00  0.00    -0.102 A  
HETATM   43  C   UNL     1      -8.122   7.887  62.678  1.00  0.00    -0.138 C  
HETATM   44  C   UNL     1      -8.361  11.057  64.754  1.00  0.00     0.202 A  
HETATM   45  C   UNL     1      -7.066   6.519  66.449  1.00  0.00    -0.068 A  
HETATM   46  N   UNL     1      -7.401   7.030  65.237  1.00  0.00    -0.073 NA 
BRANCH  37  47
HETATM   47  O   UNL     1      -8.799  10.618  62.421  1.00  0.00    -0.223 OA 
HETATM   48  C   UNL     1      -9.827  11.606  62.359  1.00  0.00     0.779 C  
ENDBRANCH  37  47
BRANCH  45  49
HETATM   49  C   UNL     1      -6.533   5.141  66.485  1.00  0.00    -0.041 A  
HETATM   50  N   UNL     1      -6.689   4.291  67.488  1.00  0.00    -0.046 NA 
HETATM   51  C   UNL     1      -6.017   3.099  67.237  1.00  0.00    -0.024 A  
HETATM   52  C   UNL     1      -5.358   3.061  66.025  1.00  0.00    -0.012 A  
HETATM   53  C   UNL     1      -6.057   1.987  68.253  1.00  0.00    -0.024 C  
HETATM   54  C   UNL     1      -5.435   2.412  69.584  1.00  0.00    -0.016 C  
HETATM   55  S   UNL     1      -5.580   4.529  65.181  1.00  0.00    -0.014 SA 
HETATM   56  C   UNL     1      -7.479   1.467  68.463  1.00  0.00    -0.042 C  
ENDBRANCH  45  49
ENDBRANCH  35  36
ENDBRANCH  22  35
TORSDOF 8
ENDMDL
MODEL       61
REMARK 921   NORMALIZED FREE ENERGY PREDICTED BY IDOCK:   11.61 KCAL/MOL
REMARK 922        TOTAL FREE ENERGY PREDICTED BY IDOCK:   14.48 KCAL/MOL
REMARK 923 INTER-LIGAND FREE ENERGY PREDICTED BY IDOCK:   11.66 KCAL/MOL
REMARK 924 INTRA-LIGAND FREE ENERGY PREDICTED BY IDOCK:    2.82 KCAL/MOL
REMARK 927      BINDING AFFINITY PREDICTED BY RF-SCORE:    0.00 PKD
ROOT
HETATM    1  C   UNL     1      -6.469  18.543  66.361  1.00  0.00    -0.228 C  
HETATM    2  C   UNL     1      -6.162  17.230  66.246  1.00  0.00    -0.197 C  
HETATM    3  C   UNL     1      -5.634  16.159  67.113  1.00  0.00    -0.008 C  
HETATM    4  C   UNL     1      -5.442  16.314  68.581  1.00  0.00    -0.101 C  
HETATM    5  C   UNL     1      -6.449  15.296  68.066  1.00  0.00    -0.140 C  
HETATM    6  C   UNL     1      -6.365  19.565  67.478  1.00  0.00    -0.217 C  
HETATM    7  N   UNL     1      -7.793  15.515  68.538  1.00  0.00    -0.129 NA 
HETATM    8  C   UNL     1      -8.812  15.916  67.871  1.00  0.00    -0.179 C  
HETATM    9  C   UNL     1     -10.293  16.212  69.895  1.00  0.00    -0.209 C  
HETATM   10  C   UNL     1      -7.519  20.622  67.589  1.00  0.00    -0.298 C  
HETATM   11  H   UNL     1      -7.953  15.328  69.527  1.00  0.00     0.000 HD 
HETATM   12  C   UNL     1      -9.713  19.952  69.242  1.00  0.00    -0.104 C  
HETATM   13  C   UNL     1     -11.375  15.260  70.447  1.00  0.00    -0.325 C  
HETATM   14  C   UNL     1     -10.182  15.811  68.419  1.00  0.00    -0.223 C  
HETATM   15  O   UNL     1      -8.832  16.450  66.653  1.00  0.00    -0.204 OA 
HETATM   16  C   UNL     1     -10.584  17.725  69.907  1.00  0.00     0.852 C  
HETATM   17  C   UNL     1     -10.644  14.370  68.355  1.00  0.00    -0.248 C  
HETATM   18  C   UNL     1      -8.128  18.213  69.945  1.00  0.00     1.488 C  
HETATM   19  C   UNL     1      -8.515  20.835  68.777  1.00  0.00     1.135 C  
HETATM   20  H   UNL     1      -9.587  16.746  66.159  1.00  0.00     0.000 HD 
HETATM   21  N   UNL     1      -9.487  18.565  69.639  1.00  0.00     0.435 N  
HETATM   22  C   UNL     1     -11.875  14.468  69.227  1.00  0.00    -0.323 C  
HETATM   23  O   UNL     1     -11.735  18.147  69.977  1.00  0.00     3.806 OA 
ENDROOT
BRANCH   5  24
HETATM   24  C   UNL     1      -6.072  13.864  68.407  1.00  0.00    -0.099 C  
HETATM   25  H   UNL     1      -4.919  12.915  69.635  1.00  0.00     0.000 HD 
HETATM   26  O   UNL     1      -5.155  13.811  69.421  1.00  0.00    -0.082 OA 
BRANCH  24  27
HETATM   27  N   UNL     1      -6.627  12.845  67.900  1.00  0.00    -0.108 N  
HETATM   28  H   UNL     1      -6.430  11.913  68.265  1.00  0.00     0.000 HD 
BRANCH  27  29
HETATM   29  S   UNL     1      -7.647  13.040  66.675  1.00  0.00     0.988 S  
HETATM   30  O   UNL     1      -9.008  12.915  67.191  1.00  0.00    -0.203 OA 
HETATM   31  O   UNL     1      -7.300  14.173  65.849  1.00  0.00     3.060 OA 
BRANCH  29  32
HETATM   32  C   UNL     1      -7.413  11.546  65.587  1.00  0.00     0.698 C  
HETATM   33  C   UNL     1      -5.973  11.093  65.525  1.00  0.00     0.196 C  
HETATM   34  C   UNL     1      -6.995  10.269  66.263  1.00  0.00    -0.115 C  
ENDBRANCH  29  32
ENDBRANCH  27  29
ENDBRANCH  24  27
ENDBRANCH   5  24
BRANCH  22  35
HETATM   35  O   UNL     1     -12.384  13.163  69.445  1.00  0.00    -0.187 OA 
BRANCH  35  36
HETATM   36  C   UNL     1     -11.799  12.130  68.762  1.00  0.00    -0.303 A  
HETATM   37  C   UNL     1     -11.641  11.544  64.572  1.00  0.00    -0.073 A  
HETATM   38  C   UNL     1     -11.922  13.034  66.419  1.00  0.00    -0.466 A  
HETATM   39  C   UNL     1     -11.672  12.007  67.356  1.00  0.00    -0.352 A  
HETATM   40  C   UNL     1     -11.302  11.139  69.603  1.00  0.00    -0.366 A  
HETATM   41  C   UNL     1     -11.231  10.542  65.472  1.00  0.00     0.630 A  
HETATM   42  C   UNL     1     -11.223  10.765  66.864  1.00  0.00    -0.032 A  
HETATM   43  C   UNL     1     -10.799   9.185  64.972  1.00  0.00     4.078 C  
HETATM   44  C   UNL     1     -11.952  12.801  65.051  1.00  0.00    -0.456 A  
HETATM   45  C   UNL     1     -10.765  10.002  69.038  1.00  0.00    -0.220 A  
HETATM   46  N   UNL     1     -10.779   9.801  67.696  1.00  0.00    -0.277 NA 
BRANCH  37  47
HETATM   47  O   UNL     1     -11.640  11.246  63.232  1.00  0.00    -0.125 OA 
HETATM   48  C   UNL     1     -11.796  12.357  62.350  1.00  0.00     2.432 C  
ENDBRANCH  37  47
BRANCH  45  49
HETATM   49  C   UNL     1     -10.132   8.962  69.876  1.00  0.00    -0.195 A  
HETATM   50  N   UNL     1     -10.657   7.776  70.142  1.00  0.00    -0.232 NA 
HETATM   51  C   UNL     1      -9.840   7.055  71.008  1.00  0.00    -0.180 A  
HETATM   52  C   UNL     1      -8.687   7.715  71.385  1.00  0.00    -0.124 A  
HETATM   53  C   UNL     1     -10.249   5.674  71.449  1.00  0.00    -0.270 C  
HETATM   54  C   UNL     1     -11.569   5.691  72.220  1.00  0.00    -0.244 C  
HETATM   55  S   UNL     1      -8.615   9.254  70.648  1.00  0.00    -0.204 SA 
HETATM   56  C   UNL     1     -10.326   4.706  70.268  1.00  0.00    -0.084 C  
ENDBRANCH  45  49
ENDBRANCH  35  36
ENDBRANCH  22  35
TORSDOF 8
ENDMDL
MODEL       62
REMARK 921   NORMALIZED FREE ENERGY PREDICTED BY IDOCK:   12.48 KCAL/MOL
REMARK 922        TOTAL FREE ENERGY PREDICTED BY IDOCK:   15.76 KCAL/MOL
REMARK 923 INTER-LIGAND FREE ENERGY PREDICTED BY IDOCK:    8.00 KCAL/MOL
REMARK 924 INTRA-LIGAND FREE ENERGY PREDICTED BY IDOCK:    7.76 KCAL/MOL
REMARK 927      BINDING AFFINITY PREDICTED BY RF-SCORE:    0.00 PKD
ROOT
HETATM    1  C   UNL     1      -8.685   4.070  72.099  1.00  0.00    -0.121 C  
HETATM    2  C   UNL     1      -8.262   5.264  72.576  1.00  0.00    -0.114 C  
HETATM    3  C   UNL     1      -7.245   6.274  72.226  1.00  0.00    -0.087 C  
HETATM    4  C   UNL     1      -6.447   6.231  70.970  1.00  0.00    -0.049 C  
HETATM    5  C   UNL     1      -7.406   7.389  71.202  1.00  0.00    -0.072 C  
HETATM    6  C   UNL     1      -8.255   3.170  70.955  1.00  0.00    -0.078 C  
HETATM    7  N   UNL     1      -8.417   7.522  70.183  1.00  0.00    -0.135 NA 
HETATM    8  C   UNL     1      -9.673   7.291  70.277  1.00  0.00    -0.175 C  
HETATM    9  C   UNL     1     -10.127   7.539  67.804  1.00  0.00    -0.235 C  
HETATM   10  C   UNL     1      -9.386   2.412  70.178  1.00  0.00    -0.183 C  
HETATM   11  H   UNL     1      -8.089   7.840  69.271  1.00  0.00     0.000 HD 
HETATM   12  C   UNL     1     -10.484   3.716  67.922  1.00  0.00     1.757 C  
HETATM   13  C   UNL     1     -10.689   8.758  67.043  1.00  0.00    -0.186 C  
HETATM   14  C   UNL     1     -10.623   7.752  69.240  1.00  0.00    -0.199 C  
HETATM   15  O   UNL     1     -10.316   6.653  71.252  1.00  0.00    -0.203 OA 
HETATM   16  C   UNL     1     -10.612   6.137  67.388  1.00  0.00    -0.281 C  
HETATM   17  C   UNL     1     -10.836   9.246  69.377  1.00  0.00    -0.184 C  
HETATM   18  C   UNL     1      -8.504   5.124  68.282  1.00  0.00    -0.095 C  
HETATM   19  C   UNL     1      -9.771   2.547  68.667  1.00  0.00     0.074 C  
HETATM   20  H   UNL     1     -11.248   6.483  71.322  1.00  0.00     0.000 HD 
HETATM   21  N   UNL     1      -9.893   5.051  67.924  1.00  0.00    -0.153 N  
HETATM   22  C   UNL     1     -11.549   9.512  68.071  1.00  0.00     1.016 C  
HETATM   23  O   UNL     1     -11.662   5.989  66.768  1.00  0.00     0.482 OA 
ENDROOT
BRANCH   5  24
HETATM   24  C   UNL     1      -6.701   8.729  71.325  1.00  0.00    -0.078 C  
HETATM   25  H   UNL     1      -5.057   9.448  72.044  1.00  0.00     0.000 HD 
HETATM   26  O   UNL     1      -5.499   8.610  71.968  1.00  0.00    -0.039 OA 
BRANCH  24  27
HETATM   27  N   UNL     1      -7.117   9.800  70.793  1.00  0.00    -0.081 N  
HETATM   28  H   UNL     1      -7.987   9.809  70.261  1.00  0.00     0.000 HD 
BRANCH  27  29
HETATM   29  S   UNL     1      -6.255  11.144  70.967  1.00  0.00     0.789 S  
HETATM   30  O   UNL     1      -5.193  11.136  69.963  1.00  0.00    -0.050 OA 
HETATM   31  O   UNL     1      -7.088  12.315  71.113  1.00  0.00     2.771 OA 
BRANCH  29  32
HETATM   32  C   UNL     1      -5.369  10.961  72.596  1.00  0.00     0.580 C  
HETATM   33  C   UNL     1      -6.066  11.689  73.721  1.00  0.00     2.976 C  
HETATM   34  C   UNL     1      -6.075  10.183  73.672  1.00  0.00     1.180 C  
ENDBRANCH  29  32
ENDBRANCH  27  29
ENDBRANCH  24  27
ENDBRANCH   5  24
BRANCH  22  35
HETATM   35  O   UNL     1     -11.700  10.912  67.912  1.00  0.00    -0.557 OA 
BRANCH  35  36
HETATM   36  C   UNL     1     -10.626  11.618  67.438  1.00  0.00    -0.220 A  
HETATM   37  C   UNL     1      -6.766  10.157  66.498  1.00  0.00    -0.085 A  
HETATM   38  C   UNL     1      -9.090   9.720  66.837  1.00  0.00    -0.162 A  
HETATM   39  C   UNL     1      -9.375  11.090  67.035  1.00  0.00    -0.186 A  
HETATM   40  C   UNL     1     -10.866  12.988  67.374  1.00  0.00    -0.269 A  
HETATM   41  C   UNL     1      -7.043  11.536  66.532  1.00  0.00    -0.009 A  
HETATM   42  C   UNL     1      -8.345  12.017  66.780  1.00  0.00    -0.135 A  
HETATM   43  C   UNL     1      -5.945  12.549  66.315  1.00  0.00     1.943 C  
HETATM   44  C   UNL     1      -7.802   9.253  66.617  1.00  0.00    -0.104 A  
HETATM   45  C   UNL     1      -9.835  13.821  66.994  1.00  0.00    -0.251 A  
HETATM   46  N   UNL     1      -8.586  13.344  66.757  1.00  0.00    -0.098 NA 
BRANCH  37  47
HETATM   47  O   UNL     1      -5.470   9.765  66.269  1.00  0.00    -0.043 OA 
HETATM   48  C   UNL     1      -5.153   8.425  66.642  1.00  0.00    -0.031 C  
ENDBRANCH  37  47
BRANCH  45  49
HETATM   49  C   UNL     1     -10.056  15.270  66.810  1.00  0.00    -0.258 A  
HETATM   50  N   UNL     1      -9.132  16.207  66.962  1.00  0.00    -0.201 NA 
HETATM   51  C   UNL     1      -9.675  17.474  66.776  1.00  0.00    -0.295 A  
HETATM   52  C   UNL     1     -11.022  17.478  66.475  1.00  0.00     0.239 A  
HETATM   53  C   UNL     1      -8.799  18.693  66.908  1.00  0.00    -0.289 C  
HETATM   54  C   UNL     1      -8.208  18.818  68.312  1.00  0.00    -0.355 C  
HETATM   55  S   UNL     1     -11.623  15.880  66.417  1.00  0.00     0.682 SA 
HETATM   56  C   UNL     1      -7.692  18.706  65.853  1.00  0.00    -0.143 C  
ENDBRANCH  45  49
ENDBRANCH  35  36
ENDBRANCH  22  35
TORSDOF 8
ENDMDL
MODEL       63
REMARK 921   NORMALIZED FREE ENERGY PREDICTED BY IDOCK:   13.10 KCAL/MOL
REMARK 922        TOTAL FREE ENERGY PREDICTED BY IDOCK:   16.67 KCAL/MOL
REMARK 923 INTER-LIGAND FREE ENERGY PREDICTED BY IDOCK:   18.94 KCAL/MOL
REMARK 924 INTRA-LIGAND FREE ENERGY PREDICTED BY IDOCK:   -2.27 KCAL/MOL
REMARK 927      BINDING AFFINITY PREDICTED BY RF-SCORE:    0.00 PKD
ROOT
HETATM    1  C   UNL     1      -9.613  18.955  69.876  1.00  0.00     0.747 C  
HETATM    2  C   UNL     1     -10.264  18.065  69.091  1.00  0.00    -0.157 C  
HETATM    3  C   UNL     1     -10.006  17.332  67.837  1.00  0.00    -0.297 C  
HETATM    4  C   UNL     1      -8.684  17.320  67.153  1.00  0.00    -0.231 C  
HETATM    5  C   UNL     1      -9.246  16.019  67.708  1.00  0.00    -0.205 C  
HETATM    6  C   UNL     1      -8.274  19.664  69.794  1.00  0.00     0.558 C  
HETATM    7  N   UNL     1      -8.393  15.385  68.682  1.00  0.00    -0.157 NA 
HETATM    8  C   UNL     1      -8.582  15.267  69.944  1.00  0.00     0.172 C  
HETATM    9  C   UNL     1      -6.274  14.362  70.426  1.00  0.00    -0.173 C  
HETATM   10  C   UNL     1      -7.496  19.881  71.138  1.00  0.00     1.339 C  
HETATM   11  H   UNL     1      -7.531  14.979  68.321  1.00  0.00     0.000 HD 
HETATM   12  C   UNL     1      -5.679  17.856  71.907  1.00  0.00     0.999 C  
HETATM   13  C   UNL     1      -5.836  12.897  70.634  1.00  0.00    -0.109 C  
HETATM   14  C   UNL     1      -7.770  14.340  70.762  1.00  0.00     2.202 C  
HETATM   15  O   UNL     1      -9.480  15.896  70.698  1.00  0.00     0.839 OA 
HETATM   16  C   UNL     1      -5.648  15.442  71.330  1.00  0.00     0.147 C  
HETATM   17  C   UNL     1      -8.221  12.915  70.510  1.00  0.00     5.490 C  
HETATM   18  C   UNL     1      -6.082  17.180  69.580  1.00  0.00    -0.241 C  
HETATM   19  C   UNL     1      -6.095  19.313  71.540  1.00  0.00     0.306 C  
HETATM   20  H   UNL     1      -9.620  15.808  71.633  1.00  0.00     0.000 HD 
HETATM   21  N   UNL     1      -5.876  16.776  70.943  1.00  0.00     0.273 N  
HETATM   22  C   UNL     1      -7.082  12.177  71.176  1.00  0.00     4.580 C  
HETATM   23  O   UNL     1      -5.134  15.146  72.406  1.00  0.00    -0.177 OA 
ENDROOT
BRANCH   5  24
HETATM   24  C   UNL     1      -9.548  14.994  66.628  1.00  0.00    -0.263 C  
HETATM   25  H   UNL     1      -8.601  13.957  65.300  1.00  0.00     0.000 HD 
HETATM   26  O   UNL     1      -8.412  14.598  65.975  1.00  0.00     0.432 OA 
BRANCH  24  27
HETATM   27  N   UNL     1     -10.690  14.482  66.437  1.00  0.00    -0.303 N  
HETATM   28  H   UNL     1     -11.309  14.852  65.715  1.00  0.00     0.000 HD 
BRANCH  27  29
HETATM   29  S   UNL     1     -11.151  13.241  67.346  1.00  0.00    -0.288 S  
HETATM   30  O   UNL     1     -12.020  12.386  66.541  1.00  0.00    -0.564 OA 
HETATM   31  O   UNL     1     -10.048  12.654  68.071  1.00  0.00    -0.215 OA 
BRANCH  29  32
HETATM   32  C   UNL     1     -12.270  13.964  68.648  1.00  0.00    -0.178 C  
HETATM   33  C   UNL     1     -12.776  12.926  69.621  1.00  0.00     0.501 C  
HETATM   34  C   UNL     1     -11.765  13.951  70.065  1.00  0.00    -0.338 C  
ENDBRANCH  29  32
ENDBRANCH  27  29
ENDBRANCH  24  27
ENDBRANCH   5  24
BRANCH  22  35
HETATM   35  O   UNL     1      -7.218  10.792  70.908  1.00  0.00     0.398 OA 
BRANCH  35  36
HETATM   36  C   UNL     1      -8.117  10.416  69.946  1.00  0.00     0.045 A  
HETATM   37  C   UNL     1     -11.937   8.676  70.497  1.00  0.00     0.051 A  
HETATM   38  C   UNL     1     -10.127   9.957  71.386  1.00  0.00     0.735 A  
HETATM   39  C   UNL     1      -9.431   9.928  70.157  1.00  0.00    -0.214 A  
HETATM   40  C   UNL     1      -7.618  10.556  68.654  1.00  0.00    -0.099 A  
HETATM   41  C   UNL     1     -11.346   8.766  69.223  1.00  0.00     0.367 A  
HETATM   42  C   UNL     1     -10.104   9.405  69.034  1.00  0.00    -0.194 A  
HETATM   43  C   UNL     1     -12.022   8.165  68.015  1.00  0.00     3.321 C  
HETATM   44  C   UNL     1     -11.338   9.305  71.570  1.00  0.00    -0.455 A  
HETATM   45  C   UNL     1      -8.393  10.131  67.597  1.00  0.00    -0.114 A  
HETATM   46  N   UNL     1      -9.588   9.517  67.793  1.00  0.00    -0.132 NA 
BRANCH  37  47
HETATM   47  O   UNL     1     -13.140   8.021  70.605  1.00  0.00     0.267 OA 
HETATM   48  C   UNL     1     -13.534   7.665  71.930  1.00  0.00    -0.252 C  
ENDBRANCH  37  47
BRANCH  45  49
HETATM   49  C   UNL     1      -7.960  10.346  66.200  1.00  0.00    -0.138 A  
HETATM   50  N   UNL     1      -8.770  10.433  65.157  1.00  0.00    -0.174 NA 
HETATM   51  C   UNL     1      -8.046  10.576  63.977  1.00  0.00    -0.023 A  
HETATM   52  C   UNL     1      -6.677  10.603  64.149  1.00  0.00     0.227 A  
HETATM   53  C   UNL     1      -8.771  10.688  62.661  1.00  0.00    -0.276 C  
HETATM   54  C   UNL     1      -9.599   9.438  62.360  1.00  0.00     0.539 C  
HETATM   55  S   UNL     1      -6.282  10.453  65.804  1.00  0.00    -0.132 SA 
HETATM   56  C   UNL     1      -9.645  11.941  62.606  1.00  0.00     0.509 C  
ENDBRANCH  45  49
ENDBRANCH  35  36
ENDBRANCH  22  35
TORSDOF 8
ENDMDL
MODEL       64
REMARK 921   NORMALIZED FREE ENERGY PREDICTED BY IDOCK:   15.13 KCAL/MOL
REMARK 922        TOTAL FREE ENERGY PREDICTED BY IDOCK:   19.64 KCAL/MOL
REMARK 923 INTER-LIGAND FREE ENERGY PREDICTED BY IDOCK:   20.29 KCAL/MOL
REMARK 924 INTRA-LIGAND FREE ENERGY PREDICTED BY IDOCK:   -0.65 KCAL/MOL
REMARK 927      BINDING AFFINITY PREDICTED BY RF-SCORE:    0.00 PKD
ROOT
HETATM    1  C   UNL     1     -12.461  17.239  69.001  1.00  0.00     4.139 C  
HETATM    2  C   UNL     1     -12.596  15.893  69.068  1.00  0.00     0.659 C  
HETATM    3  C   UNL     1     -12.640  14.759  68.124  1.00  0.00     0.603 C  
HETATM    4  C   UNL     1     -12.347  14.892  66.671  1.00  0.00     0.278 C  
HETATM    5  C   UNL     1     -11.437  14.035  67.538  1.00  0.00    -0.343 C  
HETATM    6  C   UNL     1     -12.330  18.239  67.867  1.00  0.00     4.443 C  
HETATM    7  N   UNL     1     -10.059  14.458  67.532  1.00  0.00    -0.231 NA 
HETATM    8  C   UNL     1      -9.393  15.005  68.481  1.00  0.00    -0.196 C  
HETATM    9  C   UNL     1      -7.376  15.534  67.055  1.00  0.00    -0.172 C  
HETATM   10  C   UNL     1     -11.372  19.459  68.098  1.00  0.00     0.888 C  
HETATM   11  H   UNL     1      -9.550  14.303  66.663  1.00  0.00     0.000 HD 
HETATM   12  C   UNL     1      -8.677  19.139  67.305  1.00  0.00    -0.286 C  
HETATM   13  C   UNL     1      -6.046  14.760  66.940  1.00  0.00     1.413 C  
HETATM   14  C   UNL     1      -7.918  15.113  68.426  1.00  0.00    -0.136 C  
HETATM   15  O   UNL     1      -9.861  15.530  69.611  1.00  0.00    -0.265 OA 
HETATM   16  C   UNL     1      -7.321  17.073  67.071  1.00  0.00    -0.185 C  
HETATM   17  C   UNL     1      -7.302  13.758  68.707  1.00  0.00    -0.103 C  
HETATM   18  C   UNL     1      -9.664  17.183  66.194  1.00  0.00    -0.242 C  
HETATM   19  C   UNL     1     -10.076  19.828  67.302  1.00  0.00    -0.549 C  
HETATM   20  H   UNL     1      -9.367  15.935  70.314  1.00  0.00     0.000 HD 
HETATM   21  N   UNL     1      -8.553  17.736  66.919  1.00  0.00    -0.236 N  
HETATM   22  C   UNL     1      -5.877  14.046  68.291  1.00  0.00    -0.116 C  
HETATM   23  O   UNL     1      -6.287  17.666  67.369  1.00  0.00    -0.141 OA 
ENDROOT
BRANCH   5  24
HETATM   24  C   UNL     1     -11.465  12.564  67.157  1.00  0.00    -0.351 C  
HETATM   25  H   UNL     1     -12.404  11.394  65.939  1.00  0.00     0.000 HD 
HETATM   26  O   UNL     1     -12.386  12.314  66.177  1.00  0.00    -0.588 OA 
BRANCH  24  27
HETATM   27  N   UNL     1     -10.654  11.700  67.605  1.00  0.00    -0.196 N  
HETATM   28  H   UNL     1     -10.081  11.149  66.966  1.00  0.00     0.000 HD 
BRANCH  27  29
HETATM   29  S   UNL     1     -10.541  11.485  69.192  1.00  0.00    -0.076 S  
HETATM   30  O   UNL     1      -9.777  10.262  69.431  1.00  0.00    -0.213 OA 
HETATM   31  O   UNL     1     -10.178  12.698  69.886  1.00  0.00     1.136 OA 
BRANCH  29  32
HETATM   32  C   UNL     1     -12.268  11.085  69.766  1.00  0.00    -0.318 C  
HETATM   33  C   UNL     1     -12.904   9.975  68.963  1.00  0.00     2.423 C  
HETATM   34  C   UNL     1     -12.483   9.733  70.389  1.00  0.00    -0.031 C  
ENDBRANCH  29  32
ENDBRANCH  27  29
ENDBRANCH  24  27
ENDBRANCH   5  24
BRANCH  22  35
HETATM   35  O   UNL     1      -5.141  12.835  68.316  1.00  0.00    -0.059 OA 
BRANCH  35  36
HETATM   36  C   UNL     1      -5.836  11.672  68.513  1.00  0.00    -0.049 A  
HETATM   37  C   UNL     1      -7.169  10.029  72.180  1.00  0.00     2.404 A  
HETATM   38  C   UNL     1      -6.452  11.939  70.936  1.00  0.00     1.321 A  
HETATM   39  C   UNL     1      -6.359  11.194  69.740  1.00  0.00    -0.130 A  
HETATM   40  C   UNL     1      -6.009  10.940  67.342  1.00  0.00    -0.047 A  
HETATM   41  C   UNL     1      -7.240   9.301  70.978  1.00  0.00    -0.089 A  
HETATM   42  C   UNL     1      -6.857   9.875  69.749  1.00  0.00    -0.084 A  
HETATM   43  C   UNL     1      -7.718   7.869  70.971  1.00  0.00    -0.084 C  
HETATM   44  C   UNL     1      -6.807  11.362  72.147  1.00  0.00     5.799 A  
HETATM   45  C   UNL     1      -6.619   9.706  67.418  1.00  0.00    -0.070 A  
HETATM   46  N   UNL     1      -6.983   9.166  68.609  1.00  0.00    -0.062 NA 
BRANCH  37  47
HETATM   47  O   UNL     1      -7.541   9.396  73.341  1.00  0.00     0.452 OA 
HETATM   48  C   UNL     1      -6.662   9.570  74.451  1.00  0.00     0.622 C  
ENDBRANCH  37  47
BRANCH  45  49
HETATM   49  C   UNL     1      -6.919   8.930  66.197  1.00  0.00    -0.081 A  
HETATM   50  N   UNL     1      -6.823   7.613  66.090  1.00  0.00    -0.060 NA 
HETATM   51  C   UNL     1      -7.117   7.198  64.795  1.00  0.00    -0.068 A  
HETATM   52  C   UNL     1      -7.443   8.222  63.929  1.00  0.00    -0.114 A  
HETATM   53  C   UNL     1      -7.064   5.733  64.447  1.00  0.00    -0.053 C  
HETATM   54  C   UNL     1      -5.663   5.153  64.641  1.00  0.00    -0.017 C  
HETATM   55  S   UNL     1      -7.388   9.725  64.738  1.00  0.00    -0.135 SA 
HETATM   56  C   UNL     1      -8.096   4.930  65.238  1.00  0.00    -0.115 C  
ENDBRANCH  45  49
ENDBRANCH  35  36
ENDBRANCH  22  35
TORSDOF 8
ENDMDL
MODEL       65
REMARK 921   NORMALIZED FREE ENERGY PREDICTED BY IDOCK:   16.19 KCAL/MOL
REMARK 922        TOTAL FREE ENERGY PREDICTED BY IDOCK:   21.20 KCAL/MOL
REMARK 923 INTER-LIGAND FREE ENERGY PREDICTED BY IDOCK:   21.87 KCAL/MOL
REMARK 924 INTRA-LIGAND FREE ENERGY PREDICTED BY IDOCK:   -0.67 KCAL/MOL
REMARK 927      BINDING AFFINITY PREDICTED BY RF-SCORE:    0.00 PKD
ROOT
HETATM    1  C   UNL     1     -10.615   3.226  68.023  1.00  0.00     2.953 C  
HETATM    2  C   UNL     1     -10.309   3.481  69.317  1.00  0.00     1.390 C  
HETATM    3  C   UNL     1      -9.134   3.938  70.083  1.00  0.00    -0.191 C  
HETATM    4  C   UNL     1      -7.884   4.434  69.447  1.00  0.00    -0.058 C  
HETATM    5  C   UNL     1      -8.713   5.385  70.297  1.00  0.00    -0.127 C  
HETATM    6  C   UNL     1      -9.839   3.260  66.720  1.00  0.00     0.271 C  
HETATM    7  N   UNL     1      -9.164   6.557  69.589  1.00  0.00    -0.144 NA 
HETATM    8  C   UNL     1     -10.356   6.854  69.225  1.00  0.00    -0.198 C  
HETATM    9  C   UNL     1      -9.669   8.849  67.836  1.00  0.00    -0.190 C  
HETATM   10  C   UNL     1     -10.602   3.762  65.446  1.00  0.00     0.341 C  
HETATM   11  H   UNL     1      -8.442   7.236  69.349  1.00  0.00     0.000 HD 
HETATM   12  C   UNL     1     -10.467   6.530  64.881  1.00  0.00     4.281 C  
HETATM   13  C   UNL     1      -9.708  10.346  68.212  1.00  0.00    -0.162 C  
HETATM   14  C   UNL     1     -10.707   8.218  68.772  1.00  0.00    -0.076 C  
HETATM   15  O   UNL     1     -11.423   6.059  69.195  1.00  0.00    -0.330 OA 
HETATM   16  C   UNL     1     -10.081   8.449  66.407  1.00  0.00    -0.172 C  
HETATM   17  C   UNL     1     -10.790   9.143  69.969  1.00  0.00    -0.256 C  
HETATM   18  C   UNL     1      -8.692   6.372  66.571  1.00  0.00    -0.133 C  
HETATM   19  C   UNL     1     -10.280   5.014  64.564  1.00  0.00     0.705 C  
HETATM   20  H   UNL     1     -12.306   6.279  68.925  1.00  0.00     0.000 HD 
HETATM   21  N   UNL     1      -9.789   7.124  66.030  1.00  0.00     0.191 N  
HETATM   22  C   UNL     1     -10.836  10.471  69.249  1.00  0.00    -0.243 C  
HETATM   23  O   UNL     1     -10.770   9.194  65.715  1.00  0.00     0.653 OA 
ENDROOT
BRANCH   5  24
HETATM   24  C   UNL     1      -7.984   5.856  71.545  1.00  0.00    -0.113 C  
HETATM   25  H   UNL     1      -6.616   7.130  72.038  1.00  0.00     0.000 HD 
HETATM   26  O   UNL     1      -7.072   6.835  71.258  1.00  0.00    -0.072 OA 
BRANCH  24  27
HETATM   27  N   UNL     1      -8.269   5.476  72.718  1.00  0.00    -0.109 N  
HETATM   28  H   UNL     1      -8.062   4.523  73.018  1.00  0.00     0.000 HD 
BRANCH  27  29
HETATM   29  S   UNL     1      -8.962   6.514  73.728  1.00  0.00    -0.136 S  
HETATM   30  O   UNL     1      -9.910   5.775  74.560  1.00  0.00    -0.192 OA 
HETATM   31  O   UNL     1      -8.003   7.395  74.352  1.00  0.00    -0.141 OA 
BRANCH  29  32
HETATM   32  C   UNL     1     -10.024   7.614  72.663  1.00  0.00    -0.223 C  
HETATM   33  C   UNL     1     -11.345   7.951  73.312  1.00  0.00     0.091 C  
HETATM   34  C   UNL     1     -10.281   9.008  73.166  1.00  0.00     1.847 C  
ENDBRANCH  29  32
ENDBRANCH  27  29
ENDBRANCH  24  27
ENDBRANCH   5  24
BRANCH  22  35
HETATM   35  O   UNL     1     -10.746  11.512  70.207  1.00  0.00     0.482 OA 
BRANCH  35  36
HETATM   36  C   UNL     1     -10.937  12.796  69.772  1.00  0.00     0.340 A  
HETATM   37  C   UNL     1     -12.025  16.183  72.067  1.00  0.00    -0.526 A  
HETATM   38  C   UNL     1     -11.094  13.984  71.982  1.00  0.00     2.699 A  
HETATM   39  C   UNL     1     -11.202  13.933  70.575  1.00  0.00     0.314 A  
HETATM   40  C   UNL     1     -10.843  12.918  68.388  1.00  0.00    -0.276 A  
HETATM   41  C   UNL     1     -11.997  16.225  70.661  1.00  0.00    -0.004 A  
HETATM   42  C   UNL     1     -11.571  15.115  69.902  1.00  0.00    -0.300 A  
HETATM   43  C   UNL     1     -12.439  17.461  69.917  1.00  0.00     6.417 C  
HETATM   44  C   UNL     1     -11.538  15.070  72.724  1.00  0.00    -0.299 A  
HETATM   45  C   UNL     1     -11.100  14.145  67.815  1.00  0.00    -0.276 A  
HETATM   46  N   UNL     1     -11.509  15.205  68.558  1.00  0.00    -0.305 NA 
BRANCH  37  47
HETATM   47  O   UNL     1     -12.471  17.296  72.736  1.00  0.00     1.226 OA 
HETATM   48  C   UNL     1     -12.076  17.395  74.104  1.00  0.00     0.405 C  
ENDBRANCH  37  47
BRANCH  45  49
HETATM   49  C   UNL     1     -10.919  14.359  66.364  1.00  0.00    -0.319 A  
HETATM   50  N   UNL     1     -10.938  13.405  65.446  1.00  0.00    -0.282 NA 
HETATM   51  C   UNL     1     -10.677  13.927  64.183  1.00  0.00     0.070 A  
HETATM   52  C   UNL     1     -10.469  15.292  64.163  1.00  0.00     1.434 A  
HETATM   53  C   UNL     1     -10.645  13.013  62.985  1.00  0.00     1.552 C  
HETATM   54  C   UNL     1      -9.549  11.954  63.109  1.00  0.00    -0.137 C  
HETATM   55  S   UNL     1     -10.603  15.937  65.738  1.00  0.00    -0.344 SA 
HETATM   56  C   UNL     1     -12.004  12.358  62.742  1.00  0.00     0.542 C  
ENDBRANCH  45  49
ENDBRANCH  35  36
ENDBRANCH  22  35
TORSDOF 8
ENDMDL
MODEL       66
REMARK 921   NORMALIZED FREE ENERGY PREDICTED BY IDOCK:   16.31 KCAL/MOL
REMARK 922        TOTAL FREE ENERGY PREDICTED BY IDOCK:   21.39 KCAL/MOL
REMARK 923 INTER-LIGAND FREE ENERGY PREDICTED BY IDOCK:   20.19 KCAL/MOL
REMARK 924 INTRA-LIGAND FREE ENERGY PREDICTED BY IDOCK:    1.19 KCAL/MOL
REMARK 927      BINDING AFFINITY PREDICTED BY RF-SCORE:    0.00 PKD
ROOT
HETATM    1  C   UNL     1     -13.968  15.931  69.352  1.00  0.00     4.142 C  
HETATM    2  C   UNL     1     -13.286  15.670  68.211  1.00  0.00     3.917 C  
HETATM    3  C   UNL     1     -11.885  15.709  67.752  1.00  0.00     0.094 C  
HETATM    4  C   UNL     1     -10.731  15.944  68.662  1.00  0.00    -0.274 C  
HETATM    5  C   UNL     1     -10.850  14.608  67.942  1.00  0.00    -0.259 C  
HETATM    6  C   UNL     1     -13.581  16.444  70.726  1.00  0.00     3.351 C  
HETATM    7  N   UNL     1     -10.912  13.473  68.828  1.00  0.00    -0.255 NA 
HETATM    8  C   UNL     1     -11.912  12.711  69.072  1.00  0.00    -0.236 C  
HETATM    9  C   UNL     1     -10.789  11.478  70.969  1.00  0.00     2.816 C  
HETATM   10  C   UNL     1     -14.335  15.828  71.956  1.00  0.00    -0.300 C  
HETATM   11  H   UNL     1     -10.049  13.247  69.322  1.00  0.00     0.000 HD 
HETATM   12  C   UNL     1     -13.171  13.548  73.159  1.00  0.00     0.660 C  
HETATM   13  C   UNL     1     -10.098  10.098  70.948  1.00  0.00     0.503 C  
HETATM   14  C   UNL     1     -11.745  11.418  69.772  1.00  0.00    -0.418 C  
HETATM   15  O   UNL     1     -13.190  12.915  68.760  1.00  0.00     1.741 OA 
HETATM   16  C   UNL     1     -11.657  11.836  72.191  1.00  0.00     4.331 C  
HETATM   17  C   UNL     1     -11.142  10.403  68.822  1.00  0.00    -0.298 C  
HETATM   18  C   UNL     1     -11.289  14.275  71.758  1.00  0.00     1.072 C  
HETATM   19  C   UNL     1     -13.728  15.005  73.141  1.00  0.00    -0.158 C  
HETATM   20  H   UNL     1     -13.932  12.350  68.942  1.00  0.00     0.000 HD 
HETATM   21  N   UNL     1     -12.055  13.182  72.291  1.00  0.00     1.033 N  
HETATM   22  C   UNL     1     -10.786   9.320  69.815  1.00  0.00    -0.231 C  
HETATM   23  O   UNL     1     -12.105  10.960  72.927  1.00  0.00     2.702 OA 
ENDROOT
BRANCH   5  24
HETATM   24  C   UNL     1      -9.719  14.361  66.958  1.00  0.00    -0.254 C  
HETATM   25  H   UNL     1      -9.436  13.497  65.253  1.00  0.00     0.000 HD 
HETATM   26  O   UNL     1     -10.144  13.651  65.868  1.00  0.00    -0.298 OA 
BRANCH  24  27
HETATM   27  N   UNL     1      -8.558  14.854  67.075  1.00  0.00    -0.226 N  
HETATM   28  H   UNL     1      -7.783  14.278  67.404  1.00  0.00     0.000 HD 
BRANCH  27  29
HETATM   29  S   UNL     1      -8.323  16.397  66.697  1.00  0.00    -0.299 S  
HETATM   30  O   UNL     1      -7.099  16.489  65.904  1.00  0.00     0.235 OA 
HETATM   31  O   UNL     1      -9.529  17.034  66.222  1.00  0.00    -0.262 OA 
BRANCH  29  32
HETATM   32  C   UNL     1      -7.914  17.247  68.302  1.00  0.00    -0.244 C  
HETATM   33  C   UNL     1      -7.020  16.414  69.190  1.00  0.00    -0.218 C  
HETATM   34  C   UNL     1      -6.479  17.647  68.516  1.00  0.00    -0.196 C  
ENDBRANCH  29  32
ENDBRANCH  27  29
ENDBRANCH  24  27
ENDBRANCH   5  24
BRANCH  22  35
HETATM   35  O   UNL     1     -10.038   8.318  69.147  1.00  0.00    -0.192 OA 
BRANCH  35  36
HETATM   36  C   UNL     1      -9.011   8.724  68.337  1.00  0.00    -0.141 A  
HETATM   37  C   UNL     1      -6.111  11.708  69.118  1.00  0.00    -0.067 A  
HETATM   38  C   UNL     1      -7.725  10.158  69.954  1.00  0.00    -0.171 A  
HETATM   39  C   UNL     1      -7.992   9.655  68.662  1.00  0.00    -0.089 A  
HETATM   40  C   UNL     1      -9.036   8.116  67.086  1.00  0.00    -0.154 A  
HETATM   41  C   UNL     1      -6.238  11.120  67.846  1.00  0.00    -0.053 A  
HETATM   42  C   UNL     1      -7.160  10.080  67.607  1.00  0.00    -0.087 A  
HETATM   43  C   UNL     1      -5.396  11.597  66.688  1.00  0.00    -0.099 C  
HETATM   44  C   UNL     1      -6.834  11.197  70.178  1.00  0.00     0.132 A  
HETATM   45  C   UNL     1      -8.105   8.503  66.145  1.00  0.00    -0.105 A  
HETATM   46  N   UNL     1      -7.222   9.505  66.389  1.00  0.00    -0.088 NA 
BRANCH  37  47
HETATM   47  O   UNL     1      -5.205  12.729  69.269  1.00  0.00    -0.069 OA 
HETATM   48  C   UNL     1      -5.600  13.783  70.146  1.00  0.00    -0.123 C  
ENDBRANCH  37  47
BRANCH  45  49
HETATM   49  C   UNL     1      -8.018   7.823  64.836  1.00  0.00    -0.139 A  
HETATM   50  N   UNL     1      -7.656   6.562  64.656  1.00  0.00    -0.093 NA 
HETATM   51  C   UNL     1      -7.618   6.244  63.302  1.00  0.00    -0.086 A  
HETATM   52  C   UNL     1      -7.966   7.285  62.464  1.00  0.00    -0.131 A  
HETATM   53  C   UNL     1      -7.224   4.857  62.867  1.00  0.00    -0.043 C  
HETATM   54  C   UNL     1      -5.799   4.510  63.300  1.00  0.00    -0.017 C  
HETATM   55  S   UNL     1      -8.350   8.679  63.373  1.00  0.00    -0.076 SA 
HETATM   56  C   UNL     1      -8.213   3.807  63.372  1.00  0.00    -0.089 C  
ENDBRANCH  45  49
ENDBRANCH  35  36
ENDBRANCH  22  35
TORSDOF 8
ENDMDL
MODEL       67
REMARK 921   NORMALIZED FREE ENERGY PREDICTED BY IDOCK:   17.06 KCAL/MOL
REMARK 922        TOTAL FREE ENERGY PREDICTED BY IDOCK:   22.48 KCAL/MOL
REMARK 923 INTER-LIGAND FREE ENERGY PREDICTED BY IDOCK:   21.17 KCAL/MOL
REMARK 924 INTRA-LIGAND FREE ENERGY PREDICTED BY IDOCK:    1.32 KCAL/MOL
REMARK 927      BINDING AFFINITY PREDICTED BY RF-SCORE:    0.00 PKD
ROOT
HETATM    1  C   UNL     1     -12.018   6.040  69.184  1.00  0.00     1.603 C  
HETATM    2  C   UNL     1     -11.294   6.546  70.211  1.00  0.00    -0.456 C  
HETATM    3  C   UNL     1      -9.901   6.478  70.692  1.00  0.00    -0.201 C  
HETATM    4  C   UNL     1      -8.798   5.844  69.920  1.00  0.00    -0.130 C  
HETATM    5  C   UNL     1      -8.743   7.338  70.206  1.00  0.00    -0.147 C  
HETATM    6  C   UNL     1     -11.717   5.098  68.034  1.00  0.00     4.171 C  
HETATM    7  N   UNL     1      -8.678   8.156  69.021  1.00  0.00    -0.143 NA 
HETATM    8  C   UNL     1      -9.582   8.925  68.538  1.00  0.00    -0.157 C  
HETATM    9  C   UNL     1      -8.345   9.390  66.385  1.00  0.00    -0.116 C  
HETATM   10  C   UNL     1     -12.407   5.404  66.659  1.00  0.00     5.827 C  
HETATM   11  H   UNL     1      -7.802   8.118  68.502  1.00  0.00     0.000 HD 
HETATM   12  C   UNL     1     -10.992   7.063  64.859  1.00  0.00     7.952 C  
HETATM   13  C   UNL     1      -7.490  10.619  66.010  1.00  0.00    -0.137 C  
HETATM   14  C   UNL     1      -9.269   9.920  67.489  1.00  0.00    -0.148 C  
HETATM   15  O   UNL     1     -10.871   8.979  68.867  1.00  0.00    -0.383 OA 
HETATM   16  C   UNL     1      -9.267   8.791  65.306  1.00  0.00    -0.031 C  
HETATM   17  C   UNL     1      -8.533  11.091  68.106  1.00  0.00    -0.135 C  
HETATM   18  C   UNL     1      -9.193   6.567  66.456  1.00  0.00    -0.157 C  
HETATM   19  C   UNL     1     -11.722   5.757  65.297  1.00  0.00     3.535 C  
HETATM   20  H   UNL     1     -11.540   9.549  68.509  1.00  0.00     0.000 HD 
HETATM   21  N   UNL     1      -9.828   7.534  65.604  1.00  0.00     0.696 N  
HETATM   22  C   UNL     1      -8.062  11.777  66.844  1.00  0.00    -0.160 C  
HETATM   23  O   UNL     1      -9.615   9.454  64.333  1.00  0.00     0.009 OA 
ENDROOT
BRANCH   5  24
HETATM   24  C   UNL     1      -7.576   7.730  71.097  1.00  0.00    -0.079 C  
HETATM   25  H   UNL     1      -6.101   8.978  71.099  1.00  0.00     0.000 HD 
HETATM   26  O   UNL     1      -6.831   8.734  70.541  1.00  0.00    -0.038 OA 
BRANCH  24  27
HETATM   27  N   UNL     1      -7.388   7.268  72.262  1.00  0.00    -0.071 N  
HETATM   28  H   UNL     1      -6.589   6.665  72.455  1.00  0.00     0.000 HD 
BRANCH  27  29
HETATM   29  S   UNL     1      -8.424   7.648  73.428  1.00  0.00    -0.196 S  
HETATM   30  O   UNL     1      -7.701   8.403  74.450  1.00  0.00    -0.225 OA 
HETATM   31  O   UNL     1      -9.669   8.164  72.909  1.00  0.00    -0.262 OA 
BRANCH  29  32
HETATM   32  C   UNL     1      -8.862   6.035  74.251  1.00  0.00    -0.128 C  
HETATM   33  C   UNL     1     -10.294   5.625  74.001  1.00  0.00    -0.298 C  
HETATM   34  C   UNL     1      -9.164   4.870  73.350  1.00  0.00    -0.126 C  
ENDBRANCH  29  32
ENDBRANCH  27  29
ENDBRANCH  24  27
ENDBRANCH   5  24
BRANCH  22  35
HETATM   35  O   UNL     1      -7.188  12.835  67.200  1.00  0.00    -0.117 OA 
BRANCH  35  36
HETATM   36  C   UNL     1      -7.725  13.911  67.854  1.00  0.00    -0.160 A  
HETATM   37  C   UNL     1      -5.836  17.577  68.814  1.00  0.00    -0.172 A  
HETATM   38  C   UNL     1      -5.909  15.606  67.464  1.00  0.00    -0.103 A  
HETATM   39  C   UNL     1      -7.104  15.166  68.075  1.00  0.00    -0.139 A  
HETATM   40  C   UNL     1      -9.015  13.673  68.319  1.00  0.00    -0.187 A  
HETATM   41  C   UNL     1      -7.104  17.246  69.326  1.00  0.00    -0.155 A  
HETATM   42  C   UNL     1      -7.759  16.055  68.951  1.00  0.00    -0.196 A  
HETATM   43  C   UNL     1      -7.801  18.156  70.308  1.00  0.00     2.516 C  
HETATM   44  C   UNL     1      -5.258  16.768  67.855  1.00  0.00    -0.128 A  
HETATM   45  C   UNL     1      -9.637  14.649  69.069  1.00  0.00    -0.145 A  
HETATM   46  N   UNL     1      -8.995  15.792  69.422  1.00  0.00    -0.264 NA 
BRANCH  37  47
HETATM   47  O   UNL     1      -5.253  18.745  69.240  1.00  0.00    -0.193 OA 
HETATM   48  C   UNL     1      -5.257  18.961  70.650  1.00  0.00    -0.234 C  
ENDBRANCH  37  47
BRANCH  45  49
HETATM   49  C   UNL     1     -11.041  14.494  69.504  1.00  0.00    -0.253 A  
HETATM   50  N   UNL     1     -11.472  14.633  70.749  1.00  0.00    -0.229 NA 
HETATM   51  C   UNL     1     -12.834  14.364  70.835  1.00  0.00    -0.351 A  
HETATM   52  C   UNL     1     -13.425  14.027  69.634  1.00  0.00     2.097 A  
HETATM   53  C   UNL     1     -13.534  14.457  72.166  1.00  0.00    -0.507 C  
HETATM   54  C   UNL     1     -12.963  13.465  73.179  1.00  0.00     0.823 C  
HETATM   55  S   UNL     1     -12.270  14.048  68.376  1.00  0.00    -0.010 SA 
HETATM   56  C   UNL     1     -13.495  15.880  72.723  1.00  0.00    -0.594 C  
ENDBRANCH  45  49
ENDBRANCH  35  36
ENDBRANCH  22  35
TORSDOF 8
ENDMDL
MODEL       68
REMARK 921   NORMALIZED FREE ENERGY PREDICTED BY IDOCK:   21.24 KCAL/MOL
REMARK 922        TOTAL FREE ENERGY PREDICTED BY IDOCK:   28.62 KCAL/MOL
REMARK 923 INTER-LIGAND FREE ENERGY PREDICTED BY IDOCK:   26.27 KCAL/MOL
REMARK 924 INTRA-LIGAND FREE ENERGY PREDICTED BY IDOCK:    2.35 KCAL/MOL
REMARK 927      BINDING AFFINITY PREDICTED BY RF-SCORE:    0.00 PKD
ROOT
HETATM    1  C   UNL     1     -10.630  19.437  67.344  1.00  0.00    -0.603 C  
HETATM    2  C   UNL     1      -9.397  19.325  66.796  1.00  0.00    -0.379 C  
HETATM    3  C   UNL     1      -7.999  19.308  67.266  1.00  0.00    -0.285 C  
HETATM    4  C   UNL     1      -7.619  19.256  68.704  1.00  0.00    -0.385 C  
HETATM    5  C   UNL     1      -7.246  18.095  67.793  1.00  0.00    -0.213 C  
HETATM    6  C   UNL     1     -11.152  19.646  68.754  1.00  0.00     1.256 C  
HETATM    7  N   UNL     1      -7.787  16.827  68.216  1.00  0.00    -0.186 NA 
HETATM    8  C   UNL     1      -8.713  16.136  67.662  1.00  0.00    -0.177 C  
HETATM    9  C   UNL     1      -8.899  14.468  69.551  1.00  0.00     0.322 C  
HETATM   10  C   UNL     1     -12.469  18.891  69.148  1.00  0.00    10.309 C  
HETATM   11  H   UNL     1      -7.380  16.429  69.062  1.00  0.00     0.000 HD 
HETATM   12  C   UNL     1     -12.177  16.324  70.299  1.00  0.00     0.356 C  
HETATM   13  C   UNL     1      -8.288  13.055  69.654  1.00  0.00     1.710 C  
HETATM   14  C   UNL     1      -8.954  14.726  68.040  1.00  0.00    -0.174 C  
HETATM   15  O   UNL     1      -9.562  16.520  66.712  1.00  0.00    -0.236 OA 
HETATM   16  C   UNL     1     -10.333  14.679  70.074  1.00  0.00     0.221 C  
HETATM   17  C   UNL     1      -7.874  13.850  67.439  1.00  0.00    -0.177 C  
HETATM   18  C   UNL     1      -9.854  17.107  70.455  1.00  0.00     1.887 C  
HETATM   19  C   UNL     1     -12.659  17.807  70.261  1.00  0.00    10.643 C  
HETATM   20  H   UNL     1     -10.248  16.007  66.302  1.00  0.00     0.000 HD 
HETATM   21  N   UNL     1     -10.754  16.017  70.197  1.00  0.00    -0.324 N  
HETATM   22  C   UNL     1      -8.144  12.572  68.201  1.00  0.00    -0.167 C  
HETATM   23  O   UNL     1     -11.103  13.731  70.206  1.00  0.00     0.111 OA 
ENDROOT
BRANCH   5  24
HETATM   24  C   UNL     1      -5.745  17.922  67.635  1.00  0.00    -0.139 C  
HETATM   25  H   UNL     1      -4.214  17.437  68.710  1.00  0.00     0.000 HD 
HETATM   26  O   UNL     1      -5.153  17.544  68.809  1.00  0.00    -0.148 OA 
BRANCH  24  27
HETATM   27  N   UNL     1      -5.136  18.001  66.527  1.00  0.00    -0.137 N  
HETATM   28  H   UNL     1      -4.137  17.802  66.471  1.00  0.00     0.000 HD 
BRANCH  27  29
HETATM   29  S   UNL     1      -5.958  18.419  65.212  1.00  0.00    -0.187 S  
HETATM   30  O   UNL     1      -5.189  17.999  64.043  1.00  0.00     0.240 OA 
HETATM   31  O   UNL     1      -7.356  18.071  65.307  1.00  0.00    -0.357 OA 
BRANCH  29  32
HETATM   32  C   UNL     1      -5.913  20.281  65.166  1.00  0.00    -0.222 C  
HETATM   33  C   UNL     1      -5.305  20.816  63.892  1.00  0.00    -0.243 C  
HETATM   34  C   UNL     1      -6.783  20.959  64.143  1.00  0.00    -0.055 C  
ENDBRANCH  29  32
ENDBRANCH  27  29
ENDBRANCH  24  27
ENDBRANCH   5  24
BRANCH  22  35
HETATM   35  O   UNL     1      -7.116  11.641  67.909  1.00  0.00    -0.074 OA 
BRANCH  35  36
HETATM   36  C   UNL     1      -7.372  10.687  66.961  1.00  0.00    -0.102 A  
HETATM   37  C   UNL     1      -9.863  11.011  63.553  1.00  0.00    -0.359 A  
HETATM   38  C   UNL     1      -8.566  12.087  65.247  1.00  0.00     0.830 A  
HETATM   39  C   UNL     1      -8.130  10.851  65.775  1.00  0.00    -0.094 A  
HETATM   40  C   UNL     1      -6.795   9.457  67.262  1.00  0.00    -0.084 A  
HETATM   41  C   UNL     1      -9.321   9.776  63.954  1.00  0.00    -0.195 A  
HETATM   42  C   UNL     1      -8.439   9.683  65.050  1.00  0.00    -0.150 A  
HETATM   43  C   UNL     1      -9.681   8.503  63.227  1.00  0.00     3.107 C  
HETATM   44  C   UNL     1      -9.453  12.170  64.183  1.00  0.00     0.156 A  
HETATM   45  C   UNL     1      -7.048   8.387  66.430  1.00  0.00    -0.071 A  
HETATM   46  N   UNL     1      -7.900   8.491  65.378  1.00  0.00    -0.101 NA 
BRANCH  37  47
HETATM   47  O   UNL     1     -10.730  11.020  62.488  1.00  0.00     0.420 OA 
HETATM   48  C   UNL     1     -12.059  11.455  62.775  1.00  0.00     0.959 C  
ENDBRANCH  37  47
BRANCH  45  49
HETATM   49  C   UNL     1      -6.384   7.084  66.643  1.00  0.00    -0.050 A  
HETATM   50  N   UNL     1      -6.523   6.023  65.863  1.00  0.00    -0.042 NA 
HETATM   51  C   UNL     1      -5.814   4.938  66.369  1.00  0.00    -0.022 A  
HETATM   52  C   UNL     1      -5.131   5.202  67.540  1.00  0.00    -0.004 A  
HETATM   53  C   UNL     1      -5.836   3.620  65.640  1.00  0.00    -0.019 C  
HETATM   54  C   UNL     1      -7.250   3.045  65.552  1.00  0.00    -0.070 C  
HETATM   55  S   UNL     1      -5.371   6.823  68.017  1.00  0.00    -0.012 SA 
HETATM   56  C   UNL     1      -5.213   3.737  64.249  1.00  0.00    -0.009 C  
ENDBRANCH  45  49
ENDBRANCH  35  36
ENDBRANCH  22  35
TORSDOF 8
ENDMDL
MODEL       69
REMARK 921   NORMALIZED FREE ENERGY PREDICTED BY IDOCK:   25.24 KCAL/MOL
REMARK 922        TOTAL FREE ENERGY PREDICTED BY IDOCK:   34.48 KCAL/MOL
REMARK 923 INTER-LIGAND FREE ENERGY PREDICTED BY IDOCK:   31.73 KCAL/MOL
REMARK 924 INTRA-LIGAND FREE ENERGY PREDICTED BY IDOCK:    2.76 KCAL/MOL
REMARK 927      BINDING AFFINITY PREDICTED BY RF-SCORE:    0.00 PKD
ROOT
HETATM    1  C   UNL     1      -6.504  18.598  66.439  1.00  0.00    -0.225 C  
HETATM    2  C   UNL     1      -6.417  17.294  66.087  1.00  0.00    -0.158 C  
HETATM    3  C   UNL     1      -5.839  16.056  66.645  1.00  0.00     0.794 C  
HETATM    4  C   UNL     1      -5.269  15.965  68.017  1.00  0.00    -0.130 C  
HETATM    5  C   UNL     1      -6.500  15.142  67.667  1.00  0.00    -0.155 C  
HETATM    6  C   UNL     1      -5.988  19.421  67.605  1.00  0.00    -0.209 C  
HETATM    7  N   UNL     1      -7.642  15.419  68.503  1.00  0.00    -0.118 NA 
HETATM    8  C   UNL     1      -8.731  16.016  68.185  1.00  0.00    -0.173 C  
HETATM    9  C   UNL     1      -9.607  16.144  70.551  1.00  0.00     1.431 C  
HETATM   10  C   UNL     1      -6.923  20.558  68.146  1.00  0.00    -0.258 C  
HETATM   11  H   UNL     1      -7.575  15.100  69.468  1.00  0.00     0.000 HD 
HETATM   12  C   UNL     1      -8.706  19.864  70.228  1.00  0.00     1.387 C  
HETATM   13  C   UNL     1     -10.636  15.231  71.249  1.00  0.00     0.268 C  
HETATM   14  C   UNL     1      -9.922  15.965  69.061  1.00  0.00    -0.233 C  
HETATM   15  O   UNL     1      -8.981  16.730  67.090  1.00  0.00    -0.198 OA 
HETATM   16  C   UNL     1      -9.677  17.659  70.824  1.00  0.00     3.685 C  
HETATM   17  C   UNL     1     -10.577  14.604  68.945  1.00  0.00    -0.253 C  
HETATM   18  C   UNL     1      -7.247  17.889  70.267  1.00  0.00     1.740 C  
HETATM   19  C   UNL     1      -7.554  20.685  69.573  1.00  0.00     1.178 C  
HETATM   20  H   UNL     1      -9.789  17.172  66.855  1.00  0.00     0.000 HD 
HETATM   21  N   UNL     1      -8.578  18.418  70.379  1.00  0.00     2.879 N  
HETATM   22  C   UNL     1     -11.526  14.689  70.119  1.00  0.00    -0.259 C  
HETATM   23  O   UNL     1     -10.707  18.178  71.248  1.00  0.00     1.748 OA 
ENDROOT
BRANCH   5  24
HETATM   24  C   UNL     1      -6.248  13.644  67.719  1.00  0.00    -0.152 C  
HETATM   25  H   UNL     1      -5.004  12.405  68.525  1.00  0.00     0.000 HD 
HETATM   26  O   UNL     1      -5.161  13.341  68.493  1.00  0.00    -0.067 OA 
BRANCH  24  27
HETATM   27  N   UNL     1      -7.019  12.778  67.209  1.00  0.00    -0.313 N  
HETATM   28  H   UNL     1      -6.866  11.785  67.382  1.00  0.00     0.000 HD 
BRANCH  27  29
HETATM   29  S   UNL     1      -8.239  13.266  66.286  1.00  0.00     1.280 S  
HETATM   30  O   UNL     1      -9.475  13.123  67.053  1.00  0.00    -0.225 OA 
HETATM   31  O   UNL     1      -7.956  14.515  65.619  1.00  0.00     2.489 OA 
BRANCH  29  32
HETATM   32  C   UNL     1      -8.375  11.999  64.927  1.00  0.00     1.649 C  
HETATM   33  C   UNL     1      -9.805  11.746  64.510  1.00  0.00    -0.228 C  
HETATM   34  C   UNL     1      -8.866  12.483  63.590  1.00  0.00     2.240 C  
ENDBRANCH  29  32
ENDBRANCH  27  29
ENDBRANCH  24  27
ENDBRANCH   5  24
BRANCH  22  35
HETATM   35  O   UNL     1     -12.138  13.423  70.303  1.00  0.00    -0.342 OA 
BRANCH  35  36
HETATM   36  C   UNL     1     -11.653  12.371  69.573  1.00  0.00    -0.286 A  
HETATM   37  C   UNL     1     -12.555  11.356  65.563  1.00  0.00     2.763 A  
HETATM   38  C   UNL     1     -12.486  13.008  67.288  1.00  0.00     0.310 A  
HETATM   39  C   UNL     1     -11.892  12.109  68.201  1.00  0.00    -0.362 A  
HETATM   40  C   UNL     1     -10.853  11.515  70.324  1.00  0.00     0.742 A  
HETATM   41  C   UNL     1     -11.821  10.489  66.395  1.00  0.00     2.059 A  
HETATM   42  C   UNL     1     -11.466  10.859  67.708  1.00  0.00    -0.243 A  
HETATM   43  C   UNL     1     -11.402   9.124  65.908  1.00  0.00     3.473 C  
HETATM   44  C   UNL     1     -12.854  12.630  66.004  1.00  0.00     0.911 A  
HETATM   45  C   UNL     1     -10.372  10.369  69.728  1.00  0.00    -0.208 A  
HETATM   46  N   UNL     1     -10.721  10.025  68.462  1.00  0.00    -0.221 NA 
BRANCH  37  47
HETATM   47  O   UNL     1     -12.880  10.918  64.302  1.00  0.00     1.825 OA 
HETATM   48  C   UNL     1     -13.011  11.934  63.309  1.00  0.00    -0.018 C  
ENDBRANCH  37  47
BRANCH  45  49
HETATM   49  C   UNL     1      -9.436   9.475  70.442  1.00  0.00    -0.262 A  
HETATM   50  N   UNL     1      -8.545   9.868  71.339  1.00  0.00     0.758 NA 
HETATM   51  C   UNL     1      -7.778   8.793  71.781  1.00  0.00    -0.041 A  
HETATM   52  C   UNL     1      -8.112   7.583  71.206  1.00  0.00    -0.096 A  
HETATM   53  C   UNL     1      -6.695   9.014  72.804  1.00  0.00     0.241 C  
HETATM   54  C   UNL     1      -5.616   9.967  72.291  1.00  0.00     0.254 C  
HETATM   55  S   UNL     1      -9.401   7.782  70.104  1.00  0.00    -0.152 SA 
HETATM   56  C   UNL     1      -7.269   9.511  74.131  1.00  0.00     1.208 C  
ENDBRANCH  45  49
ENDBRANCH  35  36
ENDBRANCH  22  35
TORSDOF 8
ENDMDL
MODEL       70
REMARK 921   NORMALIZED FREE ENERGY PREDICTED BY IDOCK:   29.71 KCAL/MOL
REMARK 922        TOTAL FREE ENERGY PREDICTED BY IDOCK:   41.05 KCAL/MOL
REMARK 923 INTER-LIGAND FREE ENERGY PREDICTED BY IDOCK:   34.46 KCAL/MOL
REMARK 924 INTRA-LIGAND FREE ENERGY PREDICTED BY IDOCK:    6.59 KCAL/MOL
REMARK 927      BINDING AFFINITY PREDICTED BY RF-SCORE:    0.00 PKD
ROOT
HETATM    1  C   UNL     1     -14.006  15.209  69.188  1.00  0.00     4.882 C  
HETATM    2  C   UNL     1     -13.378  14.834  68.049  1.00  0.00     4.140 C  
HETATM    3  C   UNL     1     -12.000  14.827  67.522  1.00  0.00    -0.239 C  
HETATM    4  C   UNL     1     -10.806  15.155  68.347  1.00  0.00    -0.255 C  
HETATM    5  C   UNL     1     -10.951  13.753  67.773  1.00  0.00    -0.256 C  
HETATM    6  C   UNL     1     -13.558  15.859  70.484  1.00  0.00     1.060 C  
HETATM    7  N   UNL     1     -10.963  12.713  68.772  1.00  0.00    -0.246 NA 
HETATM    8  C   UNL     1     -11.947  11.979  69.140  1.00  0.00    -0.268 C  
HETATM    9  C   UNL     1     -10.728  10.947  71.097  1.00  0.00     2.029 C  
HETATM   10  C   UNL     1     -14.248  15.370  71.804  1.00  0.00    -0.632 C  
HETATM   11  H   UNL     1     -10.077  12.540  69.245  1.00  0.00     0.000 HD 
HETATM   12  C   UNL     1     -13.016  13.226  73.175  1.00  0.00     1.193 C  
HETATM   13  C   UNL     1     -10.029   9.573  71.183  1.00  0.00    -0.219 C  
HETATM   14  C   UNL     1     -11.739  10.764  69.958  1.00  0.00    -0.417 C  
HETATM   15  O   UNL     1     -13.239  12.149  68.870  1.00  0.00     1.810 OA 
HETATM   16  C   UNL     1     -11.538  11.427  72.316  1.00  0.00     4.439 C  
HETATM   17  C   UNL     1     -11.175   9.659  69.088  1.00  0.00    -0.056 C  
HETATM   18  C   UNL     1     -11.207  13.809  71.619  1.00  0.00     2.496 C  
HETATM   19  C   UNL     1     -13.581  14.673  73.036  1.00  0.00    -0.338 C  
HETATM   20  H   UNL     1     -13.968  11.605  69.143  1.00  0.00     0.000 HD 
HETATM   21  N   UNL     1     -11.940  12.776  72.297  1.00  0.00     1.843 N  
HETATM   22  C   UNL     1     -10.766   8.683  70.168  1.00  0.00    -0.234 C  
HETATM   23  O   UNL     1     -11.946  10.630  73.157  1.00  0.00     3.945 OA 
ENDROOT
BRANCH   5  24
HETATM   24  C   UNL     1      -9.866  13.408  66.767  1.00  0.00    -0.265 C  
HETATM   25  H   UNL     1      -8.567  14.315  65.659  1.00  0.00     0.000 HD 
HETATM   26  O   UNL     1      -9.245  14.530  66.288  1.00  0.00    -0.268 OA 
BRANCH  24  27
HETATM   27  N   UNL     1      -9.500  12.226  66.496  1.00  0.00    -0.232 N  
HETATM   28  H   UNL     1      -8.574  11.897  66.766  1.00  0.00     0.000 HD 
BRANCH  27  29
HETATM   29  S   UNL     1     -10.516  11.254  65.720  1.00  0.00    -0.243 S  
HETATM   30  O   UNL     1     -11.557  12.078  65.110  1.00  0.00    -0.329 OA 
HETATM   31  O   UNL     1      -9.828  10.269  64.920  1.00  0.00    -0.299 OA 
BRANCH  29  32
HETATM   32  C   UNL     1     -11.394  10.287  67.049  1.00  0.00     0.362 C  
HETATM   33  C   UNL     1     -12.650   9.617  66.545  1.00  0.00    10.552 C  
HETATM   34  C   UNL     1     -11.437   8.792  66.888  1.00  0.00     2.142 C  
ENDBRANCH  29  32
ENDBRANCH  27  29
ENDBRANCH  24  27
ENDBRANCH   5  24
BRANCH  22  35
HETATM   35  O   UNL     1     -10.045   7.619  69.570  1.00  0.00    -0.183 OA 
BRANCH  35  36
HETATM   36  C   UNL     1      -9.272   7.909  68.478  1.00  0.00    -0.138 A  
HETATM   37  C   UNL     1      -8.850   5.650  64.922  1.00  0.00     0.031 A  
HETATM   38  C   UNL     1     -10.130   6.177  66.869  1.00  0.00    -0.232 A  
HETATM   39  C   UNL     1      -9.224   7.189  67.258  1.00  0.00    -0.145 A  
HETATM   40  C   UNL     1      -8.482   9.040  68.658  1.00  0.00    -0.128 A  
HETATM   41  C   UNL     1      -8.019   6.753  65.197  1.00  0.00    -0.128 A  
HETATM   42  C   UNL     1      -8.206   7.542  66.350  1.00  0.00    -0.122 A  
HETATM   43  C   UNL     1      -6.888   7.118  64.267  1.00  0.00    -0.047 C  
HETATM   44  C   UNL     1      -9.927   5.389  65.745  1.00  0.00     0.017 A  
HETATM   45  C   UNL     1      -7.594   9.391  67.664  1.00  0.00    -0.088 A  
HETATM   46  N   UNL     1      -7.425   8.621  66.558  1.00  0.00    -0.087 NA 
BRANCH  37  47
HETATM   47  O   UNL     1      -8.594   4.917  63.789  1.00  0.00    -0.133 OA 
HETATM   48  C   UNL     1      -9.302   5.321  62.617  1.00  0.00     0.301 C  
ENDBRANCH  37  47
BRANCH  45  49
HETATM   49  C   UNL     1      -6.802  10.635  67.755  1.00  0.00    -0.073 A  
HETATM   50  N   UNL     1      -6.854  11.498  68.759  1.00  0.00    -0.077 NA 
HETATM   51  C   UNL     1      -6.033  12.594  68.514  1.00  0.00    -0.061 A  
HETATM   52  C   UNL     1      -5.356  12.541  67.311  1.00  0.00    -0.036 A  
HETATM   53  C   UNL     1      -5.942  13.705  69.527  1.00  0.00    -0.108 C  
HETATM   54  C   UNL     1      -7.295  14.382  69.749  1.00  0.00     0.110 C  
HETATM   55  S   UNL     1      -5.742  11.103  66.474  1.00  0.00    -0.141 SA 
HETATM   56  C   UNL     1      -5.361  13.212  70.851  1.00  0.00    -0.171 C  
ENDBRANCH  45  49
ENDBRANCH  35  36
ENDBRANCH  22  35
TORSDOF 8
ENDMDL
MODEL       71
REMARK 921   NORMALIZED FREE ENERGY PREDICTED BY IDOCK:   33.63 KCAL/MOL
REMARK 922        TOTAL FREE ENERGY PREDICTED BY IDOCK:   46.80 KCAL/MOL
REMARK 923 INTER-LIGAND FREE ENERGY PREDICTED BY IDOCK:   47.03 KCAL/MOL
REMARK 924 INTRA-LIGAND FREE ENERGY PREDICTED BY IDOCK:   -0.23 KCAL/MOL
REMARK 927      BINDING AFFINITY PREDICTED BY RF-SCORE:    0.00 PKD
ROOT
HETATM    1  C   UNL     1      -8.067  15.867  65.917  1.00  0.00     0.790 C  
HETATM    2  C   UNL     1      -8.907  15.988  66.973  1.00  0.00    -0.235 C  
HETATM    3  C   UNL     1     -10.363  15.960  67.209  1.00  0.00    -0.293 C  
HETATM    4  C   UNL     1     -11.354  15.580  66.167  1.00  0.00    -0.010 C  
HETATM    5  C   UNL     1     -11.213  14.714  67.410  1.00  0.00    -0.342 C  
HETATM    6  C   UNL     1      -8.258  15.679  64.424  1.00  0.00    10.400 C  
HETATM    7  N   UNL     1     -10.865  13.343  67.128  1.00  0.00    -0.274 NA 
HETATM    8  C   UNL     1      -9.756  12.744  67.357  1.00  0.00    -0.197 C  
HETATM    9  C   UNL     1     -10.373  10.650  66.086  1.00  0.00    -0.291 C  
HETATM   10  C   UNL     1      -7.231  14.753  63.684  1.00  0.00    23.518 C  
HETATM   11  H   UNL     1     -11.594  12.780  66.691  1.00  0.00     0.000 HD 
HETATM   12  C   UNL     1      -7.892  12.010  63.488  1.00  0.00     3.057 C  
HETATM   13  C   UNL     1     -10.894   9.306  66.636  1.00  0.00     0.078 C  
HETATM   14  C   UNL     1      -9.646  11.271  67.285  1.00  0.00    -0.188 C  
HETATM   15  O   UNL     1      -8.587  13.288  67.687  1.00  0.00    -0.171 OA 
HETATM   16  C   UNL     1      -9.348  10.616  64.936  1.00  0.00    -0.228 C  
HETATM   17  C   UNL     1     -10.289  10.655  68.511  1.00  0.00    -0.202 C  
HETATM   18  C   UNL     1     -10.065  12.902  64.207  1.00  0.00    -0.226 C  
HETATM   19  C   UNL     1      -7.518  13.415  62.924  1.00  0.00    13.527 C  
HETATM   20  H   UNL     1      -7.765  12.843  67.857  1.00  0.00     0.000 HD 
HETATM   21  N   UNL     1      -9.095  11.845  64.298  1.00  0.00     0.356 N  
HETATM   22  C   UNL     1     -10.335   9.211  68.065  1.00  0.00    -0.222 C  
HETATM   23  O   UNL     1      -8.678   9.610  64.716  1.00  0.00    -0.166 OA 
ENDROOT
BRANCH   5  24
HETATM   24  C   UNL     1     -12.466  14.700  68.269  1.00  0.00     0.270 C  
HETATM   25  H   UNL     1     -14.263  13.991  68.212  1.00  0.00     0.000 HD 
HETATM   26  O   UNL     1     -13.480  13.999  67.674  1.00  0.00     2.885 OA 
BRANCH  24  27
HETATM   27  N   UNL     1     -12.526  15.174  69.442  1.00  0.00    -0.591 N  
HETATM   28  H   UNL     1     -12.862  16.124  69.599  1.00  0.00     0.000 HD 
BRANCH  27  29
HETATM   29  S   UNL     1     -12.066  14.258  70.678  1.00  0.00    -0.355 S  
HETATM   30  O   UNL     1     -11.438  13.053  70.142  1.00  0.00    -0.119 OA 
HETATM   31  O   UNL     1     -11.387  15.019  71.701  1.00  0.00    -0.360 OA 
BRANCH  29  32
HETATM   32  C   UNL     1     -13.642  13.660  71.471  1.00  0.00    -0.219 C  
HETATM   33  C   UNL     1     -13.444  12.396  72.275  1.00  0.00    -0.428 C  
HETATM   34  C   UNL     1     -13.709  13.705  72.973  1.00  0.00     0.278 C  
ENDBRANCH  29  32
ENDBRANCH  27  29
ENDBRANCH  24  27
ENDBRANCH   5  24
BRANCH  22  35
HETATM   35  O   UNL     1     -11.070   8.463  69.018  1.00  0.00     0.039 OA 
BRANCH  35  36
HETATM   36  C   UNL     1     -10.568   7.247  69.396  1.00  0.00    -0.229 A  
HETATM   37  C   UNL     1     -10.728   5.446  73.225  1.00  0.00    -0.276 A  
HETATM   38  C   UNL     1     -11.609   7.038  71.676  1.00  0.00    -0.320 A  
HETATM   39  C   UNL     1     -10.722   6.621  70.659  1.00  0.00    -0.286 A  
HETATM   40  C   UNL     1      -9.846   6.621  68.384  1.00  0.00    -0.138 A  
HETATM   41  C   UNL     1      -9.946   4.904  72.188  1.00  0.00    -0.235 A  
HETATM   42  C   UNL     1      -9.947   5.468  70.896  1.00  0.00    -0.199 A  
HETATM   43  C   UNL     1      -9.066   3.703  72.434  1.00  0.00    -0.141 C  
HETATM   44  C   UNL     1     -11.586   6.494  72.952  1.00  0.00    -0.022 A  
HETATM   45  C   UNL     1      -9.216   5.427  68.664  1.00  0.00    -0.117 A  
HETATM   46  N   UNL     1      -9.224   4.895  69.913  1.00  0.00    -0.116 NA 
BRANCH  37  47
HETATM   47  O   UNL     1     -10.660   4.853  74.462  1.00  0.00    -0.314 OA 
HETATM   48  C   UNL     1     -10.554   3.430  74.461  1.00  0.00    -0.119 C  
ENDBRANCH  37  47
BRANCH  45  49
HETATM   49  C   UNL     1      -8.521   4.667  67.604  1.00  0.00    -0.103 A  
HETATM   50  N   UNL     1      -9.102   4.151  66.532  1.00  0.00    -0.125 NA 
HETATM   51  C   UNL     1      -8.183   3.445  65.761  1.00  0.00    -0.094 A  
HETATM   52  C   UNL     1      -6.898   3.445  66.266  1.00  0.00    -0.053 A  
HETATM   53  C   UNL     1      -8.632   2.768  64.492  1.00  0.00    -0.093 C  
HETATM   54  C   UNL     1      -9.688   1.696  64.764  1.00  0.00     0.090 C  
HETATM   55  S   UNL     1      -6.829   4.339  67.719  1.00  0.00    -0.052 SA 
HETATM   56  C   UNL     1      -9.141   3.779  63.465  1.00  0.00    -0.109 C  
ENDBRANCH  45  49
ENDBRANCH  35  36
ENDBRANCH  22  35
TORSDOF 8
ENDMDL
MODEL       72
REMARK 921   NORMALIZED FREE ENERGY PREDICTED BY IDOCK:   35.59 KCAL/MOL
REMARK 922        TOTAL FREE ENERGY PREDICTED BY IDOCK:   49.67 KCAL/MOL
REMARK 923 INTER-LIGAND FREE ENERGY PREDICTED BY IDOCK:   45.84 KCAL/MOL
REMARK 924 INTRA-LIGAND FREE ENERGY PREDICTED BY IDOCK:    3.83 KCAL/MOL
REMARK 927      BINDING AFFINITY PREDICTED BY RF-SCORE:    0.00 PKD
ROOT
HETATM    1  C   UNL     1      -7.954   7.208  73.763  1.00  0.00    -0.129 C  
HETATM    2  C   UNL     1      -7.752   8.530  73.972  1.00  0.00    -0.135 C  
HETATM    3  C   UNL     1      -7.037   9.637  73.309  1.00  0.00     1.780 C  
HETATM    4  C   UNL     1      -6.411   9.517  71.965  1.00  0.00     0.287 C  
HETATM    5  C   UNL     1      -7.568  10.485  72.162  1.00  0.00     5.623 C  
HETATM    6  C   UNL     1      -7.478   6.212  72.721  1.00  0.00    -0.094 C  
HETATM    7  N   UNL     1      -8.700  10.221  71.309  1.00  0.00     1.256 NA 
HETATM    8  C   UNL     1      -9.852   9.768  71.639  1.00  0.00     1.201 C  
HETATM    9  C   UNL     1     -10.650   9.452  69.263  1.00  0.00    -0.239 C  
HETATM   10  C   UNL     1      -8.498   5.113  72.264  1.00  0.00    -0.125 C  
HETATM   11  H   UNL     1      -8.566  10.421  70.318  1.00  0.00     0.000 HD 
HETATM   12  C   UNL     1     -10.128   5.726  70.037  1.00  0.00    -0.216 C  
HETATM   13  C   UNL     1     -11.559  10.371  68.419  1.00  0.00    -0.128 C  
HETATM   14  C   UNL     1     -11.000   9.829  70.707  1.00  0.00    -0.406 C  
HETATM   15  O   UNL     1     -10.212   9.211  72.793  1.00  0.00     0.510 OA 
HETATM   16  C   UNL     1     -10.857   7.929  69.156  1.00  0.00    -0.038 C  
HETATM   17  C   UNL     1     -11.523  11.249  70.640  1.00  0.00     0.059 C  
HETATM   18  C   UNL     1      -8.483   7.540  69.849  1.00  0.00    -0.138 C  
HETATM   19  C   UNL     1      -9.086   4.882  70.832  1.00  0.00    -0.184 C  
HETATM   20  H   UNL     1     -11.066   8.875  73.036  1.00  0.00     0.000 HD 
HETATM   21  N   UNL     1      -9.854   7.128  69.734  1.00  0.00    -0.172 N  
HETATM   22  C   UNL     1     -12.433  11.119  69.439  1.00  0.00    -0.017 C  
HETATM   23  O   UNL     1     -11.916   7.463  68.743  1.00  0.00     1.193 OA 
ENDROOT
BRANCH   5  24
HETATM   24  C   UNL     1      -7.169  11.937  71.957  1.00  0.00     8.883 C  
HETATM   25  H   UNL     1      -5.941  12.972  70.882  1.00  0.00     0.000 HD 
HETATM   26  O   UNL     1      -6.190  12.064  71.010  1.00  0.00    -0.116 OA 
BRANCH  24  27
HETATM   27  N   UNL     1      -7.755  12.917  72.507  1.00  0.00    11.275 N  
HETATM   28  H   UNL     1      -8.382  12.768  73.297  1.00  0.00     0.000 HD 
BRANCH  27  29
HETATM   29  S   UNL     1      -7.495  14.398  71.941  1.00  0.00     4.828 S  
HETATM   30  O   UNL     1      -8.788  14.986  71.597  1.00  0.00     3.180 OA 
HETATM   31  O   UNL     1      -6.570  15.143  72.762  1.00  0.00     1.783 OA 
BRANCH  29  32
HETATM   32  C   UNL     1      -6.630  14.164  70.308  1.00  0.00    -0.001 C  
HETATM   33  C   UNL     1      -5.624  15.254  70.022  1.00  0.00    -0.126 C  
HETATM   34  C   UNL     1      -5.158  13.860  70.354  1.00  0.00    -0.098 C  
ENDBRANCH  29  32
ENDBRANCH  27  29
ENDBRANCH  24  27
ENDBRANCH   5  24
BRANCH  22  35
HETATM   35  O   UNL     1     -12.910  12.406  69.088  1.00  0.00     0.718 OA 
BRANCH  35  36
HETATM   36  C   UNL     1     -12.180  13.131  68.185  1.00  0.00    -0.028 A  
HETATM   37  C   UNL     1     -10.557  11.817  64.502  1.00  0.00    -0.313 A  
HETATM   38  C   UNL     1     -12.153  11.520  66.255  1.00  0.00     0.930 A  
HETATM   39  C   UNL     1     -11.733  12.697  66.912  1.00  0.00    -0.453 A  
HETATM   40  C   UNL     1     -11.887  14.416  68.634  1.00  0.00    -0.366 A  
HETATM   41  C   UNL     1     -10.227  13.073  65.046  1.00  0.00    -0.287 A  
HETATM   42  C   UNL     1     -10.821  13.534  66.239  1.00  0.00    -0.289 A  
HETATM   43  C   UNL     1      -9.212  13.963  64.372  1.00  0.00     2.971 C  
HETATM   44  C   UNL     1     -11.549  11.060  65.094  1.00  0.00     0.571 A  
HETATM   45  C   UNL     1     -11.083  15.220  67.854  1.00  0.00    -0.321 A  
HETATM   46  N   UNL     1     -10.519  14.763  66.707  1.00  0.00    -0.278 NA 
BRANCH  37  47
HETATM   47  O   UNL     1      -9.923  11.428  63.348  1.00  0.00    -0.325 OA 
HETATM   48  C   UNL     1      -8.673  10.762  63.522  1.00  0.00    -0.106 C  
ENDBRANCH  37  47
BRANCH  45  49
HETATM   49  C   UNL     1     -10.820  16.625  68.229  1.00  0.00    -0.356 A  
HETATM   50  N   UNL     1     -11.112  17.679  67.482  1.00  0.00    -0.066 NA 
HETATM   51  C   UNL     1     -10.684  18.854  68.093  1.00  0.00    -0.115 A  
HETATM   52  C   UNL     1     -10.070  18.668  69.315  1.00  0.00    -0.008 A  
HETATM   53  C   UNL     1     -10.910  20.179  67.413  1.00  0.00    -0.116 C  
HETATM   54  C   UNL     1     -10.191  20.256  66.066  1.00  0.00    -0.392 C  
HETATM   55  S   UNL     1     -10.029  17.009  69.715  1.00  0.00     0.449 SA 
HETATM   56  C   UNL     1     -12.400  20.478  67.247  1.00  0.00     4.524 C  
ENDBRANCH  45  49
ENDBRANCH  35  36
ENDBRANCH  22  35
TORSDOF 8
ENDMDL
MODEL       73
REMARK 921   NORMALIZED FREE ENERGY PREDICTED BY IDOCK:   35.68 KCAL/MOL
REMARK 922        TOTAL FREE ENERGY PREDICTED BY IDOCK:   49.80 KCAL/MOL
REMARK 923 INTER-LIGAND FREE ENERGY PREDICTED BY IDOCK:   30.87 KCAL/MOL
REMARK 924 INTRA-LIGAND FREE ENERGY PREDICTED BY IDOCK:   18.93 KCAL/MOL
REMARK 927      BINDING AFFINITY PREDICTED BY RF-SCORE:    0.00 PKD
ROOT
HETATM    1  C   UNL     1      -7.193  18.766  65.310  1.00  0.00     0.262 C  
HETATM    2  C   UNL     1      -6.623  17.560  65.546  1.00  0.00     0.274 C  
HETATM    3  C   UNL     1      -6.278  16.734  66.718  1.00  0.00    -0.187 C  
HETATM    4  C   UNL     1      -6.699  17.067  68.106  1.00  0.00    -0.153 C  
HETATM    5  C   UNL     1      -7.218  15.792  67.458  1.00  0.00    -0.184 C  
HETATM    6  C   UNL     1      -7.721  19.882  66.192  1.00  0.00    -0.339 C  
HETATM    7  N   UNL     1      -8.656  15.724  67.376  1.00  0.00    -0.168 NA 
HETATM    8  C   UNL     1      -9.395  15.804  66.333  1.00  0.00    -0.301 C  
HETATM    9  C   UNL     1     -11.569  15.921  67.615  1.00  0.00     0.026 C  
HETATM   10  C   UNL     1      -9.005  20.635  65.699  1.00  0.00     0.641 C  
HETATM   11  H   UNL     1      -9.146  15.597  68.261  1.00  0.00     0.000 HD 
HETATM   12  C   UNL     1     -11.498  19.613  66.558  1.00  0.00     0.753 C  
HETATM   13  C   UNL     1     -12.579  14.791  67.907  1.00  0.00     0.686 C  
HETATM   14  C   UNL     1     -10.825  15.423  66.369  1.00  0.00    -0.303 C  
HETATM   15  O   UNL     1      -9.046  16.201  65.112  1.00  0.00     0.145 OA 
HETATM   16  C   UNL     1     -12.121  17.314  67.255  1.00  0.00     2.643 C  
HETATM   17  C   UNL     1     -10.946  13.913  66.401  1.00  0.00    -0.303 C  
HETATM   18  C   UNL     1     -10.008  18.380  68.073  1.00  0.00    -0.351 C  
HETATM   19  C   UNL     1     -10.403  20.712  66.399  1.00  0.00     0.161 C  
HETATM   20  H   UNL     1      -9.594  16.259  64.338  1.00  0.00     0.000 HD 
HETATM   21  N   UNL     1     -11.185  18.365  67.248  1.00  0.00     0.121 N  
HETATM   22  C   UNL     1     -12.412  13.792  66.750  1.00  0.00    -0.209 C  
HETATM   23  O   UNL     1     -13.268  17.450  66.837  1.00  0.00     7.185 OA 
ENDROOT
BRANCH   5  24
HETATM   24  C   UNL     1      -6.739  14.532  68.158  1.00  0.00    -0.125 C  
HETATM   25  H   UNL     1      -5.136  13.852  68.996  1.00  0.00     0.000 HD 
HETATM   26  O   UNL     1      -5.435  14.641  68.559  1.00  0.00    -0.090 OA 
BRANCH  24  27
HETATM   27  N   UNL     1      -7.488  13.551  68.442  1.00  0.00    -0.116 N  
HETATM   28  H   UNL     1      -7.800  13.399  69.400  1.00  0.00     0.000 HD 
BRANCH  27  29
HETATM   29  S   UNL     1      -7.940  12.550  67.270  1.00  0.00    -0.150 S  
HETATM   30  O   UNL     1      -8.554  13.342  66.207  1.00  0.00     0.215 OA 
HETATM   31  O   UNL     1      -6.911  11.592  66.940  1.00  0.00    -0.131 OA 
BRANCH  29  32
HETATM   32  C   UNL     1      -9.340  11.547  67.982  1.00  0.00    -0.175 C  
HETATM   33  C   UNL     1      -9.194  11.320  69.468  1.00  0.00     0.583 C  
HETATM   34  C   UNL     1     -10.259  12.247  68.944  1.00  0.00    -0.041 C  
ENDBRANCH  29  32
ENDBRANCH  27  29
ENDBRANCH  24  27
ENDBRANCH   5  24
BRANCH  22  35
HETATM   35  O   UNL     1     -12.710  12.430  67.000  1.00  0.00     0.429 OA 
BRANCH  35  36
HETATM   36  C   UNL     1     -12.440  11.938  68.249  1.00  0.00     0.963 A  
HETATM   37  C   UNL     1     -12.076  14.101  71.870  1.00  0.00     0.008 A  
HETATM   38  C   UNL     1     -12.902  13.987  69.631  1.00  0.00     0.353 A  
HETATM   39  C   UNL     1     -12.423  12.670  69.463  1.00  0.00     0.180 A  
HETATM   40  C   UNL     1     -12.165  10.574  68.245  1.00  0.00     0.995 A  
HETATM   41  C   UNL     1     -11.731  12.739  71.788  1.00  0.00     2.291 A  
HETATM   42  C   UNL     1     -11.915  12.006  70.598  1.00  0.00    -0.160 A  
HETATM   43  C   UNL     1     -11.135  12.022  72.975  1.00  0.00    13.077 C  
HETATM   44  C   UNL     1     -12.695  14.711  70.797  1.00  0.00    -0.422 A  
HETATM   45  C   UNL     1     -11.793   9.972  69.429  1.00  0.00     0.133 A  
HETATM   46  N   UNL     1     -11.620  10.691  70.568  1.00  0.00    -0.336 NA 
BRANCH  37  47
HETATM   47  O   UNL     1     -11.849  14.753  73.057  1.00  0.00    -0.191 OA 
HETATM   48  C   UNL     1     -12.175  14.021  74.238  1.00  0.00     2.643 C  
ENDBRANCH  37  47
BRANCH  45  49
HETATM   49  C   UNL     1     -11.587   8.511  69.507  1.00  0.00     0.606 A  
HETATM   50  N   UNL     1     -10.634   7.842  68.877  1.00  0.00    -0.188 NA 
HETATM   51  C   UNL     1     -10.749   6.475  69.111  1.00  0.00    -0.275 A  
HETATM   52  C   UNL     1     -11.801   6.125  69.934  1.00  0.00     0.276 A  
HETATM   53  C   UNL     1      -9.765   5.521  68.484  1.00  0.00    -0.175 C  
HETATM   54  C   UNL     1      -9.818   5.574  66.957  1.00  0.00    -0.176 C  
HETATM   55  S   UNL     1     -12.658   7.517  70.428  1.00  0.00     0.578 SA 
HETATM   56  C   UNL     1      -8.343   5.771  68.985  1.00  0.00    -0.101 C  
ENDBRANCH  45  49
ENDBRANCH  35  36
ENDBRANCH  22  35
TORSDOF 8
ENDMDL
MODEL       74
REMARK 921   NORMALIZED FREE ENERGY PREDICTED BY IDOCK:   36.27 KCAL/MOL
REMARK 922        TOTAL FREE ENERGY PREDICTED BY IDOCK:   50.67 KCAL/MOL
REMARK 923 INTER-LIGAND FREE ENERGY PREDICTED BY IDOCK:   52.68 KCAL/MOL
REMARK 924 INTRA-LIGAND FREE ENERGY PREDICTED BY IDOCK:   -2.01 KCAL/MOL
REMARK 927      BINDING AFFINITY PREDICTED BY RF-SCORE:    0.00 PKD
ROOT
HETATM    1  C   UNL     1      -8.042  15.917  65.878  1.00  0.00     0.790 C  
HETATM    2  C   UNL     1      -8.928  15.924  66.902  1.00  0.00    -0.257 C  
HETATM    3  C   UNL     1     -10.392  15.861  67.069  1.00  0.00    -0.297 C  
HETATM    4  C   UNL     1     -11.333  15.579  65.951  1.00  0.00    -0.028 C  
HETATM    5  C   UNL     1     -11.235  14.593  67.106  1.00  0.00    -0.344 C  
HETATM    6  C   UNL     1      -8.165  15.878  64.366  1.00  0.00    10.065 C  
HETATM    7  N   UNL     1     -10.857  13.261  66.705  1.00  0.00    -0.279 NA 
HETATM    8  C   UNL     1      -9.751  12.652  66.922  1.00  0.00    -0.234 C  
HETATM    9  C   UNL     1     -10.285  10.691  65.422  1.00  0.00    -0.341 C  
HETATM   10  C   UNL     1      -7.096  15.040  63.583  1.00  0.00    24.182 C  
HETATM   11  H   UNL     1     -11.559  12.738  66.182  1.00  0.00     0.000 HD 
HETATM   12  C   UNL     1      -7.711  12.325  63.085  1.00  0.00     4.154 C  
HETATM   13  C   UNL     1     -10.813   9.294  65.811  1.00  0.00     1.551 C  
HETATM   14  C   UNL     1      -9.619  11.193  66.708  1.00  0.00    -0.215 C  
HETATM   15  O   UNL     1      -8.604  13.169  67.356  1.00  0.00    -0.183 OA 
HETATM   16  C   UNL     1      -9.211  10.780  64.320  1.00  0.00    -0.218 C  
HETATM   17  C   UNL     1     -10.307  10.453  67.837  1.00  0.00    -0.227 C  
HETATM   18  C   UNL     1      -9.925  13.122  63.792  1.00  0.00     0.808 C  
HETATM   19  C   UNL     1      -7.332  13.782  62.681  1.00  0.00    16.359 C  
HETATM   20  H   UNL     1      -7.785  12.716  67.517  1.00  0.00     0.000 HD 
HETATM   21  N   UNL     1      -8.947  12.070  63.821  1.00  0.00     0.536 N  
HETATM   22  C   UNL     1     -10.315   9.061  67.247  1.00  0.00    -0.273 C  
HETATM   23  O   UNL     1      -8.520   9.807  64.031  1.00  0.00    -0.153 OA 
ENDROOT
BRANCH   5  24
HETATM   24  C   UNL     1     -12.523  14.483  67.903  1.00  0.00     0.285 C  
HETATM   25  H   UNL     1     -14.323  13.814  67.677  1.00  0.00     0.000 HD 
HETATM   26  O   UNL     1     -13.517  13.883  67.178  1.00  0.00     2.248 OA 
BRANCH  24  27
HETATM   27  N   UNL     1     -12.630  14.797  69.126  1.00  0.00    -0.531 N  
HETATM   28  H   UNL     1     -13.231  15.569  69.411  1.00  0.00     0.000 HD 
BRANCH  27  29
HETATM   29  S   UNL     1     -11.803  13.961  70.220  1.00  0.00    -0.258 S  
HETATM   30  O   UNL     1     -12.141  12.547  70.062  1.00  0.00    -0.314 OA 
HETATM   31  O   UNL     1     -10.417  14.359  70.282  1.00  0.00     0.275 OA 
BRANCH  29  32
HETATM   32  C   UNL     1     -12.530  14.440  71.867  1.00  0.00    -0.309 C  
HETATM   33  C   UNL     1     -13.992  14.809  71.772  1.00  0.00    -0.568 C  
HETATM   34  C   UNL     1     -13.576  13.526  72.444  1.00  0.00    -0.709 C  
ENDBRANCH  29  32
ENDBRANCH  27  29
ENDBRANCH  24  27
ENDBRANCH   5  24
BRANCH  22  35
HETATM   35  O   UNL     1     -11.081   8.215  68.087  1.00  0.00     0.129 OA 
BRANCH  35  36
HETATM   36  C   UNL     1     -10.430   7.193  68.725  1.00  0.00    -0.202 A  
HETATM   37  C   UNL     1      -9.707   3.275  67.289  1.00  0.00     0.094 A  
HETATM   38  C   UNL     1     -10.210   5.564  66.821  1.00  0.00    -0.277 A  
HETATM   39  C   UNL     1     -10.112   5.921  68.184  1.00  0.00    -0.199 A  
HETATM   40  C   UNL     1     -10.075   7.510  70.032  1.00  0.00    -0.199 A  
HETATM   41  C   UNL     1      -9.447   3.630  68.627  1.00  0.00    -0.208 A  
HETATM   42  C   UNL     1      -9.627   4.951  69.084  1.00  0.00    -0.163 A  
HETATM   43  C   UNL     1      -8.979   2.596  69.621  1.00  0.00    -0.168 C  
HETATM   44  C   UNL     1     -10.055   4.257  66.382  1.00  0.00    -0.177 A  
HETATM   45  C   UNL     1      -9.488   6.536  70.812  1.00  0.00    -0.172 A  
HETATM   46  N   UNL     1      -9.321   5.268  70.359  1.00  0.00    -0.153 NA 
BRANCH  37  47
HETATM   47  O   UNL     1      -9.528   1.964  66.923  1.00  0.00     0.015 OA 
HETATM   48  C   UNL     1      -8.810   1.754  65.708  1.00  0.00    -0.124 C  
ENDBRANCH  37  47
BRANCH  45  49
HETATM   49  C   UNL     1      -8.999   6.843  72.172  1.00  0.00    -0.132 A  
HETATM   50  N   UNL     1      -7.729   6.826  72.546  1.00  0.00    -0.096 NA 
HETATM   51  C   UNL     1      -7.607   7.102  73.904  1.00  0.00    -0.105 A  
HETATM   52  C   UNL     1      -8.806   7.335  74.547  1.00  0.00    -0.157 A  
HETATM   53  C   UNL     1      -6.243   7.129  74.545  1.00  0.00    -0.083 C  
HETATM   54  C   UNL     1      -5.543   5.774  74.446  1.00  0.00    -0.048 C  
HETATM   55  S   UNL     1     -10.105   7.213  73.446  1.00  0.00    -0.340 SA 
HETATM   56  C   UNL     1      -5.367   8.235  73.956  1.00  0.00    -0.068 C  
ENDBRANCH  45  49
ENDBRANCH  35  36
ENDBRANCH  22  35
TORSDOF 8
ENDMDL
MODEL       75
REMARK 921   NORMALIZED FREE ENERGY PREDICTED BY IDOCK:   37.30 KCAL/MOL
REMARK 922        TOTAL FREE ENERGY PREDICTED BY IDOCK:   52.18 KCAL/MOL
REMARK 923 INTER-LIGAND FREE ENERGY PREDICTED BY IDOCK:   52.28 KCAL/MOL
REMARK 924 INTRA-LIGAND FREE ENERGY PREDICTED BY IDOCK:   -0.10 KCAL/MOL
REMARK 927      BINDING AFFINITY PREDICTED BY RF-SCORE:    0.00 PKD
ROOT
HETATM    1  C   UNL     1      -7.205  20.522  68.118  1.00  0.00    -0.183 C  
HETATM    2  C   UNL     1      -6.642  19.935  69.201  1.00  0.00    -0.368 C  
HETATM    3  C   UNL     1      -7.098  19.331  70.467  1.00  0.00     0.826 C  
HETATM    4  C   UNL     1      -8.530  19.076  70.783  1.00  0.00     3.517 C  
HETATM    5  C   UNL     1      -7.575  17.898  70.654  1.00  0.00     3.792 C  
HETATM    6  C   UNL     1      -8.626  20.874  67.719  1.00  0.00     0.063 C  
HETATM    7  N   UNL     1      -7.956  16.947  69.640  1.00  0.00     0.411 NA 
HETATM    8  C   UNL     1      -7.387  16.716  68.515  1.00  0.00    -0.201 C  
HETATM    9  C   UNL     1      -9.216  15.203  67.652  1.00  0.00    -0.181 C  
HETATM   10  C   UNL     1      -9.005  20.710  66.206  1.00  0.00     0.123 C  
HETATM   11  H   UNL     1      -8.784  16.388  69.843  1.00  0.00     0.000 HD 
HETATM   12  C   UNL     1     -10.060  18.209  65.415  1.00  0.00     0.648 C  
HETATM   13  C   UNL     1      -9.263  13.660  67.631  1.00  0.00    -0.213 C  
HETATM   14  C   UNL     1      -7.716  15.515  67.716  1.00  0.00    -0.156 C  
HETATM   15  O   UNL     1      -6.459  17.448  67.904  1.00  0.00    -0.152 OA 
HETATM   16  C   UNL     1      -9.760  15.962  66.426  1.00  0.00    -0.287 C  
HETATM   17  C   UNL     1      -7.075  14.297  68.347  1.00  0.00    -0.105 C  
HETATM   18  C   UNL     1     -10.223  17.967  67.853  1.00  0.00    -0.371 C  
HETATM   19  C   UNL     1     -10.080  19.759  65.582  1.00  0.00    -0.288 C  
HETATM   20  H   UNL     1      -6.037  17.276  67.071  1.00  0.00     0.000 HD 
HETATM   21  N   UNL     1      -9.935  17.350  66.589  1.00  0.00    -0.294 N  
HETATM   22  C   UNL     1      -7.793  13.214  67.574  1.00  0.00    -0.172 C  
HETATM   23  O   UNL     1      -9.865  15.408  65.335  1.00  0.00    -0.331 OA 
ENDROOT
BRANCH   5  24
HETATM   24  C   UNL     1      -7.397  17.133  71.955  1.00  0.00     8.808 C  
HETATM   25  H   UNL     1      -6.729  17.437  73.743  1.00  0.00     0.000 HD 
HETATM   26  O   UNL     1      -6.841  17.916  72.930  1.00  0.00     5.263 OA 
BRANCH  24  27
HETATM   27  N   UNL     1      -7.820  15.955  72.148  1.00  0.00     7.609 N  
HETATM   28  H   UNL     1      -8.517  15.547  71.525  1.00  0.00     0.000 HD 
BRANCH  27  29
HETATM   29  S   UNL     1      -7.244  15.112  73.388  1.00  0.00     7.004 S  
HETATM   30  O   UNL     1      -6.556  16.037  74.286  1.00  0.00     4.309 OA 
HETATM   31  O   UNL     1      -8.219  14.191  73.924  1.00  0.00     5.617 OA 
BRANCH  29  32
HETATM   32  C   UNL     1      -5.892  14.044  72.680  1.00  0.00     0.237 C  
HETATM   33  C   UNL     1      -6.286  13.397  71.373  1.00  0.00     1.137 C  
HETATM   34  C   UNL     1      -5.263  14.503  71.393  1.00  0.00    -0.150 C  
ENDBRANCH  29  32
ENDBRANCH  27  29
ENDBRANCH  24  27
ENDBRANCH   5  24
BRANCH  22  35
HETATM   35  O   UNL     1      -7.458  11.956  68.133  1.00  0.00    -0.086 OA 
BRANCH  35  36
HETATM   36  C   UNL     1      -8.459  11.032  68.268  1.00  0.00    -0.138 A  
HETATM   37  C   UNL     1     -11.527  10.935  71.185  1.00  0.00     0.442 A  
HETATM   38  C   UNL     1      -9.889  12.191  69.982  1.00  0.00     2.518 A  
HETATM   39  C   UNL     1      -9.534  11.076  69.191  1.00  0.00    -0.064 A  
HETATM   40  C   UNL     1      -8.343   9.973  67.373  1.00  0.00    -0.118 A  
HETATM   41  C   UNL     1     -11.309   9.854  70.309  1.00  0.00    -0.357 A  
HETATM   42  C   UNL     1     -10.330   9.918  69.296  1.00  0.00    -0.219 A  
HETATM   43  C   UNL     1     -12.112   8.583  70.437  1.00  0.00     0.263 C  
HETATM   44  C   UNL     1     -10.837  12.115  70.993  1.00  0.00     3.808 A  
HETATM   45  C   UNL     1      -9.242   8.931  67.463  1.00  0.00    -0.136 A  
HETATM   46  N   UNL     1     -10.180   8.884  68.443  1.00  0.00    -0.194 NA 
BRANCH  37  47
HETATM   47  O   UNL     1     -12.485  10.792  72.158  1.00  0.00    -0.047 OA 
HETATM   48  C   UNL     1     -13.268  11.953  72.432  1.00  0.00     0.187 C  
ENDBRANCH  37  47
BRANCH  45  49
HETATM   49  C   UNL     1      -9.230   7.830  66.477  1.00  0.00    -0.184 A  
HETATM   50  N   UNL     1      -8.419   7.752  65.433  1.00  0.00    -0.135 NA 
HETATM   51  C   UNL     1      -8.702   6.625  64.668  1.00  0.00     0.371 A  
HETATM   52  C   UNL     1      -9.735   5.850  65.157  1.00  0.00     0.812 A  
HETATM   53  C   UNL     1      -7.900   6.341  63.425  1.00  0.00    -0.110 C  
HETATM   54  C   UNL     1      -8.046   7.456  62.389  1.00  0.00    -0.119 C  
HETATM   55  S   UNL     1     -10.362   6.531  66.592  1.00  0.00    -0.100 SA 
HETATM   56  C   UNL     1      -6.427   6.095  63.750  1.00  0.00    -0.029 C  
ENDBRANCH  45  49
ENDBRANCH  35  36
ENDBRANCH  22  35
TORSDOF 8
ENDMDL
MODEL       76
REMARK 921   NORMALIZED FREE ENERGY PREDICTED BY IDOCK:   39.09 KCAL/MOL
REMARK 922        TOTAL FREE ENERGY PREDICTED BY IDOCK:   54.82 KCAL/MOL
REMARK 923 INTER-LIGAND FREE ENERGY PREDICTED BY IDOCK:   55.27 KCAL/MOL
REMARK 924 INTRA-LIGAND FREE ENERGY PREDICTED BY IDOCK:   -0.45 KCAL/MOL
REMARK 927      BINDING AFFINITY PREDICTED BY RF-SCORE:    0.00 PKD
ROOT
HETATM    1  C   UNL     1     -10.055  17.079  71.293  1.00  0.00     3.619 C  
HETATM    2  C   UNL     1     -10.267  16.930  69.964  1.00  0.00     0.344 C  
HETATM    3  C   UNL     1      -9.534  17.201  68.712  1.00  0.00    -0.263 C  
HETATM    4  C   UNL     1      -8.111  17.633  68.674  1.00  0.00    -0.269 C  
HETATM    5  C   UNL     1      -8.497  16.293  68.067  1.00  0.00    -0.174 C  
HETATM    6  C   UNL     1      -8.932  17.658  72.132  1.00  0.00    14.118 C  
HETATM    7  N   UNL     1      -7.811  15.168  68.652  1.00  0.00    -0.132 NA 
HETATM    8  C   UNL     1      -8.293  14.250  69.405  1.00  0.00     0.336 C  
HETATM    9  C   UNL     1      -6.050  13.236  69.973  1.00  0.00    -0.122 C  
HETATM   10  C   UNL     1      -8.600  16.931  73.482  1.00  0.00    18.786 C  
HETATM   11  H   UNL     1      -6.817  15.095  68.441  1.00  0.00     0.000 HD 
HETATM   12  C   UNL     1      -6.647  14.888  73.389  1.00  0.00     2.514 C  
HETATM   13  C   UNL     1      -5.370  11.993  69.361  1.00  0.00    -0.062 C  
HETATM   14  C   UNL     1      -7.539  13.008  69.685  1.00  0.00     0.900 C  
HETATM   15  O   UNL     1      -9.472  14.234  70.021  1.00  0.00     0.241 OA 
HETATM   16  C   UNL     1      -5.936  13.450  71.495  1.00  0.00     0.389 C  
HETATM   17  C   UNL     1      -7.583  12.105  68.470  1.00  0.00    -0.124 C  
HETATM   18  C   UNL     1      -6.269  15.913  71.189  1.00  0.00     0.997 C  
HETATM   19  C   UNL     1      -7.263  16.229  73.892  1.00  0.00    10.755 C  
HETATM   20  H   UNL     1      -9.829  13.552  70.579  1.00  0.00     0.000 HD 
HETATM   21  N   UNL     1      -6.343  14.711  71.972  1.00  0.00     0.614 N  
HETATM   22  C   UNL     1      -6.524  11.103  68.871  1.00  0.00    -0.056 C  
HETATM   23  O   UNL     1      -5.669  12.516  72.247  1.00  0.00     0.059 OA 
ENDROOT
BRANCH   5  24
HETATM   24  C   UNL     1      -8.273  16.234  66.565  1.00  0.00    -0.309 C  
HETATM   25  H   UNL     1      -7.678  17.391  65.136  1.00  0.00     0.000 HD 
HETATM   26  O   UNL     1      -7.818  17.428  66.075  1.00  0.00    -0.456 OA 
BRANCH  24  27
HETATM   27  N   UNL     1      -8.379  15.178  65.873  1.00  0.00     0.246 N  
HETATM   28  H   UNL     1      -7.695  14.428  65.968  1.00  0.00     0.000 HD 
BRANCH  27  29
HETATM   29  S   UNL     1      -9.605  15.038  64.846  1.00  0.00     1.093 S  
HETATM   30  O   UNL     1      -9.732  16.297  64.115  1.00  0.00     2.431 OA 
HETATM   31  O   UNL     1      -9.569  13.792  64.116  1.00  0.00     0.546 OA 
BRANCH  29  32
HETATM   32  C   UNL     1     -11.135  14.947  65.904  1.00  0.00    -0.338 C  
HETATM   33  C   UNL     1     -12.297  15.709  65.313  1.00  0.00     0.867 C  
HETATM   34  C   UNL     1     -12.313  14.203  65.337  1.00  0.00    -0.475 C  
ENDBRANCH  29  32
ENDBRANCH  27  29
ENDBRANCH  24  27
ENDBRANCH   5  24
BRANCH  22  35
HETATM   35  O   UNL     1      -6.277  10.238  67.776  1.00  0.00    -0.056 OA 
BRANCH  35  36
HETATM   36  C   UNL     1      -6.745   8.954  67.862  1.00  0.00    -0.069 A  
HETATM   37  C   UNL     1      -8.195   6.502  64.729  1.00  0.00    -0.073 A  
HETATM   38  C   UNL     1      -6.889   8.381  65.418  1.00  0.00    -0.066 A  
HETATM   39  C   UNL     1      -7.131   8.118  66.784  1.00  0.00    -0.077 A  
HETATM   40  C   UNL     1      -6.819   8.491  69.172  1.00  0.00    -0.058 A  
HETATM   41  C   UNL     1      -8.321   6.124  66.079  1.00  0.00    -0.136 A  
HETATM   42  C   UNL     1      -7.778   6.911  67.115  1.00  0.00    -0.108 A  
HETATM   43  C   UNL     1      -9.057   4.863  66.461  1.00  0.00    -0.124 C  
HETATM   44  C   UNL     1      -7.446   7.615  64.403  1.00  0.00    -0.099 A  
HETATM   45  C   UNL     1      -7.356   7.242  69.402  1.00  0.00    -0.089 A  
HETATM   46  N   UNL     1      -7.874   6.495  68.395  1.00  0.00    -0.105 NA 
BRANCH  37  47
HETATM   47  O   UNL     1      -8.766   5.694  63.777  1.00  0.00     0.018 OA 
HETATM   48  C   UNL     1     -10.044   5.152  64.110  1.00  0.00     1.092 C  
ENDBRANCH  37  47
BRANCH  45  49
HETATM   49  C   UNL     1      -7.368   6.658  70.760  1.00  0.00    -0.079 A  
HETATM   50  N   UNL     1      -8.241   5.762  71.194  1.00  0.00    -0.120 NA 
HETATM   51  C   UNL     1      -8.018   5.461  72.534  1.00  0.00    -0.103 A  
HETATM   52  C   UNL     1      -6.957   6.140  73.101  1.00  0.00    -0.080 A  
HETATM   53  C   UNL     1      -8.902   4.464  73.237  1.00  0.00    -0.106 C  
HETATM   54  C   UNL     1     -10.361   4.921  73.267  1.00  0.00    -0.233 C  
HETATM   55  S   UNL     1      -6.223   7.165  71.949  1.00  0.00    -0.040 SA 
HETATM   56  C   UNL     1      -8.784   3.072  72.615  1.00  0.00    -0.093 C  
ENDBRANCH  45  49
ENDBRANCH  35  36
ENDBRANCH  22  35
TORSDOF 8
ENDMDL
MODEL       77
REMARK 921   NORMALIZED FREE ENERGY PREDICTED BY IDOCK:   40.80 KCAL/MOL
REMARK 922        TOTAL FREE ENERGY PREDICTED BY IDOCK:   57.32 KCAL/MOL
REMARK 923 INTER-LIGAND FREE ENERGY PREDICTED BY IDOCK:   33.22 KCAL/MOL
REMARK 924 INTRA-LIGAND FREE ENERGY PREDICTED BY IDOCK:   24.10 KCAL/MOL
REMARK 927      BINDING AFFINITY PREDICTED BY RF-SCORE:    0.00 PKD
ROOT
HETATM    1  C   UNL     1     -13.071  15.763  70.558  1.00  0.00     0.034 C  
HETATM    2  C   UNL     1     -13.314  14.557  69.993  1.00  0.00     0.624 C  
HETATM    3  C   UNL     1     -13.240  13.955  68.648  1.00  0.00     2.970 C  
HETATM    4  C   UNL     1     -12.636  14.643  67.475  1.00  0.00     0.637 C  
HETATM    5  C   UNL     1     -11.995  13.366  67.999  1.00  0.00    -0.322 C  
HETATM    6  C   UNL     1     -12.630  17.115  70.029  1.00  0.00     5.524 C  
HETATM    7  N   UNL     1     -10.620  13.527  68.402  1.00  0.00    -0.242 NA 
HETATM    8  C   UNL     1     -10.134  13.505  69.587  1.00  0.00     0.919 C  
HETATM    9  C   UNL     1      -7.826  14.261  68.889  1.00  0.00    -0.097 C  
HETATM   10  C   UNL     1     -11.657  17.952  70.931  1.00  0.00     4.258 C  
HETATM   11  H   UNL     1      -9.951  13.677  67.648  1.00  0.00     0.000 HD 
HETATM   12  C   UNL     1      -8.885  17.575  70.517  1.00  0.00     4.189 C  
HETATM   13  C   UNL     1      -6.562  13.408  68.652  1.00  0.00    -0.091 C  
HETATM   14  C   UNL     1      -8.677  13.389  69.820  1.00  0.00     2.056 C  
HETATM   15  O   UNL     1     -10.792  13.567  70.741  1.00  0.00     0.782 OA 
HETATM   16  C   UNL     1      -7.664  15.617  69.601  1.00  0.00    -0.107 C  
HETATM   17  C   UNL     1      -8.235  11.964  69.559  1.00  0.00     0.975 C  
HETATM   18  C   UNL     1      -9.753  16.460  68.507  1.00  0.00    -0.228 C  
HETATM   19  C   UNL     1     -10.198  18.412  70.601  1.00  0.00     2.190 C  
HETATM   20  H   UNL     1     -10.431  13.551  71.620  1.00  0.00     0.000 HD 
HETATM   21  N   UNL     1      -8.785  16.469  69.569  1.00  0.00     0.091 N  
HETATM   22  C   UNL     1      -6.737  12.171  69.548  1.00  0.00    -0.017 C  
HETATM   23  O   UNL     1      -6.677  15.854  70.293  1.00  0.00     0.052 OA 
ENDROOT
BRANCH   5  24
HETATM   24  C   UNL     1     -12.049  12.222  67.000  1.00  0.00     0.052 C  
HETATM   25  H   UNL     1     -11.563  11.870  65.163  1.00  0.00     0.000 HD 
HETATM   26  O   UNL     1     -11.529  12.585  65.787  1.00  0.00    -0.328 OA 
BRANCH  24  27
HETATM   27  N   UNL     1     -12.416  11.045  67.290  1.00  0.00     2.022 N  
HETATM   28  H   UNL     1     -12.982  10.505  66.636  1.00  0.00     0.000 HD 
BRANCH  27  29
HETATM   29  S   UNL     1     -11.978  10.416  68.701  1.00  0.00     0.530 S  
HETATM   30  O   UNL     1     -12.730  11.096  69.754  1.00  0.00    -0.147 OA 
HETATM   31  O   UNL     1     -11.943   8.973  68.670  1.00  0.00     1.446 OA 
BRANCH  29  32
HETATM   32  C   UNL     1     -10.212  10.949  68.959  1.00  0.00    -0.203 C  
HETATM   33  C   UNL     1      -9.263   9.779  69.071  1.00  0.00    -0.165 C  
HETATM   34  C   UNL     1      -9.243  10.656  67.846  1.00  0.00    -0.150 C  
ENDBRANCH  29  32
ENDBRANCH  27  29
ENDBRANCH  24  27
ENDBRANCH   5  24
BRANCH  22  35
HETATM   35  O   UNL     1      -6.113  10.964  69.145  1.00  0.00    -0.041 OA 
BRANCH  35  36
HETATM   36  C   UNL     1      -6.920   9.893  68.867  1.00  0.00    -0.062 A  
HETATM   37  C   UNL     1      -8.336   6.942  71.552  1.00  0.00    -0.114 A  
HETATM   38  C   UNL     1      -7.454   9.135  71.204  1.00  0.00    -0.091 A  
HETATM   39  C   UNL     1      -7.463   8.976  69.801  1.00  0.00    -0.062 A  
HETATM   40  C   UNL     1      -7.191   9.758  67.509  1.00  0.00    -0.089 A  
HETATM   41  C   UNL     1      -8.507   6.814  70.160  1.00  0.00    -0.139 A  
HETATM   42  C   UNL     1      -8.093   7.830  69.275  1.00  0.00    -0.127 A  
HETATM   43  C   UNL     1      -9.129   5.573  69.570  1.00  0.00    -0.143 C  
HETATM   44  C   UNL     1      -7.840   8.122  72.070  1.00  0.00    -0.150 A  
HETATM   45  C   UNL     1      -7.923   8.668  67.087  1.00  0.00    -0.100 A  
HETATM   46  N   UNL     1      -8.315   7.698  67.951  1.00  0.00    -0.122 NA 
BRANCH  37  47
HETATM   47  O   UNL     1      -8.747   5.902  72.350  1.00  0.00    -0.127 OA 
HETATM   48  C   UNL     1      -9.894   5.186  71.892  1.00  0.00    -0.177 C  
ENDBRANCH  37  47
BRANCH  45  49
HETATM   49  C   UNL     1      -8.327   8.525  65.672  1.00  0.00    -0.148 A  
HETATM   50  N   UNL     1      -9.026   9.416  64.987  1.00  0.00    -0.206 NA 
HETATM   51  C   UNL     1      -9.293   8.956  63.701  1.00  0.00     1.018 A  
HETATM   52  C   UNL     1      -8.776   7.705  63.426  1.00  0.00     0.645 A  
HETATM   53  C   UNL     1     -10.084   9.811  62.746  1.00  0.00     1.299 C  
HETATM   54  C   UNL     1     -11.494  10.089  63.268  1.00  0.00     5.190 C  
HETATM   55  S   UNL     1      -7.942   7.094  64.785  1.00  0.00    -0.099 SA 
HETATM   56  C   UNL     1      -9.357  11.119  62.430  1.00  0.00    -0.186 C  
ENDBRANCH  45  49
ENDBRANCH  35  36
ENDBRANCH  22  35
TORSDOF 8
ENDMDL
MODEL       78
REMARK 921   NORMALIZED FREE ENERGY PREDICTED BY IDOCK:   45.33 KCAL/MOL
REMARK 922        TOTAL FREE ENERGY PREDICTED BY IDOCK:   63.97 KCAL/MOL
REMARK 923 INTER-LIGAND FREE ENERGY PREDICTED BY IDOCK:    6.47 KCAL/MOL
REMARK 924 INTRA-LIGAND FREE ENERGY PREDICTED BY IDOCK:   57.50 KCAL/MOL
REMARK 927      BINDING AFFINITY PREDICTED BY RF-SCORE:    0.00 PKD
ROOT
HETATM    1  C   UNL     1     -10.931   5.838  66.047  1.00  0.00     0.411 C  
HETATM    2  C   UNL     1     -11.221   6.378  67.254  1.00  0.00    -0.295 C  
HETATM    3  C   UNL     1     -10.631   6.391  68.607  1.00  0.00    -0.300 C  
HETATM    4  C   UNL     1      -9.288   5.834  68.919  1.00  0.00    -0.141 C  
HETATM    5  C   UNL     1      -9.532   7.325  69.094  1.00  0.00    -0.148 C  
HETATM    6  C   UNL     1      -9.837   4.926  65.526  1.00  0.00    -0.112 C  
HETATM    7  N   UNL     1      -8.656   8.156  68.307  1.00  0.00    -0.130 NA 
HETATM    8  C   UNL     1      -8.948   8.872  67.285  1.00  0.00    -0.128 C  
HETATM    9  C   UNL     1      -6.550   9.431  66.718  1.00  0.00    -0.068 C  
HETATM   10  C   UNL     1      -9.307   5.201  64.076  1.00  0.00     0.348 C  
HETATM   11  H   UNL     1      -7.680   8.176  68.601  1.00  0.00     0.000 HD 
HETATM   12  C   UNL     1      -7.105   6.959  63.831  1.00  0.00    -0.060 C  
HETATM   13  C   UNL     1      -5.755  10.713  67.044  1.00  0.00    -0.049 C  
HETATM   14  C   UNL     1      -8.012   9.893  66.766  1.00  0.00    -0.116 C  
HETATM   15  O   UNL     1     -10.063   8.844  66.560  1.00  0.00    -0.277 OA 
HETATM   16  C   UNL     1      -6.351   8.785  65.334  1.00  0.00    -0.062 C  
HETATM   17  C   UNL     1      -8.025  11.102  67.679  1.00  0.00    -0.116 C  
HETATM   18  C   UNL     1      -7.040   6.561  66.254  1.00  0.00    -0.067 C  
HETATM   19  C   UNL     1      -7.858   5.606  63.643  1.00  0.00    -0.105 C  
HETATM   20  H   UNL     1     -10.279   9.375  65.803  1.00  0.00     0.000 HD 
HETATM   21  N   UNL     1      -6.889   7.494  65.172  1.00  0.00    -0.047 N  
HETATM   22  C   UNL     1      -6.811  11.827  67.143  1.00  0.00    -0.148 C  
HETATM   23  O   UNL     1      -5.902   9.434  64.392  1.00  0.00    -0.068 OA 
ENDROOT
BRANCH   5  24
HETATM   24  C   UNL     1      -9.418   7.780  70.540  1.00  0.00    -0.163 C  
HETATM   25  H   UNL     1      -8.067   7.940  71.912  1.00  0.00     0.000 HD 
HETATM   26  O   UNL     1      -8.138   7.656  71.009  1.00  0.00    -0.093 OA 
BRANCH  24  27
HETATM   27  N   UNL     1     -10.362   8.319  71.190  1.00  0.00    -0.198 N  
HETATM   28  H   UNL     1     -10.162   9.007  71.915  1.00  0.00     0.000 HD 
BRANCH  27  29
HETATM   29  S   UNL     1     -11.876   7.904  70.855  1.00  0.00    -0.174 S  
HETATM   30  O   UNL     1     -12.442   8.922  69.973  1.00  0.00     0.651 OA 
HETATM   31  O   UNL     1     -11.997   6.509  70.501  1.00  0.00    -0.388 OA 
BRANCH  29  32
HETATM   32  C   UNL     1     -12.810   8.090  72.456  1.00  0.00    -0.011 C  
HETATM   33  C   UNL     1     -13.932   7.088  72.594  1.00  0.00     0.652 C  
HETATM   34  C   UNL     1     -12.697   6.964  73.447  1.00  0.00     2.717 C  
ENDBRANCH  29  32
ENDBRANCH  27  29
ENDBRANCH  24  27
ENDBRANCH   5  24
BRANCH  22  35
HETATM   35  O   UNL     1      -6.533  12.933  67.984  1.00  0.00    -0.081 OA 
BRANCH  35  36
HETATM   36  C   UNL     1      -7.596  13.623  68.501  1.00  0.00    -0.130 A  
HETATM   37  C   UNL     1      -8.180  17.816  68.584  1.00  0.00    -0.271 A  
HETATM   38  C   UNL     1      -7.094  15.922  67.614  1.00  0.00    -0.185 A  
HETATM   39  C   UNL     1      -7.817  15.021  68.427  1.00  0.00    -0.125 A  
HETATM   40  C   UNL     1      -8.513  12.799  69.147  1.00  0.00     0.644 A  
HETATM   41  C   UNL     1      -9.026  16.940  69.291  1.00  0.00     0.035 A  
HETATM   42  C   UNL     1      -8.869  15.541  69.207  1.00  0.00    -0.256 A  
HETATM   43  C   UNL     1     -10.125  17.475  70.175  1.00  0.00     1.025 C  
HETATM   44  C   UNL     1      -7.237  17.298  67.718  1.00  0.00    -0.169 A  
HETATM   45  C   UNL     1      -9.588  13.381  69.786  1.00  0.00     1.840 A  
HETATM   46  N   UNL     1      -9.727  14.729  69.858  1.00  0.00     0.194 NA 
BRANCH  37  47
HETATM   47  O   UNL     1      -8.383  19.166  68.730  1.00  0.00    -0.359 OA 
HETATM   48  C   UNL     1      -7.270  19.998  68.407  1.00  0.00    -0.262 C  
ENDBRANCH  37  47
BRANCH  45  49
HETATM   49  C   UNL     1     -10.645  12.553  70.402  1.00  0.00     2.570 A  
HETATM   50  N   UNL     1     -10.601  11.236  70.532  1.00  0.00     1.151 NA 
HETATM   51  C   UNL     1     -11.777  10.754  71.099  1.00  0.00    -0.056 A  
HETATM   52  C   UNL     1     -12.706  11.730  71.400  1.00  0.00    -0.308 A  
HETATM   53  C   UNL     1     -11.945   9.275  71.334  1.00  0.00    -0.424 C  
HETATM   54  C   UNL     1     -11.889   8.482  70.028  1.00  0.00     0.428 C  
HETATM   55  S   UNL     1     -12.107  13.272  70.977  1.00  0.00     0.121 SA 
HETATM   56  C   UNL     1     -10.917   8.745  72.333  1.00  0.00    -0.229 C  
ENDBRANCH  45  49
ENDBRANCH  35  36
ENDBRANCH  22  35
TORSDOF 8
ENDMDL
MODEL       79
REMARK 921   NORMALIZED FREE ENERGY PREDICTED BY IDOCK:   46.77 KCAL/MOL
REMARK 922        TOTAL FREE ENERGY PREDICTED BY IDOCK:   66.09 KCAL/MOL
REMARK 923 INTER-LIGAND FREE ENERGY PREDICTED BY IDOCK:   63.70 KCAL/MOL
REMARK 924 INTRA-LIGAND FREE ENERGY PREDICTED BY IDOCK:    2.39 KCAL/MOL
REMARK 927      BINDING AFFINITY PREDICTED BY RF-SCORE:    0.00 PKD
ROOT
HETATM    1  C   UNL     1      -9.610  16.566  71.353  1.00  0.00     4.993 C  
HETATM    2  C   UNL     1      -9.958  16.657  70.047  1.00  0.00     0.467 C  
HETATM    3  C   UNL     1      -9.269  16.737  68.745  1.00  0.00    -0.260 C  
HETATM    4  C   UNL     1      -7.802  16.551  68.582  1.00  0.00    -0.226 C  
HETATM    5  C   UNL     1      -8.754  15.557  67.932  1.00  0.00    -0.163 C  
HETATM    6  C   UNL     1      -8.292  16.543  72.102  1.00  0.00    12.521 C  
HETATM    7  N   UNL     1      -8.559  14.196  68.364  1.00  0.00    -0.173 NA 
HETATM    8  C   UNL     1      -9.325  13.481  69.101  1.00  0.00     0.505 C  
HETATM    9  C   UNL     1      -7.674  11.585  69.354  1.00  0.00     0.204 C  
HETATM   10  C   UNL     1      -8.199  15.606  73.357  1.00  0.00    13.027 C  
HETATM   11  H   UNL     1      -7.703  13.745  68.041  1.00  0.00     0.000 HD 
HETATM   12  C   UNL     1      -7.287  12.966  72.917  1.00  0.00    10.325 C  
HETATM   13  C   UNL     1      -7.619  10.245  68.591  1.00  0.00    -0.089 C  
HETATM   14  C   UNL     1      -9.139  12.017  69.214  1.00  0.00     0.739 C  
HETATM   15  O   UNL     1     -10.357  13.882  69.838  1.00  0.00    -0.160 OA 
HETATM   16  C   UNL     1      -7.375  11.572  70.866  1.00  0.00     3.715 C  
HETATM   17  C   UNL     1      -9.642  11.344  67.953  1.00  0.00    -0.180 C  
HETATM   18  C   UNL     1      -6.672  13.973  70.763  1.00  0.00     0.501 C  
HETATM   19  C   UNL     1      -7.250  14.380  73.573  1.00  0.00     4.577 C  
HETATM   20  H   UNL     1     -10.925  13.352  70.385  1.00  0.00     0.000 HD 
HETATM   21  N   UNL     1      -7.184  12.830  71.467  1.00  0.00     5.656 N  
HETATM   22  C   UNL     1      -9.071   9.961  68.170  1.00  0.00    -0.121 C  
HETATM   23  O   UNL     1      -7.469  10.537  71.520  1.00  0.00     1.740 OA 
ENDROOT
BRANCH   5  24
HETATM   24  C   UNL     1      -8.681  15.571  66.414  1.00  0.00    -0.298 C  
HETATM   25  H   UNL     1      -8.777  14.324  64.941  1.00  0.00     0.000 HD 
HETATM   26  O   UNL     1      -8.822  14.315  65.890  1.00  0.00     0.261 OA 
BRANCH  24  27
HETATM   27  N   UNL     1      -8.619  16.627  65.717  1.00  0.00    -0.011 N  
HETATM   28  H   UNL     1      -7.825  16.793  65.100  1.00  0.00     0.000 HD 
BRANCH  27  29
HETATM   29  S   UNL     1      -9.809  17.700  65.819  1.00  0.00     0.185 S  
HETATM   30  O   UNL     1     -10.221  18.052  64.462  1.00  0.00     1.789 OA 
HETATM   31  O   UNL     1     -10.808  17.321  66.790  1.00  0.00    -0.147 OA 
BRANCH  29  32
HETATM   32  C   UNL     1      -9.027  19.250  66.494  1.00  0.00    -0.346 C  
HETATM   33  C   UNL     1      -7.626  19.018  67.007  1.00  0.00    -0.239 C  
HETATM   34  C   UNL     1      -7.848  19.803  65.740  1.00  0.00    -0.230 C  
ENDBRANCH  29  32
ENDBRANCH  27  29
ENDBRANCH  24  27
ENDBRANCH   5  24
BRANCH  22  35
HETATM   35  O   UNL     1      -9.285   9.191  66.999  1.00  0.00    -0.130 OA 
BRANCH  35  36
HETATM   36  C   UNL     1      -9.011   7.851  67.059  1.00  0.00    -0.128 A  
HETATM   37  C   UNL     1      -9.992   4.868  64.220  1.00  0.00     0.518 A  
HETATM   38  C   UNL     1      -9.629   7.177  64.717  1.00  0.00     2.152 A  
HETATM   39  C   UNL     1      -9.260   6.888  66.050  1.00  0.00    -0.062 A  
HETATM   40  C   UNL     1      -8.427   7.472  68.265  1.00  0.00    -0.125 A  
HETATM   41  C   UNL     1      -9.479   4.537  65.488  1.00  0.00    -0.175 A  
HETATM   42  C   UNL     1      -9.091   5.535  66.406  1.00  0.00    -0.144 A  
HETATM   43  C   UNL     1      -9.339   3.096  65.912  1.00  0.00    -0.104 C  
HETATM   44  C   UNL     1     -10.031   6.191  63.827  1.00  0.00     3.564 A  
HETATM   45  C   UNL     1      -8.179   6.134  68.486  1.00  0.00    -0.111 A  
HETATM   46  N   UNL     1      -8.557   5.184  67.593  1.00  0.00    -0.105 NA 
BRANCH  37  47
HETATM   47  O   UNL     1     -10.366   3.841  63.388  1.00  0.00    -0.195 OA 
HETATM   48  C   UNL     1     -11.265   2.886  63.949  1.00  0.00     0.499 C  
ENDBRANCH  37  47
BRANCH  45  49
HETATM   49  C   UNL     1      -7.470   5.683  69.702  1.00  0.00    -0.075 A  
HETATM   50  N   UNL     1      -7.374   4.425  70.104  1.00  0.00    -0.046 NA 
HETATM   51  C   UNL     1      -6.695   4.342  71.316  1.00  0.00    -0.031 A  
HETATM   52  C   UNL     1      -6.274   5.557  71.817  1.00  0.00    -0.038 A  
HETATM   53  C   UNL     1      -6.475   2.999  71.962  1.00  0.00    -0.015 C  
HETATM   54  C   UNL     1      -7.797   2.311  72.306  1.00  0.00    -0.053 C  
HETATM   55  S   UNL     1      -6.725   6.824  70.764  1.00  0.00    -0.055 SA 
HETATM   56  C   UNL     1      -5.606   2.092  71.091  1.00  0.00    -0.008 C  
ENDBRANCH  45  49
ENDBRANCH  35  36
ENDBRANCH  22  35
TORSDOF 8
ENDMDL
MODEL       80
REMARK 921   NORMALIZED FREE ENERGY PREDICTED BY IDOCK:   46.93 KCAL/MOL
REMARK 922        TOTAL FREE ENERGY PREDICTED BY IDOCK:   66.31 KCAL/MOL
REMARK 923 INTER-LIGAND FREE ENERGY PREDICTED BY IDOCK:   57.48 KCAL/MOL
REMARK 924 INTRA-LIGAND FREE ENERGY PREDICTED BY IDOCK:    8.83 KCAL/MOL
REMARK 927      BINDING AFFINITY PREDICTED BY RF-SCORE:    0.00 PKD
ROOT
HETATM    1  C   UNL     1      -9.548  18.084  70.043  1.00  0.00     1.396 C  
HETATM    2  C   UNL     1     -10.285  17.223  69.303  1.00  0.00    -0.218 C  
HETATM    3  C   UNL     1     -10.089  16.371  68.114  1.00  0.00    -0.251 C  
HETATM    4  C   UNL     1      -8.763  16.147  67.478  1.00  0.00    -0.195 C  
HETATM    5  C   UNL     1      -9.494  14.970  68.106  1.00  0.00    -0.196 C  
HETATM    6  C   UNL     1      -8.130  18.617  69.954  1.00  0.00     1.153 C  
HETATM    7  N   UNL     1      -8.750  14.312  69.151  1.00  0.00    -0.371 NA 
HETATM    8  C   UNL     1      -8.982  14.314  70.411  1.00  0.00     2.399 C  
HETATM    9  C   UNL     1      -6.815  13.175  71.034  1.00  0.00     2.394 C  
HETATM   10  C   UNL     1      -7.365  18.840  71.305  1.00  0.00     3.985 C  
HETATM   11  H   UNL     1      -7.935  13.779  68.849  1.00  0.00     0.000 HD 
HETATM   12  C   UNL     1      -5.830  16.673  72.278  1.00  0.00     1.965 C  
HETATM   13  C   UNL     1      -6.566  11.687  71.361  1.00  0.00     2.822 C  
HETATM   14  C   UNL     1      -8.310  13.359  71.320  1.00  0.00     9.222 C  
HETATM   15  O   UNL     1      -9.814  15.103  71.088  1.00  0.00     0.272 OA 
HETATM   16  C   UNL     1      -6.084  14.236  71.877  1.00  0.00     0.287 C  
HETATM   17  C   UNL     1      -8.927  11.985  71.158  1.00  0.00    11.390 C  
HETATM   18  C   UNL     1      -6.257  15.877  69.993  1.00  0.00    -0.119 C  
HETATM   19  C   UNL     1      -6.054  18.138  71.793  1.00  0.00     1.736 C  
HETATM   20  H   UNL     1      -9.986  15.103  72.022  1.00  0.00     0.000 HD 
HETATM   21  N   UNL     1      -6.135  15.555  71.388  1.00  0.00     0.630 N  
HETATM   22  C   UNL     1      -7.904  11.167  71.912  1.00  0.00     9.274 C  
HETATM   23  O   UNL     1      -5.636  13.963  72.988  1.00  0.00    -0.421 OA 
ENDROOT
BRANCH   5  24
HETATM   24  C   UNL     1      -9.894  13.910  67.093  1.00  0.00    -0.241 C  
HETATM   25  H   UNL     1     -11.168  13.675  65.659  1.00  0.00     0.000 HD 
HETATM   26  O   UNL     1     -10.918  14.338  66.292  1.00  0.00    -0.308 OA 
BRANCH  24  27
HETATM   27  N   UNL     1      -9.277  12.816  66.931  1.00  0.00    -0.224 N  
HETATM   28  H   UNL     1      -8.258  12.794  66.919  1.00  0.00     0.000 HD 
BRANCH  27  29
HETATM   29  S   UNL     1     -10.123  11.464  66.744  1.00  0.00    -0.223 S  
HETATM   30  O   UNL     1      -9.181  10.353  66.619  1.00  0.00    -0.153 OA 
HETATM   31  O   UNL     1     -11.217  11.368  67.682  1.00  0.00    -0.246 OA 
BRANCH  29  32
HETATM   32  C   UNL     1     -10.920  11.601  65.066  1.00  0.00    -0.273 C  
HETATM   33  C   UNL     1      -9.920  11.876  63.968  1.00  0.00    -0.318 C  
HETATM   34  C   UNL     1     -10.588  10.529  64.064  1.00  0.00     0.214 C  
ENDBRANCH  29  32
ENDBRANCH  27  29
ENDBRANCH  24  27
ENDBRANCH   5  24
BRANCH  22  35
HETATM   35  O   UNL     1      -8.204   9.792  71.740  1.00  0.00     0.581 OA 
BRANCH  35  36
HETATM   36  C   UNL     1      -8.799   9.413  70.567  1.00  0.00    -0.239 A  
HETATM   37  C   UNL     1     -12.491   7.404  70.055  1.00  0.00     0.772 A  
HETATM   38  C   UNL     1     -11.067   8.748  71.425  1.00  0.00    -0.361 A  
HETATM   39  C   UNL     1     -10.082   8.831  70.415  1.00  0.00    -0.223 A  
HETATM   40  C   UNL     1      -8.001   9.655  69.452  1.00  0.00    -0.111 A  
HETATM   41  C   UNL     1     -11.604   7.602  68.979  1.00  0.00     0.835 A  
HETATM   42  C   UNL     1     -10.407   8.329  69.139  1.00  0.00    -0.217 A  
HETATM   43  C   UNL     1     -11.904   7.026  67.617  1.00  0.00     1.606 C  
HETATM   44  C   UNL     1     -12.232   8.011  71.268  1.00  0.00    -0.308 A  
HETATM   45  C   UNL     1      -8.448   9.240  68.216  1.00  0.00    -0.120 A  
HETATM   46  N   UNL     1      -9.604   8.541  68.077  1.00  0.00    -0.147 NA 
BRANCH  37  47
HETATM   47  O   UNL     1     -13.628   6.669  69.826  1.00  0.00     3.228 OA 
HETATM   48  C   UNL     1     -13.833   5.559  70.699  1.00  0.00     7.533 C  
ENDBRANCH  37  47
BRANCH  45  49
HETATM   49  C   UNL     1      -7.692   9.559  66.987  1.00  0.00    -0.091 A  
HETATM   50  N   UNL     1      -7.536   8.741  65.957  1.00  0.00    -0.088 NA 
HETATM   51  C   UNL     1      -6.722   9.317  64.986  1.00  0.00    -0.078 A  
HETATM   52  C   UNL     1      -6.274  10.586  65.298  1.00  0.00    -0.095 A  
HETATM   53  C   UNL     1      -6.406   8.557  63.725  1.00  0.00    -0.073 C  
HETATM   54  C   UNL     1      -5.655   7.257  64.019  1.00  0.00    -0.033 C  
HETATM   55  S   UNL     1      -6.877  11.072  66.820  1.00  0.00    -0.136 SA 
HETATM   56  C   UNL     1      -7.666   8.279  62.905  1.00  0.00    -0.132 C  
ENDBRANCH  45  49
ENDBRANCH  35  36
ENDBRANCH  22  35
TORSDOF 8
ENDMDL
MODEL       81
REMARK 921   NORMALIZED FREE ENERGY PREDICTED BY IDOCK:   50.27 KCAL/MOL
REMARK 922        TOTAL FREE ENERGY PREDICTED BY IDOCK:   71.22 KCAL/MOL
REMARK 923 INTER-LIGAND FREE ENERGY PREDICTED BY IDOCK:   50.38 KCAL/MOL
REMARK 924 INTRA-LIGAND FREE ENERGY PREDICTED BY IDOCK:   20.84 KCAL/MOL
REMARK 927      BINDING AFFINITY PREDICTED BY RF-SCORE:    0.00 PKD
ROOT
HETATM    1  C   UNL     1     -12.920  13.474  64.214  1.00  0.00     0.321 C  
HETATM    2  C   UNL     1     -12.499  14.158  65.305  1.00  0.00    -0.474 C  
HETATM    3  C   UNL     1     -12.488  13.966  66.767  1.00  0.00    -0.254 C  
HETATM    4  C   UNL     1     -12.874  12.690  67.428  1.00  0.00     2.255 C  
HETATM    5  C   UNL     1     -11.443  13.192  67.560  1.00  0.00    -0.328 C  
HETATM    6  C   UNL     1     -13.639  12.156  63.999  1.00  0.00     0.947 C  
HETATM    7  N   UNL     1     -10.453  12.269  67.064  1.00  0.00    -0.215 NA 
HETATM    8  C   UNL     1      -9.723  12.376  66.017  1.00  0.00    -0.244 C  
HETATM    9  C   UNL     1      -8.806  10.026  66.149  1.00  0.00    -0.165 C  
HETATM   10  C   UNL     1     -13.205  11.300  62.759  1.00  0.00     2.059 C  
HETATM   11  H   UNL     1     -10.317  11.424  67.618  1.00  0.00     0.000 HD 
HETATM   12  C   UNL     1     -11.150   9.402  63.170  1.00  0.00     7.661 C  
HETATM   13  C   UNL     1      -7.450   9.550  66.709  1.00  0.00    -0.094 C  
HETATM   14  C   UNL     1      -8.553  11.498  65.799  1.00  0.00     0.059 C  
HETATM   15  O   UNL     1      -9.860  13.236  65.010  1.00  0.00    -0.534 OA 
HETATM   16  C   UNL     1      -9.333   9.365  64.861  1.00  0.00    -0.150 C  
HETATM   17  C   UNL     1      -7.416  11.938  66.697  1.00  0.00     0.059 C  
HETATM   18  C   UNL     1     -11.683   9.938  65.507  1.00  0.00     4.392 C  
HETATM   19  C   UNL     1     -12.579   9.865  62.753  1.00  0.00     9.204 C  
HETATM   20  H   UNL     1      -9.319  13.315  64.234  1.00  0.00     0.000 HD 
HETATM   21  N   UNL     1     -10.673   9.640  64.530  1.00  0.00     2.246 N  
HETATM   22  C   UNL     1      -6.500  10.746  66.535  1.00  0.00    -0.119 C  
HETATM   23  O   UNL     1      -8.572   8.779  64.094  1.00  0.00    -0.158 OA 
ENDROOT
BRANCH   5  24
HETATM   24  C   UNL     1     -11.066  13.544  68.990  1.00  0.00    -0.250 C  
HETATM   25  H   UNL     1     -11.691  13.199  70.786  1.00  0.00     0.000 HD 
HETATM   26  O   UNL     1     -11.926  12.980  69.892  1.00  0.00    -0.320 OA 
BRANCH  24  27
HETATM   27  N   UNL     1     -10.018  14.178  69.311  1.00  0.00    -0.425 N  
HETATM   28  H   UNL     1      -9.554  13.993  70.199  1.00  0.00     0.000 HD 
BRANCH  27  29
HETATM   29  S   UNL     1      -9.431  15.278  68.298  1.00  0.00    -0.210 S  
HETATM   30  O   UNL     1      -8.381  16.020  68.993  1.00  0.00    -0.217 OA 
HETATM   31  O   UNL     1      -9.169  14.732  66.987  1.00  0.00    -0.210 OA 
BRANCH  29  32
HETATM   32  C   UNL     1     -10.803  16.514  68.054  1.00  0.00    -0.337 C  
HETATM   33  C   UNL     1     -10.308  17.941  68.061  1.00  0.00    -0.394 C  
HETATM   34  C   UNL     1     -10.784  17.311  66.778  1.00  0.00    -0.095 C  
ENDBRANCH  29  32
ENDBRANCH  27  29
ENDBRANCH  24  27
ENDBRANCH   5  24
BRANCH  22  35
HETATM   35  O   UNL     1      -5.419  10.875  67.442  1.00  0.00    -0.043 OA 
BRANCH  35  36
HETATM   36  C   UNL     1      -5.711  11.221  68.735  1.00  0.00    -0.042 A  
HETATM   37  C   UNL     1      -5.970   8.678  72.110  1.00  0.00    -0.070 A  
HETATM   38  C   UNL     1      -5.153   9.063  69.898  1.00  0.00    -0.029 A  
HETATM   39  C   UNL     1      -5.693  10.367  69.866  1.00  0.00    -0.050 A  
HETATM   40  C   UNL     1      -6.050  12.564  68.872  1.00  0.00    -0.075 A  
HETATM   41  C   UNL     1      -6.380  10.023  72.168  1.00  0.00     0.910 A  
HETATM   42  C   UNL     1      -6.230  10.884  71.062  1.00  0.00     0.351 A  
HETATM   43  C   UNL     1      -7.008  10.585  73.420  1.00  0.00     4.714 C  
HETATM   44  C   UNL     1      -5.324   8.213  70.982  1.00  0.00    -0.029 A  
HETATM   45  C   UNL     1      -6.449  13.021  70.110  1.00  0.00     0.160 A  
HETATM   46  N   UNL     1      -6.588  12.180  71.167  1.00  0.00     1.404 NA 
BRANCH  37  47
HETATM   47  O   UNL     1      -6.166   7.896  73.222  1.00  0.00    -0.061 OA 
HETATM   48  C   UNL     1      -6.428   6.516  72.970  1.00  0.00    -0.067 C  
ENDBRANCH  37  47
BRANCH  45  49
HETATM   49  C   UNL     1      -6.723  14.455  70.339  1.00  0.00     0.060 A  
HETATM   50  N   UNL     1      -7.923  14.977  70.543  1.00  0.00     0.879 NA 
HETATM   51  C   UNL     1      -7.848  16.361  70.665  1.00  0.00     3.153 A  
HETATM   52  C   UNL     1      -6.571  16.873  70.556  1.00  0.00     1.190 A  
HETATM   53  C   UNL     1      -9.102  17.163  70.897  1.00  0.00     5.389 C  
HETATM   54  C   UNL     1     -10.095  17.012  69.744  1.00  0.00     0.188 C  
HETATM   55  S   UNL     1      -5.444  15.615  70.303  1.00  0.00    -0.150 SA 
HETATM   56  C   UNL     1      -9.762  16.801  72.228  1.00  0.00     8.588 C  
ENDBRANCH  45  49
ENDBRANCH  35  36
ENDBRANCH  22  35
TORSDOF 8
ENDMDL
MODEL       82
REMARK 921   NORMALIZED FREE ENERGY PREDICTED BY IDOCK:   62.62 KCAL/MOL
REMARK 922        TOTAL FREE ENERGY PREDICTED BY IDOCK:   89.34 KCAL/MOL
REMARK 923 INTER-LIGAND FREE ENERGY PREDICTED BY IDOCK:   71.84 KCAL/MOL
REMARK 924 INTRA-LIGAND FREE ENERGY PREDICTED BY IDOCK:   17.50 KCAL/MOL
REMARK 927      BINDING AFFINITY PREDICTED BY RF-SCORE:    0.00 PKD
ROOT
HETATM    1  C   UNL     1      -7.210  20.523  68.131  1.00  0.00    -0.183 C  
HETATM    2  C   UNL     1      -6.695  19.956  69.247  1.00  0.00    -0.361 C  
HETATM    3  C   UNL     1      -7.201  19.439  70.533  1.00  0.00     0.839 C  
HETATM    4  C   UNL     1      -8.649  19.282  70.840  1.00  0.00     3.275 C  
HETATM    5  C   UNL     1      -7.764  18.046  70.778  1.00  0.00     4.523 C  
HETATM    6  C   UNL     1      -8.603  20.939  67.695  1.00  0.00    -0.025 C  
HETATM    7  N   UNL     1      -8.189  17.073  69.803  1.00  0.00     0.802 NA 
HETATM    8  C   UNL     1      -7.622  16.757  68.699  1.00  0.00    -0.222 C  
HETATM    9  C   UNL     1      -9.527  15.315  67.879  1.00  0.00    -0.197 C  
HETATM   10  C   UNL     1      -8.973  20.727  66.186  1.00  0.00     0.417 C  
HETATM   11  H   UNL     1      -9.051  16.573  70.020  1.00  0.00     0.000 HD 
HETATM   12  C   UNL     1     -10.165  18.258  65.495  1.00  0.00     0.271 C  
HETATM   13  C   UNL     1      -9.664  13.778  67.928  1.00  0.00    -0.229 C  
HETATM   14  C   UNL     1      -8.012  15.542  67.951  1.00  0.00    -0.146 C  
HETATM   15  O   UNL     1      -6.644  17.404  68.068  1.00  0.00    -0.160 OA 
HETATM   16  C   UNL     1     -10.010  16.047  66.613  1.00  0.00    -0.267 C  
HETATM   17  C   UNL     1      -7.451  14.318  68.646  1.00  0.00    -0.127 C  
HETATM   18  C   UNL     1     -10.371  18.139  67.940  1.00  0.00    -0.396 C  
HETATM   19  C   UNL     1     -10.095  19.812  65.591  1.00  0.00    -0.288 C  
HETATM   20  H   UNL     1      -6.224  17.169  67.250  1.00  0.00     0.000 HD 
HETATM   21  N   UNL     1     -10.104  17.448  66.709  1.00  0.00    -0.301 N  
HETATM   22  C   UNL     1      -8.223  13.244  67.913  1.00  0.00    -0.163 C  
HETATM   23  O   UNL     1     -10.135  15.450  65.546  1.00  0.00    -0.341 OA 
ENDROOT
BRANCH   5  24
HETATM   24  C   UNL     1      -7.647  17.333  72.115  1.00  0.00    11.438 C  
HETATM   25  H   UNL     1      -6.428  16.142  73.027  1.00  0.00     0.000 HD 
HETATM   26  O   UNL     1      -6.501  16.588  72.192  1.00  0.00     3.214 OA 
BRANCH  24  27
HETATM   27  N   UNL     1      -8.447  17.503  73.082  1.00  0.00    15.422 N  
HETATM   28  H   UNL     1      -8.121  17.417  74.044  1.00  0.00     0.000 HD 
BRANCH  27  29
HETATM   29  S   UNL     1      -9.983  17.855  72.771  1.00  0.00     8.994 S  
HETATM   30  O   UNL     1     -10.329  17.272  71.476  1.00  0.00     2.581 OA 
HETATM   31  O   UNL     1     -10.840  17.621  73.909  1.00  0.00     1.935 OA 
BRANCH  29  32
HETATM   32  C   UNL     1     -10.025  19.696  72.489  1.00  0.00     3.455 C  
HETATM   33  C   UNL     1      -8.705  20.362  72.797  1.00  0.00     3.264 C  
HETATM   34  C   UNL     1      -9.175  20.235  71.371  1.00  0.00     2.217 C  
ENDBRANCH  29  32
ENDBRANCH  27  29
ENDBRANCH  24  27
ENDBRANCH   5  24
BRANCH  22  35
HETATM   35  O   UNL     1      -7.969  11.996  68.534  1.00  0.00    -0.147 OA 
BRANCH  35  36
HETATM   36  C   UNL     1      -9.032  11.155  68.729  1.00  0.00    -0.131 A  
HETATM   37  C   UNL     1     -12.011  11.382  71.728  1.00  0.00     1.101 A  
HETATM   38  C   UNL     1     -10.321  12.473  70.438  1.00  0.00     3.218 A  
HETATM   39  C   UNL     1     -10.073  11.309  69.678  1.00  0.00     0.359 A  
HETATM   40  C   UNL     1      -9.020  10.061  67.868  1.00  0.00    -0.131 A  
HETATM   41  C   UNL     1     -11.899  10.260  70.885  1.00  0.00    -0.473 A  
HETATM   42  C   UNL     1     -10.948  10.217  69.845  1.00  0.00    -0.293 A  
HETATM   43  C   UNL     1     -12.788   9.057  71.080  1.00  0.00    -0.110 C  
HETATM   44  C   UNL     1     -11.242  12.501  71.476  1.00  0.00     4.073 A  
HETATM   45  C   UNL     1      -9.990   9.092  68.019  1.00  0.00    -0.178 A  
HETATM   46  N   UNL     1     -10.899   9.147  69.025  1.00  0.00    -0.148 NA 
BRANCH  37  47
HETATM   47  O   UNL     1     -12.948  11.343  72.732  1.00  0.00     0.676 OA 
HETATM   48  C   UNL     1     -13.527  10.065  72.989  1.00  0.00     1.289 C  
ENDBRANCH  37  47
BRANCH  45  49
HETATM   49  C   UNL     1     -10.088   7.961  67.073  1.00  0.00    -0.277 A  
HETATM   50  N   UNL     1      -9.257   7.737  66.066  1.00  0.00    -0.130 NA 
HETATM   51  C   UNL     1      -9.659   6.627  65.329  1.00  0.00     1.058 A  
HETATM   52  C   UNL     1     -10.802   6.014  65.801  1.00  0.00     1.188 A  
HETATM   53  C   UNL     1      -8.857   6.192  64.130  1.00  0.00     0.517 C  
HETATM   54  C   UNL     1      -8.816   7.275  63.052  1.00  0.00     0.844 C  
HETATM   55  S   UNL     1     -11.386   6.827  67.185  1.00  0.00     0.369 SA 
HETATM   56  C   UNL     1      -7.442   5.769  64.524  1.00  0.00    -0.074 C  
ENDBRANCH  45  49
ENDBRANCH  35  36
ENDBRANCH  22  35
TORSDOF 8
ENDMDL
MODEL       83
REMARK 921   NORMALIZED FREE ENERGY PREDICTED BY IDOCK:   66.83 KCAL/MOL
REMARK 922        TOTAL FREE ENERGY PREDICTED BY IDOCK:   95.52 KCAL/MOL
REMARK 923 INTER-LIGAND FREE ENERGY PREDICTED BY IDOCK:   90.06 KCAL/MOL
REMARK 924 INTRA-LIGAND FREE ENERGY PREDICTED BY IDOCK:    5.46 KCAL/MOL
REMARK 927      BINDING AFFINITY PREDICTED BY RF-SCORE:    0.00 PKD
ROOT
HETATM    1  C   UNL     1      -8.018   7.244  73.800  1.00  0.00    -0.137 C  
HETATM    2  C   UNL     1      -8.009   8.552  74.150  1.00  0.00    -0.121 C  
HETATM    3  C   UNL     1      -7.353   9.792  73.694  1.00  0.00     2.580 C  
HETATM    4  C   UNL     1      -6.542   9.880  72.449  1.00  0.00     1.274 C  
HETATM    5  C   UNL     1      -7.825  10.690  72.560  1.00  0.00     8.667 C  
HETATM    6  C   UNL     1      -7.289   6.418  72.757  1.00  0.00    -0.090 C  
HETATM    7  N   UNL     1      -8.793  10.393  71.533  1.00  0.00     2.685 NA 
HETATM    8  C   UNL     1      -9.915   9.786  71.653  1.00  0.00     1.073 C  
HETATM    9  C   UNL     1     -10.343   9.629  69.168  1.00  0.00    -0.219 C  
HETATM   10  C   UNL     1      -8.097   5.266  72.065  1.00  0.00    -0.114 C  
HETATM   11  H   UNL     1      -8.554  10.706  70.593  1.00  0.00     0.000 HD 
HETATM   12  C   UNL     1      -9.478   5.922  69.686  1.00  0.00    -0.143 C  
HETATM   13  C   UNL     1     -11.237  10.524  68.284  1.00  0.00    -0.354 C  
HETATM   14  C   UNL     1     -10.927   9.816  70.574  1.00  0.00    -0.384 C  
HETATM   15  O   UNL     1     -10.354   9.077  72.690  1.00  0.00     0.093 OA 
HETATM   16  C   UNL     1     -10.347   8.111  68.902  1.00  0.00    -0.211 C  
HETATM   17  C   UNL     1     -11.605  11.170  70.554  1.00  0.00    -0.287 C  
HETATM   18  C   UNL     1      -8.057   7.915  69.895  1.00  0.00    -0.118 C  
HETATM   19  C   UNL     1      -8.456   5.121  70.548  1.00  0.00    -0.113 C  
HETATM   20  H   UNL     1     -11.186   8.628  72.778  1.00  0.00     0.000 HD 
HETATM   21  N   UNL     1      -9.340   7.369  69.547  1.00  0.00    -0.156 N  
HETATM   22  C   UNL     1     -12.324  11.064  69.228  1.00  0.00    -0.090 C  
HETATM   23  O   UNL     1     -11.276   7.577  68.302  1.00  0.00     0.157 OA 
ENDROOT
BRANCH   5  24
HETATM   24  C   UNL     1      -7.584  12.190  72.540  1.00  0.00    14.412 C  
HETATM   25  H   UNL     1      -6.357  13.457  71.748  1.00  0.00     0.000 HD 
HETATM   26  O   UNL     1      -6.508  12.519  71.760  1.00  0.00     1.787 OA 
BRANCH  24  27
HETATM   27  N   UNL     1      -8.353  13.039  73.080  1.00  0.00    14.852 N  
HETATM   28  H   UNL     1      -9.055  12.743  73.758  1.00  0.00     0.000 HD 
BRANCH  27  29
HETATM   29  S   UNL     1      -8.207  14.589  72.682  1.00  0.00     9.108 S  
HETATM   30  O   UNL     1      -7.428  15.254  73.725  1.00  0.00     6.330 OA 
HETATM   31  O   UNL     1      -7.842  14.767  71.297  1.00  0.00     2.001 OA 
BRANCH  29  32
HETATM   32  C   UNL     1      -9.919  15.307  72.839  1.00  0.00     5.422 C  
HETATM   33  C   UNL     1     -10.204  16.362  71.796  1.00  0.00     3.447 C  
HETATM   34  C   UNL     1     -10.884  15.020  71.722  1.00  0.00     0.395 C  
ENDBRANCH  29  32
ENDBRANCH  27  29
ENDBRANCH  24  27
ENDBRANCH   5  24
BRANCH  22  35
HETATM   35  O   UNL     1     -12.904  12.321  68.923  1.00  0.00     0.692 OA 
BRANCH  35  36
HETATM   36  C   UNL     1     -12.211  13.156  68.089  1.00  0.00    -0.028 A  
HETATM   37  C   UNL     1     -10.457  12.224  64.350  1.00  0.00    -0.325 A  
HETATM   38  C   UNL     1     -12.053  11.696  66.048  1.00  0.00     0.684 A  
HETATM   39  C   UNL     1     -11.720  12.847  66.796  1.00  0.00    -0.445 A  
HETATM   40  C   UNL     1     -12.009  14.421  68.634  1.00  0.00    -0.332 A  
HETATM   41  C   UNL     1     -10.217  13.455  64.989  1.00  0.00    -0.325 A  
HETATM   42  C   UNL     1     -10.856  13.788  66.202  1.00  0.00    -0.279 A  
HETATM   43  C   UNL     1      -9.254  14.456  64.400  1.00  0.00     3.726 C  
HETATM   44  C   UNL     1     -11.404  11.363  64.867  1.00  0.00    -0.109 A  
HETATM   45  C   UNL     1     -11.250  15.330  67.929  1.00  0.00    -0.331 A  
HETATM   46  N   UNL     1     -10.642  14.996  66.763  1.00  0.00    -0.295 NA 
BRANCH  37  47
HETATM   47  O   UNL     1      -9.783  11.963  63.182  1.00  0.00    -0.380 OA 
HETATM   48  C   UNL     1     -10.338  10.933  62.365  1.00  0.00     0.691 C  
ENDBRANCH  37  47
BRANCH  45  49
HETATM   49  C   UNL     1     -11.085  16.718  68.410  1.00  0.00    -0.266 A  
HETATM   50  N   UNL     1     -10.570  17.062  69.580  1.00  0.00    -0.211 NA 
HETATM   51  C   UNL     1     -10.611  18.442  69.755  1.00  0.00     1.208 A  
HETATM   52  C   UNL     1     -11.159  19.133  68.693  1.00  0.00     1.188 A  
HETATM   53  C   UNL     1     -10.078  19.054  71.024  1.00  0.00     2.522 C  
HETATM   54  C   UNL     1     -10.847  18.569  72.254  1.00  0.00     3.378 C  
HETATM   55  S   UNL     1     -11.627  18.052  67.456  1.00  0.00     1.721 SA 
HETATM   56  C   UNL     1      -8.581  18.795  71.187  1.00  0.00     5.836 C  
ENDBRANCH  45  49
ENDBRANCH  35  36
ENDBRANCH  22  35
TORSDOF 8
ENDMDL
MODEL       84
REMARK 921   NORMALIZED FREE ENERGY PREDICTED BY IDOCK:   67.02 KCAL/MOL
REMARK 922        TOTAL FREE ENERGY PREDICTED BY IDOCK:   95.81 KCAL/MOL
REMARK 923 INTER-LIGAND FREE ENERGY PREDICTED BY IDOCK:   89.32 KCAL/MOL
REMARK 924 INTRA-LIGAND FREE ENERGY PREDICTED BY IDOCK:    6.49 KCAL/MOL
REMARK 927      BINDING AFFINITY PREDICTED BY RF-SCORE:    0.00 PKD
ROOT
HETATM    1  C   UNL     1     -10.603  20.752  67.895  1.00  0.00     0.466 C  
HETATM    2  C   UNL     1      -9.363  20.253  67.680  1.00  0.00    -0.481 C  
HETATM    3  C   UNL     1      -8.140  20.009  68.468  1.00  0.00    -0.116 C  
HETATM    4  C   UNL     1      -8.077  20.157  69.948  1.00  0.00     0.892 C  
HETATM    5  C   UNL     1      -7.859  18.784  69.328  1.00  0.00     0.034 C  
HETATM    6  C   UNL     1     -11.314  21.351  69.093  1.00  0.00     2.456 C  
HETATM    7  N   UNL     1      -8.792  17.784  69.785  1.00  0.00     1.047 NA 
HETATM    8  C   UNL     1      -9.743  17.229  69.130  1.00  0.00    -0.129 C  
HETATM    9  C   UNL     1     -10.736  16.059  71.137  1.00  0.00     0.355 C  
HETATM   10  C   UNL     1     -12.836  21.013  69.263  1.00  0.00     6.532 C  
HETATM   11  H   UNL     1      -8.680  17.480  70.752  1.00  0.00     0.000 HD 
HETATM   12  C   UNL     1     -13.476  18.730  70.804  1.00  0.00    27.306 C  
HETATM   13  C   UNL     1     -10.559  14.592  71.583  1.00  0.00     1.637 C  
HETATM   14  C   UNL     1     -10.423  16.017  69.636  1.00  0.00    -0.300 C  
HETATM   15  O   UNL     1     -10.254  17.601  67.959  1.00  0.00    -0.323 OA 
HETATM   16  C   UNL     1     -12.134  16.693  71.265  1.00  0.00     0.719 C  
HETATM   17  C   UNL     1      -9.522  14.814  69.443  1.00  0.00     0.004 C  
HETATM   18  C   UNL     1     -11.105  18.972  71.400  1.00  0.00     4.739 C  
HETATM   19  C   UNL     1     -13.524  20.245  70.441  1.00  0.00    18.278 C  
HETATM   20  H   UNL     1     -10.959  17.189  67.474  1.00  0.00     0.000 HD 
HETATM   21  N   UNL     1     -12.196  18.089  71.092  1.00  0.00     7.835 N  
HETATM   22  C   UNL     1     -10.269  13.810  70.292  1.00  0.00     1.894 C  
HETATM   23  O   UNL     1     -13.141  15.994  71.342  1.00  0.00    -0.405 OA 
ENDROOT
BRANCH   5  24
HETATM   24  C   UNL     1      -6.458  18.243  69.561  1.00  0.00    -0.194 C  
HETATM   25  H   UNL     1      -4.970  18.525  70.760  1.00  0.00     0.000 HD 
HETATM   26  O   UNL     1      -5.846  18.864  70.615  1.00  0.00    -0.186 OA 
BRANCH  24  27
HETATM   27  N   UNL     1      -5.966  17.259  68.934  1.00  0.00    -0.169 N  
HETATM   28  H   UNL     1      -5.437  16.543  69.430  1.00  0.00     0.000 HD 
BRANCH  27  29
HETATM   29  S   UNL     1      -6.187  17.155  67.347  1.00  0.00    -0.164 S  
HETATM   30  O   UNL     1      -5.132  17.924  66.690  1.00  0.00    -0.125 OA 
HETATM   31  O   UNL     1      -6.454  15.802  66.918  1.00  0.00    -0.278 OA 
BRANCH  29  32
HETATM   32  C   UNL     1      -7.752  18.102  66.998  1.00  0.00    -0.220 C  
HETATM   33  C   UNL     1      -7.985  18.316  65.521  1.00  0.00     0.616 C  
HETATM   34  C   UNL     1      -8.856  17.361  66.294  1.00  0.00    -0.236 C  
ENDBRANCH  29  32
ENDBRANCH  27  29
ENDBRANCH  24  27
ENDBRANCH   5  24
BRANCH  22  35
HETATM   35  O   UNL     1      -9.492  12.629  70.390  1.00  0.00     4.155 OA 
BRANCH  35  36
HETATM   36  C   UNL     1      -9.679  11.663  69.438  1.00  0.00     0.555 A  
HETATM   37  C   UNL     1      -8.238  11.623  65.457  1.00  0.00     0.559 A  
HETATM   38  C   UNL     1      -8.057  12.457  67.689  1.00  0.00    -0.168 A  
HETATM   39  C   UNL     1      -9.103  11.624  68.144  1.00  0.00    -0.183 A  
HETATM   40  C   UNL     1     -10.534  10.648  69.859  1.00  0.00    -0.136 A  
HETATM   41  C   UNL     1      -9.170  10.671  65.913  1.00  0.00    -0.209 A  
HETATM   42  C   UNL     1      -9.597  10.648  67.257  1.00  0.00    -0.163 A  
HETATM   43  C   UNL     1      -9.755   9.650  64.968  1.00  0.00    -0.234 C  
HETATM   44  C   UNL     1      -7.658  12.492  66.360  1.00  0.00     0.782 A  
HETATM   45  C   UNL     1     -10.873   9.657  68.962  1.00  0.00    -0.183 A  
HETATM   46  N   UNL     1     -10.454   9.692  67.671  1.00  0.00    -0.245 NA 
BRANCH  37  47
HETATM   47  O   UNL     1      -7.885  11.595  64.131  1.00  0.00     1.399 OA 
HETATM   48  C   UNL     1      -7.043  10.513  63.736  1.00  0.00     0.114 C  
ENDBRANCH  37  47
BRANCH  45  49
HETATM   49  C   UNL     1     -11.694   8.502  69.380  1.00  0.00     0.944 A  
HETATM   50  N   UNL     1     -11.970   8.179  70.635  1.00  0.00    -0.115 NA 
HETATM   51  C   UNL     1     -12.715   7.005  70.693  1.00  0.00     0.036 A  
HETATM   52  C   UNL     1     -13.002   6.452  69.461  1.00  0.00     4.674 A  
HETATM   53  C   UNL     1     -13.137   6.449  72.028  1.00  0.00     0.133 C  
HETATM   54  C   UNL     1     -11.933   6.089  72.899  1.00  0.00     0.150 C  
HETATM   55  S   UNL     1     -12.340   7.408  68.210  1.00  0.00     5.256 SA 
HETATM   56  C   UNL     1     -14.070   7.408  72.766  1.00  0.00     0.718 C  
ENDBRANCH  45  49
ENDBRANCH  35  36
ENDBRANCH  22  35
TORSDOF 8
ENDMDL
MODEL       85
REMARK 921   NORMALIZED FREE ENERGY PREDICTED BY IDOCK:   80.61 KCAL/MOL
REMARK 922        TOTAL FREE ENERGY PREDICTED BY IDOCK:  115.75 KCAL/MOL
REMARK 923 INTER-LIGAND FREE ENERGY PREDICTED BY IDOCK:   99.96 KCAL/MOL
REMARK 924 INTRA-LIGAND FREE ENERGY PREDICTED BY IDOCK:   15.79 KCAL/MOL
REMARK 927      BINDING AFFINITY PREDICTED BY RF-SCORE:    0.00 PKD
ROOT
HETATM    1  C   UNL     1     -10.603  20.752  67.895  1.00  0.00     0.466 C  
HETATM    2  C   UNL     1      -9.363  20.253  67.680  1.00  0.00    -0.481 C  
HETATM    3  C   UNL     1      -8.140  20.009  68.468  1.00  0.00    -0.116 C  
HETATM    4  C   UNL     1      -8.077  20.157  69.948  1.00  0.00     0.892 C  
HETATM    5  C   UNL     1      -7.859  18.784  69.328  1.00  0.00     0.034 C  
HETATM    6  C   UNL     1     -11.314  21.351  69.093  1.00  0.00     2.456 C  
HETATM    7  N   UNL     1      -8.792  17.784  69.785  1.00  0.00     1.047 NA 
HETATM    8  C   UNL     1      -9.743  17.229  69.130  1.00  0.00    -0.129 C  
HETATM    9  C   UNL     1     -10.736  16.059  71.137  1.00  0.00     0.355 C  
HETATM   10  C   UNL     1     -12.836  21.013  69.263  1.00  0.00     6.532 C  
HETATM   11  H   UNL     1      -8.680  17.480  70.752  1.00  0.00     0.000 HD 
HETATM   12  C   UNL     1     -13.476  18.730  70.804  1.00  0.00    27.306 C  
HETATM   13  C   UNL     1     -10.559  14.592  71.583  1.00  0.00     1.637 C  
HETATM   14  C   UNL     1     -10.423  16.017  69.636  1.00  0.00    -0.300 C  
HETATM   15  O   UNL     1     -10.254  17.601  67.959  1.00  0.00    -0.323 OA 
HETATM   16  C   UNL     1     -12.134  16.693  71.265  1.00  0.00     0.719 C  
HETATM   17  C   UNL     1      -9.522  14.814  69.443  1.00  0.00     0.004 C  
HETATM   18  C   UNL     1     -11.105  18.972  71.400  1.00  0.00     4.739 C  
HETATM   19  C   UNL     1     -13.524  20.245  70.441  1.00  0.00    18.278 C  
HETATM   20  H   UNL     1     -10.959  17.189  67.474  1.00  0.00     0.000 HD 
HETATM   21  N   UNL     1     -12.196  18.089  71.092  1.00  0.00     7.835 N  
HETATM   22  C   UNL     1     -10.269  13.810  70.292  1.00  0.00     1.894 C  
HETATM   23  O   UNL     1     -13.141  15.994  71.342  1.00  0.00    -0.405 OA 
ENDROOT
BRANCH   5  24
HETATM   24  C   UNL     1      -6.458  18.243  69.561  1.00  0.00    -0.194 C  
HETATM   25  H   UNL     1      -5.425  16.659  69.162  1.00  0.00     0.000 HD 
HETATM   26  O   UNL     1      -6.301  16.997  69.017  1.00  0.00    -0.174 OA 
BRANCH  24  27
HETATM   27  N   UNL     1      -5.519  18.911  70.086  1.00  0.00    -0.220 N  
HETATM   28  H   UNL     1      -4.579  18.877  69.693  1.00  0.00     0.000 HD 
BRANCH  27  29
HETATM   29  S   UNL     1      -5.830  19.811  71.379  1.00  0.00    -0.195 S  
HETATM   30  O   UNL     1      -5.704  18.964  72.563  1.00  0.00     0.008 OA 
HETATM   31  O   UNL     1      -5.147  21.083  71.338  1.00  0.00    -0.503 OA 
BRANCH  29  32
HETATM   32  C   UNL     1      -7.644  20.220  71.278  1.00  0.00     1.527 C  
HETATM   33  C   UNL     1      -8.524  19.059  71.679  1.00  0.00     6.683 C  
HETATM   34  C   UNL     1      -8.406  20.264  72.575  1.00  0.00     2.745 C  
ENDBRANCH  29  32
ENDBRANCH  27  29
ENDBRANCH  24  27
ENDBRANCH   5  24
BRANCH  22  35
HETATM   35  O   UNL     1      -9.492  12.629  70.390  1.00  0.00     4.155 OA 
BRANCH  35  36
HETATM   36  C   UNL     1      -9.679  11.663  69.438  1.00  0.00     0.555 A  
HETATM   37  C   UNL     1      -8.238  11.623  65.457  1.00  0.00     0.559 A  
HETATM   38  C   UNL     1      -8.057  12.457  67.689  1.00  0.00    -0.168 A  
HETATM   39  C   UNL     1      -9.103  11.624  68.144  1.00  0.00    -0.183 A  
HETATM   40  C   UNL     1     -10.534  10.648  69.859  1.00  0.00    -0.136 A  
HETATM   41  C   UNL     1      -9.170  10.671  65.913  1.00  0.00    -0.209 A  
HETATM   42  C   UNL     1      -9.597  10.648  67.257  1.00  0.00    -0.163 A  
HETATM   43  C   UNL     1      -9.755   9.650  64.968  1.00  0.00    -0.234 C  
HETATM   44  C   UNL     1      -7.658  12.492  66.360  1.00  0.00     0.782 A  
HETATM   45  C   UNL     1     -10.873   9.657  68.962  1.00  0.00    -0.183 A  
HETATM   46  N   UNL     1     -10.454   9.692  67.671  1.00  0.00    -0.245 NA 
BRANCH  37  47
HETATM   47  O   UNL     1      -7.885  11.595  64.131  1.00  0.00     1.399 OA 
HETATM   48  C   UNL     1      -7.043  10.513  63.736  1.00  0.00     0.114 C  
ENDBRANCH  37  47
BRANCH  45  49
HETATM   49  C   UNL     1     -11.694   8.502  69.380  1.00  0.00     0.944 A  
HETATM   50  N   UNL     1     -11.970   8.179  70.635  1.00  0.00    -0.115 NA 
HETATM   51  C   UNL     1     -12.715   7.005  70.693  1.00  0.00     0.036 A  
HETATM   52  C   UNL     1     -13.002   6.452  69.461  1.00  0.00     4.674 A  
HETATM   53  C   UNL     1     -13.137   6.449  72.028  1.00  0.00     0.133 C  
HETATM   54  C   UNL     1     -11.933   6.089  72.899  1.00  0.00     0.150 C  
HETATM   55  S   UNL     1     -12.340   7.408  68.210  1.00  0.00     5.256 SA 
HETATM   56  C   UNL     1     -14.070   7.408  72.766  1.00  0.00     0.718 C  
ENDBRANCH  45  49
ENDBRANCH  35  36
ENDBRANCH  22  35
TORSDOF 8
ENDMDL
MODEL       86
REMARK 921   NORMALIZED FREE ENERGY PREDICTED BY IDOCK:   82.47 KCAL/MOL
REMARK 922        TOTAL FREE ENERGY PREDICTED BY IDOCK:  118.49 KCAL/MOL
REMARK 923 INTER-LIGAND FREE ENERGY PREDICTED BY IDOCK:  118.60 KCAL/MOL
REMARK 924 INTRA-LIGAND FREE ENERGY PREDICTED BY IDOCK:   -0.11 KCAL/MOL
REMARK 927      BINDING AFFINITY PREDICTED BY RF-SCORE:    0.00 PKD
ROOT
HETATM    1  C   UNL     1     -12.048   4.415  67.678  1.00  0.00    11.301 C  
HETATM    2  C   UNL     1     -11.091   4.438  68.635  1.00  0.00     3.145 C  
HETATM    3  C   UNL     1      -9.625   4.598  68.700  1.00  0.00    -0.226 C  
HETATM    4  C   UNL     1      -8.791   4.978  67.528  1.00  0.00    -0.102 C  
HETATM    5  C   UNL     1      -8.870   5.919  68.722  1.00  0.00    -0.111 C  
HETATM    6  C   UNL     1     -12.039   4.508  66.164  1.00  0.00     5.711 C  
HETATM    7  N   UNL     1      -9.365   7.233  68.396  1.00  0.00    -0.143 NA 
HETATM    8  C   UNL     1     -10.490   7.758  68.713  1.00  0.00    -0.181 C  
HETATM    9  C   UNL     1     -10.201   9.796  67.249  1.00  0.00    -0.289 C  
HETATM   10  C   UNL     1     -13.217   5.293  65.489  1.00  0.00     8.519 C  
HETATM   11  H   UNL     1      -8.740   7.820  67.843  1.00  0.00     0.000 HD 
HETATM   12  C   UNL     1     -12.824   8.058  65.045  1.00  0.00    20.674 C  
HETATM   13  C   UNL     1      -9.741  11.214  67.649  1.00  0.00    -0.184 C  
HETATM   14  C   UNL     1     -10.735   9.209  68.561  1.00  0.00    -0.160 C  
HETATM   15  O   UNL     1     -11.565   7.149  69.209  1.00  0.00    -0.493 OA 
HETATM   16  C   UNL     1     -11.344   9.665  66.224  1.00  0.00     1.705 C  
HETATM   17  C   UNL     1     -10.018   9.961  69.663  1.00  0.00    -0.255 C  
HETATM   18  C   UNL     1     -10.516   7.396  65.564  1.00  0.00     2.957 C  
HETATM   19  C   UNL     1     -13.133   6.591  64.618  1.00  0.00    11.875 C  
HETATM   20  H   UNL     1     -12.399   7.538  69.444  1.00  0.00     0.000 HD 
HETATM   21  N   UNL     1     -11.557   8.377  65.699  1.00  0.00     6.493 N  
HETATM   22  C   UNL     1     -10.147  11.368  69.124  1.00  0.00    -0.020 C  
HETATM   23  O   UNL     1     -12.119  10.596  66.020  1.00  0.00     1.524 OA 
ENDROOT
BRANCH   5  24
HETATM   24  C   UNL     1      -7.536   6.095  69.429  1.00  0.00    -0.098 C  
HETATM   25  H   UNL     1      -5.792   6.850  69.079  1.00  0.00     0.000 HD 
HETATM   26  O   UNL     1      -6.626   6.740  68.637  1.00  0.00    -0.047 OA 
BRANCH  24  27
HETATM   27  N   UNL     1      -7.331   5.791  70.641  1.00  0.00    -0.082 N  
HETATM   28  H   UNL     1      -6.826   4.939  70.882  1.00  0.00     0.000 HD 
BRANCH  27  29
HETATM   29  S   UNL     1      -7.879   6.767  71.793  1.00  0.00    -0.101 S  
HETATM   30  O   UNL     1      -7.392   8.116  71.515  1.00  0.00    -0.067 OA 
HETATM   31  O   UNL     1      -9.281   6.558  72.068  1.00  0.00    -0.148 OA 
BRANCH  29  32
HETATM   32  C   UNL     1      -6.988   6.253  73.347  1.00  0.00    -0.079 C  
HETATM   33  C   UNL     1      -7.913   6.138  74.536  1.00  0.00    -0.101 C  
HETATM   34  C   UNL     1      -7.326   4.900  73.910  1.00  0.00    -0.083 C  
ENDBRANCH  29  32
ENDBRANCH  27  29
ENDBRANCH  24  27
ENDBRANCH   5  24
BRANCH  22  35
HETATM   35  O   UNL     1      -9.380  12.239  69.937  1.00  0.00     1.992 OA 
BRANCH  35  36
HETATM   36  C   UNL     1      -8.587  13.162  69.309  1.00  0.00     0.876 A  
HETATM   37  C   UNL     1      -7.818  17.156  70.483  1.00  0.00     3.600 A  
HETATM   38  C   UNL     1      -8.521  14.951  71.075  1.00  0.00     2.860 A  
HETATM   39  C   UNL     1      -8.265  14.461  69.775  1.00  0.00     0.563 A  
HETATM   40  C   UNL     1      -8.081  12.704  68.096  1.00  0.00    -0.164 A  
HETATM   41  C   UNL     1      -7.404  16.664  69.231  1.00  0.00    -0.184 A  
HETATM   42  C   UNL     1      -7.604  15.315  68.870  1.00  0.00    -0.152 A  
HETATM   43  C   UNL     1      -6.743  17.574  68.225  1.00  0.00    -0.197 C  
HETATM   44  C   UNL     1      -8.345  16.284  71.415  1.00  0.00     6.639 A  
HETATM   45  C   UNL     1      -7.335  13.569  67.323  1.00  0.00    -0.012 A  
HETATM   46  N   UNL     1      -7.151  14.864  67.683  1.00  0.00    -0.172 NA 
BRANCH  37  47
HETATM   47  O   UNL     1      -7.607  18.486  70.755  1.00  0.00     2.684 OA 
HETATM   48  C   UNL     1      -6.271  18.841  71.106  1.00  0.00     0.823 C  
ENDBRANCH  37  47
BRANCH  45  49
HETATM   49  C   UNL     1      -6.689  13.109  66.076  1.00  0.00     4.420 A  
HETATM   50  N   UNL     1      -7.167  12.172  65.272  1.00  0.00     2.572 NA 
HETATM   51  C   UNL     1      -6.292  11.930  64.217  1.00  0.00     4.478 A  
HETATM   52  C   UNL     1      -5.150  12.705  64.235  1.00  0.00     7.324 A  
HETATM   53  C   UNL     1      -6.637  10.893  63.180  1.00  0.00     0.311 C  
HETATM   54  C   UNL     1      -6.767   9.498  63.793  1.00  0.00    -0.105 C  
HETATM   55  S   UNL     1      -5.165  13.755  65.582  1.00  0.00     9.492 SA 
HETATM   56  C   UNL     1      -7.904  11.266  62.411  1.00  0.00     0.013 C  
ENDBRANCH  45  49
ENDBRANCH  35  36
ENDBRANCH  22  35
TORSDOF 8
ENDMDL
MODEL       87
REMARK 921   NORMALIZED FREE ENERGY PREDICTED BY IDOCK:   97.94 KCAL/MOL
REMARK 922        TOTAL FREE ENERGY PREDICTED BY IDOCK:  141.19 KCAL/MOL
REMARK 923 INTER-LIGAND FREE ENERGY PREDICTED BY IDOCK:   71.90 KCAL/MOL
REMARK 924 INTRA-LIGAND FREE ENERGY PREDICTED BY IDOCK:   69.29 KCAL/MOL
REMARK 927      BINDING AFFINITY PREDICTED BY RF-SCORE:    0.00 PKD
ROOT
HETATM    1  C   UNL     1     -14.025  15.225  69.227  1.00  0.00     4.226 C  
HETATM    2  C   UNL     1     -13.664  14.595  68.084  1.00  0.00     6.848 C  
HETATM    3  C   UNL     1     -12.461  14.492  67.235  1.00  0.00     0.205 C  
HETATM    4  C   UNL     1     -11.136  15.044  67.625  1.00  0.00    -0.317 C  
HETATM    5  C   UNL     1     -11.293  13.541  67.452  1.00  0.00    -0.311 C  
HETATM    6  C   UNL     1     -13.334  16.187  70.174  1.00  0.00     2.032 C  
HETATM    7  N   UNL     1     -10.970  12.781  68.633  1.00  0.00    -0.251 NA 
HETATM    8  C   UNL     1     -11.766  12.137  69.404  1.00  0.00    -0.329 C  
HETATM    9  C   UNL     1     -10.020  11.653  71.165  1.00  0.00     7.260 C  
HETATM   10  C   UNL     1     -13.635  16.024  71.704  1.00  0.00     0.315 C  
HETATM   11  H   UNL     1      -9.983  12.753  68.888  1.00  0.00     0.000 HD 
HETATM   12  C   UNL     1     -11.922  14.319  73.172  1.00  0.00     0.424 C  
HETATM   13  C   UNL     1      -9.205  10.362  71.386  1.00  0.00     3.904 C  
HETATM   14  C   UNL     1     -11.259  11.168  70.401  1.00  0.00    -0.002 C  
HETATM   15  O   UNL     1     -13.094  12.202  69.445  1.00  0.00     1.047 OA 
HETATM   16  C   UNL     1     -10.548  12.400  72.405  1.00  0.00    13.093 C  
HETATM   17  C   UNL     1     -10.830   9.897  69.698  1.00  0.00    -0.281 C  
HETATM   18  C   UNL     1     -10.606  14.542  71.110  1.00  0.00     1.297 C  
HETATM   19  C   UNL     1     -12.629  15.671  72.850  1.00  0.00    -0.551 C  
HETATM   20  H   UNL     1     -13.684  11.724  70.016  1.00  0.00     0.000 HD 
HETATM   21  N   UNL     1     -11.058  13.692  72.176  1.00  0.00     3.664 N  
HETATM   22  C   UNL     1     -10.085   9.229  70.832  1.00  0.00    -0.302 C  
HETATM   23  O   UNL     1     -10.666  11.827  73.485  1.00  0.00    14.828 OA 
ENDROOT
BRANCH   5  24
HETATM   24  C   UNL     1     -10.460  12.985  66.308  1.00  0.00    -0.276 C  
HETATM   25  H   UNL     1     -10.644  11.728  64.852  1.00  0.00     0.000 HD 
HETATM   26  O   UNL     1     -11.165  12.076  65.566  1.00  0.00    -0.313 OA 
BRANCH  24  27
HETATM   27  N   UNL     1      -9.302  13.399  66.008  1.00  0.00    -0.482 N  
HETATM   28  H   UNL     1      -9.146  13.913  65.141  1.00  0.00     0.000 HD 
BRANCH  27  29
HETATM   29  S   UNL     1      -8.083  13.105  67.011  1.00  0.00     0.066 S  
HETATM   30  O   UNL     1      -8.474  12.004  67.890  1.00  0.00    -0.143 OA 
HETATM   31  O   UNL     1      -6.812  13.054  66.329  1.00  0.00     1.329 OA 
BRANCH  29  32
HETATM   32  C   UNL     1      -7.986  14.592  68.129  1.00  0.00    -0.133 C  
HETATM   33  C   UNL     1      -7.014  15.634  67.626  1.00  0.00    -0.197 C  
HETATM   34  C   UNL     1      -8.497  15.894  67.577  1.00  0.00    -0.181 C  
ENDBRANCH  29  32
ENDBRANCH  27  29
ENDBRANCH  24  27
ENDBRANCH   5  24
BRANCH  22  35
HETATM   35  O   UNL     1      -9.442   8.069  70.334  1.00  0.00    -0.165 OA 
BRANCH  35  36
HETATM   36  C   UNL     1      -9.106   8.048  69.007  1.00  0.00    -0.144 A  
HETATM   37  C   UNL     1      -9.239   4.758  66.345  1.00  0.00    -0.135 A  
HETATM   38  C   UNL     1      -9.983   5.778  68.374  1.00  0.00    -0.193 A  
HETATM   39  C   UNL     1      -9.254   6.959  68.112  1.00  0.00    -0.126 A  
HETATM   40  C   UNL     1      -8.572   9.255  68.565  1.00  0.00    -0.128 A  
HETATM   41  C   UNL     1      -8.635   5.976  65.981  1.00  0.00    -0.147 A  
HETATM   42  C   UNL     1      -8.650   7.090  66.845  1.00  0.00    -0.120 A  
HETATM   43  C   UNL     1      -7.934   6.123  64.652  1.00  0.00    -0.124 C  
HETATM   44  C   UNL     1      -9.944   4.677  67.530  1.00  0.00    -0.174 A  
HETATM   45  C   UNL     1      -8.113   9.338  67.267  1.00  0.00    -0.113 A  
HETATM   46  N   UNL     1      -8.104   8.257  66.446  1.00  0.00    -0.103 NA 
BRANCH  37  47
HETATM   47  O   UNL     1      -9.167   3.712  65.459  1.00  0.00    -0.142 OA 
HETATM   48  C   UNL     1     -10.255   3.600  64.542  1.00  0.00    -0.174 C  
ENDBRANCH  37  47
BRANCH  45  49
HETATM   49  C   UNL     1      -7.629  10.619  66.712  1.00  0.00    -0.120 A  
HETATM   50  N   UNL     1      -8.385  11.515  66.096  1.00  0.00    -0.082 NA 
HETATM   51  C   UNL     1      -7.618  12.582  65.640  1.00  0.00     2.834 A  
HETATM   52  C   UNL     1      -6.272  12.479  65.928  1.00  0.00     3.385 A  
HETATM   53  C   UNL     1      -8.277  13.719  64.903  1.00  0.00     6.498 C  
HETATM   54  C   UNL     1      -8.942  13.247  63.610  1.00  0.00     4.856 C  
HETATM   55  S   UNL     1      -5.955  11.036  66.783  1.00  0.00    -0.114 SA 
HETATM   56  C   UNL     1      -9.281  14.456  65.789  1.00  0.00     0.163 C  
ENDBRANCH  45  49
ENDBRANCH  35  36
ENDBRANCH  22  35
TORSDOF 8
ENDMDL
MODEL       88
REMARK 921   NORMALIZED FREE ENERGY PREDICTED BY IDOCK:  102.46 KCAL/MOL
REMARK 922        TOTAL FREE ENERGY PREDICTED BY IDOCK:  147.81 KCAL/MOL
REMARK 923 INTER-LIGAND FREE ENERGY PREDICTED BY IDOCK:  115.82 KCAL/MOL
REMARK 924 INTRA-LIGAND FREE ENERGY PREDICTED BY IDOCK:   32.00 KCAL/MOL
REMARK 927      BINDING AFFINITY PREDICTED BY RF-SCORE:    0.00 PKD
ROOT
HETATM    1  C   UNL     1     -11.229   7.245  72.370  1.00  0.00    -0.321 C  
HETATM    2  C   UNL     1     -10.499   8.371  72.551  1.00  0.00    -0.372 C  
HETATM    3  C   UNL     1      -9.212   8.917  72.079  1.00  0.00    -0.187 C  
HETATM    4  C   UNL     1      -8.398   8.283  71.007  1.00  0.00    -0.138 C  
HETATM    5  C   UNL     1      -8.984   9.667  70.774  1.00  0.00     0.063 C  
HETATM    6  C   UNL     1     -11.023   5.959  71.592  1.00  0.00    -0.327 C  
HETATM    7  N   UNL     1      -9.855   9.745  69.628  1.00  0.00    -0.207 NA 
HETATM    8  C   UNL     1     -11.127   9.897  69.608  1.00  0.00    -0.241 C  
HETATM    9  C   UNL     1     -11.355   9.488  67.125  1.00  0.00     0.826 C  
HETATM   10  C   UNL     1     -12.285   5.328  70.906  1.00  0.00     3.143 C  
HETATM   11  H   UNL     1      -9.400   9.671  68.718  1.00  0.00     0.000 HD 
HETATM   12  C   UNL     1     -12.829   6.123  68.248  1.00  0.00     9.445 C  
HETATM   13  C   UNL     1     -11.492  10.520  65.986  1.00  0.00     1.019 C  
HETATM   14  C   UNL     1     -11.842  10.253  68.362  1.00  0.00     0.311 C  
HETATM   15  O   UNL     1     -11.980   9.782  70.623  1.00  0.00    -0.277 OA 
HETATM   16  C   UNL     1     -12.209   8.208  67.051  1.00  0.00     6.879 C  
HETATM   17  C   UNL     1     -11.612  11.718  68.049  1.00  0.00    -0.386 C  
HETATM   18  C   UNL     1     -10.544   6.995  68.474  1.00  0.00    -0.202 C  
HETATM   19  C   UNL     1     -12.532   5.092  69.379  1.00  0.00     9.314 C  
HETATM   20  H   UNL     1     -12.923   9.894  70.607  1.00  0.00     0.000 HD 
HETATM   21  N   UNL     1     -11.871   7.188  67.961  1.00  0.00     1.254 N  
HETATM   22  C   UNL     1     -12.145  11.752  66.634  1.00  0.00     0.534 C  
HETATM   23  O   UNL     1     -13.222   8.162  66.357  1.00  0.00    13.385 OA 
ENDROOT
BRANCH   5  24
HETATM   24  C   UNL     1      -7.922  10.743  70.616  1.00  0.00     2.228 C  
HETATM   25  H   UNL     1      -6.243  11.007  69.698  1.00  0.00     0.000 HD 
HETATM   26  O   UNL     1      -6.906  10.334  69.796  1.00  0.00    -0.086 OA 
BRANCH  24  27
HETATM   27  N   UNL     1      -8.025  11.914  71.088  1.00  0.00     6.813 N  
HETATM   28  H   UNL     1      -8.880  12.453  70.953  1.00  0.00     0.000 HD 
BRANCH  27  29
HETATM   29  S   UNL     1      -6.789  12.538  71.901  1.00  0.00     6.622 S  
HETATM   30  O   UNL     1      -7.163  12.611  73.312  1.00  0.00     7.498 OA 
HETATM   31  O   UNL     1      -5.529  11.939  71.529  1.00  0.00    -0.369 OA 
BRANCH  29  32
HETATM   32  C   UNL     1      -6.674  14.314  71.349  1.00  0.00     1.156 C  
HETATM   33  C   UNL     1      -5.300  14.674  70.834  1.00  0.00    -0.143 C  
HETATM   34  C   UNL     1      -6.461  14.559  69.880  1.00  0.00    -0.161 C  
ENDBRANCH  29  32
ENDBRANCH  27  29
ENDBRANCH  24  27
ENDBRANCH   5  24
BRANCH  22  35
HETATM   35  O   UNL     1     -11.868  13.024  66.074  1.00  0.00    -0.374 OA 
BRANCH  35  36
HETATM   36  C   UNL     1     -11.183  13.924  66.845  1.00  0.00    -0.312 A  
HETATM   37  C   UNL     1      -9.311  13.247  70.582  1.00  0.00     6.400 A  
HETATM   38  C   UNL     1     -10.169  12.362  68.536  1.00  0.00    -0.213 A  
HETATM   39  C   UNL     1     -10.478  13.649  68.045  1.00  0.00    -0.251 A  
HETATM   40  C   UNL     1     -11.226  15.218  66.335  1.00  0.00    -0.224 A  
HETATM   41  C   UNL     1      -9.459  14.544  70.057  1.00  0.00     0.821 A  
HETATM   42  C   UNL     1     -10.023  14.760  68.783  1.00  0.00    -0.234 A  
HETATM   43  C   UNL     1      -9.028  15.752  70.852  1.00  0.00     2.729 C  
HETATM   44  C   UNL     1      -9.636  12.156  69.800  1.00  0.00     1.952 A  
HETATM   45  C   UNL     1     -10.645  16.234  67.063  1.00  0.00    -0.284 A  
HETATM   46  N   UNL     1     -10.105  16.012  68.289  1.00  0.00    -0.226 NA 
BRANCH  37  47
HETATM   47  O   UNL     1      -8.770  13.118  71.838  1.00  0.00    13.203 OA 
HETATM   48  C   UNL     1      -9.698  13.173  72.920  1.00  0.00    17.267 C  
ENDBRANCH  37  47
BRANCH  45  49
HETATM   49  C   UNL     1     -10.572  17.609  66.525  1.00  0.00    -0.207 A  
HETATM   50  N   UNL     1      -9.460  18.215  66.138  1.00  0.00    -0.504 NA 
HETATM   51  C   UNL     1      -9.721  19.523  65.739  1.00  0.00    -0.036 A  
HETATM   52  C   UNL     1     -11.050  19.889  65.825  1.00  0.00     0.080 A  
HETATM   53  C   UNL     1      -8.594  20.401  65.261  1.00  0.00     0.892 C  
HETATM   54  C   UNL     1      -7.545  20.620  66.352  1.00  0.00    -0.094 C  
HETATM   55  S   UNL     1     -11.990  18.588  66.408  1.00  0.00     4.239 SA 
HETATM   56  C   UNL     1      -7.948  19.846  63.993  1.00  0.00     4.116 C  
ENDBRANCH  45  49
ENDBRANCH  35  36
ENDBRANCH  22  35
TORSDOF 8
ENDMDL
MODEL       89
REMARK 921   NORMALIZED FREE ENERGY PREDICTED BY IDOCK:  113.09 KCAL/MOL
REMARK 922        TOTAL FREE ENERGY PREDICTED BY IDOCK:  163.41 KCAL/MOL
REMARK 923 INTER-LIGAND FREE ENERGY PREDICTED BY IDOCK:  126.37 KCAL/MOL
REMARK 924 INTRA-LIGAND FREE ENERGY PREDICTED BY IDOCK:   37.04 KCAL/MOL
REMARK 927      BINDING AFFINITY PREDICTED BY RF-SCORE:    0.00 PKD
ROOT
HETATM    1  C   UNL     1      -9.573  18.283  71.172  1.00  0.00     5.198 C  
HETATM    2  C   UNL     1     -10.319  17.416  70.447  1.00  0.00     1.184 C  
HETATM    3  C   UNL     1     -10.131  16.541  69.274  1.00  0.00    -0.270 C  
HETATM    4  C   UNL     1      -8.807  16.291  68.643  1.00  0.00    -0.226 C  
HETATM    5  C   UNL     1      -9.552  15.133  69.292  1.00  0.00    -0.218 C  
HETATM    6  C   UNL     1      -8.149  18.798  71.075  1.00  0.00     4.877 C  
HETATM    7  N   UNL     1      -8.816  14.487  70.350  1.00  0.00     0.897 NA 
HETATM    8  C   UNL     1      -9.049  14.514  71.609  1.00  0.00     5.525 C  
HETATM    9  C   UNL     1      -6.896  13.362  72.255  1.00  0.00     4.475 C  
HETATM   10  C   UNL     1      -7.382  19.037  72.422  1.00  0.00     4.853 C  
HETATM   11  H   UNL     1      -8.007  13.939  70.059  1.00  0.00     0.000 HD 
HETATM   12  C   UNL     1      -5.873  16.871  73.436  1.00  0.00     4.566 C  
HETATM   13  C   UNL     1      -6.664  11.879  72.610  1.00  0.00     6.943 C  
HETATM   14  C   UNL     1      -8.389  13.569  72.537  1.00  0.00    13.096 C  
HETATM   15  O   UNL     1      -9.872  15.324  72.271  1.00  0.00     1.982 OA 
HETATM   16  C   UNL     1      -6.153  14.431  73.080  1.00  0.00     0.575 C  
HETATM   17  C   UNL     1      -9.021  12.199  72.399  1.00  0.00    23.316 C  
HETATM   18  C   UNL     1      -6.307  16.038  71.166  1.00  0.00     1.340 C  
HETATM   19  C   UNL     1      -6.080  18.330  72.924  1.00  0.00     3.845 C  
HETATM   20  H   UNL     1     -10.045  15.343  73.204  1.00  0.00     0.000 HD 
HETATM   21  N   UNL     1      -6.190  15.741  72.567  1.00  0.00     2.113 N  
HETATM   22  C   UNL     1      -8.008  11.383  73.169  1.00  0.00    17.848 C  
HETATM   23  O   UNL     1      -5.709  14.173  74.196  1.00  0.00    -0.430 OA 
ENDROOT
BRANCH   5  24
HETATM   24  C   UNL     1      -9.963  14.059  68.298  1.00  0.00    -0.236 C  
HETATM   25  H   UNL     1     -11.238  13.812  66.868  1.00  0.00     0.000 HD 
HETATM   26  O   UNL     1     -10.981  14.483  67.489  1.00  0.00    -0.279 OA 
BRANCH  24  27
HETATM   27  N   UNL     1      -9.358  12.956  68.157  1.00  0.00    -0.211 N  
HETATM   28  H   UNL     1      -8.339  12.922  68.146  1.00  0.00     0.000 HD 
BRANCH  27  29
HETATM   29  S   UNL     1     -10.218  11.610  67.994  1.00  0.00    -0.197 S  
HETATM   30  O   UNL     1      -9.289  10.486  67.891  1.00  0.00    -0.141 OA 
HETATM   31  O   UNL     1     -11.314  11.543  68.933  1.00  0.00    -0.219 OA 
BRANCH  29  32
HETATM   32  C   UNL     1     -11.013  11.725  66.313  1.00  0.00    -0.300 C  
HETATM   33  C   UNL     1     -12.517  11.843  66.388  1.00  0.00     1.480 C  
HETATM   34  C   UNL     1     -11.684  13.024  65.964  1.00  0.00    -0.442 C  
ENDBRANCH  29  32
ENDBRANCH  27  29
ENDBRANCH  24  27
ENDBRANCH   5  24
BRANCH  22  35
HETATM   35  O   UNL     1      -8.323  10.009  73.022  1.00  0.00     3.933 OA 
BRANCH  35  36
HETATM   36  C   UNL     1      -8.894   9.610  71.844  1.00  0.00     1.847 A  
HETATM   37  C   UNL     1     -11.986  11.525  69.676  1.00  0.00    -0.339 A  
HETATM   38  C   UNL     1     -10.232  11.666  71.292  1.00  0.00     6.973 A  
HETATM   39  C   UNL     1      -9.858  10.320  71.085  1.00  0.00     1.694 A  
HETATM   40  C   UNL     1      -8.431   8.372  71.410  1.00  0.00    -0.195 A  
HETATM   41  C   UNL     1     -11.536  10.236  69.334  1.00  0.00    -0.213 A  
HETATM   42  C   UNL     1     -10.462   9.628  70.016  1.00  0.00    -0.261 A  
HETATM   43  C   UNL     1     -12.203   9.454  68.229  1.00  0.00     3.480 C  
HETATM   44  C   UNL     1     -11.306  12.250  70.634  1.00  0.00     1.016 A  
HETATM   45  C   UNL     1      -8.991   7.816  70.279  1.00  0.00    -0.148 A  
HETATM   46  N   UNL     1     -10.024   8.412  69.631  1.00  0.00    -0.189 NA 
BRANCH  37  47
HETATM   47  O   UNL     1     -13.050  12.042  68.979  1.00  0.00     1.188 OA 
HETATM   48  C   UNL     1     -14.151  12.488  69.770  1.00  0.00     6.474 C  
ENDBRANCH  37  47
BRANCH  45  49
HETATM   49  C   UNL     1      -8.470   6.554  69.714  1.00  0.00    -0.131 A  
HETATM   50  N   UNL     1      -9.214   5.591  69.191  1.00  0.00    -0.114 NA 
HETATM   51  C   UNL     1      -8.427   4.511  68.804  1.00  0.00    -0.084 A  
HETATM   52  C   UNL     1      -7.076   4.678  69.037  1.00  0.00    -0.052 A  
HETATM   53  C   UNL     1      -9.070   3.297  68.186  1.00  0.00    -0.214 C  
HETATM   54  C   UNL     1     -10.056   2.627  69.144  1.00  0.00     0.921 C  
HETATM   55  S   UNL     1      -6.779   6.204  69.745  1.00  0.00    -0.054 SA 
HETATM   56  C   UNL     1      -9.751   3.635  66.860  1.00  0.00    -0.101 C  
ENDBRANCH  45  49
ENDBRANCH  35  36
ENDBRANCH  22  35
TORSDOF 8
ENDMDL
