MODEL        1
REMARK 921   NORMALIZED FREE ENERGY PREDICTED BY IDOCK:   -7.21 KCAL/MOL
REMARK 922        TOTAL FREE ENERGY PREDICTED BY IDOCK:  -11.66 KCAL/MOL
REMARK 923 INTER-LIGAND FREE ENERGY PREDICTED BY IDOCK:  -10.17 KCAL/MOL
REMARK 924 INTRA-LIGAND FREE ENERGY PREDICTED BY IDOCK:   -1.49 KCAL/MOL
REMARK 927      BINDING AFFINITY PREDICTED BY RF-SCORE:    0.00 PKD
ROOT
HETATM    1  C   UNL     1     -11.700  11.641  70.405  1.00  0.00    -0.292 C  
HETATM    2  C   UNL     1     -11.696  12.974  69.562  1.00  0.00    -0.317 C  
HETATM    3  C   UNL     1     -12.624  14.129  69.985  1.00  0.00    -0.268 C  
HETATM    4  C   UNL     1     -11.857   9.013  70.524  1.00  0.00    -0.107 C  
HETATM    5  C   UNL     1     -13.011  14.188  71.454  1.00  0.00    -0.422 C  
HETATM    6  C   UNL     1     -12.985   9.231  71.487  1.00  0.00    -0.429 C  
HETATM    7  C   UNL     1     -10.719   8.480  71.414  1.00  0.00    -0.317 C  
HETATM    8  C   UNL     1     -13.362  10.426  71.940  1.00  0.00    -0.469 C  
HETATM    9  C   UNL     1     -13.321  12.813  71.964  1.00  0.00    -0.565 C  
HETATM   10  C   UNL     1     -14.256  15.089  71.570  1.00  0.00    -0.633 C  
HETATM   11  C   UNL     1     -12.809  11.673  71.463  1.00  0.00    -0.469 C  
HETATM   12  C   UNL     1     -11.617  10.274  69.600  1.00  0.00    -0.267 C  
ENDROOT
BRANCH   2  13
HETATM   13  O   UNL     1     -11.844  12.805  68.142  1.00  0.00    -0.332 OA 
BRANCH  13  14
HETATM   14  C   UNL     1     -10.854  13.247  67.321  1.00  0.00    -0.264 C  
HETATM   15  O   UNL     1      -9.709  13.537  67.669  1.00  0.00    -0.218 OA 
BRANCH  14  16
HETATM   16  C   UNL     1     -11.333  13.396  65.877  1.00  0.00    -0.327 C  
HETATM   17  C   UNL     1     -12.776  13.921  65.787  1.00  0.00    -0.503 C  
HETATM   18  C   UNL     1     -10.350  14.392  65.245  1.00  0.00    -0.427 C  
BRANCH  16  19
HETATM   19  C   UNL     1     -11.240  12.004  65.197  1.00  0.00    -0.368 C  
HETATM   20  C   UNL     1     -11.368  12.045  63.679  1.00  0.00    -0.536 C  
ENDBRANCH  16  19
ENDBRANCH  14  16
ENDBRANCH  13  14
ENDBRANCH   2  13
BRANCH  12  21
HETATM   21  C   UNL     1     -10.399  10.125  68.592  1.00  0.00    -0.208 C  
BRANCH  21  22
HETATM   22  C   UNL     1     -10.747   9.350  67.329  1.00  0.00    -0.258 C  
BRANCH  22  23
HETATM   23  C   UNL     1     -10.294   7.934  67.002  1.00  0.00    -0.341 C  
HETATM   24  C   UNL     1     -10.856   6.787  67.805  1.00  0.00    -0.339 C  
HETATM   25  C   UNL     1     -10.492   5.509  67.047  1.00  0.00    -0.274 C  
HETATM   26  O   UNL     1     -11.305   5.378  65.877  1.00  0.00    -0.772 OA 
HETATM   27  C   UNL     1      -9.009   5.438  66.699  1.00  0.00    -0.116 C  
HETATM   28  C   UNL     1      -8.386   6.758  66.301  1.00  0.00    -0.126 C  
HETATM   29  H   UNL     1     -11.079   4.585  65.406  1.00  0.00     0.000 HD 
HETATM   30  O   UNL     1      -7.426   6.832  65.545  1.00  0.00    -0.076 OA 
HETATM   31  O   UNL     1      -8.865   7.846  66.966  1.00  0.00    -0.125 OA 
ENDBRANCH  22  23
ENDBRANCH  21  22
ENDBRANCH  12  21
TORSDOF 7
ENDMDL
MODEL        2
REMARK 921   NORMALIZED FREE ENERGY PREDICTED BY IDOCK:   -7.18 KCAL/MOL
REMARK 922        TOTAL FREE ENERGY PREDICTED BY IDOCK:  -11.61 KCAL/MOL
REMARK 923 INTER-LIGAND FREE ENERGY PREDICTED BY IDOCK:   -9.93 KCAL/MOL
REMARK 924 INTRA-LIGAND FREE ENERGY PREDICTED BY IDOCK:   -1.68 KCAL/MOL
REMARK 927      BINDING AFFINITY PREDICTED BY RF-SCORE:    0.00 PKD
ROOT
HETATM    1  C   UNL     1     -10.893   9.548  68.877  1.00  0.00    -0.177 C  
HETATM    2  C   UNL     1     -11.272  10.352  67.573  1.00  0.00    -0.179 C  
HETATM    3  C   UNL     1     -10.282  10.371  66.394  1.00  0.00    -0.292 C  
HETATM    4  C   UNL     1     -10.634   9.436  71.497  1.00  0.00    -0.331 C  
HETATM    5  C   UNL     1      -9.335   9.188  66.279  1.00  0.00    -0.274 C  
HETATM    6  C   UNL     1      -9.219   9.019  71.233  1.00  0.00    -0.314 C  
HETATM    7  C   UNL     1     -11.300   8.147  72.014  1.00  0.00    -0.378 C  
HETATM    8  C   UNL     1      -8.721   8.789  70.018  1.00  0.00    -0.146 C  
HETATM    9  C   UNL     1      -8.810   8.812  67.632  1.00  0.00    -0.138 C  
HETATM   10  C   UNL     1      -8.172   9.610  65.359  1.00  0.00    -0.129 C  
HETATM   11  C   UNL     1      -9.452   9.033  68.795  1.00  0.00    -0.148 C  
HETATM   12  C   UNL     1     -11.260  10.215  70.272  1.00  0.00    -0.387 C  
ENDROOT
BRANCH   2  13
HETATM   13  O   UNL     1     -11.708  11.705  67.789  1.00  0.00    -0.489 OA 
BRANCH  13  14
HETATM   14  C   UNL     1     -10.799  12.712  67.690  1.00  0.00    -0.221 C  
HETATM   15  O   UNL     1      -9.777  12.826  68.368  1.00  0.00    -0.223 OA 
BRANCH  14  16
HETATM   16  C   UNL     1     -11.209  13.750  66.646  1.00  0.00    -0.327 C  
HETATM   17  C   UNL     1     -11.408  15.149  67.254  1.00  0.00    -0.305 C  
HETATM   18  C   UNL     1     -10.055  13.755  65.632  1.00  0.00    -0.315 C  
BRANCH  16  19
HETATM   19  C   UNL     1     -12.531  13.271  65.991  1.00  0.00    -0.388 C  
HETATM   20  C   UNL     1     -12.392  12.883  64.524  1.00  0.00    -0.483 C  
ENDBRANCH  16  19
ENDBRANCH  14  16
ENDBRANCH  13  14
ENDBRANCH   2  13
BRANCH  12  21
HETATM   21  C   UNL     1     -12.778  10.638  70.471  1.00  0.00    -0.395 C  
BRANCH  21  22
HETATM   22  C   UNL     1     -13.022  11.443  71.739  1.00  0.00    -0.519 C  
BRANCH  22  23
HETATM   23  C   UNL     1     -12.953  12.960  71.856  1.00  0.00    -0.301 C  
HETATM   24  C   UNL     1     -14.226  13.729  72.107  1.00  0.00    -0.544 C  
HETATM   25  C   UNL     1     -13.806  15.144  72.506  1.00  0.00    -0.502 C  
HETATM   26  O   UNL     1     -13.279  15.148  73.836  1.00  0.00    -0.591 OA 
HETATM   27  C   UNL     1     -12.819  15.760  71.520  1.00  0.00    -0.512 C  
HETATM   28  C   UNL     1     -11.798  14.796  70.958  1.00  0.00    -0.329 C  
HETATM   29  H   UNL     1     -13.019  16.028  74.084  1.00  0.00     0.000 HD 
HETATM   30  O   UNL     1     -10.687  15.155  70.589  1.00  0.00    -0.241 OA 
HETATM   31  O   UNL     1     -12.254  13.531  70.744  1.00  0.00    -0.349 OA 
ENDBRANCH  22  23
ENDBRANCH  21  22
ENDBRANCH  12  21
TORSDOF 7
ENDMDL
MODEL        3
REMARK 921   NORMALIZED FREE ENERGY PREDICTED BY IDOCK:   -7.03 KCAL/MOL
REMARK 922        TOTAL FREE ENERGY PREDICTED BY IDOCK:  -11.40 KCAL/MOL
REMARK 923 INTER-LIGAND FREE ENERGY PREDICTED BY IDOCK:  -10.32 KCAL/MOL
REMARK 924 INTRA-LIGAND FREE ENERGY PREDICTED BY IDOCK:   -1.08 KCAL/MOL
REMARK 927      BINDING AFFINITY PREDICTED BY RF-SCORE:    0.00 PKD
ROOT
HETATM    1  C   UNL     1     -10.991  12.877  67.895  1.00  0.00    -0.266 C  
HETATM    2  C   UNL     1     -11.346  12.538  69.395  1.00  0.00    -0.210 C  
HETATM    3  C   UNL     1     -11.414  11.062  69.831  1.00  0.00    -0.400 C  
HETATM    4  C   UNL     1     -11.522  14.161  65.657  1.00  0.00    -0.325 C  
HETATM    5  C   UNL     1     -10.577  10.076  69.033  1.00  0.00    -0.235 C  
HETATM    6  C   UNL     1     -11.507  12.812  65.004  1.00  0.00    -0.356 C  
HETATM    7  C   UNL     1     -10.232  14.826  65.140  1.00  0.00    -0.410 C  
HETATM    8  C   UNL     1     -11.186  11.680  65.631  1.00  0.00    -0.275 C  
HETATM    9  C   UNL     1     -10.674  10.382  67.568  1.00  0.00    -0.339 C  
HETATM   10  C   UNL     1     -11.126   8.664  69.316  1.00  0.00     0.116 C  
HETATM   11  C   UNL     1     -10.931  11.598  67.052  1.00  0.00    -0.338 C  
HETATM   12  C   UNL     1     -11.796  14.064  67.211  1.00  0.00    -0.445 C  
ENDROOT
BRANCH   2  13
HETATM   13  O   UNL     1     -12.517  13.192  69.913  1.00  0.00    -0.173 OA 
BRANCH  13  14
HETATM   14  C   UNL     1     -12.703  13.236  71.260  1.00  0.00    -0.323 C  
HETATM   15  O   UNL     1     -12.916  12.265  71.987  1.00  0.00    -0.365 OA 
BRANCH  14  16
HETATM   16  C   UNL     1     -12.666  14.667  71.795  1.00  0.00    -0.405 C  
HETATM   17  C   UNL     1     -11.293  15.334  71.597  1.00  0.00    -0.440 C  
HETATM   18  C   UNL     1     -13.751  15.405  70.997  1.00  0.00    -0.420 C  
BRANCH  16  19
HETATM   19  C   UNL     1     -13.011  14.621  73.306  1.00  0.00    -0.569 C  
HETATM   20  C   UNL     1     -12.198  15.588  74.159  1.00  0.00    -0.753 C  
ENDBRANCH  16  19
ENDBRANCH  14  16
ENDBRANCH  13  14
ENDBRANCH   2  13
BRANCH  12  21
HETATM   21  C   UNL     1     -11.772  15.458  67.969  1.00  0.00    -0.235 C  
BRANCH  21  22
HETATM   22  C   UNL     1     -10.374  15.904  68.374  1.00  0.00    -0.240 C  
BRANCH  22  23
HETATM   23  C   UNL     1      -9.847  17.331  68.324  1.00  0.00    -0.304 C  
HETATM   24  C   UNL     1     -10.651  18.379  67.596  1.00  0.00    -0.437 C  
HETATM   25  C   UNL     1     -10.063  19.733  67.997  1.00  0.00    -0.446 C  
HETATM   26  O   UNL     1     -10.439  20.059  69.338  1.00  0.00    -0.614 OA 
HETATM   27  C   UNL     1      -8.549  19.788  67.819  1.00  0.00    -0.373 C  
HETATM   28  C   UNL     1      -7.822  18.511  68.174  1.00  0.00    -0.290 C  
HETATM   29  H   UNL     1     -10.074  20.900  69.587  1.00  0.00     0.000 HD 
HETATM   30  O   UNL     1      -6.663  18.501  68.571  1.00  0.00    -0.237 OA 
HETATM   31  O   UNL     1      -8.488  17.363  67.871  1.00  0.00    -0.218 OA 
ENDBRANCH  22  23
ENDBRANCH  21  22
ENDBRANCH  12  21
TORSDOF 7
ENDMDL
MODEL        4
REMARK 921   NORMALIZED FREE ENERGY PREDICTED BY IDOCK:   -7.02 KCAL/MOL
REMARK 922        TOTAL FREE ENERGY PREDICTED BY IDOCK:  -11.39 KCAL/MOL
REMARK 923 INTER-LIGAND FREE ENERGY PREDICTED BY IDOCK:   -9.66 KCAL/MOL
REMARK 924 INTRA-LIGAND FREE ENERGY PREDICTED BY IDOCK:   -1.73 KCAL/MOL
REMARK 927      BINDING AFFINITY PREDICTED BY RF-SCORE:    0.00 PKD
ROOT
HETATM    1  C   UNL     1      -9.975  11.467  65.571  1.00  0.00    -0.282 C  
HETATM    2  C   UNL     1      -9.023  10.256  65.911  1.00  0.00    -0.158 C  
HETATM    3  C   UNL     1      -8.582   9.311  64.777  1.00  0.00    -0.207 C  
HETATM    4  C   UNL     1     -12.152  12.868  66.059  1.00  0.00    -0.484 C  
HETATM    5  C   UNL     1      -8.556   9.896  63.375  1.00  0.00    -0.206 C  
HETATM    6  C   UNL     1     -12.503  12.625  64.623  1.00  0.00    -0.538 C  
HETATM    7  C   UNL     1     -11.791  14.365  66.095  1.00  0.00    -0.391 C  
HETATM    8  C   UNL     1     -11.704  12.009  63.751  1.00  0.00    -0.575 C  
HETATM    9  C   UNL     1      -9.767  10.751  63.148  1.00  0.00    -0.394 C  
HETATM   10  C   UNL     1      -8.546   8.719  62.380  1.00  0.00    -0.188 C  
HETATM   11  C   UNL     1     -10.449  11.391  64.116  1.00  0.00    -0.421 C  
HETATM   12  C   UNL     1     -11.133  11.793  66.610  1.00  0.00    -0.364 C  
ENDROOT
BRANCH   2  13
HETATM   13  O   UNL     1      -9.443   9.434  67.014  1.00  0.00    -0.145 OA 
BRANCH  13  14
HETATM   14  C   UNL     1      -8.690   9.420  68.146  1.00  0.00    -0.124 C  
HETATM   15  O   UNL     1      -7.638  10.038  68.317  1.00  0.00    -0.082 OA 
BRANCH  14  16
HETATM   16  C   UNL     1      -9.277   8.493  69.211  1.00  0.00    -0.153 C  
HETATM   17  C   UNL     1     -10.770   8.204  68.981  1.00  0.00    -0.099 C  
HETATM   18  C   UNL     1      -8.448   7.205  69.099  1.00  0.00    -0.133 C  
BRANCH  16  19
HETATM   19  C   UNL     1      -9.082   9.170  70.593  1.00  0.00    -0.307 C  
HETATM   20  C   UNL     1     -10.364   9.298  71.407  1.00  0.00    -0.392 C  
ENDBRANCH  16  19
ENDBRANCH  14  16
ENDBRANCH  13  14
ENDBRANCH   2  13
BRANCH  12  21
HETATM   21  C   UNL     1     -10.681  12.028  68.114  1.00  0.00    -0.246 C  
BRANCH  21  22
HETATM   22  C   UNL     1     -11.841  12.049  69.099  1.00  0.00    -0.369 C  
BRANCH  22  23
HETATM   23  C   UNL     1     -12.252  13.234  69.963  1.00  0.00    -0.275 C  
HETATM   24  C   UNL     1     -11.350  14.442  70.018  1.00  0.00    -0.253 C  
HETATM   25  C   UNL     1     -12.165  15.561  70.667  1.00  0.00    -0.402 C  
HETATM   26  O   UNL     1     -13.144  16.058  69.750  1.00  0.00    -0.488 OA 
HETATM   27  C   UNL     1     -12.809  15.128  71.981  1.00  0.00    -0.424 C  
HETATM   28  C   UNL     1     -13.327  13.708  71.996  1.00  0.00    -0.459 C  
HETATM   29  H   UNL     1     -13.650  16.753  70.154  1.00  0.00     0.000 HD 
HETATM   30  O   UNL     1     -14.264  13.355  72.702  1.00  0.00    -0.747 OA 
HETATM   31  O   UNL     1     -12.580  12.813  71.292  1.00  0.00    -0.353 OA 
ENDBRANCH  22  23
ENDBRANCH  21  22
ENDBRANCH  12  21
TORSDOF 7
ENDMDL
MODEL        5
REMARK 921   NORMALIZED FREE ENERGY PREDICTED BY IDOCK:   -7.02 KCAL/MOL
REMARK 922        TOTAL FREE ENERGY PREDICTED BY IDOCK:  -11.39 KCAL/MOL
REMARK 923 INTER-LIGAND FREE ENERGY PREDICTED BY IDOCK:  -10.28 KCAL/MOL
REMARK 924 INTRA-LIGAND FREE ENERGY PREDICTED BY IDOCK:   -1.11 KCAL/MOL
REMARK 927      BINDING AFFINITY PREDICTED BY RF-SCORE:    0.00 PKD
ROOT
HETATM    1  C   UNL     1     -10.799  13.370  68.197  1.00  0.00    -0.273 C  
HETATM    2  C   UNL     1     -11.966  14.265  68.768  1.00  0.00    -0.311 C  
HETATM    3  C   UNL     1     -11.780  15.793  68.818  1.00  0.00    -0.387 C  
HETATM    4  C   UNL     1      -9.176  11.309  68.435  1.00  0.00    -0.178 C  
HETATM    5  C   UNL     1     -10.819  16.396  67.807  1.00  0.00    -0.306 C  
HETATM    6  C   UNL     1      -8.065  12.296  68.236  1.00  0.00    -0.166 C  
HETATM    7  C   UNL     1      -9.185  10.506  67.121  1.00  0.00    -0.158 C  
HETATM    8  C   UNL     1      -8.251  13.585  67.954  1.00  0.00    -0.168 C  
HETATM    9  C   UNL     1      -9.593  15.541  67.685  1.00  0.00    -0.210 C  
HETATM   10  C   UNL     1     -10.436  17.802  68.310  1.00  0.00    -0.368 C  
HETATM   11  C   UNL     1      -9.551  14.218  67.927  1.00  0.00    -0.221 C  
HETATM   12  C   UNL     1     -10.499  12.003  68.950  1.00  0.00    -0.154 C  
ENDROOT
BRANCH   2  13
HETATM   13  O   UNL     1     -12.488  13.855  70.044  1.00  0.00    -0.329 OA 
BRANCH  13  14
HETATM   14  C   UNL     1     -12.042  14.479  71.167  1.00  0.00    -0.344 C  
HETATM   15  O   UNL     1     -10.922  14.968  71.321  1.00  0.00    -0.222 OA 
BRANCH  14  16
HETATM   16  C   UNL     1     -13.093  14.473  72.278  1.00  0.00    -0.458 C  
HETATM   17  C   UNL     1     -14.246  15.454  72.004  1.00  0.00    -0.650 C  
HETATM   18  C   UNL     1     -13.605  13.026  72.317  1.00  0.00    -0.643 C  
BRANCH  16  19
HETATM   19  C   UNL     1     -12.385  14.856  73.605  1.00  0.00    -0.558 C  
HETATM   20  C   UNL     1     -12.657  16.284  74.063  1.00  0.00    -0.633 C  
ENDBRANCH  16  19
ENDBRANCH  14  16
ENDBRANCH  13  14
ENDBRANCH   2  13
BRANCH  12  21
HETATM   21  C   UNL     1     -11.730  11.016  69.130  1.00  0.00    -0.403 C  
BRANCH  21  22
HETATM   22  C   UNL     1     -11.780  10.352  70.498  1.00  0.00    -0.434 C  
BRANCH  22  23
HETATM   23  C   UNL     1     -11.735   8.853  70.761  1.00  0.00    -0.230 C  
HETATM   24  C   UNL     1     -11.455   8.369  72.162  1.00  0.00    -0.442 C  
HETATM   25  C   UNL     1     -11.802   6.880  72.182  1.00  0.00    -0.281 C  
HETATM   26  O   UNL     1     -13.221   6.701  72.167  1.00  0.00    -0.544 OA 
HETATM   27  C   UNL     1     -11.137   6.109  71.047  1.00  0.00    -0.359 C  
HETATM   28  C   UNL     1     -11.065   6.852  69.732  1.00  0.00    -0.271 C  
HETATM   29  H   UNL     1     -13.437   5.776  72.180  1.00  0.00     0.000 HD 
HETATM   30  O   UNL     1     -11.047   6.277  68.650  1.00  0.00    -0.334 OA 
HETATM   31  O   UNL     1     -10.861   8.194  69.837  1.00  0.00    -0.247 OA 
ENDBRANCH  22  23
ENDBRANCH  21  22
ENDBRANCH  12  21
TORSDOF 7
ENDMDL
MODEL        6
REMARK 921   NORMALIZED FREE ENERGY PREDICTED BY IDOCK:   -6.96 KCAL/MOL
REMARK 922        TOTAL FREE ENERGY PREDICTED BY IDOCK:  -11.31 KCAL/MOL
REMARK 923 INTER-LIGAND FREE ENERGY PREDICTED BY IDOCK:   -9.79 KCAL/MOL
REMARK 924 INTRA-LIGAND FREE ENERGY PREDICTED BY IDOCK:   -1.52 KCAL/MOL
REMARK 927      BINDING AFFINITY PREDICTED BY RF-SCORE:    0.00 PKD
ROOT
HETATM    1  C   UNL     1     -10.943   9.416  69.060  1.00  0.00    -0.094 C  
HETATM    2  C   UNL     1     -10.936  10.276  67.738  1.00  0.00    -0.300 C  
HETATM    3  C   UNL     1      -9.792  10.081  66.726  1.00  0.00    -0.251 C  
HETATM    4  C   UNL     1     -11.127   9.262  71.684  1.00  0.00    -0.438 C  
HETATM    5  C   UNL     1      -9.107   8.724  66.724  1.00  0.00    -0.180 C  
HETATM    6  C   UNL     1      -9.807   8.555  71.629  1.00  0.00    -0.317 C  
HETATM    7  C   UNL     1     -12.120   8.145  72.055  1.00  0.00    -0.388 C  
HETATM    8  C   UNL     1      -9.184   8.220  70.499  1.00  0.00    -0.160 C  
HETATM    9  C   UNL     1      -8.891   8.252  68.130  1.00  0.00    -0.139 C  
HETATM   10  C   UNL     1      -7.753   8.888  66.007  1.00  0.00    -0.098 C  
HETATM   11  C   UNL     1      -9.647   8.607  69.186  1.00  0.00    -0.163 C  
HETATM   12  C   UNL     1     -11.376  10.151  70.401  1.00  0.00    -0.401 C  
ENDROOT
BRANCH   2  13
HETATM   13  O   UNL     1     -11.108  11.692  67.923  1.00  0.00    -0.214 OA 
BRANCH  13  14
HETATM   14  C   UNL     1     -11.464  12.455  66.856  1.00  0.00    -0.360 C  
HETATM   15  O   UNL     1     -12.217  12.110  65.945  1.00  0.00    -0.604 OA 
BRANCH  14  16
HETATM   16  C   UNL     1     -10.776  13.821  66.876  1.00  0.00    -0.280 C  
HETATM   17  C   UNL     1     -10.427  14.325  65.465  1.00  0.00    -0.361 C  
HETATM   18  C   UNL     1     -11.790  14.754  67.554  1.00  0.00    -0.326 C  
BRANCH  16  19
HETATM   19  C   UNL     1      -9.480  13.689  67.719  1.00  0.00    -0.221 C  
HETATM   20  C   UNL     1      -8.303  14.492  67.177  1.00  0.00    -0.226 C  
ENDBRANCH  16  19
ENDBRANCH  14  16
ENDBRANCH  13  14
ENDBRANCH   2  13
BRANCH  12  21
HETATM   21  C   UNL     1     -12.784  10.886  70.376  1.00  0.00    -0.326 C  
BRANCH  21  22
HETATM   22  C   UNL     1     -13.093  11.648  71.656  1.00  0.00    -0.456 C  
BRANCH  22  23
HETATM   23  C   UNL     1     -12.958  13.152  71.850  1.00  0.00    -0.314 C  
HETATM   24  C   UNL     1     -14.203  13.970  72.086  1.00  0.00    -0.628 C  
HETATM   25  C   UNL     1     -13.734  15.343  72.569  1.00  0.00    -0.552 C  
HETATM   26  O   UNL     1     -13.265  15.260  73.918  1.00  0.00    -0.623 OA 
HETATM   27  C   UNL     1     -12.677  15.955  71.655  1.00  0.00    -0.448 C  
HETATM   28  C   UNL     1     -11.680  14.970  71.090  1.00  0.00    -0.337 C  
HETATM   29  H   UNL     1     -12.974  16.113  74.219  1.00  0.00     0.000 HD 
HETATM   30  O   UNL     1     -10.538  15.290  70.783  1.00  0.00    -0.236 OA 
HETATM   31  O   UNL     1     -12.185  13.740  70.796  1.00  0.00    -0.344 OA 
ENDBRANCH  22  23
ENDBRANCH  21  22
ENDBRANCH  12  21
TORSDOF 7
ENDMDL
MODEL        7
REMARK 921   NORMALIZED FREE ENERGY PREDICTED BY IDOCK:   -6.84 KCAL/MOL
REMARK 922        TOTAL FREE ENERGY PREDICTED BY IDOCK:  -11.13 KCAL/MOL
REMARK 923 INTER-LIGAND FREE ENERGY PREDICTED BY IDOCK:   -9.81 KCAL/MOL
REMARK 924 INTRA-LIGAND FREE ENERGY PREDICTED BY IDOCK:   -1.31 KCAL/MOL
REMARK 927      BINDING AFFINITY PREDICTED BY RF-SCORE:    0.00 PKD
ROOT
HETATM    1  C   UNL     1     -11.716  12.259  70.437  1.00  0.00    -0.127 C  
HETATM    2  C   UNL     1     -11.766  13.676  69.746  1.00  0.00    -0.297 C  
HETATM    3  C   UNL     1     -12.735  14.741  70.295  1.00  0.00    -0.324 C  
HETATM    4  C   UNL     1     -11.774   9.630  70.265  1.00  0.00    -0.213 C  
HETATM    5  C   UNL     1     -13.117  14.623  71.761  1.00  0.00    -0.420 C  
HETATM    6  C   UNL     1     -12.905   9.697  71.247  1.00  0.00    -0.438 C  
HETATM    7  C   UNL     1     -10.613   9.045  71.091  1.00  0.00    -0.361 C  
HETATM    8  C   UNL     1     -13.325  10.820  71.829  1.00  0.00    -0.429 C  
HETATM    9  C   UNL     1     -13.373  13.189  72.116  1.00  0.00    -0.621 C  
HETATM   10  C   UNL     1     -14.395  15.458  71.977  1.00  0.00    -0.653 C  
HETATM   11  C   UNL     1     -12.821  12.132  71.493  1.00  0.00    -0.394 C  
HETATM   12  C   UNL     1     -11.585  10.992  69.486  1.00  0.00    -0.384 C  
ENDROOT
BRANCH   2  13
HETATM   13  O   UNL     1     -11.914  13.659  68.316  1.00  0.00    -0.354 OA 
BRANCH  13  14
HETATM   14  C   UNL     1     -11.403  14.689  67.590  1.00  0.00    -0.336 C  
HETATM   15  O   UNL     1     -11.061  15.783  68.040  1.00  0.00    -0.320 OA 
BRANCH  14  16
HETATM   16  C   UNL     1     -11.335  14.358  66.099  1.00  0.00    -0.350 C  
HETATM   17  C   UNL     1     -11.139  15.610  65.227  1.00  0.00    -0.310 C  
HETATM   18  C   UNL     1     -10.134  13.409  65.969  1.00  0.00    -0.308 C  
BRANCH  16  19
HETATM   19  C   UNL     1     -12.657  13.648  65.707  1.00  0.00    -0.511 C  
HETATM   20  C   UNL     1     -12.463  12.406  64.847  1.00  0.00    -0.439 C  
ENDBRANCH  16  19
ENDBRANCH  14  16
ENDBRANCH  13  14
ENDBRANCH   2  13
BRANCH  12  21
HETATM   21  C   UNL     1     -10.367  11.002  68.467  1.00  0.00    -0.204 C  
BRANCH  21  22
HETATM   22  C   UNL     1     -10.676  10.312  67.146  1.00  0.00    -0.303 C  
BRANCH  22  23
HETATM   23  C   UNL     1     -10.037   9.024  66.646  1.00  0.00    -0.285 C  
HETATM   24  C   UNL     1      -9.833   7.888  67.618  1.00  0.00    -0.212 C  
HETATM   25  C   UNL     1      -9.502   6.654  66.778  1.00  0.00    -0.160 C  
HETATM   26  O   UNL     1     -10.677   6.172  66.119  1.00  0.00    -0.471 OA 
HETATM   27  C   UNL     1      -8.377   6.911  65.780  1.00  0.00    -0.142 C  
HETATM   28  C   UNL     1      -8.397   8.280  65.139  1.00  0.00    -0.157 C  
HETATM   29  H   UNL     1     -10.471   5.405  65.598  1.00  0.00     0.000 HD 
HETATM   30  O   UNL     1      -7.939   8.492  64.023  1.00  0.00    -0.144 OA 
HETATM   31  O   UNL     1      -8.814   9.291  65.950  1.00  0.00    -0.147 OA 
ENDBRANCH  22  23
ENDBRANCH  21  22
ENDBRANCH  12  21
TORSDOF 7
ENDMDL
MODEL        8
REMARK 921   NORMALIZED FREE ENERGY PREDICTED BY IDOCK:   -6.83 KCAL/MOL
REMARK 922        TOTAL FREE ENERGY PREDICTED BY IDOCK:  -11.12 KCAL/MOL
REMARK 923 INTER-LIGAND FREE ENERGY PREDICTED BY IDOCK:   -9.64 KCAL/MOL
REMARK 924 INTRA-LIGAND FREE ENERGY PREDICTED BY IDOCK:   -1.48 KCAL/MOL
REMARK 927      BINDING AFFINITY PREDICTED BY RF-SCORE:    0.00 PKD
ROOT
HETATM    1  C   UNL     1     -12.355  13.077  69.485  1.00  0.00    -0.067 C  
HETATM    2  C   UNL     1     -12.652  12.129  70.711  1.00  0.00    -0.216 C  
HETATM    3  C   UNL     1     -12.803  12.748  72.113  1.00  0.00    -0.219 C  
HETATM    4  C   UNL     1     -10.926  13.674  67.353  1.00  0.00    -0.289 C  
HETATM    5  C   UNL     1     -13.262  14.195  72.174  1.00  0.00    -0.510 C  
HETATM    6  C   UNL     1     -10.704  15.005  68.006  1.00  0.00    -0.262 C  
HETATM    7  C   UNL     1     -11.876  13.999  66.185  1.00  0.00    -0.422 C  
HETATM    8  C   UNL     1     -11.279  15.384  69.147  1.00  0.00    -0.291 C  
HETATM    9  C   UNL     1     -12.568  15.003  71.120  1.00  0.00    -0.416 C  
HETATM   10  C   UNL     1     -12.910  14.736  73.574  1.00  0.00    -0.533 C  
HETATM   11  C   UNL     1     -12.094  14.511  69.960  1.00  0.00    -0.395 C  
HETATM   12  C   UNL     1     -11.313  12.557  68.402  1.00  0.00    -0.333 C  
ENDROOT
BRANCH   2  13
HETATM   13  O   UNL     1     -11.780  10.992  70.835  1.00  0.00    -0.284 OA 
BRANCH  13  14
HETATM   14  C   UNL     1     -12.321   9.779  71.128  1.00  0.00    -0.359 C  
HETATM   15  O   UNL     1     -13.521   9.544  71.275  1.00  0.00    -0.370 OA 
BRANCH  14  16
HETATM   16  C   UNL     1     -11.248   8.704  71.306  1.00  0.00    -0.338 C  
HETATM   17  C   UNL     1     -11.407   7.543  70.310  1.00  0.00    -0.219 C  
HETATM   18  C   UNL     1      -9.921   9.442  71.078  1.00  0.00    -0.334 C  
BRANCH  16  19
HETATM   19  C   UNL     1     -11.350   8.166  72.758  1.00  0.00    -0.406 C  
HETATM   20  C   UNL     1     -10.021   7.704  73.343  1.00  0.00    -0.373 C  
ENDBRANCH  16  19
ENDBRANCH  14  16
ENDBRANCH  13  14
ENDBRANCH   2  13
BRANCH  12  21
HETATM   21  C   UNL     1     -11.614  11.134  67.765  1.00  0.00    -0.303 C  
BRANCH  21  22
HETATM   22  C   UNL     1     -10.410  10.514  67.072  1.00  0.00    -0.289 C  
BRANCH  22  23
HETATM   23  C   UNL     1     -10.067  10.650  65.595  1.00  0.00    -0.272 C  
HETATM   24  C   UNL     1     -11.139  11.109  64.638  1.00  0.00    -0.154 C  
HETATM   25  C   UNL     1     -10.429  11.467  63.332  1.00  0.00    -0.406 C  
HETATM   26  O   UNL     1      -9.718  12.700  63.475  1.00  0.00    -0.635 OA 
HETATM   27  C   UNL     1      -9.509  10.354  62.843  1.00  0.00    -0.354 C  
HETATM   28  C   UNL     1      -8.761   9.622  63.935  1.00  0.00    -0.221 C  
HETATM   29  H   UNL     1      -9.278  12.923  62.663  1.00  0.00     0.000 HD 
HETATM   30  O   UNL     1      -7.673   9.093  63.748  1.00  0.00    -0.110 OA 
HETATM   31  O   UNL     1      -9.453   9.455  65.096  1.00  0.00    -0.259 OA 
ENDBRANCH  22  23
ENDBRANCH  21  22
ENDBRANCH  12  21
TORSDOF 7
ENDMDL
MODEL        9
REMARK 921   NORMALIZED FREE ENERGY PREDICTED BY IDOCK:   -6.79 KCAL/MOL
REMARK 922        TOTAL FREE ENERGY PREDICTED BY IDOCK:  -11.06 KCAL/MOL
REMARK 923 INTER-LIGAND FREE ENERGY PREDICTED BY IDOCK:   -9.35 KCAL/MOL
REMARK 924 INTRA-LIGAND FREE ENERGY PREDICTED BY IDOCK:   -1.71 KCAL/MOL
REMARK 927      BINDING AFFINITY PREDICTED BY RF-SCORE:    0.00 PKD
ROOT
HETATM    1  C   UNL     1     -11.722  11.794  70.550  1.00  0.00    -0.146 C  
HETATM    2  C   UNL     1     -11.624  13.170  69.785  1.00  0.00    -0.221 C  
HETATM    3  C   UNL     1     -12.533  14.334  70.221  1.00  0.00    -0.422 C  
HETATM    4  C   UNL     1     -11.978   9.172  70.512  1.00  0.00    -0.081 C  
HETATM    5  C   UNL     1     -13.000  14.330  71.666  1.00  0.00    -0.420 C  
HETATM    6  C   UNL     1     -13.151   9.380  71.423  1.00  0.00    -0.419 C  
HETATM    7  C   UNL     1     -10.912   8.548  71.433  1.00  0.00    -0.329 C  
HETATM    8  C   UNL     1     -13.511  10.563  71.921  1.00  0.00    -0.358 C  
HETATM    9  C   UNL     1     -13.387  12.941  72.081  1.00  0.00    -0.615 C  
HETATM   10  C   UNL     1     -14.217  15.270  71.765  1.00  0.00    -0.669 C  
HETATM   11  C   UNL     1     -12.888  11.812  71.546  1.00  0.00    -0.450 C  
HETATM   12  C   UNL     1     -11.642  10.470  69.675  1.00  0.00    -0.342 C  
ENDROOT
BRANCH   2  13
HETATM   13  O   UNL     1     -11.697  13.083  68.351  1.00  0.00    -0.311 OA 
BRANCH  13  14
HETATM   14  C   UNL     1     -10.664  13.567  67.610  1.00  0.00    -0.248 C  
HETATM   15  O   UNL     1      -9.474  13.289  67.769  1.00  0.00    -0.194 OA 
BRANCH  14  16
HETATM   16  C   UNL     1     -11.138  14.560  66.550  1.00  0.00    -0.332 C  
HETATM   17  C   UNL     1     -10.180  14.642  65.349  1.00  0.00    -0.415 C  
HETATM   18  C   UNL     1     -12.514  14.033  66.115  1.00  0.00    -0.467 C  
BRANCH  16  19
HETATM   19  C   UNL     1     -11.256  15.954  67.221  1.00  0.00    -0.094 C  
HETATM   20  C   UNL     1      -9.941  16.722  67.290  1.00  0.00    -0.272 C  
ENDBRANCH  16  19
ENDBRANCH  14  16
ENDBRANCH  13  14
ENDBRANCH   2  13
BRANCH  12  21
HETATM   21  C   UNL     1     -10.375  10.329  68.728  1.00  0.00    -0.211 C  
BRANCH  21  22
HETATM   22  C   UNL     1     -10.639   9.498  67.482  1.00  0.00    -0.338 C  
BRANCH  22  23
HETATM   23  C   UNL     1     -10.223   9.865  66.064  1.00  0.00    -0.198 C  
HETATM   24  C   UNL     1      -8.754  10.018  65.753  1.00  0.00    -0.160 C  
HETATM   25  C   UNL     1      -8.636  10.049  64.229  1.00  0.00    -0.189 C  
HETATM   26  O   UNL     1      -8.841   8.740  63.689  1.00  0.00    -0.432 OA 
HETATM   27  C   UNL     1      -9.579  11.063  63.590  1.00  0.00    -0.324 C  
HETATM   28  C   UNL     1     -10.937  11.168  64.246  1.00  0.00    -0.205 C  
HETATM   29  H   UNL     1      -8.767   8.759  62.742  1.00  0.00     0.000 HD 
HETATM   30  O   UNL     1     -11.941  11.507  63.632  1.00  0.00    -0.332 OA 
HETATM   31  O   UNL     1     -10.938  11.016  65.599  1.00  0.00    -0.153 OA 
ENDBRANCH  22  23
ENDBRANCH  21  22
ENDBRANCH  12  21
TORSDOF 7
ENDMDL
MODEL       10
REMARK 921   NORMALIZED FREE ENERGY PREDICTED BY IDOCK:   -6.76 KCAL/MOL
REMARK 922        TOTAL FREE ENERGY PREDICTED BY IDOCK:  -11.02 KCAL/MOL
REMARK 923 INTER-LIGAND FREE ENERGY PREDICTED BY IDOCK:   -9.31 KCAL/MOL
REMARK 924 INTRA-LIGAND FREE ENERGY PREDICTED BY IDOCK:   -1.71 KCAL/MOL
REMARK 927      BINDING AFFINITY PREDICTED BY RF-SCORE:    0.00 PKD
ROOT
HETATM    1  C   UNL     1     -10.350  11.782  66.185  1.00  0.00    -0.266 C  
HETATM    2  C   UNL     1      -9.669  10.359  66.180  1.00  0.00    -0.209 C  
HETATM    3  C   UNL     1      -9.338   9.694  64.831  1.00  0.00    -0.306 C  
HETATM    4  C   UNL     1     -12.253  13.401  67.023  1.00  0.00    -0.321 C  
HETATM    5  C   UNL     1      -9.107  10.623  63.651  1.00  0.00    -0.248 C  
HETATM    6  C   UNL     1     -12.544  13.637  65.571  1.00  0.00    -0.541 C  
HETATM    7  C   UNL     1     -11.619  14.727  67.483  1.00  0.00    -0.379 C  
HETATM    8  C   UNL     1     -11.818  13.137  64.571  1.00  0.00    -0.427 C  
HETATM    9  C   UNL     1     -10.117  11.732  63.661  1.00  0.00    -0.445 C  
HETATM   10  C   UNL     1      -9.252   9.787  62.365  1.00  0.00    -0.294 C  
HETATM   11  C   UNL     1     -10.730  12.204  64.762  1.00  0.00    -0.342 C  
HETATM   12  C   UNL     1     -11.493  12.035  67.260  1.00  0.00    -0.403 C  
ENDROOT
BRANCH   2  13
HETATM   13  O   UNL     1     -10.310   9.367  67.001  1.00  0.00    -0.240 OA 
BRANCH  13  14
HETATM   14  C   UNL     1      -9.561   8.679  67.905  1.00  0.00    -0.149 C  
HETATM   15  O   UNL     1      -8.774   9.176  68.712  1.00  0.00    -0.129 OA 
BRANCH  14  16
HETATM   16  C   UNL     1      -9.767   7.169  67.784  1.00  0.00    -0.161 C  
HETATM   17  C   UNL     1     -11.142   6.808  67.196  1.00  0.00    -0.404 C  
HETATM   18  C   UNL     1      -8.636   6.699  66.858  1.00  0.00    -0.115 C  
BRANCH  16  19
HETATM   19  C   UNL     1      -9.626   6.554  69.202  1.00  0.00    -0.137 C  
HETATM   20  C   UNL     1     -10.263   5.177  69.347  1.00  0.00    -0.293 C  
ENDBRANCH  16  19
ENDBRANCH  14  16
ENDBRANCH  13  14
ENDBRANCH   2  13
BRANCH  12  21
HETATM   21  C   UNL     1     -11.109  11.753  68.774  1.00  0.00    -0.293 C  
BRANCH  21  22
HETATM   22  C   UNL     1     -12.240  11.135  69.583  1.00  0.00    -0.360 C  
BRANCH  22  23
HETATM   23  C   UNL     1     -12.117   9.934  70.510  1.00  0.00    -0.207 C  
HETATM   24  C   UNL     1     -13.287   9.572  71.391  1.00  0.00    -0.435 C  
HETATM   25  C   UNL     1     -13.002   8.172  71.935  1.00  0.00    -0.333 C  
HETATM   26  O   UNL     1     -13.188   7.193  70.908  1.00  0.00    -0.573 OA 
HETATM   27  C   UNL     1     -11.616   8.059  72.560  1.00  0.00    -0.464 C  
HETATM   28  C   UNL     1     -10.530   8.826  71.840  1.00  0.00    -0.353 C  
HETATM   29  H   UNL     1     -13.012   6.323  71.246  1.00  0.00     0.000 HD 
HETATM   30  O   UNL     1      -9.355   8.483  71.862  1.00  0.00    -0.217 OA 
HETATM   31  O   UNL     1     -10.924  10.012  71.299  1.00  0.00    -0.264 OA 
ENDBRANCH  22  23
ENDBRANCH  21  22
ENDBRANCH  12  21
TORSDOF 7
ENDMDL
MODEL       11
REMARK 921   NORMALIZED FREE ENERGY PREDICTED BY IDOCK:   -6.71 KCAL/MOL
REMARK 922        TOTAL FREE ENERGY PREDICTED BY IDOCK:  -10.95 KCAL/MOL
REMARK 923 INTER-LIGAND FREE ENERGY PREDICTED BY IDOCK:   -9.15 KCAL/MOL
REMARK 924 INTRA-LIGAND FREE ENERGY PREDICTED BY IDOCK:   -1.81 KCAL/MOL
REMARK 927      BINDING AFFINITY PREDICTED BY RF-SCORE:    0.00 PKD
ROOT
HETATM    1  C   UNL     1     -12.371  13.086  69.396  1.00  0.00    -0.025 C  
HETATM    2  C   UNL     1     -12.616  12.128  70.625  1.00  0.00    -0.169 C  
HETATM    3  C   UNL     1     -12.797  12.741  72.027  1.00  0.00    -0.269 C  
HETATM    4  C   UNL     1     -10.978  13.751  67.260  1.00  0.00    -0.302 C  
HETATM    5  C   UNL     1     -13.330  14.163  72.085  1.00  0.00    -0.527 C  
HETATM    6  C   UNL     1     -10.824  15.093  67.910  1.00  0.00    -0.291 C  
HETATM    7  C   UNL     1     -11.946  14.023  66.093  1.00  0.00    -0.440 C  
HETATM    8  C   UNL     1     -11.416  15.445  69.051  1.00  0.00    -0.349 C  
HETATM    9  C   UNL     1     -12.680  15.003  71.027  1.00  0.00    -0.432 C  
HETATM   10  C   UNL     1     -13.003  14.725  73.482  1.00  0.00    -0.449 C  
HETATM   11  C   UNL     1     -12.183  14.533  69.868  1.00  0.00    -0.379 C  
HETATM   12  C   UNL     1     -11.306  12.618  68.313  1.00  0.00    -0.337 C  
ENDROOT
BRANCH   2  13
HETATM   13  O   UNL     1     -11.687  11.037  70.751  1.00  0.00    -0.313 OA 
BRANCH  13  14
HETATM   14  C   UNL     1     -12.167   9.793  71.017  1.00  0.00    -0.347 C  
HETATM   15  O   UNL     1     -13.353   9.497  71.163  1.00  0.00    -0.337 OA 
BRANCH  14  16
HETATM   16  C   UNL     1     -11.042   8.768  71.169  1.00  0.00    -0.340 C  
HETATM   17  C   UNL     1     -10.939   8.217  72.602  1.00  0.00    -0.440 C  
HETATM   18  C   UNL     1     -11.402   7.651  70.179  1.00  0.00    -0.147 C  
BRANCH  16  19
HETATM   19  C   UNL     1      -9.710   9.461  70.778  1.00  0.00    -0.332 C  
HETATM   20  C   UNL     1      -8.819   8.622  69.870  1.00  0.00    -0.144 C  
ENDBRANCH  16  19
ENDBRANCH  14  16
ENDBRANCH  13  14
ENDBRANCH   2  13
BRANCH  12  21
HETATM   21  C   UNL     1     -11.534  11.180  67.680  1.00  0.00    -0.328 C  
BRANCH  21  22
HETATM   22  C   UNL     1     -10.286  10.597  67.033  1.00  0.00    -0.267 C  
BRANCH  22  23
HETATM   23  C   UNL     1      -9.897  10.735  65.568  1.00  0.00    -0.255 C  
HETATM   24  C   UNL     1     -10.974  11.032  64.554  1.00  0.00    -0.158 C  
HETATM   25  C   UNL     1     -10.257  11.440  63.267  1.00  0.00    -0.385 C  
HETATM   26  O   UNL     1      -9.710  12.755  63.399  1.00  0.00    -0.601 OA 
HETATM   27  C   UNL     1      -9.186  10.436  62.851  1.00  0.00    -0.319 C  
HETATM   28  C   UNL     1      -8.403   9.833  63.996  1.00  0.00    -0.169 C  
HETATM   29  H   UNL     1      -9.264  13.008  62.599  1.00  0.00     0.000 HD 
HETATM   30  O   UNL     1      -7.251   9.438  63.871  1.00  0.00    -0.097 OA 
HETATM   31  O   UNL     1      -9.120   9.613  65.133  1.00  0.00    -0.197 OA 
ENDBRANCH  22  23
ENDBRANCH  21  22
ENDBRANCH  12  21
TORSDOF 7
ENDMDL
MODEL       12
REMARK 921   NORMALIZED FREE ENERGY PREDICTED BY IDOCK:   -6.71 KCAL/MOL
REMARK 922        TOTAL FREE ENERGY PREDICTED BY IDOCK:  -10.94 KCAL/MOL
REMARK 923 INTER-LIGAND FREE ENERGY PREDICTED BY IDOCK:   -9.38 KCAL/MOL
REMARK 924 INTRA-LIGAND FREE ENERGY PREDICTED BY IDOCK:   -1.56 KCAL/MOL
REMARK 927      BINDING AFFINITY PREDICTED BY RF-SCORE:    0.00 PKD
ROOT
HETATM    1  C   UNL     1     -11.686  12.528  70.163  1.00  0.00    -0.255 C  
HETATM    2  C   UNL     1     -11.885  13.939  69.485  1.00  0.00    -0.329 C  
HETATM    3  C   UNL     1     -12.845  14.952  70.135  1.00  0.00    -0.195 C  
HETATM    4  C   UNL     1     -11.621   9.900  69.992  1.00  0.00    -0.235 C  
HETATM    5  C   UNL     1     -13.064  14.819  71.633  1.00  0.00    -0.418 C  
HETATM    6  C   UNL     1     -12.644   9.909  71.087  1.00  0.00    -0.464 C  
HETATM    7  C   UNL     1     -10.349   9.381  70.689  1.00  0.00    -0.349 C  
HETATM    8  C   UNL     1     -13.060  11.010  71.714  1.00  0.00    -0.554 C  
HETATM    9  C   UNL     1     -13.204  13.374  72.010  1.00  0.00    -0.531 C  
HETATM   10  C   UNL     1     -14.355  15.585  71.985  1.00  0.00    -0.600 C  
HETATM   11  C   UNL     1     -12.665  12.346  71.329  1.00  0.00    -0.347 C  
HETATM   12  C   UNL     1     -11.589  11.268  69.200  1.00  0.00    -0.387 C  
ENDROOT
BRANCH   2  13
HETATM   13  O   UNL     1     -12.181  13.909  68.078  1.00  0.00    -0.326 OA 
BRANCH  13  14
HETATM   14  C   UNL     1     -11.609  14.838  67.267  1.00  0.00    -0.369 C  
HETATM   15  O   UNL     1     -11.190  15.941  67.621  1.00  0.00    -0.308 OA 
BRANCH  14  16
HETATM   16  C   UNL     1     -11.578  14.380  65.808  1.00  0.00    -0.353 C  
HETATM   17  C   UNL     1     -11.753  15.546  64.821  1.00  0.00    -0.187 C  
HETATM   18  C   UNL     1     -10.199  13.724  65.640  1.00  0.00    -0.326 C  
BRANCH  16  19
HETATM   19  C   UNL     1     -12.720  13.349  65.608  1.00  0.00    -0.432 C  
HETATM   20  C   UNL     1     -12.525  12.434  64.405  1.00  0.00    -0.520 C  
ENDBRANCH  16  19
ENDBRANCH  14  16
ENDBRANCH  13  14
ENDBRANCH   2  13
BRANCH  12  21
HETATM   21  C   UNL     1     -10.487  11.339  68.059  1.00  0.00    -0.215 C  
BRANCH  21  22
HETATM   22  C   UNL     1     -10.668  10.287  66.975  1.00  0.00    -0.281 C  
BRANCH  22  23
HETATM   23  C   UNL     1      -9.838   9.021  66.817  1.00  0.00    -0.234 C  
HETATM   24  C   UNL     1      -8.691   9.020  65.836  1.00  0.00    -0.193 C  
HETATM   25  C   UNL     1      -7.863   7.771  66.140  1.00  0.00    -0.095 C  
HETATM   26  O   UNL     1      -7.120   7.950  67.348  1.00  0.00    -0.079 OA 
HETATM   27  C   UNL     1      -8.714   6.506  66.197  1.00  0.00    -0.153 C  
HETATM   28  C   UNL     1     -10.075   6.685  66.831  1.00  0.00    -0.195 C  
HETATM   29  H   UNL     1      -6.605   7.174  67.537  1.00  0.00     0.000 HD 
HETATM   30  O   UNL     1     -10.660   5.774  67.404  1.00  0.00    -0.233 OA 
HETATM   31  O   UNL     1     -10.675   7.882  66.584  1.00  0.00    -0.223 OA 
ENDBRANCH  22  23
ENDBRANCH  21  22
ENDBRANCH  12  21
TORSDOF 7
ENDMDL
MODEL       13
REMARK 921   NORMALIZED FREE ENERGY PREDICTED BY IDOCK:   -6.70 KCAL/MOL
REMARK 922        TOTAL FREE ENERGY PREDICTED BY IDOCK:  -10.94 KCAL/MOL
REMARK 923 INTER-LIGAND FREE ENERGY PREDICTED BY IDOCK:   -9.04 KCAL/MOL
REMARK 924 INTRA-LIGAND FREE ENERGY PREDICTED BY IDOCK:   -1.90 KCAL/MOL
REMARK 927      BINDING AFFINITY PREDICTED BY RF-SCORE:    0.00 PKD
ROOT
HETATM    1  C   UNL     1     -12.192  12.000  69.315  1.00  0.00    -0.135 C  
HETATM    2  C   UNL     1     -12.529  11.335  70.706  1.00  0.00    -0.376 C  
HETATM    3  C   UNL     1     -12.801  12.242  71.921  1.00  0.00    -0.318 C  
HETATM    4  C   UNL     1     -10.651  12.187  67.186  1.00  0.00    -0.254 C  
HETATM    5  C   UNL     1     -13.327  13.637  71.626  1.00  0.00    -0.424 C  
HETATM    6  C   UNL     1     -10.532  13.641  67.531  1.00  0.00    -0.241 C  
HETATM    7  C   UNL     1     -11.534  12.186  65.924  1.00  0.00    -0.418 C  
HETATM    8  C   UNL     1     -11.199  14.232  68.522  1.00  0.00    -0.289 C  
HETATM    9  C   UNL     1     -12.599  14.228  70.455  1.00  0.00    -0.418 C  
HETATM   10  C   UNL     1     -13.093  14.498  72.883  1.00  0.00    -0.614 C  
HETATM   11  C   UNL     1     -12.027  13.517  69.466  1.00  0.00    -0.390 C  
HETATM   12  C   UNL     1     -11.058  11.313  68.439  1.00  0.00    -0.296 C  
ENDROOT
BRANCH   2  13
HETATM   13  O   UNL     1     -11.618  10.308  71.133  1.00  0.00    -0.355 OA 
BRANCH  13  14
HETATM   14  C   UNL     1     -12.123   9.163  71.666  1.00  0.00    -0.362 C  
HETATM   15  O   UNL     1     -13.258   9.023  72.122  1.00  0.00    -0.381 OA 
BRANCH  14  16
HETATM   16  C   UNL     1     -11.088   8.038  71.686  1.00  0.00    -0.300 C  
HETATM   17  C   UNL     1      -9.675   8.532  71.330  1.00  0.00    -0.287 C  
HETATM   18  C   UNL     1     -11.132   7.499  73.124  1.00  0.00    -0.378 C  
BRANCH  16  19
HETATM   19  C   UNL     1     -11.537   6.959  70.666  1.00  0.00    -0.402 C  
HETATM   20  C   UNL     1     -10.772   5.645  70.776  1.00  0.00    -0.320 C  
ENDBRANCH  16  19
ENDBRANCH  14  16
ENDBRANCH  13  14
ENDBRANCH   2  13
BRANCH  12  21
HETATM   21  C   UNL     1     -11.252   9.768  68.125  1.00  0.00    -0.073 C  
BRANCH  21  22
HETATM   22  C   UNL     1     -10.126   9.172  67.293  1.00  0.00    -0.295 C  
BRANCH  22  23
HETATM   23  C   UNL     1      -9.789   7.691  67.184  1.00  0.00    -0.202 C  
HETATM   24  C   UNL     1     -10.915   6.698  67.039  1.00  0.00    -0.463 C  
HETATM   25  C   UNL     1     -10.273   5.374  66.622  1.00  0.00    -0.243 C  
HETATM   26  O   UNL     1      -9.854   5.435  65.256  1.00  0.00    -0.363 OA 
HETATM   27  C   UNL     1      -9.119   4.971  67.535  1.00  0.00    -0.122 C  
HETATM   28  C   UNL     1      -8.253   6.117  68.007  1.00  0.00    -0.114 C  
HETATM   29  H   UNL     1      -9.455   4.613  64.996  1.00  0.00     0.000 HD 
HETATM   30  O   UNL     1      -7.071   5.975  68.294  1.00  0.00    -0.076 OA 
HETATM   31  O   UNL     1      -8.917   7.282  68.245  1.00  0.00    -0.127 OA 
ENDBRANCH  22  23
ENDBRANCH  21  22
ENDBRANCH  12  21
TORSDOF 7
ENDMDL
MODEL       14
REMARK 921   NORMALIZED FREE ENERGY PREDICTED BY IDOCK:   -6.64 KCAL/MOL
REMARK 922        TOTAL FREE ENERGY PREDICTED BY IDOCK:  -10.85 KCAL/MOL
REMARK 923 INTER-LIGAND FREE ENERGY PREDICTED BY IDOCK:   -9.23 KCAL/MOL
REMARK 924 INTRA-LIGAND FREE ENERGY PREDICTED BY IDOCK:   -1.62 KCAL/MOL
REMARK 927      BINDING AFFINITY PREDICTED BY RF-SCORE:    0.00 PKD
ROOT
HETATM    1  C   UNL     1     -12.494  13.186  69.350  1.00  0.00     0.121 C  
HETATM    2  C   UNL     1     -12.639  12.231  70.597  1.00  0.00    -0.156 C  
HETATM    3  C   UNL     1     -12.797  12.850  71.998  1.00  0.00    -0.279 C  
HETATM    4  C   UNL     1     -11.225  13.898  67.153  1.00  0.00    -0.328 C  
HETATM    5  C   UNL     1     -13.404  14.242  72.063  1.00  0.00    -0.484 C  
HETATM    6  C   UNL     1     -11.117  15.255  67.782  1.00  0.00    -0.318 C  
HETATM    7  C   UNL     1     -12.250  14.104  66.023  1.00  0.00    -0.464 C  
HETATM    8  C   UNL     1     -11.683  15.588  68.943  1.00  0.00    -0.385 C  
HETATM    9  C   UNL     1     -12.842  15.103  70.972  1.00  0.00    -0.477 C  
HETATM   10  C   UNL     1     -13.054  14.838  73.441  1.00  0.00    -0.458 C  
HETATM   11  C   UNL     1     -12.367  14.646  69.799  1.00  0.00    -0.306 C  
HETATM   12  C   UNL     1     -11.449  12.762  68.230  1.00  0.00    -0.354 C  
ENDROOT
BRANCH   2  13
HETATM   13  O   UNL     1     -11.648  11.193  70.696  1.00  0.00    -0.286 OA 
BRANCH  13  14
HETATM   14  C   UNL     1     -12.037   9.949  71.083  1.00  0.00    -0.374 C  
HETATM   15  O   UNL     1     -13.160   9.638  71.480  1.00  0.00    -0.353 OA 
BRANCH  14  16
HETATM   16  C   UNL     1     -10.886   8.945  71.015  1.00  0.00    -0.326 C  
HETATM   17  C   UNL     1      -9.586   9.575  70.486  1.00  0.00    -0.312 C  
HETATM   18  C   UNL     1     -10.709   8.463  72.463  1.00  0.00    -0.372 C  
BRANCH  16  19
HETATM   19  C   UNL     1     -11.320   7.783  70.084  1.00  0.00    -0.121 C  
HETATM   20  C   UNL     1     -11.303   6.413  70.751  1.00  0.00    -0.411 C  
ENDBRANCH  16  19
ENDBRANCH  14  16
ENDBRANCH  13  14
ENDBRANCH   2  13
BRANCH  12  21
HETATM   21  C   UNL     1     -11.623  11.307  67.621  1.00  0.00    -0.290 C  
BRANCH  21  22
HETATM   22  C   UNL     1     -10.359  10.767  66.968  1.00  0.00    -0.275 C  
BRANCH  22  23
HETATM   23  C   UNL     1      -9.947  10.980  65.517  1.00  0.00    -0.256 C  
HETATM   24  C   UNL     1     -11.022  11.123  64.469  1.00  0.00    -0.255 C  
HETATM   25  C   UNL     1     -10.332  11.651  63.211  1.00  0.00    -0.398 C  
HETATM   26  O   UNL     1      -9.995  13.031  63.371  1.00  0.00    -0.536 OA 
HETATM   27  C   UNL     1      -9.109  10.826  62.826  1.00  0.00    -0.328 C  
HETATM   28  C   UNL     1      -8.282  10.334  63.993  1.00  0.00    -0.151 C  
HETATM   29  H   UNL     1      -9.567  13.359  62.589  1.00  0.00     0.000 HD 
HETATM   30  O   UNL     1      -7.080  10.119  63.905  1.00  0.00    -0.132 OA 
HETATM   31  O   UNL     1      -8.995   9.994  65.102  1.00  0.00    -0.165 OA 
ENDBRANCH  22  23
ENDBRANCH  21  22
ENDBRANCH  12  21
TORSDOF 7
ENDMDL
MODEL       15
REMARK 921   NORMALIZED FREE ENERGY PREDICTED BY IDOCK:   -6.54 KCAL/MOL
REMARK 922        TOTAL FREE ENERGY PREDICTED BY IDOCK:  -10.71 KCAL/MOL
REMARK 923 INTER-LIGAND FREE ENERGY PREDICTED BY IDOCK:   -9.56 KCAL/MOL
REMARK 924 INTRA-LIGAND FREE ENERGY PREDICTED BY IDOCK:   -1.15 KCAL/MOL
REMARK 927      BINDING AFFINITY PREDICTED BY RF-SCORE:    0.00 PKD
ROOT
HETATM    1  C   UNL     1     -11.406  11.286  68.383  1.00  0.00    -0.348 C  
HETATM    2  C   UNL     1     -12.029  12.598  68.999  1.00  0.00    -0.236 C  
HETATM    3  C   UNL     1     -12.012  13.895  68.168  1.00  0.00    -0.385 C  
HETATM    4  C   UNL     1      -9.800   9.207  68.587  1.00  0.00    -0.175 C  
HETATM    5  C   UNL     1     -11.978  13.736  66.657  1.00  0.00    -0.469 C  
HETATM    6  C   UNL     1      -9.176   9.699  67.316  1.00  0.00    -0.154 C  
HETATM    7  C   UNL     1     -10.559   7.940  68.150  1.00  0.00    -0.179 C  
HETATM    8  C   UNL     1      -9.629  10.736  66.612  1.00  0.00    -0.208 C  
HETATM    9  C   UNL     1     -11.028  12.641  66.273  1.00  0.00    -0.314 C  
HETATM   10  C   UNL     1     -11.509  15.077  66.058  1.00  0.00    -0.221 C  
HETATM   11  C   UNL     1     -10.707  11.592  67.053  1.00  0.00    -0.292 C  
HETATM   12  C   UNL     1     -10.559  10.360  69.358  1.00  0.00    -0.267 C  
ENDROOT
BRANCH   2  13
HETATM   13  O   UNL     1     -11.578  12.932  70.323  1.00  0.00    -0.160 OA 
BRANCH  13  14
HETATM   14  C   UNL     1     -12.503  13.151  71.296  1.00  0.00    -0.232 C  
HETATM   15  O   UNL     1     -13.265  12.305  71.765  1.00  0.00    -0.445 OA 
BRANCH  14  16
HETATM   16  C   UNL     1     -12.535  14.615  71.734  1.00  0.00    -0.412 C  
HETATM   17  C   UNL     1     -11.293  15.396  71.269  1.00  0.00    -0.441 C  
HETATM   18  C   UNL     1     -13.809  15.182  71.091  1.00  0.00    -0.495 C  
BRANCH  16  19
HETATM   19  C   UNL     1     -12.623  14.648  73.283  1.00  0.00    -0.505 C  
HETATM   20  C   UNL     1     -12.391  16.027  73.888  1.00  0.00    -0.694 C  
ENDBRANCH  16  19
ENDBRANCH  14  16
ENDBRANCH  13  14
ENDBRANCH   2  13
BRANCH  12  21
HETATM   21  C   UNL     1     -11.286   9.890  70.689  1.00  0.00    -0.413 C  
BRANCH  21  22
HETATM   22  C   UNL     1     -10.386   9.097  71.625  1.00  0.00    -0.388 C  
BRANCH  22  23
HETATM   23  C   UNL     1     -10.471   7.600  71.884  1.00  0.00    -0.215 C  
HETATM   24  C   UNL     1     -10.530   7.111  73.310  1.00  0.00    -0.391 C  
HETATM   25  C   UNL     1     -10.943   5.640  73.247  1.00  0.00    -0.272 C  
HETATM   26  O   UNL     1     -12.331   5.528  72.918  1.00  0.00    -0.519 OA 
HETATM   27  C   UNL     1     -10.081   4.832  72.282  1.00  0.00    -0.245 C  
HETATM   28  C   UNL     1      -9.687   5.563  71.019  1.00  0.00    -0.175 C  
HETATM   29  H   UNL     1     -12.588   4.614  72.879  1.00  0.00     0.000 HD 
HETATM   30  O   UNL     1      -9.459   4.982  69.965  1.00  0.00    -0.141 OA 
HETATM   31  O   UNL     1      -9.448   6.894  71.172  1.00  0.00    -0.166 OA 
ENDBRANCH  22  23
ENDBRANCH  21  22
ENDBRANCH  12  21
TORSDOF 7
ENDMDL
MODEL       16
REMARK 921   NORMALIZED FREE ENERGY PREDICTED BY IDOCK:   -6.53 KCAL/MOL
REMARK 922        TOTAL FREE ENERGY PREDICTED BY IDOCK:  -10.69 KCAL/MOL
REMARK 923 INTER-LIGAND FREE ENERGY PREDICTED BY IDOCK:   -8.93 KCAL/MOL
REMARK 924 INTRA-LIGAND FREE ENERGY PREDICTED BY IDOCK:   -1.76 KCAL/MOL
REMARK 927      BINDING AFFINITY PREDICTED BY RF-SCORE:    0.00 PKD
ROOT
HETATM    1  C   UNL     1     -12.265  12.499  69.267  1.00  0.00    -0.087 C  
HETATM    2  C   UNL     1     -12.572  11.687  70.584  1.00  0.00    -0.230 C  
HETATM    3  C   UNL     1     -12.863  12.457  71.886  1.00  0.00    -0.315 C  
HETATM    4  C   UNL     1     -10.745  12.948  67.162  1.00  0.00    -0.268 C  
HETATM    5  C   UNL     1     -13.433  13.857  71.736  1.00  0.00    -0.464 C  
HETATM    6  C   UNL     1     -10.667  14.362  67.652  1.00  0.00    -0.263 C  
HETATM    7  C   UNL     1     -11.635  13.048  65.910  1.00  0.00    -0.405 C  
HETATM    8  C   UNL     1     -11.345  14.829  68.701  1.00  0.00    -0.305 C  
HETATM    9  C   UNL     1     -12.731  14.586  70.629  1.00  0.00    -0.421 C  
HETATM   10  C   UNL     1     -13.217  14.593  73.073  1.00  0.00    -0.587 C  
HETATM   11  C   UNL     1     -12.145  13.997  69.571  1.00  0.00    -0.397 C  
HETATM   12  C   UNL     1     -11.117  11.939  68.321  1.00  0.00    -0.289 C  
ENDROOT
BRANCH   2  13
HETATM   13  O   UNL     1     -11.628  10.649  70.902  1.00  0.00    -0.320 OA 
BRANCH  13  14
HETATM   14  C   UNL     1     -12.093   9.406  71.195  1.00  0.00    -0.328 C  
HETATM   15  O   UNL     1     -13.277   9.093  71.320  1.00  0.00    -0.317 OA 
BRANCH  14  16
HETATM   16  C   UNL     1     -10.955   8.407  71.409  1.00  0.00    -0.311 C  
HETATM   17  C   UNL     1      -9.568   9.062  71.298  1.00  0.00    -0.361 C  
HETATM   18  C   UNL     1     -11.186   7.856  72.824  1.00  0.00    -0.466 C  
BRANCH  16  19
HETATM   19  C   UNL     1     -11.093   7.291  70.340  1.00  0.00    -0.291 C  
HETATM   20  C   UNL     1     -10.800   5.890  70.864  1.00  0.00    -0.347 C  
ENDBRANCH  16  19
ENDBRANCH  14  16
ENDBRANCH  13  14
ENDBRANCH   2  13
BRANCH  12  21
HETATM   21  C   UNL     1     -11.266  10.429  67.853  1.00  0.00    -0.332 C  
BRANCH  21  22
HETATM   22  C   UNL     1      -9.935   9.709  67.695  1.00  0.00    -0.218 C  
BRANCH  22  23
HETATM   23  C   UNL     1      -9.247   9.391  66.374  1.00  0.00    -0.169 C  
HETATM   24  C   UNL     1      -9.755  10.047  65.114  1.00  0.00    -0.380 C  
HETATM   25  C   UNL     1      -8.689   9.810  64.043  1.00  0.00    -0.216 C  
HETATM   26  O   UNL     1      -7.552  10.645  64.283  1.00  0.00    -0.349 OA 
HETATM   27  C   UNL     1      -8.284   8.344  63.935  1.00  0.00    -0.106 C  
HETATM   28  C   UNL     1      -8.209   7.608  65.254  1.00  0.00    -0.135 C  
HETATM   29  H   UNL     1      -6.890  10.498  63.618  1.00  0.00     0.000 HD 
HETATM   30  O   UNL     1      -7.463   6.653  65.435  1.00  0.00    -0.073 OA 
HETATM   31  O   UNL     1      -9.142   7.977  66.175  1.00  0.00    -0.176 OA 
ENDBRANCH  22  23
ENDBRANCH  21  22
ENDBRANCH  12  21
TORSDOF 7
ENDMDL
MODEL       17
REMARK 921   NORMALIZED FREE ENERGY PREDICTED BY IDOCK:   -6.51 KCAL/MOL
REMARK 922        TOTAL FREE ENERGY PREDICTED BY IDOCK:  -10.67 KCAL/MOL
REMARK 923 INTER-LIGAND FREE ENERGY PREDICTED BY IDOCK:   -8.89 KCAL/MOL
REMARK 924 INTRA-LIGAND FREE ENERGY PREDICTED BY IDOCK:   -1.78 KCAL/MOL
REMARK 927      BINDING AFFINITY PREDICTED BY RF-SCORE:    0.00 PKD
ROOT
HETATM    1  C   UNL     1     -11.696  11.684  70.447  1.00  0.00    -0.292 C  
HETATM    2  C   UNL     1     -11.706  13.045  69.649  1.00  0.00    -0.297 C  
HETATM    3  C   UNL     1     -12.681  14.157  70.080  1.00  0.00    -0.155 C  
HETATM    4  C   UNL     1     -11.778   9.051  70.473  1.00  0.00    -0.160 C  
HETATM    5  C   UNL     1     -13.117  14.155  71.535  1.00  0.00    -0.424 C  
HETATM    6  C   UNL     1     -12.943   9.202  71.405  1.00  0.00    -0.366 C  
HETATM    7  C   UNL     1     -10.654   8.521  71.383  1.00  0.00    -0.312 C  
HETATM    8  C   UNL     1     -13.370  10.370  71.885  1.00  0.00    -0.469 C  
HETATM    9  C   UNL     1     -13.402  12.755  71.989  1.00  0.00    -0.565 C  
HETATM   10  C   UNL     1     -14.392  15.015  71.640  1.00  0.00    -0.680 C  
HETATM   11  C   UNL     1     -12.840  11.648  71.468  1.00  0.00    -0.469 C  
HETATM   12  C   UNL     1     -11.546  10.348  69.600  1.00  0.00    -0.307 C  
ENDROOT
BRANCH   2  13
HETATM   13  O   UNL     1     -11.802  12.920  68.220  1.00  0.00    -0.329 OA 
BRANCH  13  14
HETATM   14  C   UNL     1     -10.819  13.452  67.446  1.00  0.00    -0.268 C  
HETATM   15  O   UNL     1      -9.804  14.014  67.860  1.00  0.00    -0.222 OA 
BRANCH  14  16
HETATM   16  C   UNL     1     -11.132  13.320  65.955  1.00  0.00    -0.298 C  
HETATM   17  C   UNL     1     -12.641  13.376  65.663  1.00  0.00    -0.496 C  
HETATM   18  C   UNL     1     -10.405  14.505  65.302  1.00  0.00    -0.435 C  
BRANCH  16  19
HETATM   19  C   UNL     1     -10.554  11.966  65.465  1.00  0.00    -0.313 C  
HETATM   20  C   UNL     1     -10.892  11.636  64.016  1.00  0.00    -0.455 C  
ENDBRANCH  16  19
ENDBRANCH  14  16
ENDBRANCH  13  14
ENDBRANCH   2  13
BRANCH  12  21
HETATM   21  C   UNL     1     -10.293  10.269  68.629  1.00  0.00    -0.203 C  
BRANCH  21  22
HETATM   22  C   UNL     1      -8.959  10.411  69.347  1.00  0.00    -0.168 C  
BRANCH  22  23
HETATM   23  C   UNL     1      -7.803  11.299  68.909  1.00  0.00    -0.114 C  
HETATM   24  C   UNL     1      -7.228  11.116  67.526  1.00  0.00    -0.101 C  
HETATM   25  C   UNL     1      -6.344  12.334  67.259  1.00  0.00    -0.150 C  
HETATM   26  O   UNL     1      -7.152  13.488  67.011  1.00  0.00    -0.379 OA 
HETATM   27  C   UNL     1      -5.347  12.590  68.385  1.00  0.00    -0.056 C  
HETATM   28  C   UNL     1      -5.880  12.331  69.776  1.00  0.00    -0.123 C  
HETATM   29  H   UNL     1      -6.602  14.246  66.845  1.00  0.00     0.000 HD 
HETATM   30  O   UNL     1      -5.458  12.920  70.763  1.00  0.00    -0.152 OA 
HETATM   31  O   UNL     1      -6.747  11.286  69.877  1.00  0.00    -0.134 OA 
ENDBRANCH  22  23
ENDBRANCH  21  22
ENDBRANCH  12  21
TORSDOF 7
ENDMDL
MODEL       18
REMARK 921   NORMALIZED FREE ENERGY PREDICTED BY IDOCK:   -6.51 KCAL/MOL
REMARK 922        TOTAL FREE ENERGY PREDICTED BY IDOCK:  -10.67 KCAL/MOL
REMARK 923 INTER-LIGAND FREE ENERGY PREDICTED BY IDOCK:   -9.10 KCAL/MOL
REMARK 924 INTRA-LIGAND FREE ENERGY PREDICTED BY IDOCK:   -1.56 KCAL/MOL
REMARK 927      BINDING AFFINITY PREDICTED BY RF-SCORE:    0.00 PKD
ROOT
HETATM    1  C   UNL     1     -10.042  11.740  65.444  1.00  0.00    -0.291 C  
HETATM    2  C   UNL     1      -9.063  10.584  65.886  1.00  0.00    -0.168 C  
HETATM    3  C   UNL     1      -8.651   9.519  64.853  1.00  0.00    -0.191 C  
HETATM    4  C   UNL     1     -12.218  13.170  65.847  1.00  0.00    -0.497 C  
HETATM    5  C   UNL     1      -8.682   9.938  63.393  1.00  0.00    -0.230 C  
HETATM    6  C   UNL     1     -12.616  12.759  64.462  1.00  0.00    -0.463 C  
HETATM    7  C   UNL     1     -11.875  14.663  65.697  1.00  0.00    -0.273 C  
HETATM    8  C   UNL     1     -11.841  12.054  63.638  1.00  0.00    -0.602 C  
HETATM    9  C   UNL     1      -9.910  10.751  63.113  1.00  0.00    -0.378 C  
HETATM   10  C   UNL     1      -8.692   8.654  62.541  1.00  0.00    -0.080 C  
HETATM   11  C   UNL     1     -10.566  11.492  64.026  1.00  0.00    -0.437 C  
HETATM   12  C   UNL     1     -11.166  12.174  66.481  1.00  0.00    -0.378 C  
ENDROOT
BRANCH   2  13
HETATM   13  O   UNL     1      -9.433   9.892  67.091  1.00  0.00    -0.153 OA 
BRANCH  13  14
HETATM   14  C   UNL     1      -8.535   9.820  68.110  1.00  0.00    -0.114 C  
HETATM   15  O   UNL     1      -7.484  10.458  68.187  1.00  0.00    -0.087 OA 
BRANCH  14  16
HETATM   16  C   UNL     1      -8.951   8.798  69.167  1.00  0.00    -0.137 C  
HETATM   17  C   UNL     1      -9.520   9.460  70.434  1.00  0.00    -0.319 C  
HETATM   18  C   UNL     1     -10.019   7.939  68.474  1.00  0.00    -0.200 C  
BRANCH  16  19
HETATM   19  C   UNL     1      -7.701   7.955  69.533  1.00  0.00    -0.104 C  
HETATM   20  C   UNL     1      -7.577   6.656  68.746  1.00  0.00    -0.104 C  
ENDBRANCH  16  19
ENDBRANCH  14  16
ENDBRANCH  13  14
ENDBRANCH   2  13
BRANCH  12  21
HETATM   21  C   UNL     1     -10.665  12.585  67.930  1.00  0.00    -0.239 C  
BRANCH  21  22
HETATM   22  C   UNL     1     -11.680  12.298  69.027  1.00  0.00    -0.376 C  
BRANCH  22  23
HETATM   23  C   UNL     1     -12.178  13.299  70.060  1.00  0.00    -0.275 C  
HETATM   24  C   UNL     1     -11.331  14.507  70.371  1.00  0.00    -0.196 C  
HETATM   25  C   UNL     1     -12.220  15.468  71.162  1.00  0.00    -0.396 C  
HETATM   26  O   UNL     1     -13.175  16.086  70.296  1.00  0.00    -0.640 OA 
HETATM   27  C   UNL     1     -12.904  14.791  72.345  1.00  0.00    -0.432 C  
HETATM   28  C   UNL     1     -13.363  13.373  72.086  1.00  0.00    -0.520 C  
HETATM   29  H   UNL     1     -13.728  16.683  70.787  1.00  0.00     0.000 HD 
HETATM   30  O   UNL     1     -14.316  12.872  72.670  1.00  0.00    -0.471 OA 
HETATM   31  O   UNL     1     -12.548  12.641  71.278  1.00  0.00    -0.350 OA 
ENDBRANCH  22  23
ENDBRANCH  21  22
ENDBRANCH  12  21
TORSDOF 7
ENDMDL
MODEL       19
REMARK 921   NORMALIZED FREE ENERGY PREDICTED BY IDOCK:   -6.51 KCAL/MOL
REMARK 922        TOTAL FREE ENERGY PREDICTED BY IDOCK:  -10.66 KCAL/MOL
REMARK 923 INTER-LIGAND FREE ENERGY PREDICTED BY IDOCK:   -9.19 KCAL/MOL
REMARK 924 INTRA-LIGAND FREE ENERGY PREDICTED BY IDOCK:   -1.47 KCAL/MOL
REMARK 927      BINDING AFFINITY PREDICTED BY RF-SCORE:    0.00 PKD
ROOT
HETATM    1  C   UNL     1     -10.219  11.867  65.620  1.00  0.00    -0.280 C  
HETATM    2  C   UNL     1      -9.418  10.958  66.630  1.00  0.00    -0.179 C  
HETATM    3  C   UNL     1      -8.723   9.688  66.105  1.00  0.00    -0.152 C  
HETATM    4  C   UNL     1     -12.413  13.171  64.965  1.00  0.00    -0.516 C  
HETATM    5  C   UNL     1      -8.322   9.688  64.639  1.00  0.00    -0.162 C  
HETATM    6  C   UNL     1     -12.387  12.366  63.701  1.00  0.00    -0.647 C  
HETATM    7  C   UNL     1     -12.035  14.589  64.499  1.00  0.00    -0.482 C  
HETATM    8  C   UNL     1     -11.406  11.528  63.367  1.00  0.00    -0.303 C  
HETATM    9  C   UNL     1      -9.411  10.292  63.804  1.00  0.00    -0.339 C  
HETATM   10  C   UNL     1      -8.085   8.223  64.222  1.00  0.00    -0.147 C  
HETATM   11  C   UNL     1     -10.304  11.198  64.242  1.00  0.00    -0.413 C  
HETATM   12  C   UNL     1     -11.597  12.475  66.127  1.00  0.00    -0.448 C  
ENDROOT
BRANCH   2  13
HETATM   13  O   UNL     1     -10.128  10.594  67.827  1.00  0.00    -0.167 OA 
BRANCH  13  14
HETATM   14  C   UNL     1      -9.420  10.346  68.961  1.00  0.00    -0.197 C  
HETATM   15  O   UNL     1      -8.284  10.755  69.202  1.00  0.00    -0.154 OA 
BRANCH  14  16
HETATM   16  C   UNL     1     -10.185   9.438  69.924  1.00  0.00    -0.247 C  
HETATM   17  C   UNL     1     -10.635   8.124  69.262  1.00  0.00    -0.191 C  
HETATM   18  C   UNL     1      -9.194   9.163  71.064  1.00  0.00    -0.321 C  
BRANCH  16  19
HETATM   19  C   UNL     1     -11.425  10.219  70.433  1.00  0.00    -0.415 C  
HETATM   20  C   UNL     1     -12.175   9.525  71.563  1.00  0.00    -0.468 C  
ENDBRANCH  16  19
ENDBRANCH  14  16
ENDBRANCH  13  14
ENDBRANCH   2  13
BRANCH  12  21
HETATM   21  C   UNL     1     -11.543  13.306  67.479  1.00  0.00    -0.388 C  
BRANCH  21  22
HETATM   22  C   UNL     1     -10.228  14.044  67.685  1.00  0.00    -0.241 C  
BRANCH  22  23
HETATM   23  C   UNL     1     -10.013  15.541  67.511  1.00  0.00    -0.230 C  
HETATM   24  C   UNL     1     -11.202  16.464  67.617  1.00  0.00    -0.072 C  
HETATM   25  C   UNL     1     -10.640  17.881  67.737  1.00  0.00    -0.389 C  
HETATM   26  O   UNL     1     -10.085  18.086  69.039  1.00  0.00    -0.377 OA 
HETATM   27  C   UNL     1      -9.622  18.201  66.647  1.00  0.00    -0.306 C  
HETATM   28  C   UNL     1      -8.710  17.054  66.275  1.00  0.00    -0.250 C  
HETATM   29  H   UNL     1      -9.737  18.967  69.114  1.00  0.00     0.000 HD 
HETATM   30  O   UNL     1      -7.579  17.226  65.838  1.00  0.00    -0.442 OA 
HETATM   31  O   UNL     1      -9.289  15.822  66.308  1.00  0.00    -0.268 OA 
ENDBRANCH  22  23
ENDBRANCH  21  22
ENDBRANCH  12  21
TORSDOF 7
ENDMDL
MODEL       20
REMARK 921   NORMALIZED FREE ENERGY PREDICTED BY IDOCK:   -6.42 KCAL/MOL
REMARK 922        TOTAL FREE ENERGY PREDICTED BY IDOCK:  -10.54 KCAL/MOL
REMARK 923 INTER-LIGAND FREE ENERGY PREDICTED BY IDOCK:   -9.10 KCAL/MOL
REMARK 924 INTRA-LIGAND FREE ENERGY PREDICTED BY IDOCK:   -1.43 KCAL/MOL
REMARK 927      BINDING AFFINITY PREDICTED BY RF-SCORE:    0.00 PKD
ROOT
HETATM    1  C   UNL     1     -10.912  11.338  66.707  1.00  0.00    -0.339 C  
HETATM    2  C   UNL     1     -11.514  12.659  67.324  1.00  0.00    -0.342 C  
HETATM    3  C   UNL     1     -12.026  13.761  66.378  1.00  0.00    -0.473 C  
HETATM    4  C   UNL     1      -8.981   9.550  66.577  1.00  0.00    -0.173 C  
HETATM    5  C   UNL     1     -12.491  13.315  65.001  1.00  0.00    -0.498 C  
HETATM    6  C   UNL     1      -8.941   9.856  65.110  1.00  0.00    -0.235 C  
HETATM    7  C   UNL     1      -9.596   8.139  66.635  1.00  0.00    -0.295 C  
HETATM    8  C   UNL     1      -9.794  10.673  64.492  1.00  0.00    -0.388 C  
HETATM    9  C   UNL     1     -11.550  12.289  64.444  1.00  0.00    -0.428 C  
HETATM   10  C   UNL     1     -12.516  14.559  64.093  1.00  0.00    -0.215 C  
HETATM   11  C   UNL     1     -10.789  11.461  65.183  1.00  0.00    -0.302 C  
HETATM   12  C   UNL     1      -9.623  10.730  67.411  1.00  0.00    -0.179 C  
ENDROOT
BRANCH   2  13
HETATM   13  O   UNL     1     -10.700  13.297  68.324  1.00  0.00    -0.237 OA 
BRANCH  13  14
HETATM   14  C   UNL     1     -11.301  13.809  69.431  1.00  0.00    -0.250 C  
HETATM   15  O   UNL     1     -12.129  13.227  70.133  1.00  0.00    -0.336 OA 
BRANCH  14  16
HETATM   16  C   UNL     1     -10.865  15.249  69.704  1.00  0.00    -0.294 C  
HETATM   17  C   UNL     1     -11.611  16.267  68.824  1.00  0.00    -0.223 C  
HETATM   18  C   UNL     1     -11.183  15.474  71.189  1.00  0.00    -0.423 C  
BRANCH  16  19
HETATM   19  C   UNL     1      -9.340  15.344  69.434  1.00  0.00    -0.266 C  
HETATM   20  C   UNL     1      -8.951  16.446  68.455  1.00  0.00    -0.224 C  
ENDBRANCH  16  19
ENDBRANCH  14  16
ENDBRANCH  13  14
ENDBRANCH   2  13
BRANCH  12  21
HETATM   21  C   UNL     1      -9.743  10.444  68.968  1.00  0.00    -0.216 C  
BRANCH  21  22
HETATM   22  C   UNL     1     -11.075   9.831  69.371  1.00  0.00    -0.205 C  
BRANCH  22  23
HETATM   23  C   UNL     1     -11.267   8.706  70.380  1.00  0.00    -0.218 C  
HETATM   24  C   UNL     1     -11.196   9.029  71.852  1.00  0.00    -0.438 C  
HETATM   25  C   UNL     1     -11.749   7.809  72.589  1.00  0.00    -0.309 C  
HETATM   26  O   UNL     1     -13.170   7.746  72.446  1.00  0.00    -0.509 OA 
HETATM   27  C   UNL     1     -11.091   6.508  72.143  1.00  0.00    -0.296 C  
HETATM   28  C   UNL     1     -10.788   6.425  70.663  1.00  0.00    -0.276 C  
HETATM   29  H   UNL     1     -13.514   6.988  72.905  1.00  0.00     0.000 HD 
HETATM   30  O   UNL     1     -10.746   5.361  70.058  1.00  0.00    -0.308 OA 
HETATM   31  O   UNL     1     -10.409   7.598  70.085  1.00  0.00    -0.208 OA 
ENDBRANCH  22  23
ENDBRANCH  21  22
ENDBRANCH  12  21
TORSDOF 7
ENDMDL
MODEL       21
REMARK 921   NORMALIZED FREE ENERGY PREDICTED BY IDOCK:   -6.39 KCAL/MOL
REMARK 922        TOTAL FREE ENERGY PREDICTED BY IDOCK:  -10.49 KCAL/MOL
REMARK 923 INTER-LIGAND FREE ENERGY PREDICTED BY IDOCK:   -8.89 KCAL/MOL
REMARK 924 INTRA-LIGAND FREE ENERGY PREDICTED BY IDOCK:   -1.60 KCAL/MOL
REMARK 927      BINDING AFFINITY PREDICTED BY RF-SCORE:    0.00 PKD
ROOT
HETATM    1  C   UNL     1      -9.103   9.702  67.693  1.00  0.00    -0.141 C  
HETATM    2  C   UNL     1      -8.948   8.652  68.860  1.00  0.00    -0.142 C  
HETATM    3  C   UNL     1      -8.432   7.239  68.530  1.00  0.00    -0.125 C  
HETATM    4  C   UNL     1     -10.553  11.482  66.400  1.00  0.00    -0.304 C  
HETATM    5  C   UNL     1      -7.552   7.105  67.299  1.00  0.00    -0.104 C  
HETATM    6  C   UNL     1     -10.273  10.664  65.176  1.00  0.00    -0.368 C  
HETATM    7  C   UNL     1      -9.713  12.755  66.184  1.00  0.00    -0.246 C  
HETATM    8  C   UNL     1      -9.464   9.605  65.152  1.00  0.00    -0.332 C  
HETATM    9  C   UNL     1      -8.102   7.933  66.176  1.00  0.00    -0.109 C  
HETATM   10  C   UNL     1      -7.535   5.617  66.898  1.00  0.00    -0.088 C  
HETATM   11  C   UNL     1      -8.852   9.040  66.333  1.00  0.00    -0.172 C  
HETATM   12  C   UNL     1     -10.387  10.638  67.727  1.00  0.00    -0.239 C  
ENDROOT
BRANCH   2  13
HETATM   13  O   UNL     1     -10.098   8.501  69.710  1.00  0.00    -0.188 OA 
BRANCH  13  14
HETATM   14  C   UNL     1      -9.938   8.597  71.056  1.00  0.00    -0.215 C  
HETATM   15  O   UNL     1      -8.901   8.927  71.634  1.00  0.00    -0.264 OA 
BRANCH  14  16
HETATM   16  C   UNL     1     -11.205   8.196  71.812  1.00  0.00    -0.329 C  
HETATM   17  C   UNL     1     -11.984   7.075  71.103  1.00  0.00    -0.398 C  
HETATM   18  C   UNL     1     -10.703   7.728  73.186  1.00  0.00    -0.414 C  
BRANCH  16  19
HETATM   19  C   UNL     1     -12.102   9.456  71.941  1.00  0.00    -0.427 C  
HETATM   20  C   UNL     1     -13.595   9.152  71.986  1.00  0.00    -0.520 C  
ENDBRANCH  16  19
ENDBRANCH  14  16
ENDBRANCH  13  14
ENDBRANCH   2  13
BRANCH  12  21
HETATM   21  C   UNL     1     -10.619  11.464  69.062  1.00  0.00    -0.224 C  
BRANCH  21  22
HETATM   22  C   UNL     1     -11.983  12.136  69.131  1.00  0.00    -0.311 C  
BRANCH  22  23
HETATM   23  C   UNL     1     -12.346  13.321  70.015  1.00  0.00    -0.200 C  
HETATM   24  C   UNL     1     -11.382  14.477  70.116  1.00  0.00    -0.250 C  
HETATM   25  C   UNL     1     -12.148  15.623  70.778  1.00  0.00    -0.412 C  
HETATM   26  O   UNL     1     -13.081  16.194  69.856  1.00  0.00    -0.471 OA 
HETATM   27  C   UNL     1     -12.840  15.195  72.069  1.00  0.00    -0.424 C  
HETATM   28  C   UNL     1     -13.433  13.805  72.040  1.00  0.00    -0.470 C  
HETATM   29  H   UNL     1     -13.557  16.906  70.267  1.00  0.00     0.000 HD 
HETATM   30  O   UNL     1     -14.401  13.487  72.720  1.00  0.00    -0.640 OA 
HETATM   31  O   UNL     1     -12.721  12.888  71.328  1.00  0.00    -0.367 OA 
ENDBRANCH  22  23
ENDBRANCH  21  22
ENDBRANCH  12  21
TORSDOF 7
ENDMDL
MODEL       22
REMARK 921   NORMALIZED FREE ENERGY PREDICTED BY IDOCK:   -6.38 KCAL/MOL
REMARK 922        TOTAL FREE ENERGY PREDICTED BY IDOCK:  -10.49 KCAL/MOL
REMARK 923 INTER-LIGAND FREE ENERGY PREDICTED BY IDOCK:   -8.97 KCAL/MOL
REMARK 924 INTRA-LIGAND FREE ENERGY PREDICTED BY IDOCK:   -1.52 KCAL/MOL
REMARK 927      BINDING AFFINITY PREDICTED BY RF-SCORE:    0.00 PKD
ROOT
HETATM    1  C   UNL     1      -9.990  14.210  69.063  1.00  0.00    -0.067 C  
HETATM    2  C   UNL     1      -9.017  13.773  67.900  1.00  0.00    -0.193 C  
HETATM    3  C   UNL     1      -7.933  14.759  67.424  1.00  0.00    -0.220 C  
HETATM    4  C   UNL     1     -12.430  14.478  70.021  1.00  0.00    -0.348 C  
HETATM    5  C   UNL     1      -7.455  15.787  68.435  1.00  0.00    -0.121 C  
HETATM    6  C   UNL     1     -12.075  15.919  70.230  1.00  0.00    -0.294 C  
HETATM    7  C   UNL     1     -12.475  13.906  71.450  1.00  0.00    -0.424 C  
HETATM    8  C   UNL     1     -10.864  16.431  70.010  1.00  0.00    -0.306 C  
HETATM    9  C   UNL     1      -8.619  16.339  69.202  1.00  0.00    -0.212 C  
HETATM   10  C   UNL     1      -6.754  16.916  67.654  1.00  0.00    -0.162 C  
HETATM   11  C   UNL     1      -9.774  15.684  69.424  1.00  0.00    -0.292 C  
HETATM   12  C   UNL     1     -11.518  13.797  68.924  1.00  0.00    -0.344 C  
ENDROOT
BRANCH   2  13
HETATM   13  O   UNL     1      -9.659  13.242  66.728  1.00  0.00    -0.243 OA 
BRANCH  13  14
HETATM   14  C   UNL     1      -9.209  12.070  66.207  1.00  0.00    -0.206 C  
HETATM   15  O   UNL     1      -8.103  11.569  66.415  1.00  0.00    -0.151 OA 
BRANCH  14  16
HETATM   16  C   UNL     1     -10.232  11.433  65.266  1.00  0.00    -0.320 C  
HETATM   17  C   UNL     1      -9.692  11.269  63.834  1.00  0.00    -0.311 C  
HETATM   18  C   UNL     1     -10.536  10.066  65.895  1.00  0.00    -0.115 C  
BRANCH  16  19
HETATM   19  C   UNL     1     -11.492  12.338  65.249  1.00  0.00    -0.399 C  
HETATM   20  C   UNL     1     -12.190  12.404  63.896  1.00  0.00    -0.603 C  
ENDBRANCH  16  19
ENDBRANCH  14  16
ENDBRANCH  13  14
ENDBRANCH   2  13
BRANCH  12  21
HETATM   21  C   UNL     1     -11.811  12.253  68.694  1.00  0.00    -0.354 C  
BRANCH  21  22
HETATM   22  C   UNL     1     -10.982  11.340  69.585  1.00  0.00    -0.214 C  
BRANCH  22  23
HETATM   23  C   UNL     1     -11.528  10.223  70.465  1.00  0.00    -0.343 C  
HETATM   24  C   UNL     1     -12.568  10.559  71.505  1.00  0.00    -0.529 C  
HETATM   25  C   UNL     1     -13.152   9.227  71.979  1.00  0.00    -0.436 C  
HETATM   26  O   UNL     1     -14.011   8.678  70.976  1.00  0.00    -0.590 OA 
HETATM   27  C   UNL     1     -12.073   8.229  72.388  1.00  0.00    -0.430 C  
HETATM   28  C   UNL     1     -10.831   8.247  71.526  1.00  0.00    -0.249 C  
HETATM   29  H   UNL     1     -14.374   7.851  71.271  1.00  0.00     0.000 HD 
HETATM   30  O   UNL     1     -10.125   7.260  71.367  1.00  0.00    -0.188 OA 
HETATM   31  O   UNL     1     -10.464   9.476  71.068  1.00  0.00    -0.300 OA 
ENDBRANCH  22  23
ENDBRANCH  21  22
ENDBRANCH  12  21
TORSDOF 7
ENDMDL
MODEL       23
REMARK 921   NORMALIZED FREE ENERGY PREDICTED BY IDOCK:   -6.38 KCAL/MOL
REMARK 922        TOTAL FREE ENERGY PREDICTED BY IDOCK:  -10.48 KCAL/MOL
REMARK 923 INTER-LIGAND FREE ENERGY PREDICTED BY IDOCK:   -9.17 KCAL/MOL
REMARK 924 INTRA-LIGAND FREE ENERGY PREDICTED BY IDOCK:   -1.31 KCAL/MOL
REMARK 927      BINDING AFFINITY PREDICTED BY RF-SCORE:    0.00 PKD
ROOT
HETATM    1  C   UNL     1     -11.209  12.955  69.135  1.00  0.00    -0.293 C  
HETATM    2  C   UNL     1     -10.870  11.417  69.040  1.00  0.00    -0.219 C  
HETATM    3  C   UNL     1     -11.523  10.445  70.041  1.00  0.00    -0.382 C  
HETATM    4  C   UNL     1     -10.418  15.466  69.255  1.00  0.00    -0.251 C  
HETATM    5  C   UNL     1     -12.858  10.869  70.630  1.00  0.00    -0.340 C  
HETATM    6  C   UNL     1     -11.232  15.551  70.510  1.00  0.00    -0.365 C  
HETATM    7  C   UNL     1     -11.227  16.297  68.242  1.00  0.00    -0.324 C  
HETATM    8  C   UNL     1     -12.003  14.566  70.971  1.00  0.00    -0.394 C  
HETATM    9  C   UNL     1     -12.830  12.326  70.981  1.00  0.00    -0.251 C  
HETATM   10  C   UNL     1     -13.096  10.024  71.897  1.00  0.00    -0.563 C  
HETATM   11  C   UNL     1     -12.052  13.247  70.381  1.00  0.00    -0.401 C  
HETATM   12  C   UNL     1     -10.012  13.976  68.913  1.00  0.00    -0.103 C  
ENDROOT
BRANCH   2  13
HETATM   13  O   UNL     1      -9.469  11.098  68.985  1.00  0.00    -0.159 OA 
BRANCH  13  14
HETATM   14  C   UNL     1      -9.046  10.148  68.108  1.00  0.00    -0.128 C  
HETATM   15  O   UNL     1      -9.196  10.181  66.887  1.00  0.00    -0.144 OA 
BRANCH  14  16
HETATM   16  C   UNL     1      -8.379   8.971  68.821  1.00  0.00    -0.122 C  
HETATM   17  C   UNL     1      -9.284   7.727  68.873  1.00  0.00    -0.140 C  
HETATM   18  C   UNL     1      -7.113   8.690  67.999  1.00  0.00    -0.082 C  
BRANCH  16  19
HETATM   19  C   UNL     1      -8.027   9.423  70.262  1.00  0.00    -0.172 C  
HETATM   20  C   UNL     1      -8.624   8.541  71.352  1.00  0.00    -0.224 C  
ENDBRANCH  16  19
ENDBRANCH  14  16
ENDBRANCH  13  14
ENDBRANCH   2  13
BRANCH  12  21
HETATM   21  C   UNL     1      -9.191  13.814  67.564  1.00  0.00    -0.216 C  
BRANCH  21  22
HETATM   22  C   UNL     1      -9.854  14.479  66.367  1.00  0.00    -0.306 C  
BRANCH  22  23
HETATM   23  C   UNL     1     -10.567  13.758  65.231  1.00  0.00    -0.353 C  
HETATM   24  C   UNL     1     -12.033  13.436  65.381  1.00  0.00    -0.419 C  
HETATM   25  C   UNL     1     -12.533  13.036  63.993  1.00  0.00    -0.292 C  
HETATM   26  O   UNL     1     -12.644  14.189  63.154  1.00  0.00    -1.058 OA 
HETATM   27  C   UNL     1     -11.661  11.964  63.345  1.00  0.00    -0.500 C  
HETATM   28  C   UNL     1     -10.179  12.111  63.603  1.00  0.00    -0.433 C  
HETATM   29  H   UNL     1     -12.955  13.940  62.291  1.00  0.00     0.000 HD 
HETATM   30  O   UNL     1      -9.330  11.705  62.819  1.00  0.00    -0.350 OA 
HETATM   31  O   UNL     1      -9.851  12.581  64.839  1.00  0.00    -0.190 OA 
ENDBRANCH  22  23
ENDBRANCH  21  22
ENDBRANCH  12  21
TORSDOF 7
ENDMDL
MODEL       24
REMARK 921   NORMALIZED FREE ENERGY PREDICTED BY IDOCK:   -6.38 KCAL/MOL
REMARK 922        TOTAL FREE ENERGY PREDICTED BY IDOCK:  -10.48 KCAL/MOL
REMARK 923 INTER-LIGAND FREE ENERGY PREDICTED BY IDOCK:   -8.69 KCAL/MOL
REMARK 924 INTRA-LIGAND FREE ENERGY PREDICTED BY IDOCK:   -1.79 KCAL/MOL
REMARK 927      BINDING AFFINITY PREDICTED BY RF-SCORE:    0.00 PKD
ROOT
HETATM    1  C   UNL     1     -11.031   9.409  69.361  1.00  0.00    -0.165 C  
HETATM    2  C   UNL     1     -10.687  10.294  68.102  1.00  0.00    -0.246 C  
HETATM    3  C   UNL     1      -9.419   9.975  67.288  1.00  0.00    -0.179 C  
HETATM    4  C   UNL     1     -11.684   9.213  71.906  1.00  0.00    -0.436 C  
HETATM    5  C   UNL     1      -8.922   8.539  67.335  1.00  0.00    -0.144 C  
HETATM    6  C   UNL     1     -10.474   8.338  72.040  1.00  0.00    -0.350 C  
HETATM    7  C   UNL     1     -12.860   8.230  72.051  1.00  0.00    -0.369 C  
HETATM    8  C   UNL     1      -9.713   7.952  71.015  1.00  0.00    -0.178 C  
HETATM    9  C   UNL     1      -9.014   8.005  68.733  1.00  0.00    -0.141 C  
HETATM   10  C   UNL     1      -7.455   8.539  66.864  1.00  0.00    -0.084 C  
HETATM   11  C   UNL     1      -9.890   8.431  69.663  1.00  0.00    -0.184 C  
HETATM   12  C   UNL     1     -11.593  10.161  70.644  1.00  0.00    -0.429 C  
ENDROOT
BRANCH   2  13
HETATM   13  O   UNL     1     -10.706  11.715  68.324  1.00  0.00    -0.194 OA 
BRANCH  13  14
HETATM   14  C   UNL     1     -11.351  12.511  67.429  1.00  0.00    -0.313 C  
HETATM   15  O   UNL     1     -12.502  12.348  67.022  1.00  0.00    -0.228 OA 
BRANCH  14  16
HETATM   16  C   UNL     1     -10.457  13.644  66.926  1.00  0.00    -0.272 C  
HETATM   17  C   UNL     1      -9.938  13.394  65.499  1.00  0.00    -0.226 C  
HETATM   18  C   UNL     1     -11.353  14.891  66.970  1.00  0.00    -0.345 C  
BRANCH  16  19
HETATM   19  C   UNL     1      -9.259  13.776  67.903  1.00  0.00    -0.200 C  
HETATM   20  C   UNL     1      -8.076  14.550  67.333  1.00  0.00    -0.219 C  
ENDBRANCH  16  19
ENDBRANCH  14  16
ENDBRANCH  13  14
ENDBRANCH   2  13
BRANCH  12  21
HETATM   21  C   UNL     1     -12.869  11.077  70.418  1.00  0.00    -0.221 C  
BRANCH  21  22
HETATM   22  C   UNL     1     -13.120  12.058  71.554  1.00  0.00    -0.362 C  
BRANCH  22  23
HETATM   23  C   UNL     1     -12.830  13.552  71.518  1.00  0.00    -0.352 C  
HETATM   24  C   UNL     1     -11.697  14.053  70.657  1.00  0.00    -0.230 C  
HETATM   25  C   UNL     1     -11.864  15.570  70.561  1.00  0.00    -0.356 C  
HETATM   26  O   UNL     1     -12.958  15.895  69.698  1.00  0.00    -0.484 OA 
HETATM   27  C   UNL     1     -12.026  16.228  71.928  1.00  0.00    -0.513 C  
HETATM   28  C   UNL     1     -12.848  15.436  72.920  1.00  0.00    -0.445 C  
HETATM   29  H   UNL     1     -13.062  16.838  69.639  1.00  0.00     0.000 HD 
HETATM   30  O   UNL     1     -13.487  15.968  73.819  1.00  0.00    -0.520 OA 
HETATM   31  O   UNL     1     -12.703  14.085  72.842  1.00  0.00    -0.311 OA 
ENDBRANCH  22  23
ENDBRANCH  21  22
ENDBRANCH  12  21
TORSDOF 7
ENDMDL
MODEL       25
REMARK 921   NORMALIZED FREE ENERGY PREDICTED BY IDOCK:   -6.38 KCAL/MOL
REMARK 922        TOTAL FREE ENERGY PREDICTED BY IDOCK:  -10.48 KCAL/MOL
REMARK 923 INTER-LIGAND FREE ENERGY PREDICTED BY IDOCK:   -9.02 KCAL/MOL
REMARK 924 INTRA-LIGAND FREE ENERGY PREDICTED BY IDOCK:   -1.46 KCAL/MOL
REMARK 927      BINDING AFFINITY PREDICTED BY RF-SCORE:    0.00 PKD
ROOT
HETATM    1  C   UNL     1      -9.881  10.238  68.077  1.00  0.00    -0.171 C  
HETATM    2  C   UNL     1      -9.517   8.940  68.896  1.00  0.00    -0.152 C  
HETATM    3  C   UNL     1      -9.007   7.698  68.141  1.00  0.00    -0.126 C  
HETATM    4  C   UNL     1     -11.568  12.179  67.501  1.00  0.00    -0.413 C  
HETATM    5  C   UNL     1      -8.315   7.945  66.812  1.00  0.00    -0.120 C  
HETATM    6  C   UNL     1     -11.444  11.721  66.079  1.00  0.00    -0.281 C  
HETATM    7  C   UNL     1     -10.814  13.522  67.516  1.00  0.00    -0.276 C  
HETATM    8  C   UNL     1     -10.610  10.764  65.671  1.00  0.00    -0.199 C  
HETATM    9  C   UNL     1      -9.054   8.990  66.030  1.00  0.00    -0.257 C  
HETATM   10  C   UNL     1      -8.305   6.613  66.037  1.00  0.00    -0.134 C  
HETATM   11  C   UNL     1      -9.811   9.963  66.570  1.00  0.00    -0.274 C  
HETATM   12  C   UNL     1     -11.178  11.040  68.526  1.00  0.00    -0.329 C  
ENDROOT
BRANCH   2  13
HETATM   13  O   UNL     1     -10.523   8.495  69.823  1.00  0.00    -0.213 OA 
BRANCH  13  14
HETATM   14  C   UNL     1     -10.268   8.571  71.156  1.00  0.00    -0.214 C  
HETATM   15  O   UNL     1      -9.260   9.059  71.668  1.00  0.00    -0.288 OA 
BRANCH  14  16
HETATM   16  C   UNL     1     -11.377   7.925  71.987  1.00  0.00    -0.343 C  
HETATM   17  C   UNL     1     -12.149   6.849  71.203  1.00  0.00    -0.428 C  
HETATM   18  C   UNL     1     -10.648   7.306  73.189  1.00  0.00    -0.400 C  
BRANCH  16  19
HETATM   19  C   UNL     1     -12.351   9.045  72.436  1.00  0.00    -0.350 C  
HETATM   20  C   UNL     1     -13.668   9.067  71.668  1.00  0.00    -0.442 C  
ENDBRANCH  16  19
ENDBRANCH  14  16
ENDBRANCH  13  14
ENDBRANCH   2  13
BRANCH  12  21
HETATM   21  C   UNL     1     -11.238  11.480  70.050  1.00  0.00    -0.108 C  
BRANCH  21  22
HETATM   22  C   UNL     1     -12.464  12.314  70.392  1.00  0.00    -0.221 C  
BRANCH  22  23
HETATM   23  C   UNL     1     -12.477  13.554  71.276  1.00  0.00    -0.300 C  
HETATM   24  C   UNL     1     -13.544  13.682  72.334  1.00  0.00    -0.703 C  
HETATM   25  C   UNL     1     -13.108  14.824  73.253  1.00  0.00    -0.436 C  
HETATM   26  O   UNL     1     -12.022  14.405  74.084  1.00  0.00    -0.354 OA 
HETATM   27  C   UNL     1     -12.755  16.092  72.482  1.00  0.00    -0.510 C  
HETATM   28  C   UNL     1     -12.038  15.859  71.171  1.00  0.00    -0.418 C  
HETATM   29  H   UNL     1     -11.751  15.114  74.655  1.00  0.00     0.000 HD 
HETATM   30  O   UNL     1     -11.265  16.677  70.688  1.00  0.00    -0.245 OA 
HETATM   31  O   UNL     1     -12.432  14.749  70.487  1.00  0.00    -0.315 OA 
ENDBRANCH  22  23
ENDBRANCH  21  22
ENDBRANCH  12  21
TORSDOF 7
ENDMDL
MODEL       26
REMARK 921   NORMALIZED FREE ENERGY PREDICTED BY IDOCK:   -6.37 KCAL/MOL
REMARK 922        TOTAL FREE ENERGY PREDICTED BY IDOCK:  -10.48 KCAL/MOL
REMARK 923 INTER-LIGAND FREE ENERGY PREDICTED BY IDOCK:   -9.76 KCAL/MOL
REMARK 924 INTRA-LIGAND FREE ENERGY PREDICTED BY IDOCK:   -0.71 KCAL/MOL
REMARK 927      BINDING AFFINITY PREDICTED BY RF-SCORE:    0.00 PKD
ROOT
HETATM    1  C   UNL     1     -10.826  13.835  68.164  1.00  0.00    -0.261 C  
HETATM    2  C   UNL     1     -11.926  14.803  68.750  1.00  0.00    -0.257 C  
HETATM    3  C   UNL     1     -11.604  16.303  68.887  1.00  0.00    -0.230 C  
HETATM    4  C   UNL     1      -9.405  11.623  68.336  1.00  0.00    -0.191 C  
HETATM    5  C   UNL     1     -10.559  16.866  67.938  1.00  0.00    -0.361 C  
HETATM    6  C   UNL     1      -8.204  12.512  68.222  1.00  0.00    -0.168 C  
HETATM    7  C   UNL     1      -9.444  10.893  66.980  1.00  0.00    -0.184 C  
HETATM    8  C   UNL     1      -8.263  13.826  68.005  1.00  0.00    -0.164 C  
HETATM    9  C   UNL     1      -9.412  15.909  67.804  1.00  0.00    -0.216 C  
HETATM   10  C   UNL     1     -10.067  18.202  68.527  1.00  0.00    -0.413 C  
HETATM   11  C   UNL     1      -9.498  14.576  67.975  1.00  0.00    -0.209 C  
HETATM   12  C   UNL     1     -10.677  12.409  68.850  1.00  0.00    -0.202 C  
ENDROOT
BRANCH   2  13
HETATM   13  O   UNL     1     -12.525  14.378  69.986  1.00  0.00    -0.335 OA 
BRANCH  13  14
HETATM   14  C   UNL     1     -12.048  14.884  71.155  1.00  0.00    -0.327 C  
HETATM   15  O   UNL     1     -10.946  15.411  71.312  1.00  0.00    -0.340 OA 
BRANCH  14  16
HETATM   16  C   UNL     1     -13.033  14.685  72.307  1.00  0.00    -0.436 C  
HETATM   17  C   UNL     1     -14.289  15.562  72.166  1.00  0.00    -0.598 C  
HETATM   18  C   UNL     1     -13.398  13.194  72.249  1.00  0.00    -0.621 C  
BRANCH  16  19
HETATM   19  C   UNL     1     -12.298  15.033  73.628  1.00  0.00    -0.639 C  
HETATM   20  C   UNL     1     -12.558  16.449  74.128  1.00  0.00    -0.519 C  
ENDBRANCH  16  19
ENDBRANCH  14  16
ENDBRANCH  13  14
ENDBRANCH   2  13
BRANCH  12  21
HETATM   21  C   UNL     1     -11.997  11.532  68.941  1.00  0.00    -0.364 C  
BRANCH  21  22
HETATM   22  C   UNL     1     -12.218  10.910  70.313  1.00  0.00    -0.432 C  
BRANCH  22  23
HETATM   23  C   UNL     1     -11.695   9.556  70.770  1.00  0.00    -0.298 C  
HETATM   24  C   UNL     1     -12.682   8.517  71.243  1.00  0.00    -0.221 C  
HETATM   25  C   UNL     1     -11.919   7.193  71.307  1.00  0.00    -0.337 C  
HETATM   26  O   UNL     1     -11.685   6.691  69.989  1.00  0.00    -0.541 OA 
HETATM   27  C   UNL     1     -10.617   7.307  72.094  1.00  0.00    -0.242 C  
HETATM   28  C   UNL     1      -9.866   8.604  71.894  1.00  0.00    -0.314 C  
HETATM   29  H   UNL     1     -11.211   5.868  70.029  1.00  0.00     0.000 HD 
HETATM   30  O   UNL     1      -8.650   8.686  72.008  1.00  0.00    -0.243 OA 
HETATM   31  O   UNL     1     -10.650   9.707  71.738  1.00  0.00    -0.097 OA 
ENDBRANCH  22  23
ENDBRANCH  21  22
ENDBRANCH  12  21
TORSDOF 7
ENDMDL
MODEL       27
REMARK 921   NORMALIZED FREE ENERGY PREDICTED BY IDOCK:   -6.34 KCAL/MOL
REMARK 922        TOTAL FREE ENERGY PREDICTED BY IDOCK:  -10.42 KCAL/MOL
REMARK 923 INTER-LIGAND FREE ENERGY PREDICTED BY IDOCK:   -9.17 KCAL/MOL
REMARK 924 INTRA-LIGAND FREE ENERGY PREDICTED BY IDOCK:   -1.26 KCAL/MOL
REMARK 927      BINDING AFFINITY PREDICTED BY RF-SCORE:    0.00 PKD
ROOT
HETATM    1  C   UNL     1     -11.343  11.415  66.974  1.00  0.00    -0.309 C  
HETATM    2  C   UNL     1     -11.789  12.829  67.514  1.00  0.00    -0.343 C  
HETATM    3  C   UNL     1     -12.048  13.966  66.508  1.00  0.00    -0.484 C  
HETATM    4  C   UNL     1      -9.699   9.357  67.044  1.00  0.00    -0.233 C  
HETATM    5  C   UNL     1     -12.458  13.553  65.104  1.00  0.00    -0.495 C  
HETATM    6  C   UNL     1      -9.490   9.610  65.581  1.00  0.00    -0.318 C  
HETATM    7  C   UNL     1     -10.522   8.056  67.072  1.00  0.00    -0.410 C  
HETATM    8  C   UNL     1     -10.155  10.526  64.877  1.00  0.00    -0.403 C  
HETATM    9  C   UNL     1     -11.637  12.383  64.648  1.00  0.00    -0.400 C  
HETATM   10  C   UNL     1     -12.219  14.760  64.176  1.00  0.00    -0.321 C  
HETATM   11  C   UNL     1     -11.075  11.473  65.465  1.00  0.00    -0.254 C  
HETATM   12  C   UNL     1     -10.224  10.644  67.798  1.00  0.00    -0.212 C  
ENDROOT
BRANCH   2  13
HETATM   13  O   UNL     1     -10.976  13.369  68.570  1.00  0.00    -0.249 OA 
BRANCH  13  14
HETATM   14  C   UNL     1     -11.586  13.927  69.649  1.00  0.00    -0.286 C  
HETATM   15  O   UNL     1     -12.470  13.400  70.327  1.00  0.00    -0.290 OA 
BRANCH  14  16
HETATM   16  C   UNL     1     -11.081  15.345  69.921  1.00  0.00    -0.304 C  
HETATM   17  C   UNL     1     -11.428  15.832  71.338  1.00  0.00    -0.496 C  
HETATM   18  C   UNL     1      -9.560  15.255  69.731  1.00  0.00    -0.140 C  
BRANCH  16  19
HETATM   19  C   UNL     1     -11.725  16.289  68.871  1.00  0.00    -0.160 C  
HETATM   20  C   UNL     1     -10.716  17.078  68.046  1.00  0.00    -0.365 C  
ENDBRANCH  16  19
ENDBRANCH  14  16
ENDBRANCH  13  14
ENDBRANCH   2  13
BRANCH  12  21
HETATM   21  C   UNL     1     -10.516  10.425  69.343  1.00  0.00    -0.261 C  
BRANCH  21  22
HETATM   22  C   UNL     1      -9.495   9.532  70.033  1.00  0.00    -0.265 C  
BRANCH  22  23
HETATM   23  C   UNL     1      -9.803   8.482  71.091  1.00  0.00    -0.206 C  
HETATM   24  C   UNL     1     -11.203   7.929  71.181  1.00  0.00    -0.284 C  
HETATM   25  C   UNL     1     -11.123   6.691  72.076  1.00  0.00    -0.255 C  
HETATM   26  O   UNL     1     -10.503   5.611  71.374  1.00  0.00    -0.222 OA 
HETATM   27  C   UNL     1     -10.413   6.971  73.397  1.00  0.00    -0.383 C  
HETATM   28  C   UNL     1      -9.233   7.911  73.296  1.00  0.00    -0.282 C  
HETATM   29  H   UNL     1     -10.453   4.842  71.930  1.00  0.00     0.000 HD 
HETATM   30  O   UNL     1      -8.285   7.863  74.071  1.00  0.00    -0.195 OA 
HETATM   31  O   UNL     1      -9.369   8.914  72.387  1.00  0.00    -0.342 OA 
ENDBRANCH  22  23
ENDBRANCH  21  22
ENDBRANCH  12  21
TORSDOF 7
ENDMDL
MODEL       28
REMARK 921   NORMALIZED FREE ENERGY PREDICTED BY IDOCK:   -6.33 KCAL/MOL
REMARK 922        TOTAL FREE ENERGY PREDICTED BY IDOCK:  -10.41 KCAL/MOL
REMARK 923 INTER-LIGAND FREE ENERGY PREDICTED BY IDOCK:   -8.33 KCAL/MOL
REMARK 924 INTRA-LIGAND FREE ENERGY PREDICTED BY IDOCK:   -2.08 KCAL/MOL
REMARK 927      BINDING AFFINITY PREDICTED BY RF-SCORE:    0.00 PKD
ROOT
HETATM    1  C   UNL     1     -12.181  12.320  69.241  1.00  0.00    -0.097 C  
HETATM    2  C   UNL     1     -12.514  11.579  70.593  1.00  0.00    -0.314 C  
HETATM    3  C   UNL     1     -12.789  12.417  71.856  1.00  0.00    -0.315 C  
HETATM    4  C   UNL     1     -10.642  12.629  67.124  1.00  0.00    -0.252 C  
HETATM    5  C   UNL     1     -13.321  13.824  71.638  1.00  0.00    -0.430 C  
HETATM    6  C   UNL     1     -10.529  14.063  67.548  1.00  0.00    -0.252 C  
HETATM    7  C   UNL     1     -11.525  12.694  65.864  1.00  0.00    -0.407 C  
HETATM    8  C   UNL     1     -11.198  14.596  68.570  1.00  0.00    -0.288 C  
HETATM    9  C   UNL     1     -12.597  14.481  70.501  1.00  0.00    -0.413 C  
HETATM   10  C   UNL     1     -13.091  14.615  72.940  1.00  0.00    -0.609 C  
HETATM   11  C   UNL     1     -12.023  13.827  69.474  1.00  0.00    -0.399 C  
HETATM   12  C   UNL     1     -11.045  11.686  68.328  1.00  0.00    -0.287 C  
ENDROOT
BRANCH   2  13
HETATM   13  O   UNL     1     -11.599  10.534  70.964  1.00  0.00    -0.330 OA 
BRANCH  13  14
HETATM   14  C   UNL     1     -12.092   9.397  71.523  1.00  0.00    -0.379 C  
HETATM   15  O   UNL     1     -13.248   9.232  71.915  1.00  0.00    -0.362 OA 
BRANCH  14  16
HETATM   16  C   UNL     1     -11.018   8.317  71.663  1.00  0.00    -0.327 C  
HETATM   17  C   UNL     1      -9.601   8.907  71.768  1.00  0.00    -0.353 C  
HETATM   18  C   UNL     1     -11.393   7.565  72.949  1.00  0.00    -0.355 C  
BRANCH  16  19
HETATM   19  C   UNL     1     -11.109   7.391  70.422  1.00  0.00    -0.284 C  
HETATM   20  C   UNL     1     -10.658   5.958  70.683  1.00  0.00    -0.334 C  
ENDBRANCH  16  19
ENDBRANCH  14  16
ENDBRANCH  13  14
ENDBRANCH   2  13
BRANCH  12  21
HETATM   21  C   UNL     1     -11.232  10.161  67.931  1.00  0.00    -0.234 C  
BRANCH  21  22
HETATM   22  C   UNL     1      -9.944   9.489  67.479  1.00  0.00    -0.235 C  
BRANCH  22  23
HETATM   23  C   UNL     1      -8.661   9.387  68.293  1.00  0.00    -0.124 C  
HETATM   24  C   UNL     1      -7.540  10.356  68.010  1.00  0.00    -0.091 C  
HETATM   25  C   UNL     1      -6.557  10.233  69.174  1.00  0.00    -0.055 C  
HETATM   26  O   UNL     1      -7.095  10.854  70.345  1.00  0.00    -0.476 OA 
HETATM   27  C   UNL     1      -6.157   8.787  69.451  1.00  0.00    -0.041 C  
HETATM   28  C   UNL     1      -7.272   7.778  69.291  1.00  0.00    -0.081 C  
HETATM   29  H   UNL     1      -6.484  10.778  71.069  1.00  0.00     0.000 HD 
HETATM   30  O   UNL     1      -7.302   6.725  69.916  1.00  0.00    -0.084 OA 
HETATM   31  O   UNL     1      -8.155   8.047  68.290  1.00  0.00    -0.122 OA 
ENDBRANCH  22  23
ENDBRANCH  21  22
ENDBRANCH  12  21
TORSDOF 7
ENDMDL
MODEL       29
REMARK 921   NORMALIZED FREE ENERGY PREDICTED BY IDOCK:   -6.28 KCAL/MOL
REMARK 922        TOTAL FREE ENERGY PREDICTED BY IDOCK:  -10.35 KCAL/MOL
REMARK 923 INTER-LIGAND FREE ENERGY PREDICTED BY IDOCK:   -9.98 KCAL/MOL
REMARK 924 INTRA-LIGAND FREE ENERGY PREDICTED BY IDOCK:   -0.37 KCAL/MOL
REMARK 927      BINDING AFFINITY PREDICTED BY RF-SCORE:    0.00 PKD
ROOT
HETATM    1  C   UNL     1     -11.526  11.528  67.266  1.00  0.00    -0.338 C  
HETATM    2  C   UNL     1     -12.053  12.949  67.701  1.00  0.00    -0.183 C  
HETATM    3  C   UNL     1     -12.138  14.070  66.647  1.00  0.00    -0.487 C  
HETATM    4  C   UNL     1      -9.920   9.473  67.644  1.00  0.00    -0.226 C  
HETATM    5  C   UNL     1     -12.307  13.634  65.201  1.00  0.00    -0.486 C  
HETATM    6  C   UNL     1      -9.468   9.702  66.233  1.00  0.00    -0.255 C  
HETATM    7  C   UNL     1     -10.739   8.171  67.554  1.00  0.00    -0.227 C  
HETATM    8  C   UNL     1     -10.005  10.606  65.413  1.00  0.00    -0.343 C  
HETATM    9  C   UNL     1     -11.424  12.458  64.909  1.00  0.00    -0.378 C  
HETATM   10  C   UNL     1     -11.913  14.826  64.307  1.00  0.00    -0.387 C  
HETATM   11  C   UNL     1     -11.008  11.561  65.823  1.00  0.00    -0.305 C  
HETATM   12  C   UNL     1     -10.562  10.771  68.278  1.00  0.00    -0.233 C  
ENDROOT
BRANCH   2  13
HETATM   13  O   UNL     1     -11.428  13.507  68.870  1.00  0.00    -0.263 OA 
BRANCH  13  14
HETATM   14  C   UNL     1     -11.870  14.702  69.345  1.00  0.00    -0.329 C  
HETATM   15  O   UNL     1     -11.888  15.762  68.718  1.00  0.00    -0.387 OA 
BRANCH  14  16
HETATM   16  C   UNL     1     -12.318  14.605  70.804  1.00  0.00    -0.398 C  
HETATM   17  C   UNL     1     -11.345  15.310  71.765  1.00  0.00    -0.445 C  
HETATM   18  C   UNL     1     -13.697  15.281  70.829  1.00  0.00    -0.255 C  
BRANCH  16  19
HETATM   19  C   UNL     1     -12.421  13.102  71.173  1.00  0.00    -0.378 C  
HETATM   20  C   UNL     1     -13.520  12.784  72.179  1.00  0.00    -0.591 C  
ENDBRANCH  16  19
ENDBRANCH  14  16
ENDBRANCH  13  14
ENDBRANCH   2  13
BRANCH  12  21
HETATM   21  C   UNL     1     -11.109  10.576  69.756  1.00  0.00    -0.354 C  
BRANCH  21  22
HETATM   22  C   UNL     1     -10.261   9.635  70.598  1.00  0.00    -0.346 C  
BRANCH  22  23
HETATM   23  C   UNL     1     -10.783   8.470  71.427  1.00  0.00    -0.250 C  
HETATM   24  C   UNL     1      -9.814   7.401  71.870  1.00  0.00    -0.187 C  
HETATM   25  C   UNL     1     -10.538   6.577  72.936  1.00  0.00    -0.241 C  
HETATM   26  O   UNL     1     -10.627   7.315  74.158  1.00  0.00    -0.533 OA 
HETATM   27  C   UNL     1     -11.913   6.104  72.476  1.00  0.00    -0.171 C  
HETATM   28  C   UNL     1     -12.681   7.104  71.641  1.00  0.00    -0.379 C  
HETATM   29  H   UNL     1     -11.076   6.803  74.820  1.00  0.00     0.000 HD 
HETATM   30  O   UNL     1     -13.905   7.135  71.611  1.00  0.00    -0.375 OA 
HETATM   31  O   UNL     1     -11.921   7.863  70.804  1.00  0.00    -0.247 OA 
ENDBRANCH  22  23
ENDBRANCH  21  22
ENDBRANCH  12  21
TORSDOF 7
ENDMDL
MODEL       30
REMARK 921   NORMALIZED FREE ENERGY PREDICTED BY IDOCK:   -6.28 KCAL/MOL
REMARK 922        TOTAL FREE ENERGY PREDICTED BY IDOCK:  -10.34 KCAL/MOL
REMARK 923 INTER-LIGAND FREE ENERGY PREDICTED BY IDOCK:   -9.23 KCAL/MOL
REMARK 924 INTRA-LIGAND FREE ENERGY PREDICTED BY IDOCK:   -1.11 KCAL/MOL
REMARK 927      BINDING AFFINITY PREDICTED BY RF-SCORE:    0.00 PKD
ROOT
HETATM    1  C   UNL     1     -10.398  10.966  66.722  1.00  0.00    -0.289 C  
HETATM    2  C   UNL     1     -11.218  12.274  67.045  1.00  0.00    -0.310 C  
HETATM    3  C   UNL     1     -11.807  13.093  65.880  1.00  0.00    -0.453 C  
HETATM    4  C   UNL     1      -8.236   9.491  67.028  1.00  0.00    -0.113 C  
HETATM    5  C   UNL     1     -12.106  12.336  64.598  1.00  0.00    -0.449 C  
HETATM    6  C   UNL     1      -8.132   9.522  65.533  1.00  0.00    -0.116 C  
HETATM    7  C   UNL     1      -8.655   8.040  67.331  1.00  0.00    -0.125 C  
HETATM    8  C   UNL     1      -9.043  10.074  64.731  1.00  0.00    -0.268 C  
HETATM    9  C   UNL     1     -10.995  11.375  64.292  1.00  0.00    -0.390 C  
HETATM   10  C   UNL     1     -12.236  13.372  63.465  1.00  0.00    -0.468 C  
HETATM   11  C   UNL     1     -10.184  10.820  65.211  1.00  0.00    -0.351 C  
HETATM   12  C   UNL     1      -9.092  10.697  67.587  1.00  0.00    -0.145 C  
ENDROOT
BRANCH   2  13
HETATM   13  O   UNL     1     -10.573  13.200  67.937  1.00  0.00    -0.225 OA 
BRANCH  13  14
HETATM   14  C   UNL     1     -11.326  13.853  68.862  1.00  0.00    -0.282 C  
HETATM   15  O   UNL     1     -12.409  13.470  69.306  1.00  0.00    -0.260 OA 
BRANCH  14  16
HETATM   16  C   UNL     1     -10.694  15.181  69.279  1.00  0.00    -0.250 C  
HETATM   17  C   UNL     1     -11.094  15.603  70.703  1.00  0.00    -0.382 C  
HETATM   18  C   UNL     1      -9.181  14.933  69.188  1.00  0.00    -0.142 C  
BRANCH  16  19
HETATM   19  C   UNL     1     -11.148  16.264  68.265  1.00  0.00    -0.346 C  
HETATM   20  C   UNL     1     -10.302  17.532  68.292  1.00  0.00    -0.379 C  
ENDBRANCH  16  19
ENDBRANCH  14  16
ENDBRANCH  13  14
ENDBRANCH   2  13
BRANCH  12  21
HETATM   21  C   UNL     1      -9.283  10.690  69.164  1.00  0.00    -0.162 C  
BRANCH  21  22
HETATM   22  C   UNL     1      -9.909   9.408  69.693  1.00  0.00    -0.205 C  
BRANCH  22  23
HETATM   23  C   UNL     1     -11.065   9.326  70.680  1.00  0.00    -0.276 C  
HETATM   24  C   UNL     1     -11.823   8.027  70.806  1.00  0.00    -0.171 C  
HETATM   25  C   UNL     1     -12.670   8.142  72.074  1.00  0.00    -0.323 C  
HETATM   26  O   UNL     1     -11.844   8.029  73.236  1.00  0.00    -0.590 OA 
HETATM   27  C   UNL     1     -13.499   9.423  72.109  1.00  0.00    -0.543 C  
HETATM   28  C   UNL     1     -12.804  10.644  71.550  1.00  0.00    -0.462 C  
HETATM   29  H   UNL     1     -12.370   8.100  74.023  1.00  0.00     0.000 HD 
HETATM   30  O   UNL     1     -13.062  11.780  71.926  1.00  0.00    -0.468 OA 
HETATM   31  O   UNL     1     -11.985  10.406  70.487  1.00  0.00    -0.282 OA 
ENDBRANCH  22  23
ENDBRANCH  21  22
ENDBRANCH  12  21
TORSDOF 7
ENDMDL
MODEL       31
REMARK 921   NORMALIZED FREE ENERGY PREDICTED BY IDOCK:   -6.27 KCAL/MOL
REMARK 922        TOTAL FREE ENERGY PREDICTED BY IDOCK:  -10.33 KCAL/MOL
REMARK 923 INTER-LIGAND FREE ENERGY PREDICTED BY IDOCK:   -9.24 KCAL/MOL
REMARK 924 INTRA-LIGAND FREE ENERGY PREDICTED BY IDOCK:   -1.09 KCAL/MOL
REMARK 927      BINDING AFFINITY PREDICTED BY RF-SCORE:    0.00 PKD
ROOT
HETATM    1  C   UNL     1      -9.972  12.796  65.867  1.00  0.00    -0.273 C  
HETATM    2  C   UNL     1      -8.865  12.342  66.895  1.00  0.00    -0.207 C  
HETATM    3  C   UNL     1      -8.124  11.013  66.657  1.00  0.00    -0.155 C  
HETATM    4  C   UNL     1     -12.411  13.659  65.369  1.00  0.00    -0.537 C  
HETATM    5  C   UNL     1      -8.033  10.532  65.218  1.00  0.00    -0.112 C  
HETATM    6  C   UNL     1     -12.533  12.471  64.463  1.00  0.00    -0.539 C  
HETATM    7  C   UNL     1     -12.335  14.850  64.395  1.00  0.00    -0.342 C  
HETATM    8  C   UNL     1     -11.534  11.630  64.194  1.00  0.00    -0.364 C  
HETATM    9  C   UNL     1      -9.341  10.743  64.517  1.00  0.00    -0.273 C  
HETATM   10  C   UNL     1      -7.687   9.030  65.251  1.00  0.00    -0.100 C  
HETATM   11  C   UNL     1     -10.242  11.690  64.840  1.00  0.00    -0.315 C  
HETATM   12  C   UNL     1     -11.289  13.457  66.463  1.00  0.00    -0.346 C  
ENDROOT
BRANCH   2  13
HETATM   13  O   UNL     1      -9.261  12.370  68.277  1.00  0.00    -0.200 OA 
BRANCH  13  14
HETATM   14  C   UNL     1      -9.262  11.209  68.984  1.00  0.00    -0.031 C  
HETATM   15  O   UNL     1      -8.265  10.551  69.288  1.00  0.00    -0.153 OA 
BRANCH  14  16
HETATM   16  C   UNL     1     -10.679  10.758  69.338  1.00  0.00    -0.272 C  
HETATM   17  C   UNL     1     -11.576  11.928  69.779  1.00  0.00    -0.359 C  
HETATM   18  C   UNL     1     -11.213  10.115  68.050  1.00  0.00    -0.247 C  
BRANCH  16  19
HETATM   19  C   UNL     1     -10.576   9.718  70.485  1.00  0.00    -0.376 C  
HETATM   20  C   UNL     1     -11.898   9.441  71.192  1.00  0.00    -0.413 C  
ENDBRANCH  16  19
ENDBRANCH  14  16
ENDBRANCH  13  14
ENDBRANCH   2  13
BRANCH  12  21
HETATM   21  C   UNL     1     -11.076  14.704  67.422  1.00  0.00    -0.331 C  
BRANCH  21  22
HETATM   22  C   UNL     1     -10.024  15.683  66.920  1.00  0.00    -0.252 C  
BRANCH  22  23
HETATM   23  C   UNL     1      -9.964  17.169  67.246  1.00  0.00    -0.274 C  
HETATM   24  C   UNL     1     -10.238  17.614  68.661  1.00  0.00    -0.377 C  
HETATM   25  C   UNL     1      -9.783  19.071  68.751  1.00  0.00    -0.416 C  
HETATM   26  O   UNL     1      -8.355  19.145  68.769  1.00  0.00    -0.359 OA 
HETATM   27  C   UNL     1     -10.366  19.936  67.638  1.00  0.00    -0.557 C  
HETATM   28  C   UNL     1     -10.464  19.255  66.292  1.00  0.00    -0.478 C  
HETATM   29  H   UNL     1      -8.072  20.050  68.825  1.00  0.00     0.000 HD 
HETATM   30  O   UNL     1     -10.417  19.874  65.235  1.00  0.00    -0.317 OA 
HETATM   31  O   UNL     1     -10.768  17.928  66.336  1.00  0.00    -0.263 OA 
ENDBRANCH  22  23
ENDBRANCH  21  22
ENDBRANCH  12  21
TORSDOF 7
ENDMDL
MODEL       32
REMARK 921   NORMALIZED FREE ENERGY PREDICTED BY IDOCK:   -6.26 KCAL/MOL
REMARK 922        TOTAL FREE ENERGY PREDICTED BY IDOCK:  -10.32 KCAL/MOL
REMARK 923 INTER-LIGAND FREE ENERGY PREDICTED BY IDOCK:   -8.34 KCAL/MOL
REMARK 924 INTRA-LIGAND FREE ENERGY PREDICTED BY IDOCK:   -1.98 KCAL/MOL
REMARK 927      BINDING AFFINITY PREDICTED BY RF-SCORE:    0.00 PKD
ROOT
HETATM    1  C   UNL     1     -12.262  12.248  70.132  1.00  0.00    -0.302 C  
HETATM    2  C   UNL     1     -11.436  11.056  69.510  1.00  0.00    -0.299 C  
HETATM    3  C   UNL     1     -11.458   9.685  70.212  1.00  0.00    -0.288 C  
HETATM    4  C   UNL     1     -12.397  14.745  70.963  1.00  0.00    -0.397 C  
HETATM    5  C   UNL     1     -12.684   9.370  71.053  1.00  0.00    -0.270 C  
HETATM    6  C   UNL     1     -12.879  14.174  72.262  1.00  0.00    -0.415 C  
HETATM    7  C   UNL     1     -13.655  15.405  70.369  1.00  0.00     0.193 C  
HETATM    8  C   UNL     1     -13.128  12.880  72.465  1.00  0.00    -0.195 C  
HETATM    9  C   UNL     1     -13.090  10.575  71.848  1.00  0.00    -0.567 C  
HETATM   10  C   UNL     1     -12.314   8.212  72.000  1.00  0.00    -0.380 C  
HETATM   11  C   UNL     1     -12.845  11.850  71.493  1.00  0.00    -0.421 C  
HETATM   12  C   UNL     1     -11.584  13.685  70.117  1.00  0.00    -0.208 C  
ENDROOT
BRANCH   2  13
HETATM   13  O   UNL     1     -10.064  11.355  69.198  1.00  0.00    -0.146 OA 
BRANCH  13  14
HETATM   14  C   UNL     1      -9.601  11.084  67.948  1.00  0.00    -0.172 C  
HETATM   15  O   UNL     1     -10.238  10.530  67.051  1.00  0.00    -0.207 OA 
BRANCH  14  16
HETATM   16  C   UNL     1      -8.143  11.511  67.775  1.00  0.00    -0.133 C  
HETATM   17  C   UNL     1      -8.005  12.998  67.406  1.00  0.00    -0.173 C  
HETATM   18  C   UNL     1      -7.493  11.223  69.136  1.00  0.00    -0.084 C  
BRANCH  16  19
HETATM   19  C   UNL     1      -7.520  10.635  66.656  1.00  0.00    -0.129 C  
HETATM   20  C   UNL     1      -7.051   9.265  67.130  1.00  0.00    -0.086 C  
ENDBRANCH  16  19
ENDBRANCH  14  16
ENDBRANCH  13  14
ENDBRANCH   2  13
BRANCH  12  21
HETATM   21  C   UNL     1     -11.090  14.214  68.703  1.00  0.00    -0.283 C  
BRANCH  21  22
HETATM   22  C   UNL     1     -12.110  14.016  67.592  1.00  0.00    -0.344 C  
BRANCH  22  23
HETATM   23  C   UNL     1     -11.804  13.537  66.179  1.00  0.00    -0.389 C  
HETATM   24  C   UNL     1     -10.799  14.301  65.354  1.00  0.00    -0.348 C  
HETATM   25  C   UNL     1     -10.461  13.414  64.155  1.00  0.00    -0.181 C  
HETATM   26  O   UNL     1      -9.629  12.325  64.563  1.00  0.00    -0.470 OA 
HETATM   27  C   UNL     1     -11.705  12.916  63.427  1.00  0.00    -0.526 C  
HETATM   28  C   UNL     1     -12.867  12.561  64.327  1.00  0.00    -0.255 C  
HETATM   29  H   UNL     1      -9.418  11.774  63.818  1.00  0.00     0.000 HD 
HETATM   30  O   UNL     1     -13.704  11.721  64.022  1.00  0.00    -0.236 OA 
HETATM   31  O   UNL     1     -13.009  13.352  65.426  1.00  0.00    -0.625 OA 
ENDBRANCH  22  23
ENDBRANCH  21  22
ENDBRANCH  12  21
TORSDOF 7
ENDMDL
MODEL       33
REMARK 921   NORMALIZED FREE ENERGY PREDICTED BY IDOCK:   -6.17 KCAL/MOL
REMARK 922        TOTAL FREE ENERGY PREDICTED BY IDOCK:  -10.19 KCAL/MOL
REMARK 923 INTER-LIGAND FREE ENERGY PREDICTED BY IDOCK:   -8.54 KCAL/MOL
REMARK 924 INTRA-LIGAND FREE ENERGY PREDICTED BY IDOCK:   -1.66 KCAL/MOL
REMARK 927      BINDING AFFINITY PREDICTED BY RF-SCORE:    0.00 PKD
ROOT
HETATM    1  C   UNL     1     -10.757   8.496  69.104  1.00  0.00    -0.128 C  
HETATM    2  C   UNL     1      -9.705   7.998  68.040  1.00  0.00    -0.160 C  
HETATM    3  C   UNL     1      -9.312   6.509  68.018  1.00  0.00    -0.108 C  
HETATM    4  C   UNL     1     -11.467  10.186  70.997  1.00  0.00    -0.436 C  
HETATM    5  C   UNL     1     -10.340   5.525  68.551  1.00  0.00    -0.247 C  
HETATM    6  C   UNL     1     -11.675   8.974  71.853  1.00  0.00    -0.445 C  
HETATM    7  C   UNL     1     -12.899  10.682  70.718  1.00  0.00    -0.439 C  
HETATM    8  C   UNL     1     -11.561   7.720  71.416  1.00  0.00    -0.305 C  
HETATM    9  C   UNL     1     -10.978   6.067  69.796  1.00  0.00    -0.471 C  
HETATM   10  C   UNL     1      -9.604   4.208  68.864  1.00  0.00    -0.222 C  
HETATM   11  C   UNL     1     -11.102   7.374  70.090  1.00  0.00    -0.265 C  
HETATM   12  C   UNL     1     -10.480   9.900  69.796  1.00  0.00    -0.292 C  
ENDROOT
BRANCH   2  13
HETATM   13  O   UNL     1      -8.489   8.763  67.972  1.00  0.00    -0.124 OA 
BRANCH  13  14
HETATM   14  C   UNL     1      -8.023   9.150  66.754  1.00  0.00    -0.104 C  
HETATM   15  O   UNL     1      -8.709   9.326  65.746  1.00  0.00    -0.139 OA 
BRANCH  14  16
HETATM   16  C   UNL     1      -6.503   9.308  66.748  1.00  0.00    -0.067 C  
HETATM   17  C   UNL     1      -5.774   7.998  67.097  1.00  0.00    -0.038 C  
HETATM   18  C   UNL     1      -6.167   9.755  65.318  1.00  0.00    -0.086 C  
BRANCH  16  19
HETATM   19  C   UNL     1      -6.132  10.403  67.782  1.00  0.00    -0.052 C  
HETATM   20  C   UNL     1      -6.746  11.767  67.487  1.00  0.00    -0.107 C  
ENDBRANCH  16  19
ENDBRANCH  14  16
ENDBRANCH  13  14
ENDBRANCH   2  13
BRANCH  12  21
HETATM   21  C   UNL     1     -10.260  11.133  68.820  1.00  0.00    -0.219 C  
BRANCH  21  22
HETATM   22  C   UNL     1     -11.217  11.149  67.637  1.00  0.00    -0.364 C  
BRANCH  22  23
HETATM   23  C   UNL     1     -11.335  12.261  66.604  1.00  0.00    -0.343 C  
HETATM   24  C   UNL     1     -11.187  13.693  67.056  1.00  0.00    -0.328 C  
HETATM   25  C   UNL     1     -11.017  14.531  65.789  1.00  0.00    -0.319 C  
HETATM   26  O   UNL     1      -9.711  14.338  65.238  1.00  0.00    -0.553 OA 
HETATM   27  C   UNL     1     -12.100  14.251  64.752  1.00  0.00    -0.457 C  
HETATM   28  C   UNL     1     -12.521  12.802  64.651  1.00  0.00    -0.456 C  
HETATM   29  H   UNL     1      -9.605  14.859  64.451  1.00  0.00     0.000 HD 
HETATM   30  O   UNL     1     -12.958  12.313  63.616  1.00  0.00    -0.777 OA 
HETATM   31  O   UNL     1     -12.532  12.119  65.829  1.00  0.00    -0.482 OA 
ENDBRANCH  22  23
ENDBRANCH  21  22
ENDBRANCH  12  21
TORSDOF 7
ENDMDL
MODEL       34
REMARK 921   NORMALIZED FREE ENERGY PREDICTED BY IDOCK:   -6.17 KCAL/MOL
REMARK 922        TOTAL FREE ENERGY PREDICTED BY IDOCK:  -10.19 KCAL/MOL
REMARK 923 INTER-LIGAND FREE ENERGY PREDICTED BY IDOCK:   -8.21 KCAL/MOL
REMARK 924 INTRA-LIGAND FREE ENERGY PREDICTED BY IDOCK:   -1.97 KCAL/MOL
REMARK 927      BINDING AFFINITY PREDICTED BY RF-SCORE:    0.00 PKD
ROOT
HETATM    1  C   UNL     1     -10.890   8.239  69.506  1.00  0.00    -0.124 C  
HETATM    2  C   UNL     1      -9.796   7.935  68.411  1.00  0.00    -0.173 C  
HETATM    3  C   UNL     1      -9.290   6.490  68.242  1.00  0.00    -0.118 C  
HETATM    4  C   UNL     1     -11.738   9.667  71.552  1.00  0.00    -0.472 C  
HETATM    5  C   UNL     1     -10.241   5.381  68.660  1.00  0.00    -0.246 C  
HETATM    6  C   UNL     1     -11.856   8.361  72.278  1.00  0.00    -0.456 C  
HETATM    7  C   UNL     1     -13.202  10.078  71.307  1.00  0.00    -0.469 C  
HETATM    8  C   UNL     1     -11.643   7.171  71.717  1.00  0.00    -0.314 C  
HETATM    9  C   UNL     1     -10.925   5.742  69.944  1.00  0.00    -0.389 C  
HETATM   10  C   UNL     1      -9.408   4.098  68.846  1.00  0.00    -0.228 C  
HETATM   11  C   UNL     1     -11.152   6.999  70.368  1.00  0.00    -0.323 C  
HETATM   12  C   UNL     1     -10.725   9.582  70.341  1.00  0.00    -0.341 C  
ENDROOT
BRANCH   2  13
HETATM   13  O   UNL     1      -8.643   8.793  68.437  1.00  0.00    -0.132 OA 
BRANCH  13  14
HETATM   14  C   UNL     1      -8.371   9.562  67.349  1.00  0.00    -0.125 C  
HETATM   15  O   UNL     1      -8.896   9.448  66.240  1.00  0.00    -0.138 OA 
BRANCH  14  16
HETATM   16  C   UNL     1      -7.277  10.590  67.635  1.00  0.00    -0.086 C  
HETATM   17  C   UNL     1      -6.926  10.675  69.131  1.00  0.00    -0.085 C  
HETATM   18  C   UNL     1      -6.070  10.107  66.818  1.00  0.00    -0.060 C  
BRANCH  16  19
HETATM   19  C   UNL     1      -7.778  11.971  67.136  1.00  0.00    -0.161 C  
HETATM   20  C   UNL     1      -7.616  13.094  68.154  1.00  0.00    -0.141 C  
ENDBRANCH  16  19
ENDBRANCH  14  16
ENDBRANCH  13  14
ENDBRANCH   2  13
BRANCH  12  21
HETATM   21  C   UNL     1     -10.596  10.921  69.499  1.00  0.00    -0.217 C  
BRANCH  21  22
HETATM   22  C   UNL     1     -11.608  11.027  68.368  1.00  0.00    -0.372 C  
BRANCH  22  23
HETATM   23  C   UNL     1     -11.729  12.185  67.387  1.00  0.00    -0.304 C  
HETATM   24  C   UNL     1     -11.265  11.986  65.966  1.00  0.00    -0.385 C  
HETATM   25  C   UNL     1     -11.810  13.168  65.163  1.00  0.00    -0.359 C  
HETATM   26  O   UNL     1     -13.219  13.022  64.959  1.00  0.00    -0.739 OA 
HETATM   27  C   UNL     1     -11.483  14.512  65.807  1.00  0.00    -0.342 C  
HETATM   28  C   UNL     1     -11.551  14.526  67.317  1.00  0.00    -0.385 C  
HETATM   29  H   UNL     1     -13.557  13.757  64.461  1.00  0.00     0.000 HD 
HETATM   30  O   UNL     1     -11.816  15.537  67.956  1.00  0.00    -0.277 OA 
HETATM   31  O   UNL     1     -11.143  13.377  67.924  1.00  0.00    -0.250 OA 
ENDBRANCH  22  23
ENDBRANCH  21  22
ENDBRANCH  12  21
TORSDOF 7
ENDMDL
MODEL       35
REMARK 921   NORMALIZED FREE ENERGY PREDICTED BY IDOCK:   -6.16 KCAL/MOL
REMARK 922        TOTAL FREE ENERGY PREDICTED BY IDOCK:  -10.17 KCAL/MOL
REMARK 923 INTER-LIGAND FREE ENERGY PREDICTED BY IDOCK:   -8.55 KCAL/MOL
REMARK 924 INTRA-LIGAND FREE ENERGY PREDICTED BY IDOCK:   -1.62 KCAL/MOL
REMARK 927      BINDING AFFINITY PREDICTED BY RF-SCORE:    0.00 PKD
ROOT
HETATM    1  C   UNL     1     -12.000  13.790  68.398  1.00  0.00    -0.395 C  
HETATM    2  C   UNL     1     -12.228  12.890  69.673  1.00  0.00    -0.141 C  
HETATM    3  C   UNL     1     -12.335  13.564  71.054  1.00  0.00    -0.422 C  
HETATM    4  C   UNL     1     -10.670  14.324  66.187  1.00  0.00    -0.295 C  
HETATM    5  C   UNL     1     -12.822  15.003  71.075  1.00  0.00    -0.451 C  
HETATM    6  C   UNL     1     -10.448  15.685  66.775  1.00  0.00    -0.297 C  
HETATM    7  C   UNL     1     -11.672  14.582  65.047  1.00  0.00    -0.392 C  
HETATM    8  C   UNL     1     -10.986  16.101  67.922  1.00  0.00    -0.318 C  
HETATM    9  C   UNL     1     -12.186  15.780  69.960  1.00  0.00    -0.309 C  
HETATM   10  C   UNL     1     -12.425  15.609  72.435  1.00  0.00    -0.513 C  
HETATM   11  C   UNL     1     -11.749  15.248  68.803  1.00  0.00    -0.374 C  
HETATM   12  C   UNL     1     -10.992  13.245  67.297  1.00  0.00    -0.284 C  
ENDROOT
BRANCH   2  13
HETATM   13  O   UNL     1     -11.329  11.776  69.809  1.00  0.00    -0.244 OA 
BRANCH  13  14
HETATM   14  C   UNL     1     -11.824  10.579  70.223  1.00  0.00    -0.331 C  
HETATM   15  O   UNL     1     -12.990  10.360  70.554  1.00  0.00    -0.344 OA 
BRANCH  14  16
HETATM   16  C   UNL     1     -10.740   9.502  70.282  1.00  0.00    -0.315 C  
HETATM   17  C   UNL     1     -11.063   8.292  69.389  1.00  0.00     0.088 C  
HETATM   18  C   UNL     1      -9.466  10.211  69.801  1.00  0.00    -0.201 C  
BRANCH  16  19
HETATM   19  C   UNL     1     -10.606   9.042  71.758  1.00  0.00    -0.426 C  
HETATM   20  C   UNL     1      -9.178   8.714  72.177  1.00  0.00    -0.326 C  
ENDBRANCH  16  19
ENDBRANCH  14  16
ENDBRANCH  13  14
ENDBRANCH   2  13
BRANCH  12  21
HETATM   21  C   UNL     1     -11.288  11.791  66.732  1.00  0.00    -0.385 C  
BRANCH  21  22
HETATM   22  C   UNL     1     -10.419  11.415  65.540  1.00  0.00    -0.322 C  
BRANCH  22  23
HETATM   23  C   UNL     1      -9.292  10.392  65.551  1.00  0.00    -0.197 C  
HETATM   24  C   UNL     1      -9.582   8.994  66.035  1.00  0.00    -0.342 C  
HETATM   25  C   UNL     1      -8.387   8.135  65.619  1.00  0.00    -0.143 C  
HETATM   26  O   UNL     1      -8.418   7.891  64.210  1.00  0.00    -0.369 OA 
HETATM   27  C   UNL     1      -7.054   8.742  66.045  1.00  0.00    -0.084 C  
HETATM   28  C   UNL     1      -6.979  10.248  65.934  1.00  0.00    -0.126 C  
HETATM   29  H   UNL     1      -7.677   7.357  63.952  1.00  0.00     0.000 HD 
HETATM   30  O   UNL     1      -5.926  10.843  65.740  1.00  0.00    -0.136 OA 
HETATM   31  O   UNL     1      -8.136  10.907  66.222  1.00  0.00    -0.157 OA 
ENDBRANCH  22  23
ENDBRANCH  21  22
ENDBRANCH  12  21
TORSDOF 7
ENDMDL
MODEL       36
REMARK 921   NORMALIZED FREE ENERGY PREDICTED BY IDOCK:   -6.16 KCAL/MOL
REMARK 922        TOTAL FREE ENERGY PREDICTED BY IDOCK:  -10.17 KCAL/MOL
REMARK 923 INTER-LIGAND FREE ENERGY PREDICTED BY IDOCK:   -9.16 KCAL/MOL
REMARK 924 INTRA-LIGAND FREE ENERGY PREDICTED BY IDOCK:   -1.01 KCAL/MOL
REMARK 927      BINDING AFFINITY PREDICTED BY RF-SCORE:    0.00 PKD
ROOT
HETATM    1  C   UNL     1     -12.528  12.795  70.197  1.00  0.00    -0.126 C  
HETATM    2  C   UNL     1     -11.689  11.851  69.252  1.00  0.00    -0.328 C  
HETATM    3  C   UNL     1     -11.465  10.385  69.667  1.00  0.00    -0.326 C  
HETATM    4  C   UNL     1     -12.789  15.063  71.513  1.00  0.00    -0.422 C  
HETATM    5  C   UNL     1     -12.511   9.768  70.581  1.00  0.00    -0.220 C  
HETATM    6  C   UNL     1     -13.008  14.210  72.726  1.00  0.00    -0.516 C  
HETATM    7  C   UNL     1     -14.183  15.652  71.229  1.00  0.00    -0.083 C  
HETATM    8  C   UNL     1     -13.090  12.880  72.702  1.00  0.00     0.029 C  
HETATM    9  C   UNL     1     -12.912  10.748  71.643  1.00  0.00    -0.581 C  
HETATM   10  C   UNL     1     -11.885   8.516  71.226  1.00  0.00    -0.335 C  
HETATM   11  C   UNL     1     -12.854  12.086  71.517  1.00  0.00    -0.403 C  
HETATM   12  C   UNL     1     -12.010  14.287  70.377  1.00  0.00    -0.402 C  
ENDROOT
BRANCH   2  13
HETATM   13  O   UNL     1     -10.418  12.375  68.829  1.00  0.00    -0.218 OA 
BRANCH  13  14
HETATM   14  C   UNL     1      -9.794  11.806  67.763  1.00  0.00    -0.181 C  
HETATM   15  O   UNL     1      -8.950  10.911  67.819  1.00  0.00    -0.136 OA 
BRANCH  14  16
HETATM   16  C   UNL     1     -10.228  12.442  66.442  1.00  0.00    -0.253 C  
HETATM   17  C   UNL     1      -9.775  11.625  65.219  1.00  0.00    -0.255 C  
HETATM   18  C   UNL     1     -11.760  12.497  66.525  1.00  0.00    -0.454 C  
BRANCH  16  19
HETATM   19  C   UNL     1      -9.616  13.866  66.375  1.00  0.00    -0.292 C  
HETATM   20  C   UNL     1     -10.480  14.878  65.632  1.00  0.00    -0.366 C  
ENDBRANCH  16  19
ENDBRANCH  14  16
ENDBRANCH  13  14
ENDBRANCH   2  13
BRANCH  12  21
HETATM   21  C   UNL     1     -11.793  15.120  69.044  1.00  0.00    -0.331 C  
BRANCH  21  22
HETATM   22  C   UNL     1     -10.977  16.388  69.247  1.00  0.00    -0.322 C  
BRANCH  22  23
HETATM   23  C   UNL     1     -10.114  17.069  68.193  1.00  0.00    -0.308 C  
HETATM   24  C   UNL     1      -8.761  17.602  68.594  1.00  0.00    -0.266 C  
HETATM   25  C   UNL     1      -8.015  17.910  67.295  1.00  0.00    -0.211 C  
HETATM   26  O   UNL     1      -7.597  16.697  66.663  1.00  0.00    -0.223 OA 
HETATM   27  C   UNL     1      -8.835  18.774  66.341  1.00  0.00    -0.298 C  
HETATM   28  C   UNL     1     -10.313  18.457  66.309  1.00  0.00    -0.415 C  
HETATM   29  H   UNL     1      -7.133  16.888  65.856  1.00  0.00     0.000 HD 
HETATM   30  O   UNL     1     -11.008  18.654  65.320  1.00  0.00    -0.536 OA 
HETATM   31  O   UNL     1     -10.851  18.087  67.505  1.00  0.00    -0.379 OA 
ENDBRANCH  22  23
ENDBRANCH  21  22
ENDBRANCH  12  21
TORSDOF 7
ENDMDL
MODEL       37
REMARK 921   NORMALIZED FREE ENERGY PREDICTED BY IDOCK:   -6.15 KCAL/MOL
REMARK 922        TOTAL FREE ENERGY PREDICTED BY IDOCK:  -10.15 KCAL/MOL
REMARK 923 INTER-LIGAND FREE ENERGY PREDICTED BY IDOCK:   -8.96 KCAL/MOL
REMARK 924 INTRA-LIGAND FREE ENERGY PREDICTED BY IDOCK:   -1.20 KCAL/MOL
REMARK 927      BINDING AFFINITY PREDICTED BY RF-SCORE:    0.00 PKD
ROOT
HETATM    1  C   UNL     1     -10.347  11.793  65.661  1.00  0.00    -0.293 C  
HETATM    2  C   UNL     1      -9.548  10.876  66.665  1.00  0.00    -0.185 C  
HETATM    3  C   UNL     1      -8.854   9.609  66.129  1.00  0.00    -0.173 C  
HETATM    4  C   UNL     1     -12.539  13.106  65.017  1.00  0.00    -0.499 C  
HETATM    5  C   UNL     1      -8.452   9.620  64.664  1.00  0.00    -0.183 C  
HETATM    6  C   UNL     1     -12.514  12.311  63.746  1.00  0.00    -0.619 C  
HETATM    7  C   UNL     1     -12.160  14.527  64.562  1.00  0.00    -0.501 C  
HETATM    8  C   UNL     1     -11.534  11.474  63.406  1.00  0.00    -0.274 C  
HETATM    9  C   UNL     1      -9.540  10.232  63.833  1.00  0.00    -0.354 C  
HETATM   10  C   UNL     1      -8.217   8.159  64.235  1.00  0.00    -0.095 C  
HETATM   11  C   UNL     1     -10.432  11.136  64.279  1.00  0.00    -0.427 C  
HETATM   12  C   UNL     1     -11.725  12.399  66.173  1.00  0.00    -0.460 C  
ENDROOT
BRANCH   2  13
HETATM   13  O   UNL     1     -10.259  10.503  67.858  1.00  0.00    -0.170 OA 
BRANCH  13  14
HETATM   14  C   UNL     1      -9.563  10.346  69.016  1.00  0.00    -0.204 C  
HETATM   15  O   UNL     1      -8.457  10.831  69.260  1.00  0.00    -0.135 OA 
BRANCH  14  16
HETATM   16  C   UNL     1     -10.295   9.438  70.003  1.00  0.00    -0.265 C  
HETATM   17  C   UNL     1      -9.467   9.156  71.269  1.00  0.00    -0.313 C  
HETATM   18  C   UNL     1     -11.581  10.202  70.351  1.00  0.00    -0.396 C  
BRANCH  16  19
HETATM   19  C   UNL     1     -10.612   8.103  69.279  1.00  0.00    -0.191 C  
HETATM   20  C   UNL     1     -11.142   7.009  70.198  1.00  0.00    -0.323 C  
ENDBRANCH  16  19
ENDBRANCH  14  16
ENDBRANCH  13  14
ENDBRANCH   2  13
BRANCH  12  21
HETATM   21  C   UNL     1     -11.670  13.219  67.532  1.00  0.00    -0.410 C  
BRANCH  21  22
HETATM   22  C   UNL     1     -11.091  14.617  67.374  1.00  0.00    -0.331 C  
BRANCH  22  23
HETATM   23  C   UNL     1      -9.610  14.967  67.337  1.00  0.00    -0.206 C  
HETATM   24  C   UNL     1      -8.724  14.499  68.465  1.00  0.00    -0.177 C  
HETATM   25  C   UNL     1      -7.283  14.699  67.994  1.00  0.00    -0.140 C  
HETATM   26  O   UNL     1      -6.938  13.710  67.019  1.00  0.00    -0.400 OA 
HETATM   27  C   UNL     1      -7.030  16.107  67.465  1.00  0.00    -0.196 C  
HETATM   28  C   UNL     1      -8.174  16.703  66.676  1.00  0.00    -0.266 C  
HETATM   29  H   UNL     1      -6.043  13.834  66.726  1.00  0.00     0.000 HD 
HETATM   30  O   UNL     1      -8.003  17.536  65.795  1.00  0.00    -0.548 OA 
HETATM   31  O   UNL     1      -9.417  16.370  67.120  1.00  0.00    -0.226 OA 
ENDBRANCH  22  23
ENDBRANCH  21  22
ENDBRANCH  12  21
TORSDOF 7
ENDMDL
MODEL       38
REMARK 921   NORMALIZED FREE ENERGY PREDICTED BY IDOCK:   -6.13 KCAL/MOL
REMARK 922        TOTAL FREE ENERGY PREDICTED BY IDOCK:  -10.14 KCAL/MOL
REMARK 923 INTER-LIGAND FREE ENERGY PREDICTED BY IDOCK:   -8.78 KCAL/MOL
REMARK 924 INTRA-LIGAND FREE ENERGY PREDICTED BY IDOCK:   -1.36 KCAL/MOL
REMARK 927      BINDING AFFINITY PREDICTED BY RF-SCORE:    0.00 PKD
ROOT
HETATM    1  C   UNL     1     -10.907   8.155  68.630  1.00  0.00     0.037 C  
HETATM    2  C   UNL     1     -10.721   7.782  67.108  1.00  0.00    -0.267 C  
HETATM    3  C   UNL     1     -10.048   6.445  66.743  1.00  0.00    -0.239 C  
HETATM    4  C   UNL     1     -10.637   9.872  70.610  1.00  0.00    -0.341 C  
HETATM    5  C   UNL     1     -10.155   5.327  67.767  1.00  0.00    -0.205 C  
HETATM    6  C   UNL     1      -9.891   8.780  71.315  1.00  0.00    -0.336 C  
HETATM    7  C   UNL     1     -11.965   9.961  71.384  1.00  0.00    -0.489 C  
HETATM    8  C   UNL     1      -9.751   7.542  70.840  1.00  0.00    -0.173 C  
HETATM    9  C   UNL     1      -9.942   5.868  69.149  1.00  0.00    -0.214 C  
HETATM   10  C   UNL     1      -9.069   4.285  67.433  1.00  0.00    -0.155 C  
HETATM   11  C   UNL     1     -10.197   7.134  69.527  1.00  0.00    -0.201 C  
HETATM   12  C   UNL     1     -10.645   9.667  69.042  1.00  0.00    -0.237 C  
ENDROOT
BRANCH   2  13
HETATM   13  O   UNL     1     -10.117   8.801  66.293  1.00  0.00    -0.291 OA 
BRANCH  13  14
HETATM   14  C   UNL     1      -8.769   8.786  66.114  1.00  0.00    -0.160 C  
HETATM   15  O   UNL     1      -7.943   8.353  66.917  1.00  0.00    -0.097 OA 
BRANCH  14  16
HETATM   16  C   UNL     1      -8.363   9.426  64.786  1.00  0.00    -0.159 C  
HETATM   17  C   UNL     1      -7.091  10.281  64.909  1.00  0.00    -0.099 C  
HETATM   18  C   UNL     1      -8.133   8.238  63.840  1.00  0.00    -0.124 C  
BRANCH  16  19
HETATM   19  C   UNL     1      -9.543  10.310  64.302  1.00  0.00    -0.375 C  
HETATM   20  C   UNL     1      -9.592  10.506  62.791  1.00  0.00    -0.323 C  
ENDBRANCH  16  19
ENDBRANCH  14  16
ENDBRANCH  13  14
ENDBRANCH   2  13
BRANCH  12  21
HETATM   21  C   UNL     1     -11.466  10.766  68.242  1.00  0.00    -0.353 C  
BRANCH  21  22
HETATM   22  C   UNL     1     -10.589  11.833  67.604  1.00  0.00    -0.237 C  
BRANCH  22  23
HETATM   23  C   UNL     1     -10.985  12.730  66.439  1.00  0.00    -0.276 C  
HETATM   24  C   UNL     1     -10.970  14.225  66.634  1.00  0.00    -0.310 C  
HETATM   25  C   UNL     1     -11.077  14.845  65.240  1.00  0.00    -0.378 C  
HETATM   26  O   UNL     1      -9.840  14.702  64.537  1.00  0.00    -0.508 OA 
HETATM   27  C   UNL     1     -12.239  14.273  64.435  1.00  0.00    -0.471 C  
HETATM   28  C   UNL     1     -12.475  12.792  64.625  1.00  0.00    -0.456 C  
HETATM   29  H   UNL     1      -9.906  15.087  63.672  1.00  0.00     0.000 HD 
HETATM   30  O   UNL     1     -12.974  12.087  63.756  1.00  0.00    -0.709 OA 
HETATM   31  O   UNL     1     -12.243  12.327  65.883  1.00  0.00    -0.634 OA 
ENDBRANCH  22  23
ENDBRANCH  21  22
ENDBRANCH  12  21
TORSDOF 7
ENDMDL
MODEL       39
REMARK 921   NORMALIZED FREE ENERGY PREDICTED BY IDOCK:   -6.10 KCAL/MOL
REMARK 922        TOTAL FREE ENERGY PREDICTED BY IDOCK:  -10.09 KCAL/MOL
REMARK 923 INTER-LIGAND FREE ENERGY PREDICTED BY IDOCK:   -8.30 KCAL/MOL
REMARK 924 INTRA-LIGAND FREE ENERGY PREDICTED BY IDOCK:   -1.79 KCAL/MOL
REMARK 927      BINDING AFFINITY PREDICTED BY RF-SCORE:    0.00 PKD
ROOT
HETATM    1  C   UNL     1     -10.645   8.233  69.222  1.00  0.00    -0.191 C  
HETATM    2  C   UNL     1      -9.727   7.763  68.028  1.00  0.00    -0.154 C  
HETATM    3  C   UNL     1      -9.257   6.297  67.979  1.00  0.00    -0.116 C  
HETATM    4  C   UNL     1     -11.176   9.932  71.164  1.00  0.00    -0.404 C  
HETATM    5  C   UNL     1     -10.141   5.274  68.672  1.00  0.00    -0.238 C  
HETATM    6  C   UNL     1     -11.191   8.734  72.065  1.00  0.00    -0.443 C  
HETATM    7  C   UNL     1     -12.658  10.342  71.083  1.00  0.00    -0.512 C  
HETATM    8  C   UNL     1     -11.069   7.476  71.639  1.00  0.00    -0.270 C  
HETATM    9  C   UNL     1     -10.627   5.814  69.984  1.00  0.00    -0.380 C  
HETATM   10  C   UNL     1      -9.295   4.007  68.902  1.00  0.00    -0.230 C  
HETATM   11  C   UNL     1     -10.783   7.120  70.268  1.00  0.00    -0.258 C  
HETATM   12  C   UNL     1     -10.353   9.667  69.840  1.00  0.00    -0.282 C  
ENDROOT
BRANCH   2  13
HETATM   13  O   UNL     1      -8.578   8.590  67.773  1.00  0.00    -0.132 OA 
BRANCH  13  14
HETATM   14  C   UNL     1      -8.188   8.793  66.487  1.00  0.00    -0.111 C  
HETATM   15  O   UNL     1      -8.845   8.512  65.484  1.00  0.00    -0.178 OA 
BRANCH  14  16
HETATM   16  C   UNL     1      -6.781   9.386  66.404  1.00  0.00    -0.075 C  
HETATM   17  C   UNL     1      -5.683   8.315  66.521  1.00  0.00    -0.043 C  
HETATM   18  C   UNL     1      -6.731  10.071  65.030  1.00  0.00    -0.128 C  
BRANCH  16  19
HETATM   19  C   UNL     1      -6.629  10.418  67.553  1.00  0.00    -0.066 C  
HETATM   20  C   UNL     1      -6.750  11.869  67.104  1.00  0.00    -0.142 C  
ENDBRANCH  16  19
ENDBRANCH  14  16
ENDBRANCH  13  14
ENDBRANCH   2  13
BRANCH  12  21
HETATM   21  C   UNL     1     -10.343  10.883  68.820  1.00  0.00    -0.215 C  
BRANCH  21  22
HETATM   22  C   UNL     1     -11.378  10.754  67.712  1.00  0.00    -0.354 C  
BRANCH  22  23
HETATM   23  C   UNL     1     -11.388  11.540  66.408  1.00  0.00    -0.176 C  
HETATM   24  C   UNL     1     -10.101  11.678  65.632  1.00  0.00    -0.278 C  
HETATM   25  C   UNL     1     -10.485  12.206  64.249  1.00  0.00    -0.339 C  
HETATM   26  O   UNL     1     -11.100  11.172  63.476  1.00  0.00    -0.606 OA 
HETATM   27  C   UNL     1     -11.375  13.443  64.322  1.00  0.00    -0.420 C  
HETATM   28  C   UNL     1     -12.397  13.424  65.436  1.00  0.00    -0.477 C  
HETATM   29  H   UNL     1     -11.337  11.499  62.617  1.00  0.00     0.000 HD 
HETATM   30  O   UNL     1     -13.464  14.022  65.361  1.00  0.00    -0.679 OA 
HETATM   31  O   UNL     1     -11.984  12.830  66.589  1.00  0.00    -0.405 OA 
ENDBRANCH  22  23
ENDBRANCH  21  22
ENDBRANCH  12  21
TORSDOF 7
ENDMDL
MODEL       40
REMARK 921   NORMALIZED FREE ENERGY PREDICTED BY IDOCK:   -6.08 KCAL/MOL
REMARK 922        TOTAL FREE ENERGY PREDICTED BY IDOCK:  -10.07 KCAL/MOL
REMARK 923 INTER-LIGAND FREE ENERGY PREDICTED BY IDOCK:   -8.81 KCAL/MOL
REMARK 924 INTRA-LIGAND FREE ENERGY PREDICTED BY IDOCK:   -1.25 KCAL/MOL
REMARK 927      BINDING AFFINITY PREDICTED BY RF-SCORE:    0.00 PKD
ROOT
HETATM    1  C   UNL     1      -8.890  13.303  68.147  1.00  0.00    -0.187 C  
HETATM    2  C   UNL     1      -9.857  14.482  68.550  1.00  0.00    -0.231 C  
HETATM    3  C   UNL     1      -9.259  15.871  68.845  1.00  0.00    -0.232 C  
HETATM    4  C   UNL     1      -8.046  10.827  68.471  1.00  0.00    -0.133 C  
HETATM    5  C   UNL     1      -7.938  16.201  68.172  1.00  0.00    -0.148 C  
HETATM    6  C   UNL     1      -6.687  11.429  68.666  1.00  0.00    -0.070 C  
HETATM    7  C   UNL     1      -7.946  10.145  67.094  1.00  0.00    -0.109 C  
HETATM    8  C   UNL     1      -6.416  12.726  68.524  1.00  0.00    -0.082 C  
HETATM    9  C   UNL     1      -7.021  15.015  68.220  1.00  0.00    -0.118 C  
HETATM   10  C   UNL     1      -7.311  17.386  68.932  1.00  0.00    -0.244 C  
HETATM   11  C   UNL     1      -7.425  13.733  68.285  1.00  0.00    -0.120 C  
HETATM   12  C   UNL     1      -9.201  11.869  68.758  1.00  0.00     0.025 C  
ENDROOT
BRANCH   2  13
HETATM   13  O   UNL     1     -10.786  14.182  69.606  1.00  0.00    -0.156 OA 
BRANCH  13  14
HETATM   14  C   UNL     1     -11.945  14.890  69.681  1.00  0.00    -0.320 C  
HETATM   15  O   UNL     1     -12.421  15.586  68.784  1.00  0.00     0.018 OA 
BRANCH  14  16
HETATM   16  C   UNL     1     -12.599  14.769  71.058  1.00  0.00    -0.401 C  
HETATM   17  C   UNL     1     -14.018  15.362  71.089  1.00  0.00    -0.410 C  
HETATM   18  C   UNL     1     -12.632  13.259  71.338  1.00  0.00    -0.365 C  
BRANCH  16  19
HETATM   19  C   UNL     1     -11.699  15.512  72.081  1.00  0.00    -0.566 C  
HETATM   20  C   UNL     1     -12.250  15.519  73.501  1.00  0.00    -0.651 C  
ENDBRANCH  16  19
ENDBRANCH  14  16
ENDBRANCH  13  14
ENDBRANCH   2  13
BRANCH  12  21
HETATM   21  C   UNL     1     -10.666  11.306  68.518  1.00  0.00    -0.235 C  
BRANCH  21  22
HETATM   22  C   UNL     1     -10.883  10.759  67.115  1.00  0.00    -0.335 C  
BRANCH  22  23
HETATM   23  C   UNL     1     -11.262  11.580  65.889  1.00  0.00    -0.177 C  
HETATM   24  C   UNL     1     -10.230  11.794  64.810  1.00  0.00    -0.324 C  
HETATM   25  C   UNL     1     -10.981  12.343  63.596  1.00  0.00    -0.470 C  
HETATM   26  O   UNL     1     -11.741  11.304  62.972  1.00  0.00    -0.863 OA 
HETATM   27  C   UNL     1     -11.863  13.537  63.946  1.00  0.00    -0.460 C  
HETATM   28  C   UNL     1     -12.556  13.444  65.286  1.00  0.00    -0.464 C  
HETATM   29  H   UNL     1     -12.207  11.645  62.218  1.00  0.00     0.000 HD 
HETATM   30  O   UNL     1     -13.625  13.996  65.516  1.00  0.00    -0.596 OA 
HETATM   31  O   UNL     1     -11.835  12.837  66.269  1.00  0.00    -0.390 OA 
ENDBRANCH  22  23
ENDBRANCH  21  22
ENDBRANCH  12  21
TORSDOF 7
ENDMDL
MODEL       41
REMARK 921   NORMALIZED FREE ENERGY PREDICTED BY IDOCK:   -6.07 KCAL/MOL
REMARK 922        TOTAL FREE ENERGY PREDICTED BY IDOCK:  -10.05 KCAL/MOL
REMARK 923 INTER-LIGAND FREE ENERGY PREDICTED BY IDOCK:   -8.81 KCAL/MOL
REMARK 924 INTRA-LIGAND FREE ENERGY PREDICTED BY IDOCK:   -1.24 KCAL/MOL
REMARK 927      BINDING AFFINITY PREDICTED BY RF-SCORE:    0.00 PKD
ROOT
HETATM    1  C   UNL     1     -11.562  11.522  70.228  1.00  0.00    -0.305 C  
HETATM    2  C   UNL     1     -11.602  12.724  69.207  1.00  0.00    -0.314 C  
HETATM    3  C   UNL     1     -12.469  13.954  69.535  1.00  0.00    -0.141 C  
HETATM    4  C   UNL     1     -11.761   8.943  70.729  1.00  0.00    -0.269 C  
HETATM    5  C   UNL     1     -12.733  14.230  71.005  1.00  0.00    -0.430 C  
HETATM    6  C   UNL     1     -12.801   9.327  71.738  1.00  0.00    -0.461 C  
HETATM    7  C   UNL     1     -10.564   8.504  71.594  1.00  0.00    -0.353 C  
HETATM    8  C   UNL     1     -13.116  10.585  72.045  1.00  0.00    -0.511 C  
HETATM    9  C   UNL     1     -13.026  12.949  71.728  1.00  0.00    -0.416 C  
HETATM   10  C   UNL     1     -13.946  15.176  71.091  1.00  0.00    -0.487 C  
HETATM   11  C   UNL     1     -12.580  11.735  71.355  1.00  0.00    -0.367 C  
HETATM   12  C   UNL     1     -11.572  10.053  69.620  1.00  0.00    -0.156 C  
ENDROOT
BRANCH   2  13
HETATM   13  O   UNL     1     -11.869  12.363  67.841  1.00  0.00    -0.351 OA 
BRANCH  13  14
HETATM   14  C   UNL     1     -11.687  13.294  66.868  1.00  0.00    -0.388 C  
HETATM   15  O   UNL     1     -12.445  14.234  66.622  1.00  0.00    -0.407 OA 
BRANCH  14  16
HETATM   16  C   UNL     1     -10.426  13.025  66.048  1.00  0.00    -0.289 C  
HETATM   17  C   UNL     1     -10.339  11.567  65.564  1.00  0.00    -0.322 C  
HETATM   18  C   UNL     1     -10.526  13.990  64.857  1.00  0.00    -0.453 C  
BRANCH  16  19
HETATM   19  C   UNL     1      -9.199  13.354  66.938  1.00  0.00    -0.251 C  
HETATM   20  C   UNL     1      -8.262  12.173  67.165  1.00  0.00    -0.182 C  
ENDBRANCH  16  19
ENDBRANCH  14  16
ENDBRANCH  13  14
ENDBRANCH   2  13
BRANCH  12  21
HETATM   21  C   UNL     1     -10.445   9.728  68.551  1.00  0.00    -0.239 C  
BRANCH  21  22
HETATM   22  C   UNL     1     -10.766   8.524  67.678  1.00  0.00    -0.189 C  
BRANCH  22  23
HETATM   23  C   UNL     1     -10.165   7.133  67.825  1.00  0.00    -0.184 C  
HETATM   24  C   UNL     1      -9.896   6.321  66.583  1.00  0.00    -0.201 C  
HETATM   25  C   UNL     1      -9.006   5.154  67.012  1.00  0.00    -0.112 C  
HETATM   26  O   UNL     1      -7.676   5.613  67.269  1.00  0.00    -0.098 OA 
HETATM   27  C   UNL     1      -9.570   4.400  68.212  1.00  0.00    -0.199 C  
HETATM   28  C   UNL     1     -10.232   5.272  69.255  1.00  0.00    -0.231 C  
HETATM   29  H   UNL     1      -7.123   4.888  67.535  1.00  0.00     0.000 HD 
HETATM   30  O   UNL     1     -10.282   4.961  70.439  1.00  0.00    -0.247 OA 
HETATM   31  O   UNL     1     -10.908   6.348  68.765  1.00  0.00    -0.256 OA 
ENDBRANCH  22  23
ENDBRANCH  21  22
ENDBRANCH  12  21
TORSDOF 7
ENDMDL
MODEL       42
REMARK 921   NORMALIZED FREE ENERGY PREDICTED BY IDOCK:   -6.07 KCAL/MOL
REMARK 922        TOTAL FREE ENERGY PREDICTED BY IDOCK:  -10.04 KCAL/MOL
REMARK 923 INTER-LIGAND FREE ENERGY PREDICTED BY IDOCK:   -9.43 KCAL/MOL
REMARK 924 INTRA-LIGAND FREE ENERGY PREDICTED BY IDOCK:   -0.61 KCAL/MOL
REMARK 927      BINDING AFFINITY PREDICTED BY RF-SCORE:    0.00 PKD
ROOT
HETATM    1  C   UNL     1     -10.361  10.559  69.438  1.00  0.00    -0.258 C  
HETATM    2  C   UNL     1     -11.292  11.056  70.611  1.00  0.00     0.119 C  
HETATM    3  C   UNL     1     -12.173  10.032  71.351  1.00  0.00    -0.510 C  
HETATM    4  C   UNL     1      -9.486  10.787  66.964  1.00  0.00    -0.186 C  
HETATM    5  C   UNL     1     -11.685   8.593  71.360  1.00  0.00    -0.355 C  
HETATM    6  C   UNL     1      -9.892   9.353  66.800  1.00  0.00    -0.280 C  
HETATM    7  C   UNL     1      -7.947  10.728  66.967  1.00  0.00    -0.124 C  
HETATM    8  C   UNL     1     -10.354   8.589  67.790  1.00  0.00    -0.298 C  
HETATM    9  C   UNL     1     -11.154   8.218  70.008  1.00  0.00    -0.147 C  
HETATM   10  C   UNL     1     -12.885   7.697  71.724  1.00  0.00    -0.357 C  
HETATM   11  C   UNL     1     -10.636   9.085  69.118  1.00  0.00    -0.219 C  
HETATM   12  C   UNL     1     -10.255  11.488  68.154  1.00  0.00    -0.205 C  
ENDROOT
BRANCH   2  13
HETATM   13  O   UNL     1     -12.120  12.190  70.301  1.00  0.00    -0.339 OA 
BRANCH  13  14
HETATM   14  C   UNL     1     -12.861  12.753  71.293  1.00  0.00    -0.262 C  
HETATM   15  O   UNL     1     -13.531  12.140  72.125  1.00  0.00    -0.494 OA 
BRANCH  14  16
HETATM   16  C   UNL     1     -12.815  14.280  71.243  1.00  0.00    -0.422 C  
HETATM   17  C   UNL     1     -14.169  14.921  71.595  1.00  0.00    -0.633 C  
HETATM   18  C   UNL     1     -11.743  14.668  72.272  1.00  0.00    -0.062 C  
BRANCH  16  19
HETATM   19  C   UNL     1     -12.397  14.698  69.808  1.00  0.00    -0.306 C  
HETATM   20  C   UNL     1     -11.510  15.936  69.757  1.00  0.00    -0.342 C  
ENDBRANCH  16  19
ENDBRANCH  14  16
ENDBRANCH  13  14
ENDBRANCH   2  13
BRANCH  12  21
HETATM   21  C   UNL     1      -9.829  12.996  68.411  1.00  0.00    -0.203 C  
BRANCH  21  22
HETATM   22  C   UNL     1      -9.570  13.780  67.133  1.00  0.00    -0.244 C  
BRANCH  22  23
HETATM   23  C   UNL     1     -10.618  14.165  66.098  1.00  0.00    -0.293 C  
HETATM   24  C   UNL     1     -11.218  13.085  65.232  1.00  0.00    -0.316 C  
HETATM   25  C   UNL     1     -12.442  13.702  64.556  1.00  0.00    -0.287 C  
HETATM   26  O   UNL     1     -13.509  13.847  65.498  1.00  0.00    -0.657 OA 
HETATM   27  C   UNL     1     -12.126  15.029  63.872  1.00  0.00     0.058 C  
HETATM   28  C   UNL     1     -11.148  15.909  64.618  1.00  0.00    -0.354 C  
HETATM   29  H   UNL     1     -14.270  14.231  65.077  1.00  0.00     0.000 HD 
HETATM   30  O   UNL     1     -11.155  17.130  64.522  1.00  0.00    -1.105 OA 
HETATM   31  O   UNL     1     -10.159  15.245  65.277  1.00  0.00    -0.350 OA 
ENDBRANCH  22  23
ENDBRANCH  21  22
ENDBRANCH  12  21
TORSDOF 7
ENDMDL
MODEL       43
REMARK 921   NORMALIZED FREE ENERGY PREDICTED BY IDOCK:   -6.06 KCAL/MOL
REMARK 922        TOTAL FREE ENERGY PREDICTED BY IDOCK:  -10.03 KCAL/MOL
REMARK 923 INTER-LIGAND FREE ENERGY PREDICTED BY IDOCK:   -8.52 KCAL/MOL
REMARK 924 INTRA-LIGAND FREE ENERGY PREDICTED BY IDOCK:   -1.52 KCAL/MOL
REMARK 927      BINDING AFFINITY PREDICTED BY RF-SCORE:    0.00 PKD
ROOT
HETATM    1  C   UNL     1      -7.944  16.643  67.149  1.00  0.00    -0.212 C  
HETATM    2  C   UNL     1      -9.221  16.959  66.278  1.00  0.00    -0.267 C  
HETATM    3  C   UNL     1      -9.822  18.376  66.320  1.00  0.00    -0.338 C  
HETATM    4  C   UNL     1      -6.691  15.122  68.897  1.00  0.00    -0.110 C  
HETATM    5  C   UNL     1      -8.872  19.510  66.669  1.00  0.00    -0.388 C  
HETATM    6  C   UNL     1      -6.519  16.374  69.704  1.00  0.00    -0.201 C  
HETATM    7  C   UNL     1      -5.270  14.827  68.381  1.00  0.00    -0.111 C  
HETATM    8  C   UNL     1      -6.884  17.587  69.289  1.00  0.00    -0.196 C  
HETATM    9  C   UNL     1      -7.963  19.097  67.788  1.00  0.00    -0.305 C  
HETATM   10  C   UNL     1      -9.727  20.717  67.099  1.00  0.00    -0.457 C  
HETATM   11  C   UNL     1      -7.604  17.828  68.060  1.00  0.00    -0.236 C  
HETATM   12  C   UNL     1      -7.897  15.233  67.881  1.00  0.00    -0.149 C  
ENDROOT
BRANCH   2  13
HETATM   13  O   UNL     1     -10.308  16.028  66.419  1.00  0.00    -0.286 OA 
BRANCH  13  14
HETATM   14  C   UNL     1     -11.041  15.702  65.321  1.00  0.00    -0.303 C  
HETATM   15  O   UNL     1     -11.283  16.448  64.372  1.00  0.00    -0.807 OA 
BRANCH  14  16
HETATM   16  C   UNL     1     -11.592  14.278  65.404  1.00  0.00    -0.346 C  
HETATM   17  C   UNL     1     -11.858  13.834  66.853  1.00  0.00    -0.447 C  
HETATM   18  C   UNL     1     -12.898  14.323  64.598  1.00  0.00     0.032 C  
BRANCH  16  19
HETATM   19  C   UNL     1     -10.557  13.327  64.748  1.00  0.00    -0.402 C  
HETATM   20  C   UNL     1     -11.150  12.398  63.695  1.00  0.00    -0.535 C  
ENDBRANCH  16  19
ENDBRANCH  14  16
ENDBRANCH  13  14
ENDBRANCH   2  13
BRANCH  12  21
HETATM   21  C   UNL     1      -8.097  13.956  66.959  1.00  0.00    -0.016 C  
BRANCH  21  22
HETATM   22  C   UNL     1      -8.127  12.647  67.734  1.00  0.00    -0.166 C  
BRANCH  22  23
HETATM   23  C   UNL     1      -9.071  11.481  67.475  1.00  0.00    -0.166 C  
HETATM   24  C   UNL     1      -9.519  10.635  68.640  1.00  0.00    -0.176 C  
HETATM   25  C   UNL     1     -10.689   9.788  68.135  1.00  0.00    -0.233 C  
HETATM   26  O   UNL     1     -11.859  10.597  67.987  1.00  0.00    -0.755 OA 
HETATM   27  C   UNL     1     -10.360   9.050  66.841  1.00  0.00    -0.324 C  
HETATM   28  C   UNL     1      -9.513   9.832  65.863  1.00  0.00    -0.226 C  
HETATM   29  H   UNL     1     -12.585  10.071  67.674  1.00  0.00     0.000 HD 
HETATM   30  O   UNL     1      -9.567   9.650  64.653  1.00  0.00    -0.247 OA 
HETATM   31  O   UNL     1      -8.573  10.639  66.428  1.00  0.00    -0.140 OA 
ENDBRANCH  22  23
ENDBRANCH  21  22
ENDBRANCH  12  21
TORSDOF 7
ENDMDL
MODEL       44
REMARK 921   NORMALIZED FREE ENERGY PREDICTED BY IDOCK:   -6.04 KCAL/MOL
REMARK 922        TOTAL FREE ENERGY PREDICTED BY IDOCK:  -10.00 KCAL/MOL
REMARK 923 INTER-LIGAND FREE ENERGY PREDICTED BY IDOCK:   -8.62 KCAL/MOL
REMARK 924 INTRA-LIGAND FREE ENERGY PREDICTED BY IDOCK:   -1.39 KCAL/MOL
REMARK 927      BINDING AFFINITY PREDICTED BY RF-SCORE:    0.00 PKD
ROOT
HETATM    1  C   UNL     1      -8.408   8.745  68.368  1.00  0.00    -0.126 C  
HETATM    2  C   UNL     1      -8.060   9.020  69.882  1.00  0.00    -0.117 C  
HETATM    3  C   UNL     1      -7.466   7.880  70.730  1.00  0.00    -0.072 C  
HETATM    4  C   UNL     1     -10.109   8.851  66.359  1.00  0.00    -0.333 C  
HETATM    5  C   UNL     1      -6.697   6.804  69.983  1.00  0.00    -0.049 C  
HETATM    6  C   UNL     1      -9.880   7.376  66.226  1.00  0.00    -0.042 C  
HETATM    7  C   UNL     1      -9.398   9.440  65.126  1.00  0.00    -0.288 C  
HETATM    8  C   UNL     1      -8.995   6.688  66.947  1.00  0.00    -0.131 C  
HETATM    9  C   UNL     1      -7.413   6.439  68.717  1.00  0.00    -0.088 C  
HETATM   10  C   UNL     1      -6.598   5.575  70.908  1.00  0.00    -0.043 C  
HETATM   11  C   UNL     1      -8.232   7.260  68.033  1.00  0.00    -0.120 C  
HETATM   12  C   UNL     1      -9.754   9.377  67.806  1.00  0.00    -0.182 C  
ENDROOT
BRANCH   2  13
HETATM   13  O   UNL     1      -9.111   9.626  70.654  1.00  0.00    -0.220 OA 
BRANCH  13  14
HETATM   14  C   UNL     1      -9.661   8.923  71.680  1.00  0.00    -0.309 C  
HETATM   15  O   UNL     1      -9.111   8.668  72.752  1.00  0.00    -0.327 OA 
BRANCH  14  16
HETATM   16  C   UNL     1     -11.066   8.425  71.341  1.00  0.00    -0.312 C  
HETATM   17  C   UNL     1     -11.052   7.274  70.319  1.00  0.00    -0.289 C  
HETATM   18  C   UNL     1     -11.643   7.954  72.684  1.00  0.00    -0.435 C  
BRANCH  16  19
HETATM   19  C   UNL     1     -11.872   9.621  70.770  1.00  0.00    -0.378 C  
HETATM   20  C   UNL     1     -12.922  10.175  71.726  1.00  0.00    -0.567 C  
ENDBRANCH  16  19
ENDBRANCH  14  16
ENDBRANCH  13  14
ENDBRANCH   2  13
BRANCH  12  21
HETATM   21  C   UNL     1      -9.926  10.945  67.995  1.00  0.00    -0.188 C  
BRANCH  21  22
HETATM   22  C   UNL     1     -11.251  11.477  67.470  1.00  0.00    -0.360 C  
BRANCH  22  23
HETATM   23  C   UNL     1     -11.417  12.545  66.398  1.00  0.00    -0.365 C  
HETATM   24  C   UNL     1     -11.484  13.993  66.817  1.00  0.00    -0.379 C  
HETATM   25  C   UNL     1     -11.313  14.821  65.543  1.00  0.00    -0.343 C  
HETATM   26  O   UNL     1      -9.952  14.780  65.105  1.00  0.00    -0.403 OA 
HETATM   27  C   UNL     1     -12.263  14.387  64.432  1.00  0.00    -0.481 C  
HETATM   28  C   UNL     1     -12.494  12.895  64.340  1.00  0.00    -0.375 C  
HETATM   29  H   UNL     1      -9.845  15.295  64.313  1.00  0.00     0.000 HD 
HETATM   30  O   UNL     1     -12.780  12.336  63.289  1.00  0.00    -0.699 OA 
HETATM   31  O   UNL     1     -12.519  12.240  65.534  1.00  0.00    -0.597 OA 
ENDBRANCH  22  23
ENDBRANCH  21  22
ENDBRANCH  12  21
TORSDOF 7
ENDMDL
MODEL       45
REMARK 921   NORMALIZED FREE ENERGY PREDICTED BY IDOCK:   -6.03 KCAL/MOL
REMARK 922        TOTAL FREE ENERGY PREDICTED BY IDOCK:   -9.99 KCAL/MOL
REMARK 923 INTER-LIGAND FREE ENERGY PREDICTED BY IDOCK:   -8.90 KCAL/MOL
REMARK 924 INTRA-LIGAND FREE ENERGY PREDICTED BY IDOCK:   -1.09 KCAL/MOL
REMARK 927      BINDING AFFINITY PREDICTED BY RF-SCORE:    0.00 PKD
ROOT
HETATM    1  C   UNL     1     -11.262  13.123  70.071  1.00  0.00     0.174 C  
HETATM    2  C   UNL     1     -11.326  14.683  69.848  1.00  0.00    -0.259 C  
HETATM    3  C   UNL     1     -12.452  15.489  70.523  1.00  0.00    -0.472 C  
HETATM    4  C   UNL     1     -11.074  10.682  69.098  1.00  0.00    -0.309 C  
HETATM    5  C   UNL     1     -13.040  14.904  71.796  1.00  0.00    -0.425 C  
HETATM    6  C   UNL     1     -12.341  10.400  69.846  1.00  0.00    -0.176 C  
HETATM    7  C   UNL     1     -10.006   9.905  69.890  1.00  0.00    -0.292 C  
HETATM    8  C   UNL     1     -12.937  11.268  70.664  1.00  0.00    -0.109 C  
HETATM    9  C   UNL     1     -13.226  13.423  71.648  1.00  0.00    -0.449 C  
HETATM   10  C   UNL     1     -14.401  15.586  72.037  1.00  0.00    -0.600 C  
HETATM   11  C   UNL     1     -12.499  12.635  70.834  1.00  0.00    -0.368 C  
HETATM   12  C   UNL     1     -10.884  12.226  68.815  1.00  0.00    -0.266 C  
ENDROOT
BRANCH   2  13
HETATM   13  O   UNL     1     -11.255  15.113  68.477  1.00  0.00    -0.264 OA 
BRANCH  13  14
HETATM   14  C   UNL     1     -10.886  16.393  68.209  1.00  0.00    -0.347 C  
HETATM   15  O   UNL     1     -11.627  17.377  68.243  1.00  0.00     0.345 OA 
BRANCH  14  16
HETATM   16  C   UNL     1      -9.416  16.490  67.800  1.00  0.00    -0.222 C  
HETATM   17  C   UNL     1      -8.484  15.747  68.773  1.00  0.00    -0.198 C  
HETATM   18  C   UNL     1      -9.362  15.856  66.402  1.00  0.00    -0.329 C  
BRANCH  16  19
HETATM   19  C   UNL     1      -9.031  17.992  67.752  1.00  0.00    -0.255 C  
HETATM   20  C   UNL     1      -8.086  18.355  66.613  1.00  0.00    -0.282 C  
ENDBRANCH  16  19
ENDBRANCH  14  16
ENDBRANCH  13  14
ENDBRANCH   2  13
BRANCH  12  21
HETATM   21  C   UNL     1      -9.532  12.595  68.070  1.00  0.00    -0.209 C  
BRANCH  21  22
HETATM   22  C   UNL     1      -9.461  12.065  66.645  1.00  0.00    -0.222 C  
BRANCH  22  23
HETATM   23  C   UNL     1     -10.454  12.370  65.532  1.00  0.00    -0.275 C  
HETATM   24  C   UNL     1      -9.939  12.542  64.125  1.00  0.00    -0.226 C  
HETATM   25  C   UNL     1     -11.163  12.499  63.208  1.00  0.00    -0.265 C  
HETATM   26  O   UNL     1     -11.656  11.161  63.102  1.00  0.00    -0.776 OA 
HETATM   27  C   UNL     1     -12.262  13.458  63.656  1.00  0.00    -0.480 C  
HETATM   28  C   UNL     1     -12.441  13.563  65.153  1.00  0.00    -0.451 C  
HETATM   29  H   UNL     1     -12.416  11.134  62.532  1.00  0.00     0.000 HD 
HETATM   30  O   UNL     1     -13.514  13.847  65.670  1.00  0.00    -0.590 OA 
HETATM   31  O   UNL     1     -11.292  13.479  65.880  1.00  0.00    -0.303 OA 
ENDBRANCH  22  23
ENDBRANCH  21  22
ENDBRANCH  12  21
TORSDOF 7
ENDMDL
MODEL       46
REMARK 921   NORMALIZED FREE ENERGY PREDICTED BY IDOCK:   -6.02 KCAL/MOL
REMARK 922        TOTAL FREE ENERGY PREDICTED BY IDOCK:   -9.97 KCAL/MOL
REMARK 923 INTER-LIGAND FREE ENERGY PREDICTED BY IDOCK:   -8.55 KCAL/MOL
REMARK 924 INTRA-LIGAND FREE ENERGY PREDICTED BY IDOCK:   -1.42 KCAL/MOL
REMARK 927      BINDING AFFINITY PREDICTED BY RF-SCORE:    0.00 PKD
ROOT
HETATM    1  C   UNL     1     -11.048   7.688  69.876  1.00  0.00    -0.160 C  
HETATM    2  C   UNL     1     -10.151   7.528  68.589  1.00  0.00    -0.184 C  
HETATM    3  C   UNL     1      -9.316   6.246  68.414  1.00  0.00    -0.113 C  
HETATM    4  C   UNL     1     -11.830   9.106  71.954  1.00  0.00    -0.439 C  
HETATM    5  C   UNL     1      -9.831   4.997  69.110  1.00  0.00    -0.262 C  
HETATM    6  C   UNL     1     -11.446   7.915  72.778  1.00  0.00    -0.428 C  
HETATM    7  C   UNL     1     -13.369   9.106  72.014  1.00  0.00    -0.507 C  
HETATM    8  C   UNL     1     -11.034   6.754  72.269  1.00  0.00    -0.276 C  
HETATM    9  C   UNL     1     -10.320   5.336  70.486  1.00  0.00    -0.336 C  
HETATM   10  C   UNL     1      -8.662   3.997  69.195  1.00  0.00    -0.127 C  
HETATM   11  C   UNL     1     -10.790   6.541  70.860  1.00  0.00    -0.302 C  
HETATM   12  C   UNL     1     -11.091   9.123  70.557  1.00  0.00    -0.308 C  
ENDROOT
BRANCH   2  13
HETATM   13  O   UNL     1      -9.290   8.643  68.296  1.00  0.00    -0.138 OA 
BRANCH  13  14
HETATM   14  C   UNL     1      -9.339   9.204  67.058  1.00  0.00    -0.148 C  
HETATM   15  O   UNL     1      -9.931   8.740  66.083  1.00  0.00    -0.275 OA 
BRANCH  14  16
HETATM   16  C   UNL     1      -8.518  10.491  66.982  1.00  0.00    -0.128 C  
HETATM   17  C   UNL     1      -7.208  10.308  66.198  1.00  0.00    -0.121 C  
HETATM   18  C   UNL     1      -9.441  11.495  66.276  1.00  0.00    -0.235 C  
BRANCH  16  19
HETATM   19  C   UNL     1      -8.201  10.941  68.433  1.00  0.00    -0.133 C  
HETATM   20  C   UNL     1      -7.486  12.284  68.523  1.00  0.00    -0.113 C  
ENDBRANCH  16  19
ENDBRANCH  14  16
ENDBRANCH  13  14
ENDBRANCH   2  13
BRANCH  12  21
HETATM   21  C   UNL     1     -11.497  10.335  69.615  1.00  0.00    -0.297 C  
BRANCH  21  22
HETATM   22  C   UNL     1     -12.021  11.545  70.375  1.00  0.00    -0.459 C  
BRANCH  22  23
HETATM   23  C   UNL     1     -12.075  12.972  69.846  1.00  0.00    -0.277 C  
HETATM   24  C   UNL     1     -10.992  13.441  68.907  1.00  0.00    -0.284 C  
HETATM   25  C   UNL     1     -11.486  14.754  68.298  1.00  0.00    -0.317 C  
HETATM   26  O   UNL     1     -12.515  14.499  67.338  1.00  0.00    -0.580 OA 
HETATM   27  C   UNL     1     -11.952  15.750  69.356  1.00  0.00    -0.321 C  
HETATM   28  C   UNL     1     -12.685  15.135  70.526  1.00  0.00    -0.368 C  
HETATM   29  H   UNL     1     -12.822  15.315  66.959  1.00  0.00     0.000 HD 
HETATM   30  O   UNL     1     -13.530  15.746  71.170  1.00  0.00    -0.575 OA 
HETATM   31  O   UNL     1     -12.230  13.912  70.916  1.00  0.00    -0.342 OA 
ENDBRANCH  22  23
ENDBRANCH  21  22
ENDBRANCH  12  21
TORSDOF 7
ENDMDL
MODEL       47
REMARK 921   NORMALIZED FREE ENERGY PREDICTED BY IDOCK:   -6.00 KCAL/MOL
REMARK 922        TOTAL FREE ENERGY PREDICTED BY IDOCK:   -9.95 KCAL/MOL
REMARK 923 INTER-LIGAND FREE ENERGY PREDICTED BY IDOCK:   -8.98 KCAL/MOL
REMARK 924 INTRA-LIGAND FREE ENERGY PREDICTED BY IDOCK:   -0.96 KCAL/MOL
REMARK 927      BINDING AFFINITY PREDICTED BY RF-SCORE:    0.00 PKD
ROOT
HETATM    1  C   UNL     1     -10.210  13.165  67.512  1.00  0.00    -0.225 C  
HETATM    2  C   UNL     1     -11.501  14.045  67.732  1.00  0.00    -0.322 C  
HETATM    3  C   UNL     1     -11.472  15.530  67.325  1.00  0.00    -0.102 C  
HETATM    4  C   UNL     1      -8.413  11.474  68.436  1.00  0.00    -0.159 C  
HETATM    5  C   UNL     1     -10.499  15.916  66.224  1.00  0.00    -0.324 C  
HETATM    6  C   UNL     1      -7.394  12.481  67.997  1.00  0.00    -0.111 C  
HETATM    7  C   UNL     1      -8.240  10.323  67.427  1.00  0.00    -0.114 C  
HETATM    8  C   UNL     1      -7.685  13.598  67.330  1.00  0.00    -0.156 C  
HETATM    9  C   UNL     1      -9.188  15.214  66.421  1.00  0.00    -0.334 C  
HETATM   10  C   UNL     1     -10.298  17.442  66.294  1.00  0.00    -0.330 C  
HETATM   11  C   UNL     1      -9.034  14.036  67.054  1.00  0.00    -0.248 C  
HETATM   12  C   UNL     1      -9.835  12.127  68.656  1.00  0.00    -0.110 C  
ENDROOT
BRANCH   2  13
HETATM   13  O   UNL     1     -12.078  13.972  69.047  1.00  0.00    -0.346 OA 
BRANCH  13  14
HETATM   14  C   UNL     1     -11.694  14.880  69.984  1.00  0.00    -0.294 C  
HETATM   15  O   UNL     1     -10.823  15.738  69.838  1.00  0.00    -0.271 OA 
BRANCH  14  16
HETATM   16  C   UNL     1     -12.446  14.693  71.302  1.00  0.00    -0.408 C  
HETATM   17  C   UNL     1     -11.673  15.258  72.506  1.00  0.00    -0.535 C  
HETATM   18  C   UNL     1     -13.770  15.446  71.101  1.00  0.00    -0.497 C  
BRANCH  16  19
HETATM   19  C   UNL     1     -12.688  13.173  71.502  1.00  0.00    -0.366 C  
HETATM   20  C   UNL     1     -13.854  12.847  72.427  1.00  0.00    -0.443 C  
ENDBRANCH  16  19
ENDBRANCH  14  16
ENDBRANCH  13  14
ENDBRANCH   2  13
BRANCH  12  21
HETATM   21  C   UNL     1     -10.972  11.100  69.071  1.00  0.00    -0.286 C  
BRANCH  21  22
HETATM   22  C   UNL     1     -10.632  10.287  70.311  1.00  0.00    -0.264 C  
BRANCH  22  23
HETATM   23  C   UNL     1     -11.463   9.146  70.883  1.00  0.00    -0.296 C  
HETATM   24  C   UNL     1     -11.381   7.789  70.230  1.00  0.00    -0.174 C  
HETATM   25  C   UNL     1     -12.036   6.803  71.198  1.00  0.00    -0.370 C  
HETATM   26  O   UNL     1     -11.177   6.562  72.316  1.00  0.00    -0.249 OA 
HETATM   27  C   UNL     1     -13.418   7.261  71.653  1.00  0.00    -0.428 C  
HETATM   28  C   UNL     1     -13.549   8.749  71.884  1.00  0.00    -0.424 C  
HETATM   29  H   UNL     1     -11.584   5.949  72.918  1.00  0.00     0.000 HD 
HETATM   30  O   UNL     1     -14.347   9.224  72.683  1.00  0.00    -0.497 OA 
HETATM   31  O   UNL     1     -12.835   9.532  71.029  1.00  0.00    -0.298 OA 
ENDBRANCH  22  23
ENDBRANCH  21  22
ENDBRANCH  12  21
TORSDOF 7
ENDMDL
MODEL       48
REMARK 921   NORMALIZED FREE ENERGY PREDICTED BY IDOCK:   -6.00 KCAL/MOL
REMARK 922        TOTAL FREE ENERGY PREDICTED BY IDOCK:   -9.94 KCAL/MOL
REMARK 923 INTER-LIGAND FREE ENERGY PREDICTED BY IDOCK:   -8.18 KCAL/MOL
REMARK 924 INTRA-LIGAND FREE ENERGY PREDICTED BY IDOCK:   -1.76 KCAL/MOL
REMARK 927      BINDING AFFINITY PREDICTED BY RF-SCORE:    0.00 PKD
ROOT
HETATM    1  C   UNL     1      -8.370   8.028  68.746  1.00  0.00    -0.127 C  
HETATM    2  C   UNL     1      -8.202   8.499  70.242  1.00  0.00    -0.115 C  
HETATM    3  C   UNL     1      -7.908   7.448  71.328  1.00  0.00    -0.095 C  
HETATM    4  C   UNL     1      -9.740   8.017  66.494  1.00  0.00    -0.297 C  
HETATM    5  C   UNL     1      -7.210   6.177  70.875  1.00  0.00    -0.074 C  
HETATM    6  C   UNL     1      -9.715   6.522  66.611  1.00  0.00    -0.201 C  
HETATM    7  C   UNL     1      -8.783   8.303  65.322  1.00  0.00    -0.121 C  
HETATM    8  C   UNL     1      -9.051   5.856  67.556  1.00  0.00    -0.106 C  
HETATM    9  C   UNL     1      -7.788   5.703  69.575  1.00  0.00    -0.092 C  
HETATM   10  C   UNL     1      -7.425   5.113  71.969  1.00  0.00    -0.092 C  
HETATM   11  C   UNL     1      -8.372   6.497  68.658  1.00  0.00    -0.122 C  
HETATM   12  C   UNL     1      -9.516   8.723  67.891  1.00  0.00    -0.160 C  
ENDROOT
BRANCH   2  13
HETATM   13  O   UNL     1      -9.249   9.350  70.740  1.00  0.00    -0.247 OA 
BRANCH  13  14
HETATM   14  C   UNL     1      -9.982   8.933  71.807  1.00  0.00    -0.327 C  
HETATM   15  O   UNL     1      -9.542   8.695  72.932  1.00  0.00    -0.183 OA 
BRANCH  14  16
HETATM   16  C   UNL     1     -11.454   8.736  71.445  1.00  0.00    -0.366 C  
HETATM   17  C   UNL     1     -12.346   8.554  72.686  1.00  0.00    -0.289 C  
HETATM   18  C   UNL     1     -11.837  10.012  70.681  1.00  0.00    -0.411 C  
BRANCH  16  19
HETATM   19  C   UNL     1     -11.559   7.483  70.537  1.00  0.00    -0.224 C  
HETATM   20  C   UNL     1     -11.200   6.178  71.237  1.00  0.00    -0.348 C  
ENDBRANCH  16  19
ENDBRANCH  14  16
ENDBRANCH  13  14
ENDBRANCH   2  13
BRANCH  12  21
HETATM   21  C   UNL     1      -9.478  10.309  67.825  1.00  0.00    -0.163 C  
BRANCH  21  22
HETATM   22  C   UNL     1     -10.805  10.930  67.415  1.00  0.00    -0.333 C  
BRANCH  22  23
HETATM   23  C   UNL     1     -11.085  11.643  66.099  1.00  0.00    -0.280 C  
HETATM   24  C   UNL     1      -9.981  11.737  65.074  1.00  0.00    -0.287 C  
HETATM   25  C   UNL     1     -10.640  12.186  63.769  1.00  0.00    -0.439 C  
HETATM   26  O   UNL     1     -11.385  11.110  63.193  1.00  0.00    -0.808 OA 
HETATM   27  C   UNL     1     -11.511  13.425  63.951  1.00  0.00    -0.351 C  
HETATM   28  C   UNL     1     -12.289  13.469  65.246  1.00  0.00    -0.467 C  
HETATM   29  H   UNL     1     -11.794  11.389  62.382  1.00  0.00     0.000 HD 
HETATM   30  O   UNL     1     -13.356  14.062  65.354  1.00  0.00    -0.721 OA 
HETATM   31  O   UNL     1     -11.647  12.941  66.324  1.00  0.00    -0.333 OA 
ENDBRANCH  22  23
ENDBRANCH  21  22
ENDBRANCH  12  21
TORSDOF 7
ENDMDL
MODEL       49
REMARK 921   NORMALIZED FREE ENERGY PREDICTED BY IDOCK:   -5.98 KCAL/MOL
REMARK 922        TOTAL FREE ENERGY PREDICTED BY IDOCK:   -9.92 KCAL/MOL
REMARK 923 INTER-LIGAND FREE ENERGY PREDICTED BY IDOCK:   -7.90 KCAL/MOL
REMARK 924 INTRA-LIGAND FREE ENERGY PREDICTED BY IDOCK:   -2.02 KCAL/MOL
REMARK 927      BINDING AFFINITY PREDICTED BY RF-SCORE:    0.00 PKD
ROOT
HETATM    1  C   UNL     1      -9.585  11.026  69.073  1.00  0.00    -0.136 C  
HETATM    2  C   UNL     1     -11.009  11.483  68.571  1.00  0.00    -0.223 C  
HETATM    3  C   UNL     1     -12.262  10.952  69.292  1.00  0.00    -0.240 C  
HETATM    4  C   UNL     1      -7.193  10.043  68.569  1.00  0.00    -0.076 C  
HETATM    5  C   UNL     1     -12.090  10.546  70.747  1.00  0.00    -0.470 C  
HETATM    6  C   UNL     1      -7.520   9.004  69.600  1.00  0.00    -0.076 C  
HETATM    7  C   UNL     1      -6.133  10.918  69.262  1.00  0.00    -0.047 C  
HETATM    8  C   UNL     1      -8.630   9.006  70.338  1.00  0.00    -0.215 C  
HETATM    9  C   UNL     1     -10.803   9.798  70.927  1.00  0.00    -0.399 C  
HETATM   10  C   UNL     1     -13.283   9.645  71.123  1.00  0.00    -0.373 C  
HETATM   11  C   UNL     1      -9.714   9.943  70.150  1.00  0.00    -0.255 C  
HETATM   12  C   UNL     1      -8.495  10.704  67.962  1.00  0.00    -0.119 C  
ENDROOT
BRANCH   2  13
HETATM   13  O   UNL     1     -11.238  11.345  67.158  1.00  0.00    -0.290 OA 
BRANCH  13  14
HETATM   14  C   UNL     1     -11.597  12.443  66.440  1.00  0.00    -0.384 C  
HETATM   15  O   UNL     1     -12.034  13.496  66.908  1.00  0.00    -0.385 OA 
BRANCH  14  16
HETATM   16  C   UNL     1     -11.441  12.218  64.936  1.00  0.00    -0.382 C  
HETATM   17  C   UNL     1     -12.791  12.226  64.197  1.00  0.00    -0.371 C  
HETATM   18  C   UNL     1     -10.552  13.377  64.462  1.00  0.00    -0.441 C  
BRANCH  16  19
HETATM   19  C   UNL     1     -10.740  10.849  64.729  1.00  0.00    -0.248 C  
HETATM   20  C   UNL     1      -9.900  10.768  63.460  1.00  0.00    -0.401 C  
ENDBRANCH  16  19
ENDBRANCH  14  16
ENDBRANCH  13  14
ENDBRANCH   2  13
BRANCH  12  21
HETATM   21  C   UNL     1      -8.213  11.851  66.901  1.00  0.00    -0.157 C  
BRANCH  21  22
HETATM   22  C   UNL     1      -7.779  13.167  67.531  1.00  0.00    -0.168 C  
BRANCH  22  23
HETATM   23  C   UNL     1      -8.647  14.408  67.684  1.00  0.00    -0.185 C  
HETATM   24  C   UNL     1      -8.342  15.619  66.837  1.00  0.00    -0.287 C  
HETATM   25  C   UNL     1      -9.550  16.549  66.960  1.00  0.00    -0.242 C  
HETATM   26  O   UNL     1     -10.653  16.030  66.213  1.00  0.00    -0.306 OA 
HETATM   27  C   UNL     1      -9.940  16.811  68.411  1.00  0.00    -0.268 C  
HETATM   28  C   UNL     1      -9.807  15.617  69.330  1.00  0.00    -0.269 C  
HETATM   29  H   UNL     1     -11.404  16.608  66.289  1.00  0.00     0.000 HD 
HETATM   30  O   UNL     1     -10.501  15.474  70.328  1.00  0.00    -0.310 OA 
HETATM   31  O   UNL     1      -8.756  14.795  69.059  1.00  0.00    -0.183 OA 
ENDBRANCH  22  23
ENDBRANCH  21  22
ENDBRANCH  12  21
TORSDOF 7
ENDMDL
MODEL       50
REMARK 921   NORMALIZED FREE ENERGY PREDICTED BY IDOCK:   -5.98 KCAL/MOL
REMARK 922        TOTAL FREE ENERGY PREDICTED BY IDOCK:   -9.91 KCAL/MOL
REMARK 923 INTER-LIGAND FREE ENERGY PREDICTED BY IDOCK:   -8.44 KCAL/MOL
REMARK 924 INTRA-LIGAND FREE ENERGY PREDICTED BY IDOCK:   -1.48 KCAL/MOL
REMARK 927      BINDING AFFINITY PREDICTED BY RF-SCORE:    0.00 PKD
ROOT
HETATM    1  C   UNL     1     -10.280  11.753  65.558  1.00  0.00    -0.291 C  
HETATM    2  C   UNL     1      -9.346  10.854  66.457  1.00  0.00    -0.173 C  
HETATM    3  C   UNL     1      -8.561   9.703  65.801  1.00  0.00    -0.149 C  
HETATM    4  C   UNL     1     -12.618  12.880  65.105  1.00  0.00    -0.536 C  
HETATM    5  C   UNL     1      -8.235   9.855  64.324  1.00  0.00    -0.161 C  
HETATM    6  C   UNL     1     -12.579  12.182  63.780  1.00  0.00    -0.585 C  
HETATM    7  C   UNL     1     -12.401  14.361  64.740  1.00  0.00    -0.427 C  
HETATM    8  C   UNL     1     -11.540  11.472  63.338  1.00  0.00    -0.232 C  
HETATM    9  C   UNL     1      -9.417  10.410  63.588  1.00  0.00    -0.353 C  
HETATM   10  C   UNL     1      -7.881   8.457  63.780  1.00  0.00    -0.151 C  
HETATM   11  C   UNL     1     -10.369  11.187  64.136  1.00  0.00    -0.423 C  
HETATM   12  C   UNL     1     -11.682  12.182  66.171  1.00  0.00    -0.384 C  
ENDROOT
BRANCH   2  13
HETATM   13  O   UNL     1      -9.957  10.331  67.649  1.00  0.00    -0.169 OA 
BRANCH  13  14
HETATM   14  C   UNL     1      -9.210  10.229  68.780  1.00  0.00    -0.166 C  
HETATM   15  O   UNL     1      -8.267  10.960  69.086  1.00  0.00    -0.146 OA 
BRANCH  14  16
HETATM   16  C   UNL     1      -9.642   9.045  69.645  1.00  0.00    -0.175 C  
HETATM   17  C   UNL     1     -10.424   9.483  70.895  1.00  0.00    -0.382 C  
HETATM   18  C   UNL     1     -10.524   8.193  68.720  1.00  0.00    -0.198 C  
BRANCH  16  19
HETATM   19  C   UNL     1      -8.365   8.274  70.071  1.00  0.00    -0.121 C  
HETATM   20  C   UNL     1      -8.556   6.766  70.176  1.00  0.00    -0.140 C  
ENDBRANCH  16  19
ENDBRANCH  14  16
ENDBRANCH  13  14
ENDBRANCH   2  13
BRANCH  12  21
HETATM   21  C   UNL     1     -11.640  12.907  67.582  1.00  0.00    -0.406 C  
BRANCH  21  22
HETATM   22  C   UNL     1     -10.345  13.664  67.836  1.00  0.00    -0.249 C  
BRANCH  22  23
HETATM   23  C   UNL     1     -10.061  15.103  67.426  1.00  0.00    -0.229 C  
HETATM   24  C   UNL     1      -9.122  15.359  66.273  1.00  0.00    -0.355 C  
HETATM   25  C   UNL     1      -9.297  16.829  65.891  1.00  0.00    -0.127 C  
HETATM   26  O   UNL     1     -10.541  17.020  65.210  1.00  0.00    -0.647 OA 
HETATM   27  C   UNL     1      -9.177  17.763  67.091  1.00  0.00    -0.253 C  
HETATM   28  C   UNL     1      -9.786  17.236  68.370  1.00  0.00    -0.309 C  
HETATM   29  H   UNL     1     -10.650  17.933  64.972  1.00  0.00     0.000 HD 
HETATM   30  O   UNL     1     -10.228  17.973  69.243  1.00  0.00    -0.297 OA 
HETATM   31  O   UNL     1      -9.667  15.892  68.555  1.00  0.00    -0.203 OA 
ENDBRANCH  22  23
ENDBRANCH  21  22
ENDBRANCH  12  21
TORSDOF 7
ENDMDL
MODEL       51
REMARK 921   NORMALIZED FREE ENERGY PREDICTED BY IDOCK:   -5.94 KCAL/MOL
REMARK 922        TOTAL FREE ENERGY PREDICTED BY IDOCK:   -9.87 KCAL/MOL
REMARK 923 INTER-LIGAND FREE ENERGY PREDICTED BY IDOCK:   -8.42 KCAL/MOL
REMARK 924 INTRA-LIGAND FREE ENERGY PREDICTED BY IDOCK:   -1.45 KCAL/MOL
REMARK 927      BINDING AFFINITY PREDICTED BY RF-SCORE:    0.00 PKD
ROOT
HETATM    1  C   UNL     1     -10.863   7.713  69.504  1.00  0.00    -0.171 C  
HETATM    2  C   UNL     1     -10.038   6.930  68.410  1.00  0.00    -0.168 C  
HETATM    3  C   UNL     1      -9.325   5.623  68.806  1.00  0.00    -0.145 C  
HETATM    4  C   UNL     1     -11.431   9.955  70.766  1.00  0.00    -0.433 C  
HETATM    5  C   UNL     1      -9.916   4.851  69.973  1.00  0.00    -0.323 C  
HETATM    6  C   UNL     1     -11.117   9.202  72.023  1.00  0.00    -0.285 C  
HETATM    7  C   UNL     1     -12.961  10.128  70.821  1.00  0.00    -0.380 C  
HETATM    8  C   UNL     1     -10.829   7.901  72.065  1.00  0.00    -0.312 C  
HETATM    9  C   UNL     1     -10.316   5.794  71.068  1.00  0.00    -0.291 C  
HETATM   10  C   UNL     1      -8.835   3.877  70.481  1.00  0.00    -0.136 C  
HETATM   11  C   UNL     1     -10.663   7.081  70.886  1.00  0.00    -0.259 C  
HETATM   12  C   UNL     1     -10.753   9.298  69.498  1.00  0.00    -0.236 C  
ENDROOT
BRANCH   2  13
HETATM   13  O   UNL     1      -9.097   7.723  67.665  1.00  0.00    -0.133 OA 
BRANCH  13  14
HETATM   14  C   UNL     1      -8.977   7.513  66.326  1.00  0.00    -0.167 C  
HETATM   15  O   UNL     1      -9.232   6.462  65.738  1.00  0.00    -0.076 OA 
BRANCH  14  16
HETATM   16  C   UNL     1      -8.431   8.744  65.603  1.00  0.00    -0.174 C  
HETATM   17  C   UNL     1      -9.549   9.667  65.085  1.00  0.00    -0.324 C  
HETATM   18  C   UNL     1      -7.575   9.463  66.656  1.00  0.00    -0.094 C  
BRANCH  16  19
HETATM   19  C   UNL     1      -7.566   8.253  64.413  1.00  0.00    -0.113 C  
HETATM   20  C   UNL     1      -6.084   8.582  64.546  1.00  0.00    -0.065 C  
ENDBRANCH  16  19
ENDBRANCH  14  16
ENDBRANCH  13  14
ENDBRANCH   2  13
BRANCH  12  21
HETATM   21  C   UNL     1     -11.092  10.021  68.125  1.00  0.00    -0.252 C  
BRANCH  21  22
HETATM   22  C   UNL     1     -10.574  11.449  68.047  1.00  0.00    -0.224 C  
BRANCH  22  23
HETATM   23  C   UNL     1     -10.926  12.465  66.969  1.00  0.00    -0.260 C  
HETATM   24  C   UNL     1     -10.698  13.930  67.247  1.00  0.00    -0.286 C  
HETATM   25  C   UNL     1     -10.817  14.649  65.903  1.00  0.00    -0.312 C  
HETATM   26  O   UNL     1      -9.662  14.395  65.100  1.00  0.00    -0.529 OA 
HETATM   27  C   UNL     1     -12.098  14.287  65.158  1.00  0.00    -0.410 C  
HETATM   28  C   UNL     1     -12.516  12.839  65.282  1.00  0.00    -0.465 C  
HETATM   29  H   UNL     1      -9.735  14.842  64.265  1.00  0.00     0.000 HD 
HETATM   30  O   UNL     1     -13.163  12.264  64.415  1.00  0.00    -0.806 OA 
HETATM   31  O   UNL     1     -12.262  12.266  66.490  1.00  0.00    -0.588 OA 
ENDBRANCH  22  23
ENDBRANCH  21  22
ENDBRANCH  12  21
TORSDOF 7
ENDMDL
MODEL       52
REMARK 921   NORMALIZED FREE ENERGY PREDICTED BY IDOCK:   -5.93 KCAL/MOL
REMARK 922        TOTAL FREE ENERGY PREDICTED BY IDOCK:   -9.85 KCAL/MOL
REMARK 923 INTER-LIGAND FREE ENERGY PREDICTED BY IDOCK:   -8.76 KCAL/MOL
REMARK 924 INTRA-LIGAND FREE ENERGY PREDICTED BY IDOCK:   -1.09 KCAL/MOL
REMARK 927      BINDING AFFINITY PREDICTED BY RF-SCORE:    0.00 PKD
ROOT
HETATM    1  C   UNL     1      -8.744  15.375  66.733  1.00  0.00    -0.304 C  
HETATM    2  C   UNL     1      -9.940  15.565  65.722  1.00  0.00    -0.359 C  
HETATM    3  C   UNL     1     -10.611  16.947  65.609  1.00  0.00    -0.231 C  
HETATM    4  C   UNL     1      -7.601  14.038  68.694  1.00  0.00    -0.130 C  
HETATM    5  C   UNL     1      -9.757  18.151  65.972  1.00  0.00    -0.115 C  
HETATM    6  C   UNL     1      -7.572  15.345  69.427  1.00  0.00    -0.224 C  
HETATM    7  C   UNL     1      -6.123  13.790  68.340  1.00  0.00    -0.101 C  
HETATM    8  C   UNL     1      -7.952  16.508  68.898  1.00  0.00    -0.239 C  
HETATM    9  C   UNL     1      -8.947  17.860  67.199  1.00  0.00    -0.252 C  
HETATM   10  C   UNL     1     -10.708  19.334  66.234  1.00  0.00    -0.477 C  
HETATM   11  C   UNL     1      -8.556  16.632  67.590  1.00  0.00    -0.207 C  
HETATM   12  C   UNL     1      -8.702  14.019  67.560  1.00  0.00    -0.201 C  
ENDROOT
BRANCH   2  13
HETATM   13  O   UNL     1     -10.989  14.586  65.819  1.00  0.00    -0.302 OA 
BRANCH  13  14
HETATM   14  C   UNL     1     -11.664  14.232  64.693  1.00  0.00    -0.430 C  
HETATM   15  O   UNL     1     -12.286  15.000  63.958  1.00  0.00    -0.706 OA 
BRANCH  14  16
HETATM   16  C   UNL     1     -11.609  12.725  64.445  1.00  0.00    -0.415 C  
HETATM   17  C   UNL     1     -11.752  11.909  65.742  1.00  0.00    -0.210 C  
HETATM   18  C   UNL     1     -12.782  12.447  63.494  1.00  0.00    -0.443 C  
BRANCH  16  19
HETATM   19  C   UNL     1     -10.249  12.401  63.772  1.00  0.00    -0.404 C  
HETATM   20  C   UNL     1      -9.976  10.911  63.610  1.00  0.00    -0.415 C  
ENDBRANCH  16  19
ENDBRANCH  14  16
ENDBRANCH  13  14
ENDBRANCH   2  13
BRANCH  12  21
HETATM   21  C   UNL     1      -8.746  12.677  66.712  1.00  0.00    -0.135 C  
BRANCH  21  22
HETATM   22  C   UNL     1      -8.649  11.419  67.562  1.00  0.00    -0.137 C  
BRANCH  22  23
HETATM   23  C   UNL     1      -9.704  10.924  68.542  1.00  0.00    -0.183 C  
HETATM   24  C   UNL     1     -10.595  11.933  69.222  1.00  0.00    -0.021 C  
HETATM   25  C   UNL     1     -11.737  11.141  69.860  1.00  0.00    -0.355 C  
HETATM   26  O   UNL     1     -12.647  10.686  68.855  1.00  0.00    -0.742 OA 
HETATM   27  C   UNL     1     -11.237   9.983  70.718  1.00  0.00    -0.428 C  
HETATM   28  C   UNL     1     -10.030   9.260  70.166  1.00  0.00    -0.215 C  
HETATM   29  H   UNL     1     -13.357  10.194  69.251  1.00  0.00     0.000 HD 
HETATM   30  O   UNL     1      -9.804   8.079  70.402  1.00  0.00    -0.182 OA 
HETATM   31  O   UNL     1      -9.128  10.050  69.520  1.00  0.00    -0.199 OA 
ENDBRANCH  22  23
ENDBRANCH  21  22
ENDBRANCH  12  21
TORSDOF 7
ENDMDL
MODEL       53
REMARK 921   NORMALIZED FREE ENERGY PREDICTED BY IDOCK:   -5.93 KCAL/MOL
REMARK 922        TOTAL FREE ENERGY PREDICTED BY IDOCK:   -9.85 KCAL/MOL
REMARK 923 INTER-LIGAND FREE ENERGY PREDICTED BY IDOCK:   -8.07 KCAL/MOL
REMARK 924 INTRA-LIGAND FREE ENERGY PREDICTED BY IDOCK:   -1.78 KCAL/MOL
REMARK 927      BINDING AFFINITY PREDICTED BY RF-SCORE:    0.00 PKD
ROOT
HETATM    1  C   UNL     1     -11.269  13.627  69.186  1.00  0.00    -0.309 C  
HETATM    2  C   UNL     1      -9.995  13.398  68.285  1.00  0.00    -0.240 C  
HETATM    3  C   UNL     1      -9.698  11.981  67.758  1.00  0.00    -0.192 C  
HETATM    4  C   UNL     1     -12.373  14.583  71.380  1.00  0.00    -0.425 C  
HETATM    5  C   UNL     1     -10.888  11.049  67.600  1.00  0.00    -0.306 C  
HETATM    6  C   UNL     1     -12.879  13.190  71.605  1.00  0.00    -0.388 C  
HETATM    7  C   UNL     1     -13.642  15.371  71.003  1.00  0.00    -0.465 C  
HETATM    8  C   UNL     1     -12.721  12.187  70.740  1.00  0.00    -0.220 C  
HETATM    9  C   UNL     1     -11.811  11.185  68.774  1.00  0.00    -0.388 C  
HETATM   10  C   UNL     1     -10.344   9.610  67.518  1.00  0.00    -0.297 C  
HETATM   11  C   UNL     1     -11.936  12.291  69.531  1.00  0.00    -0.333 C  
HETATM   12  C   UNL     1     -11.112  14.608  70.427  1.00  0.00    -0.106 C  
ENDROOT
BRANCH   2  13
HETATM   13  O   UNL     1      -8.765  13.925  68.811  1.00  0.00    -0.115 OA 
BRANCH  13  14
HETATM   14  C   UNL     1      -7.835  14.410  67.946  1.00  0.00    -0.150 C  
HETATM   15  O   UNL     1      -8.073  15.018  66.902  1.00  0.00    -0.209 OA 
BRANCH  14  16
HETATM   16  C   UNL     1      -6.411  14.074  68.391  1.00  0.00    -0.103 C  
HETATM   17  C   UNL     1      -6.355  13.549  69.836  1.00  0.00    -0.071 C  
HETATM   18  C   UNL     1      -5.943  12.997  67.401  1.00  0.00    -0.047 C  
BRANCH  16  19
HETATM   19  C   UNL     1      -5.556  15.362  68.268  1.00  0.00    -0.120 C  
HETATM   20  C   UNL     1      -5.956  16.467  69.239  1.00  0.00    -0.165 C  
ENDBRANCH  16  19
ENDBRANCH  14  16
ENDBRANCH  13  14
ENDBRANCH   2  13
BRANCH  12  21
HETATM   21  C   UNL     1     -10.561  16.063  70.107  1.00  0.00    -0.269 C  
BRANCH  21  22
HETATM   22  C   UNL     1     -10.900  16.545  68.705  1.00  0.00    -0.345 C  
BRANCH  22  23
HETATM   23  C   UNL     1     -10.125  17.588  67.912  1.00  0.00    -0.330 C  
HETATM   24  C   UNL     1      -9.074  18.407  68.619  1.00  0.00    -0.317 C  
HETATM   25  C   UNL     1      -8.258  19.101  67.528  1.00  0.00    -0.281 C  
HETATM   26  O   UNL     1      -7.401  18.159  66.875  1.00  0.00    -0.193 OA 
HETATM   27  C   UNL     1      -9.136  19.838  66.521  1.00  0.00    -0.450 C  
HETATM   28  C   UNL     1     -10.427  19.133  66.170  1.00  0.00    -0.477 C  
HETATM   29  H   UNL     1      -6.894  18.590  66.197  1.00  0.00     0.000 HD 
HETATM   30  O   UNL     1     -10.982  19.277  65.088  1.00  0.00    -0.448 OA 
HETATM   31  O   UNL     1     -11.012  18.454  67.195  1.00  0.00    -0.311 OA 
ENDBRANCH  22  23
ENDBRANCH  21  22
ENDBRANCH  12  21
TORSDOF 7
ENDMDL
MODEL       54
REMARK 921   NORMALIZED FREE ENERGY PREDICTED BY IDOCK:   -5.91 KCAL/MOL
REMARK 922        TOTAL FREE ENERGY PREDICTED BY IDOCK:   -9.81 KCAL/MOL
REMARK 923 INTER-LIGAND FREE ENERGY PREDICTED BY IDOCK:   -9.24 KCAL/MOL
REMARK 924 INTRA-LIGAND FREE ENERGY PREDICTED BY IDOCK:   -0.58 KCAL/MOL
REMARK 927      BINDING AFFINITY PREDICTED BY RF-SCORE:    0.00 PKD
ROOT
HETATM    1  C   UNL     1      -9.669  10.577  65.682  1.00  0.00    -0.289 C  
HETATM    2  C   UNL     1      -9.504   9.258  66.531  1.00  0.00    -0.202 C  
HETATM    3  C   UNL     1      -8.965   7.989  65.844  1.00  0.00    -0.181 C  
HETATM    4  C   UNL     1     -11.138  12.617  64.892  1.00  0.00    -0.331 C  
HETATM    5  C   UNL     1      -8.075   8.198  64.630  1.00  0.00    -0.148 C  
HETATM    6  C   UNL     1     -10.838  12.156  63.498  1.00  0.00    -0.518 C  
HETATM    7  C   UNL     1     -10.317  13.912  65.029  1.00  0.00    -0.418 C  
HETATM    8  C   UNL     1     -10.012  11.152  63.203  1.00  0.00    -0.393 C  
HETATM    9  C   UNL     1      -8.631   9.287  63.762  1.00  0.00    -0.206 C  
HETATM   10  C   UNL     1      -8.032   6.870  63.850  1.00  0.00    -0.064 C  
HETATM   11  C   UNL     1      -9.399  10.302  64.198  1.00  0.00    -0.336 C  
HETATM   12  C   UNL     1     -10.968  11.454  65.949  1.00  0.00    -0.268 C  
ENDROOT
BRANCH   2  13
HETATM   13  O   UNL     1     -10.658   8.871  67.298  1.00  0.00    -0.283 OA 
BRANCH  13  14
HETATM   14  C   UNL     1     -10.758   7.586  67.732  1.00  0.00    -0.163 C  
HETATM   15  O   UNL     1     -11.150   6.631  67.061  1.00  0.00    -0.403 OA 
BRANCH  14  16
HETATM   16  C   UNL     1     -10.364   7.447  69.202  1.00  0.00    -0.208 C  
HETATM   17  C   UNL     1      -8.892   7.038  69.381  1.00  0.00    -0.136 C  
HETATM   18  C   UNL     1     -10.621   8.837  69.803  1.00  0.00    -0.227 C  
BRANCH  16  19
HETATM   19  C   UNL     1     -11.287   6.377  69.844  1.00  0.00    -0.500 C  
HETATM   20  C   UNL     1     -12.135   6.901  70.997  1.00  0.00    -0.429 C  
ENDBRANCH  16  19
ENDBRANCH  14  16
ENDBRANCH  13  14
ENDBRANCH   2  13
BRANCH  12  21
HETATM   21  C   UNL     1     -11.221  11.893  67.454  1.00  0.00    -0.366 C  
BRANCH  21  22
HETATM   22  C   UNL     1     -12.093  13.133  67.585  1.00  0.00    -0.281 C  
BRANCH  22  23
HETATM   23  C   UNL     1     -11.834  14.307  68.519  1.00  0.00    -0.347 C  
HETATM   24  C   UNL     1     -10.409  14.720  68.791  1.00  0.00    -0.248 C  
HETATM   25  C   UNL     1     -10.476  16.091  69.465  1.00  0.00    -0.286 C  
HETATM   26  O   UNL     1     -10.818  17.097  68.508  1.00  0.00    -0.349 OA 
HETATM   27  C   UNL     1     -11.432  16.112  70.653  1.00  0.00    -0.386 C  
HETATM   28  C   UNL     1     -12.692  15.296  70.468  1.00  0.00    -0.390 C  
HETATM   29  H   UNL     1     -10.859  17.949  68.926  1.00  0.00     0.000 HD 
HETATM   30  O   UNL     1     -13.743  15.571  71.033  1.00  0.00    -0.546 OA 
HETATM   31  O   UNL     1     -12.536  14.146  69.757  1.00  0.00    -0.332 OA 
ENDBRANCH  22  23
ENDBRANCH  21  22
ENDBRANCH  12  21
TORSDOF 7
ENDMDL
MODEL       55
REMARK 921   NORMALIZED FREE ENERGY PREDICTED BY IDOCK:   -5.88 KCAL/MOL
REMARK 922        TOTAL FREE ENERGY PREDICTED BY IDOCK:   -9.78 KCAL/MOL
REMARK 923 INTER-LIGAND FREE ENERGY PREDICTED BY IDOCK:   -8.32 KCAL/MOL
REMARK 924 INTRA-LIGAND FREE ENERGY PREDICTED BY IDOCK:   -1.46 KCAL/MOL
REMARK 927      BINDING AFFINITY PREDICTED BY RF-SCORE:    0.00 PKD
ROOT
HETATM    1  C   UNL     1      -9.154  12.164  68.326  1.00  0.00    -0.191 C  
HETATM    2  C   UNL     1     -10.543  11.662  67.773  1.00  0.00    -0.194 C  
HETATM    3  C   UNL     1     -10.995  10.223  68.084  1.00  0.00    -0.328 C  
HETATM    4  C   UNL     1      -6.817  13.315  67.928  1.00  0.00    -0.140 C  
HETATM    5  C   UNL     1     -10.435   9.590  69.347  1.00  0.00    -0.231 C  
HETATM    6  C   UNL     1      -6.223  12.071  68.518  1.00  0.00    -0.053 C  
HETATM    7  C   UNL     1      -6.587  14.378  69.019  1.00  0.00    -0.103 C  
HETATM    8  C   UNL     1      -6.940  11.072  69.034  1.00  0.00    -0.097 C  
HETATM    9  C   UNL     1      -8.978   9.916  69.487  1.00  0.00    -0.224 C  
HETATM   10  C   UNL     1     -10.627   8.066  69.228  1.00  0.00    -0.193 C  
HETATM   11  C   UNL     1      -8.382  11.011  68.978  1.00  0.00    -0.089 C  
HETATM   12  C   UNL     1      -8.271  13.065  67.359  1.00  0.00    -0.183 C  
ENDROOT
BRANCH   2  13
HETATM   13  O   UNL     1     -10.764  11.887  66.369  1.00  0.00    -0.246 OA 
BRANCH  13  14
HETATM   14  C   UNL     1     -11.817  12.657  65.986  1.00  0.00    -0.436 C  
HETATM   15  O   UNL     1     -12.775  12.969  66.694  1.00  0.00    -0.119 OA 
BRANCH  14  16
HETATM   16  C   UNL     1     -11.712  13.077  64.519  1.00  0.00    -0.419 C  
HETATM   17  C   UNL     1     -12.675  12.293  63.612  1.00  0.00    -0.526 C  
HETATM   18  C   UNL     1     -12.060  14.573  64.521  1.00  0.00    -0.501 C  
BRANCH  16  19
HETATM   19  C   UNL     1     -10.250  12.840  64.059  1.00  0.00    -0.323 C  
HETATM   20  C   UNL     1     -10.087  11.678  63.086  1.00  0.00    -0.409 C  
ENDBRANCH  16  19
ENDBRANCH  14  16
ENDBRANCH  13  14
ENDBRANCH   2  13
BRANCH  12  21
HETATM   21  C   UNL     1      -8.975  14.359  66.768  1.00  0.00    -0.256 C  
BRANCH  21  22
HETATM   22  C   UNL     1      -9.705  15.186  67.816  1.00  0.00    -0.211 C  
BRANCH  22  23
HETATM   23  C   UNL     1      -9.828  16.703  67.825  1.00  0.00    -0.252 C  
HETATM   24  C   UNL     1     -10.174  17.397  69.119  1.00  0.00    -0.273 C  
HETATM   25  C   UNL     1      -9.896  18.885  68.899  1.00  0.00    -0.390 C  
HETATM   26  O   UNL     1      -8.488  19.131  68.887  1.00  0.00    -0.350 OA 
HETATM   27  C   UNL     1     -10.561  19.423  67.637  1.00  0.00    -0.575 C  
HETATM   28  C   UNL     1     -10.557  18.471  66.462  1.00  0.00    -0.334 C  
HETATM   29  H   UNL     1      -8.315  20.055  68.751  1.00  0.00     0.000 HD 
HETATM   30  O   UNL     1     -10.568  18.857  65.300  1.00  0.00    -0.439 OA 
HETATM   31  O   UNL     1     -10.702  17.155  66.785  1.00  0.00    -0.231 OA 
ENDBRANCH  22  23
ENDBRANCH  21  22
ENDBRANCH  12  21
TORSDOF 7
ENDMDL
MODEL       56
REMARK 921   NORMALIZED FREE ENERGY PREDICTED BY IDOCK:   -5.87 KCAL/MOL
REMARK 922        TOTAL FREE ENERGY PREDICTED BY IDOCK:   -9.77 KCAL/MOL
REMARK 923 INTER-LIGAND FREE ENERGY PREDICTED BY IDOCK:   -8.31 KCAL/MOL
REMARK 924 INTRA-LIGAND FREE ENERGY PREDICTED BY IDOCK:   -1.45 KCAL/MOL
REMARK 927      BINDING AFFINITY PREDICTED BY RF-SCORE:    0.00 PKD
ROOT
HETATM    1  C   UNL     1     -12.445  12.409  70.172  1.00  0.00    -0.091 C  
HETATM    2  C   UNL     1     -11.498  11.385  69.434  1.00  0.00    -0.310 C  
HETATM    3  C   UNL     1     -11.335   9.967  70.014  1.00  0.00    -0.334 C  
HETATM    4  C   UNL     1     -12.859  14.791  71.220  1.00  0.00    -0.408 C  
HETATM    5  C   UNL     1     -12.490   9.433  70.844  1.00  0.00    -0.234 C  
HETATM    6  C   UNL     1     -13.233  14.057  72.473  1.00  0.00    -0.602 C  
HETATM    7  C   UNL     1     -14.203  15.340  70.708  1.00  0.00     0.082 C  
HETATM    8  C   UNL     1     -13.317  12.730  72.566  1.00  0.00    -0.319 C  
HETATM    9  C   UNL     1     -13.018  10.507  71.748  1.00  0.00    -0.582 C  
HETATM   10  C   UNL     1     -11.957   8.253  71.679  1.00  0.00    -0.346 C  
HETATM   11  C   UNL     1     -12.938  11.828  71.502  1.00  0.00    -0.446 C  
HETATM   12  C   UNL     1     -11.947  13.915  70.271  1.00  0.00    -0.401 C  
ENDROOT
BRANCH   2  13
HETATM   13  O   UNL     1     -10.181  11.876  69.126  1.00  0.00    -0.055 OA 
BRANCH  13  14
HETATM   14  C   UNL     1      -9.711  11.743  67.858  1.00  0.00    -0.185 C  
HETATM   15  O   UNL     1     -10.402  11.628  66.844  1.00  0.00    -0.210 OA 
BRANCH  14  16
HETATM   16  C   UNL     1      -8.183  11.702  67.816  1.00  0.00    -0.141 C  
HETATM   17  C   UNL     1      -7.559  13.106  67.733  1.00  0.00    -0.155 C  
HETATM   18  C   UNL     1      -7.781  11.002  69.123  1.00  0.00    -0.102 C  
BRANCH  16  19
HETATM   19  C   UNL     1      -7.762  10.868  66.578  1.00  0.00    -0.149 C  
HETATM   20  C   UNL     1      -6.302  11.048  66.177  1.00  0.00    -0.096 C  
ENDBRANCH  16  19
ENDBRANCH  14  16
ENDBRANCH  13  14
ENDBRANCH   2  13
BRANCH  12  21
HETATM   21  C   UNL     1     -11.559  14.619  68.902  1.00  0.00    -0.340 C  
BRANCH  21  22
HETATM   22  C   UNL     1     -10.457  15.658  69.044  1.00  0.00    -0.229 C  
BRANCH  22  23
HETATM   23  C   UNL     1     -10.232  16.848  68.121  1.00  0.00    -0.311 C  
HETATM   24  C   UNL     1      -9.326  16.681  66.927  1.00  0.00    -0.246 C  
HETATM   25  C   UNL     1      -9.561  17.899  66.032  1.00  0.00    -0.083 C  
HETATM   26  O   UNL     1     -10.823  17.790  65.368  1.00  0.00    -0.550 OA 
HETATM   27  C   UNL     1      -9.450  19.215  66.795  1.00  0.00    -0.376 C  
HETATM   28  C   UNL     1     -10.016  19.185  68.197  1.00  0.00    -0.388 C  
HETATM   29  H   UNL     1     -10.969  18.547  64.812  1.00  0.00     0.000 HD 
HETATM   30  O   UNL     1     -10.466  20.182  68.748  1.00  0.00    -0.353 OA 
HETATM   31  O   UNL     1      -9.845  18.010  68.864  1.00  0.00    -0.352 OA 
ENDBRANCH  22  23
ENDBRANCH  21  22
ENDBRANCH  12  21
TORSDOF 7
ENDMDL
MODEL       57
REMARK 921   NORMALIZED FREE ENERGY PREDICTED BY IDOCK:   -5.86 KCAL/MOL
REMARK 922        TOTAL FREE ENERGY PREDICTED BY IDOCK:   -9.75 KCAL/MOL
REMARK 923 INTER-LIGAND FREE ENERGY PREDICTED BY IDOCK:   -8.71 KCAL/MOL
REMARK 924 INTRA-LIGAND FREE ENERGY PREDICTED BY IDOCK:   -1.04 KCAL/MOL
REMARK 927      BINDING AFFINITY PREDICTED BY RF-SCORE:    0.00 PKD
ROOT
HETATM    1  C   UNL     1     -11.798  11.839  70.403  1.00  0.00    -0.362 C  
HETATM    2  C   UNL     1     -11.823  13.195  69.597  1.00  0.00    -0.324 C  
HETATM    3  C   UNL     1     -12.702  14.352  70.109  1.00  0.00    -0.259 C  
HETATM    4  C   UNL     1     -11.994   9.212  70.461  1.00  0.00    -0.081 C  
HETATM    5  C   UNL     1     -12.996  14.377  71.600  1.00  0.00    -0.412 C  
HETATM    6  C   UNL     1     -13.056   9.420  71.498  1.00  0.00    -0.451 C  
HETATM    7  C   UNL     1     -10.813   8.636  71.263  1.00  0.00    -0.327 C  
HETATM    8  C   UNL     1     -13.383  10.609  72.006  1.00  0.00    -0.409 C  
HETATM    9  C   UNL     1     -13.298  12.993  72.091  1.00  0.00    -0.622 C  
HETATM   10  C   UNL     1     -14.215  15.294  71.818  1.00  0.00    -0.669 C  
HETATM   11  C   UNL     1     -12.838  11.860  71.529  1.00  0.00    -0.421 C  
HETATM   12  C   UNL     1     -11.790  10.493  69.557  1.00  0.00    -0.287 C  
ENDROOT
BRANCH   2  13
HETATM   13  O   UNL     1     -12.062  13.068  68.185  1.00  0.00    -0.307 OA 
BRANCH  13  14
HETATM   14  C   UNL     1     -11.776  14.120  67.373  1.00  0.00    -0.391 C  
HETATM   15  O   UNL     1     -11.895  15.309  67.670  1.00  0.00    -0.265 OA 
BRANCH  14  16
HETATM   16  C   UNL     1     -11.318  13.663  65.987  1.00  0.00    -0.322 C  
HETATM   17  C   UNL     1     -12.281  12.642  65.356  1.00  0.00    -0.517 C  
HETATM   18  C   UNL     1     -11.267  14.952  65.154  1.00  0.00    -0.389 C  
BRANCH  16  19
HETATM   19  C   UNL     1      -9.909  13.032  66.135  1.00  0.00    -0.275 C  
HETATM   20  C   UNL     1      -8.923  13.890  66.919  1.00  0.00    -0.236 C  
ENDBRANCH  16  19
ENDBRANCH  14  16
ENDBRANCH  13  14
ENDBRANCH   2  13
BRANCH  12  21
HETATM   21  C   UNL     1     -10.640  10.353  68.471  1.00  0.00    -0.237 C  
BRANCH  21  22
HETATM   22  C   UNL     1      -9.284  10.842  68.958  1.00  0.00    -0.157 C  
BRANCH  22  23
HETATM   23  C   UNL     1      -8.163   9.963  69.496  1.00  0.00    -0.158 C  
HETATM   24  C   UNL     1      -6.846  10.604  69.857  1.00  0.00    -0.149 C  
HETATM   25  C   UNL     1      -6.065   9.565  70.663  1.00  0.00    -0.071 C  
HETATM   26  O   UNL     1      -6.617   9.439  71.976  1.00  0.00    -0.300 OA 
HETATM   27  C   UNL     1      -5.997   8.212  69.961  1.00  0.00    -0.022 C  
HETATM   28  C   UNL     1      -7.259   7.812  69.230  1.00  0.00    -0.081 C  
HETATM   29  H   UNL     1      -6.132   8.793  72.477  1.00  0.00     0.000 HD 
HETATM   30  O   UNL     1      -7.578   6.642  69.056  1.00  0.00    -0.096 OA 
HETATM   31  O   UNL     1      -7.935   8.837  68.641  1.00  0.00    -0.104 OA 
ENDBRANCH  22  23
ENDBRANCH  21  22
ENDBRANCH  12  21
TORSDOF 7
ENDMDL
MODEL       58
REMARK 921   NORMALIZED FREE ENERGY PREDICTED BY IDOCK:   -5.86 KCAL/MOL
REMARK 922        TOTAL FREE ENERGY PREDICTED BY IDOCK:   -9.75 KCAL/MOL
REMARK 923 INTER-LIGAND FREE ENERGY PREDICTED BY IDOCK:   -8.75 KCAL/MOL
REMARK 924 INTRA-LIGAND FREE ENERGY PREDICTED BY IDOCK:   -1.00 KCAL/MOL
REMARK 927      BINDING AFFINITY PREDICTED BY RF-SCORE:    0.00 PKD
ROOT
HETATM    1  C   UNL     1      -8.951   9.637  68.476  1.00  0.00    -0.124 C  
HETATM    2  C   UNL     1      -9.184   9.734  70.033  1.00  0.00    -0.229 C  
HETATM    3  C   UNL     1      -8.191   9.037  70.983  1.00  0.00    -0.220 C  
HETATM    4  C   UNL     1      -9.859   9.119  66.058  1.00  0.00    -0.342 C  
HETATM    5  C   UNL     1      -6.778   8.837  70.462  1.00  0.00    -0.044 C  
HETATM    6  C   UNL     1      -8.717   8.155  65.951  1.00  0.00    -0.184 C  
HETATM    7  C   UNL     1      -9.454  10.265  65.112  1.00  0.00    -0.309 C  
HETATM    8  C   UNL     1      -7.771   8.009  66.879  1.00  0.00    -0.099 C  
HETATM    9  C   UNL     1      -6.811   8.395  69.030  1.00  0.00    -0.056 C  
HETATM   10  C   UNL     1      -6.109   7.757  71.335  1.00  0.00    -0.035 C  
HETATM   11  C   UNL     1      -7.799   8.676  68.161  1.00  0.00    -0.103 C  
HETATM   12  C   UNL     1     -10.234   9.428  67.562  1.00  0.00    -0.288 C  
ENDROOT
BRANCH   2  13
HETATM   13  O   UNL     1     -10.510   9.398  70.479  1.00  0.00    -0.232 OA 
BRANCH  13  14
HETATM   14  C   UNL     1     -10.799   8.099  70.760  1.00  0.00    -0.228 C  
HETATM   15  O   UNL     1     -10.317   7.117  70.194  1.00  0.00    -0.199 OA 
BRANCH  14  16
HETATM   16  C   UNL     1     -11.856   7.975  71.858  1.00  0.00    -0.353 C  
HETATM   17  C   UNL     1     -11.265   7.481  73.190  1.00  0.00    -0.318 C  
HETATM   18  C   UNL     1     -12.427   9.393  72.006  1.00  0.00    -0.440 C  
BRANCH  16  19
HETATM   19  C   UNL     1     -12.940   6.980  71.366  1.00  0.00    -0.395 C  
HETATM   20  C   UNL     1     -14.361   7.524  71.439  1.00  0.00    -0.540 C  
ENDBRANCH  16  19
ENDBRANCH  14  16
ENDBRANCH  13  14
ENDBRANCH   2  13
BRANCH  12  21
HETATM   21  C   UNL     1     -11.405  10.486  67.742  1.00  0.00    -0.267 C  
BRANCH  21  22
HETATM   22  C   UNL     1     -10.923  11.929  67.744  1.00  0.00    -0.278 C  
BRANCH  22  23
HETATM   23  C   UNL     1     -11.094  12.925  66.605  1.00  0.00    -0.284 C  
HETATM   24  C   UNL     1     -11.040  14.400  66.914  1.00  0.00    -0.325 C  
HETATM   25  C   UNL     1     -10.903  15.119  65.571  1.00  0.00    -0.364 C  
HETATM   26  O   UNL     1      -9.581  14.953  65.052  1.00  0.00    -0.348 OA 
HETATM   27  C   UNL     1     -11.954  14.671  64.559  1.00  0.00    -0.473 C  
HETATM   28  C   UNL     1     -12.285  13.196  64.599  1.00  0.00    -0.414 C  
HETATM   29  H   UNL     1      -9.496  15.399  64.217  1.00  0.00     0.000 HD 
HETATM   30  O   UNL     1     -12.677  12.582  63.614  1.00  0.00    -0.712 OA 
HETATM   31  O   UNL     1     -12.270  12.634  65.839  1.00  0.00    -0.548 OA 
ENDBRANCH  22  23
ENDBRANCH  21  22
ENDBRANCH  12  21
TORSDOF 7
ENDMDL
MODEL       59
REMARK 921   NORMALIZED FREE ENERGY PREDICTED BY IDOCK:   -5.82 KCAL/MOL
REMARK 922        TOTAL FREE ENERGY PREDICTED BY IDOCK:   -9.70 KCAL/MOL
REMARK 923 INTER-LIGAND FREE ENERGY PREDICTED BY IDOCK:   -8.35 KCAL/MOL
REMARK 924 INTRA-LIGAND FREE ENERGY PREDICTED BY IDOCK:   -1.34 KCAL/MOL
REMARK 927      BINDING AFFINITY PREDICTED BY RF-SCORE:    0.00 PKD
ROOT
HETATM    1  C   UNL     1     -11.048  13.650  69.684  1.00  0.00    -0.067 C  
HETATM    2  C   UNL     1     -10.315  13.094  68.402  1.00  0.00    -0.253 C  
HETATM    3  C   UNL     1      -9.436  14.047  67.571  1.00  0.00    -0.221 C  
HETATM    4  C   UNL     1     -13.241  13.945  71.114  1.00  0.00    -0.308 C  
HETATM    5  C   UNL     1      -8.833  15.232  68.305  1.00  0.00    -0.171 C  
HETATM    6  C   UNL     1     -12.961  15.416  71.046  1.00  0.00    -0.556 C  
HETATM    7  C   UNL     1     -12.938  13.586  72.581  1.00  0.00    -0.291 C  
HETATM    8  C   UNL     1     -11.867  15.945  70.497  1.00  0.00    -0.374 C  
HETATM    9  C   UNL     1      -9.846  15.837  69.232  1.00  0.00    -0.265 C  
HETATM   10  C   UNL     1      -8.402  16.265  67.246  1.00  0.00    -0.203 C  
HETATM   11  C   UNL     1     -10.874  15.170  69.789  1.00  0.00    -0.298 C  
HETATM   12  C   UNL     1     -12.535  13.153  69.942  1.00  0.00    -0.091 C  
ENDROOT
BRANCH   2  13
HETATM   13  O   UNL     1     -11.150  12.369  67.482  1.00  0.00    -0.240 OA 
BRANCH  13  14
HETATM   14  C   UNL     1     -11.684  13.029  66.420  1.00  0.00    -0.390 C  
HETATM   15  O   UNL     1     -12.375  14.047  66.481  1.00  0.00    -0.457 OA 
BRANCH  14  16
HETATM   16  C   UNL     1     -11.369  12.330  65.097  1.00  0.00    -0.376 C  
HETATM   17  C   UNL     1     -12.629  12.075  64.252  1.00  0.00    -0.359 C  
HETATM   18  C   UNL     1     -10.412  13.288  64.373  1.00  0.00    -0.424 C  
BRANCH  16  19
HETATM   19  C   UNL     1     -10.676  10.981  65.423  1.00  0.00    -0.222 C  
HETATM   20  C   UNL     1      -9.772  10.464  64.311  1.00  0.00    -0.389 C  
ENDBRANCH  16  19
ENDBRANCH  14  16
ENDBRANCH  13  14
ENDBRANCH   2  13
BRANCH  12  21
HETATM   21  C   UNL     1     -12.752  11.581  69.989  1.00  0.00     0.034 C  
BRANCH  21  22
HETATM   22  C   UNL     1     -11.667  10.842  70.758  1.00  0.00    -0.400 C  
BRANCH  22  23
HETATM   23  C   UNL     1     -11.223   9.407  70.512  1.00  0.00    -0.275 C  
HETATM   24  C   UNL     1     -10.666   9.040  69.159  1.00  0.00    -0.176 C  
HETATM   25  C   UNL     1     -10.011   7.667  69.318  1.00  0.00    -0.180 C  
HETATM   26  O   UNL     1      -8.781   7.784  70.039  1.00  0.00    -0.138 OA 
HETATM   27  C   UNL     1     -10.940   6.649  69.973  1.00  0.00    -0.363 C  
HETATM   28  C   UNL     1     -11.812   7.205  71.076  1.00  0.00    -0.333 C  
HETATM   29  H   UNL     1      -8.375   6.931  70.137  1.00  0.00     0.000 HD 
HETATM   30  O   UNL     1     -12.215   6.518  72.007  1.00  0.00    -0.338 OA 
HETATM   31  O   UNL     1     -12.251   8.479  70.880  1.00  0.00    -0.228 OA 
ENDBRANCH  22  23
ENDBRANCH  21  22
ENDBRANCH  12  21
TORSDOF 7
ENDMDL
MODEL       60
REMARK 921   NORMALIZED FREE ENERGY PREDICTED BY IDOCK:   -5.80 KCAL/MOL
REMARK 922        TOTAL FREE ENERGY PREDICTED BY IDOCK:   -9.66 KCAL/MOL
REMARK 923 INTER-LIGAND FREE ENERGY PREDICTED BY IDOCK:   -9.01 KCAL/MOL
REMARK 924 INTRA-LIGAND FREE ENERGY PREDICTED BY IDOCK:   -0.66 KCAL/MOL
REMARK 927      BINDING AFFINITY PREDICTED BY RF-SCORE:    0.00 PKD
ROOT
HETATM    1  C   UNL     1     -11.000  13.263  67.757  1.00  0.00    -0.278 C  
HETATM    2  C   UNL     1     -11.219  12.883  69.272  1.00  0.00    -0.190 C  
HETATM    3  C   UNL     1     -11.387  11.400  69.654  1.00  0.00    -0.347 C  
HETATM    4  C   UNL     1     -11.643  14.707  65.648  1.00  0.00    -0.328 C  
HETATM    5  C   UNL     1     -10.750  10.381  68.724  1.00  0.00    -0.255 C  
HETATM    6  C   UNL     1     -11.839  13.398  64.944  1.00  0.00    -0.403 C  
HETATM    7  C   UNL     1     -10.358  15.270  65.013  1.00  0.00    -0.375 C  
HETATM    8  C   UNL     1     -11.567  12.210  65.484  1.00  0.00    -0.398 C  
HETATM    9  C   UNL     1     -10.978  10.770  67.294  1.00  0.00    -0.359 C  
HETATM   10  C   UNL     1     -11.405   9.016  69.012  1.00  0.00     0.373 C  
HETATM   11  C   UNL     1     -11.165  12.030  66.861  1.00  0.00    -0.375 C  
HETATM   12  C   UNL     1     -11.751  14.557  67.218  1.00  0.00    -0.429 C  
ENDROOT
BRANCH   2  13
HETATM   13  O   UNL     1     -12.252  13.620  69.949  1.00  0.00    -0.321 OA 
BRANCH  13  14
HETATM   14  C   UNL     1     -11.943  14.283  71.095  1.00  0.00    -0.282 C  
HETATM   15  O   UNL     1     -10.851  14.785  71.362  1.00  0.00     0.096 OA 
BRANCH  14  16
HETATM   16  C   UNL     1     -13.116  14.304  72.076  1.00  0.00    -0.456 C  
HETATM   17  C   UNL     1     -14.262  15.215  71.602  1.00  0.00    -0.664 C  
HETATM   18  C   UNL     1     -13.579  12.842  72.156  1.00  0.00    -0.589 C  
BRANCH  16  19
HETATM   19  C   UNL     1     -12.583  14.802  73.445  1.00  0.00    -0.556 C  
HETATM   20  C   UNL     1     -12.518  16.320  73.570  1.00  0.00    -0.637 C  
ENDBRANCH  16  19
ENDBRANCH  14  16
ENDBRANCH  13  14
ENDBRANCH   2  13
BRANCH  12  21
HETATM   21  C   UNL     1     -11.500  15.901  68.024  1.00  0.00    -0.236 C  
BRANCH  21  22
HETATM   22  C   UNL     1     -10.379  16.753  67.449  1.00  0.00    -0.302 C  
BRANCH  22  23
HETATM   23  C   UNL     1      -8.928  16.742  67.910  1.00  0.00    -0.219 C  
HETATM   24  C   UNL     1      -8.300  15.429  68.306  1.00  0.00    -0.150 C  
HETATM   25  C   UNL     1      -6.794  15.677  68.390  1.00  0.00    -0.115 C  
HETATM   26  O   UNL     1      -6.238  15.800  67.078  1.00  0.00    -0.312 OA 
HETATM   27  C   UNL     1      -6.447  16.886  69.252  1.00  0.00    -0.228 C  
HETATM   28  C   UNL     1      -7.401  18.053  69.120  1.00  0.00    -0.111 C  
HETATM   29  H   UNL     1      -5.302  15.954  67.130  1.00  0.00     0.000 HD 
HETATM   30  O   UNL     1      -7.052  19.213  69.305  1.00  0.00    -0.323 OA 
HETATM   31  O   UNL     1      -8.707  17.714  68.939  1.00  0.00    -0.231 OA 
ENDBRANCH  22  23
ENDBRANCH  21  22
ENDBRANCH  12  21
TORSDOF 7
ENDMDL
MODEL       61
REMARK 921   NORMALIZED FREE ENERGY PREDICTED BY IDOCK:   -5.80 KCAL/MOL
REMARK 922        TOTAL FREE ENERGY PREDICTED BY IDOCK:   -9.66 KCAL/MOL
REMARK 923 INTER-LIGAND FREE ENERGY PREDICTED BY IDOCK:   -8.23 KCAL/MOL
REMARK 924 INTRA-LIGAND FREE ENERGY PREDICTED BY IDOCK:   -1.43 KCAL/MOL
REMARK 927      BINDING AFFINITY PREDICTED BY RF-SCORE:    0.00 PKD
ROOT
HETATM    1  C   UNL     1      -9.289  10.961  67.767  1.00  0.00    -0.162 C  
HETATM    2  C   UNL     1      -9.304  10.463  69.263  1.00  0.00    -0.187 C  
HETATM    3  C   UNL     1      -8.144   9.586  69.771  1.00  0.00    -0.143 C  
HETATM    4  C   UNL     1     -10.498  11.253  65.444  1.00  0.00    -0.326 C  
HETATM    5  C   UNL     1      -6.809   9.746  69.063  1.00  0.00    -0.050 C  
HETATM    6  C   UNL     1      -9.323  10.526  64.862  1.00  0.00    -0.278 C  
HETATM    7  C   UNL     1     -10.306  12.701  64.954  1.00  0.00    -0.330 C  
HETATM    8  C   UNL     1      -8.248  10.161  65.560  1.00  0.00    -0.156 C  
HETATM    9  C   UNL     1      -7.017   9.850  67.581  1.00  0.00    -0.086 C  
HETATM   10  C   UNL     1      -5.956   8.505  69.391  1.00  0.00    -0.037 C  
HETATM   11  C   UNL     1      -8.136  10.313  66.993  1.00  0.00    -0.121 C  
HETATM   12  C   UNL     1     -10.674  10.954  66.986  1.00  0.00    -0.323 C  
ENDROOT
BRANCH   2  13
HETATM   13  O   UNL     1     -10.529   9.843  69.694  1.00  0.00    -0.214 OA 
BRANCH  13  14
HETATM   14  C   UNL     1     -10.599   8.486  69.735  1.00  0.00    -0.224 C  
HETATM   15  O   UNL     1     -10.352   7.725  68.798  1.00  0.00    -0.202 OA 
BRANCH  14  16
HETATM   16  C   UNL     1     -11.076   7.980  71.097  1.00  0.00    -0.278 C  
HETATM   17  C   UNL     1     -11.668   9.102  71.967  1.00  0.00    -0.384 C  
HETATM   18  C   UNL     1     -12.142   6.926  70.765  1.00  0.00    -0.400 C  
BRANCH  16  19
HETATM   19  C   UNL     1      -9.861   7.343  71.821  1.00  0.00    -0.187 C  
HETATM   20  C   UNL     1      -9.480   8.039  73.123  1.00  0.00    -0.349 C  
ENDBRANCH  16  19
ENDBRANCH  14  16
ENDBRANCH  13  14
ENDBRANCH   2  13
BRANCH  12  21
HETATM   21  C   UNL     1     -11.871  11.738  67.674  1.00  0.00    -0.241 C  
BRANCH  21  22
HETATM   22  C   UNL     1     -11.445  13.041  68.333  1.00  0.00    -0.345 C  
BRANCH  22  23
HETATM   23  C   UNL     1     -12.056  13.643  69.591  1.00  0.00    -0.321 C  
HETATM   24  C   UNL     1     -11.536  14.969  70.089  1.00  0.00    -0.326 C  
HETATM   25  C   UNL     1     -12.540  15.463  71.131  1.00  0.00    -0.422 C  
HETATM   26  O   UNL     1     -13.735  15.920  70.491  1.00  0.00    -0.612 OA 
HETATM   27  C   UNL     1     -12.850  14.409  72.190  1.00  0.00    -0.418 C  
HETATM   28  C   UNL     1     -12.935  12.992  71.668  1.00  0.00    -0.321 C  
HETATM   29  H   UNL     1     -14.359  16.227  71.139  1.00  0.00     0.000 HD 
HETATM   30  O   UNL     1     -13.628  12.134  72.201  1.00  0.00    -0.431 OA 
HETATM   31  O   UNL     1     -12.066  12.693  70.663  1.00  0.00    -0.357 OA 
ENDBRANCH  22  23
ENDBRANCH  21  22
ENDBRANCH  12  21
TORSDOF 7
ENDMDL
MODEL       62
REMARK 921   NORMALIZED FREE ENERGY PREDICTED BY IDOCK:   -5.73 KCAL/MOL
REMARK 922        TOTAL FREE ENERGY PREDICTED BY IDOCK:   -9.57 KCAL/MOL
REMARK 923 INTER-LIGAND FREE ENERGY PREDICTED BY IDOCK:   -8.05 KCAL/MOL
REMARK 924 INTRA-LIGAND FREE ENERGY PREDICTED BY IDOCK:   -1.52 KCAL/MOL
REMARK 927      BINDING AFFINITY PREDICTED BY RF-SCORE:    0.00 PKD
ROOT
HETATM    1  C   UNL     1      -9.453  10.504  66.982  1.00  0.00    -0.188 C  
HETATM    2  C   UNL     1     -10.748  10.691  66.101  1.00  0.00    -0.076 C  
HETATM    3  C   UNL     1     -10.597  10.878  64.579  1.00  0.00    -0.335 C  
HETATM    4  C   UNL     1      -7.997  11.173  69.073  1.00  0.00    -0.087 C  
HETATM    5  C   UNL     1      -9.353  10.284  63.940  1.00  0.00    -0.337 C  
HETATM    6  C   UNL     1      -6.889  11.411  68.093  1.00  0.00    -0.064 C  
HETATM    7  C   UNL     1      -7.558   9.894  69.811  1.00  0.00    -0.151 C  
HETATM    8  C   UNL     1      -6.975  11.148  66.788  1.00  0.00    -0.137 C  
HETATM    9  C   UNL     1      -8.154  10.540  64.804  1.00  0.00    -0.078 C  
HETATM   10  C   UNL     1      -9.169  10.957  62.566  1.00  0.00    -0.339 C  
HETATM   11  C   UNL     1      -8.191  10.715  66.138  1.00  0.00    -0.156 C  
HETATM   12  C   UNL     1      -9.420  11.244  68.388  1.00  0.00    -0.192 C  
ENDROOT
BRANCH   2  13
HETATM   13  O   UNL     1     -11.670  11.693  66.566  1.00  0.00    -0.498 OA 
BRANCH  13  14
HETATM   14  C   UNL     1     -12.156  12.601  65.678  1.00  0.00    -0.443 C  
HETATM   15  O   UNL     1     -12.896  12.349  64.726  1.00  0.00    -0.728 OA 
BRANCH  14  16
HETATM   16  C   UNL     1     -11.638  14.011  65.962  1.00  0.00    -0.362 C  
HETATM   17  C   UNL     1     -12.203  15.054  64.983  1.00  0.00    -0.080 C  
HETATM   18  C   UNL     1     -12.093  14.307  67.398  1.00  0.00    -0.371 C  
BRANCH  16  19
HETATM   19  C   UNL     1     -10.090  13.980  65.856  1.00  0.00    -0.336 C  
HETATM   20  C   UNL     1      -9.376  14.704  66.992  1.00  0.00    -0.244 C  
ENDBRANCH  16  19
ENDBRANCH  14  16
ENDBRANCH  13  14
ENDBRANCH   2  13
BRANCH  12  21
HETATM   21  C   UNL     1     -10.635  10.947  69.367  1.00  0.00    -0.233 C  
BRANCH  21  22
HETATM   22  C   UNL     1     -11.122   9.507  69.309  1.00  0.00    -0.109 C  
BRANCH  22  23
HETATM   23  C   UNL     1     -11.016   8.487  70.435  1.00  0.00    -0.238 C  
HETATM   24  C   UNL     1     -10.533   8.945  71.788  1.00  0.00    -0.431 C  
HETATM   25  C   UNL     1     -10.850   7.814  72.767  1.00  0.00    -0.379 C  
HETATM   26  O   UNL     1     -12.254   7.771  73.037  1.00  0.00    -0.566 OA 
HETATM   27  C   UNL     1     -10.340   6.461  72.281  1.00  0.00    -0.215 C  
HETATM   28  C   UNL     1     -10.468   6.232  70.792  1.00  0.00    -0.222 C  
HETATM   29  H   UNL     1     -12.451   7.069  73.646  1.00  0.00     0.000 HD 
HETATM   30  O   UNL     1     -10.595   5.115  70.306  1.00  0.00    -0.262 OA 
HETATM   31  O   UNL     1     -10.272   7.336  70.019  1.00  0.00    -0.195 OA 
ENDBRANCH  22  23
ENDBRANCH  21  22
ENDBRANCH  12  21
TORSDOF 7
ENDMDL
MODEL       63
REMARK 921   NORMALIZED FREE ENERGY PREDICTED BY IDOCK:   -5.71 KCAL/MOL
REMARK 922        TOTAL FREE ENERGY PREDICTED BY IDOCK:   -9.54 KCAL/MOL
REMARK 923 INTER-LIGAND FREE ENERGY PREDICTED BY IDOCK:   -8.15 KCAL/MOL
REMARK 924 INTRA-LIGAND FREE ENERGY PREDICTED BY IDOCK:   -1.39 KCAL/MOL
REMARK 927      BINDING AFFINITY PREDICTED BY RF-SCORE:    0.00 PKD
ROOT
HETATM    1  C   UNL     1     -10.343  14.502  68.353  1.00  0.00    -0.241 C  
HETATM    2  C   UNL     1     -10.362  15.948  68.983  1.00  0.00    -0.231 C  
HETATM    3  C   UNL     1     -11.392  16.270  70.083  1.00  0.00    -0.292 C  
HETATM    4  C   UNL     1     -10.339  12.932  66.236  1.00  0.00    -0.278 C  
HETATM    5  C   UNL     1     -11.891  15.099  70.913  1.00  0.00    -0.373 C  
HETATM    6  C   UNL     1     -11.547  12.287  66.844  1.00  0.00    -0.427 C  
HETATM    7  C   UNL     1      -9.238  11.867  66.401  1.00  0.00    -0.218 C  
HETATM    8  C   UNL     1     -12.034  12.593  68.047  1.00  0.00    -0.300 C  
HETATM    9  C   UNL     1     -12.149  13.912  70.033  1.00  0.00    -0.411 C  
HETATM   10  C   UNL     1     -13.197  15.540  71.602  1.00  0.00    -0.575 C  
HETATM   11  C   UNL     1     -11.528  13.673  68.863  1.00  0.00    -0.344 C  
HETATM   12  C   UNL     1     -10.112  14.398  66.784  1.00  0.00    -0.266 C  
ENDROOT
BRANCH   2  13
HETATM   13  O   UNL     1     -10.392  17.031  68.038  1.00  0.00    -0.307 OA 
BRANCH  13  14
HETATM   14  C   UNL     1      -9.421  17.981  68.097  1.00  0.00    -0.289 C  
HETATM   15  O   UNL     1      -8.426  17.946  68.821  1.00  0.00    -0.283 OA 
BRANCH  14  16
HETATM   16  C   UNL     1      -9.721  19.162  67.174  1.00  0.00    -0.393 C  
HETATM   17  C   UNL     1     -10.657  18.780  66.014  1.00  0.00    -0.442 C  
HETATM   18  C   UNL     1     -10.381  20.207  68.086  1.00  0.00    -0.441 C  
BRANCH  16  19
HETATM   19  C   UNL     1      -8.373  19.680  66.608  1.00  0.00    -0.349 C  
HETATM   20  C   UNL     1      -7.962  21.048  67.140  1.00  0.00    -0.068 C  
ENDBRANCH  16  19
ENDBRANCH  14  16
ENDBRANCH  13  14
ENDBRANCH   2  13
BRANCH  12  21
HETATM   21  C   UNL     1      -8.815  15.116  66.216  1.00  0.00    -0.211 C  
BRANCH  21  22
HETATM   22  C   UNL     1      -7.613  15.020  67.144  1.00  0.00    -0.174 C  
BRANCH  22  23
HETATM   23  C   UNL     1      -7.028  13.734  67.711  1.00  0.00    -0.171 C  
HETATM   24  C   UNL     1      -6.753  13.651  69.192  1.00  0.00    -0.109 C  
HETATM   25  C   UNL     1      -6.502  12.175  69.503  1.00  0.00    -0.100 C  
HETATM   26  O   UNL     1      -7.731  11.444  69.466  1.00  0.00    -0.360 OA 
HETATM   27  C   UNL     1      -5.461  11.551  68.579  1.00  0.00    -0.042 C  
HETATM   28  C   UNL     1      -5.524  12.022  67.144  1.00  0.00    -0.121 C  
HETATM   29  H   UNL     1      -7.576  10.527  69.660  1.00  0.00     0.000 HD 
HETATM   30  O   UNL     1      -5.158  11.326  66.205  1.00  0.00    -0.121 OA 
HETATM   31  O   UNL     1      -5.864  13.330  66.979  1.00  0.00    -0.211 OA 
ENDBRANCH  22  23
ENDBRANCH  21  22
ENDBRANCH  12  21
TORSDOF 7
ENDMDL
MODEL       64
REMARK 921   NORMALIZED FREE ENERGY PREDICTED BY IDOCK:   -5.69 KCAL/MOL
REMARK 922        TOTAL FREE ENERGY PREDICTED BY IDOCK:   -9.51 KCAL/MOL
REMARK 923 INTER-LIGAND FREE ENERGY PREDICTED BY IDOCK:   -7.93 KCAL/MOL
REMARK 924 INTRA-LIGAND FREE ENERGY PREDICTED BY IDOCK:   -1.58 KCAL/MOL
REMARK 927      BINDING AFFINITY PREDICTED BY RF-SCORE:    0.00 PKD
ROOT
HETATM    1  C   UNL     1     -10.676   7.217  69.208  1.00  0.00    -0.231 C  
HETATM    2  C   UNL     1     -10.366   5.792  68.605  1.00  0.00    -0.221 C  
HETATM    3  C   UNL     1      -9.928   4.659  69.552  1.00  0.00    -0.266 C  
HETATM    4  C   UNL     1     -10.340   9.830  69.183  1.00  0.00    -0.225 C  
HETATM    5  C   UNL     1     -10.387   4.762  70.996  1.00  0.00    -0.188 C  
HETATM    6  C   UNL     1      -9.924   9.683  70.616  1.00  0.00    -0.299 C  
HETATM    7  C   UNL     1     -11.716  10.516  69.275  1.00  0.00    -0.281 C  
HETATM    8  C   UNL     1      -9.968   8.537  71.294  1.00  0.00    -0.284 C  
HETATM    9  C   UNL     1     -10.258   6.175  71.482  1.00  0.00    -0.243 C  
HETATM   10  C   UNL     1      -9.493   3.830  71.836  1.00  0.00    -0.207 C  
HETATM   11  C   UNL     1     -10.307   7.266  70.695  1.00  0.00    -0.213 C  
HETATM   12  C   UNL     1     -10.179   8.479  68.379  1.00  0.00    -0.236 C  
ENDROOT
BRANCH   2  13
HETATM   13  O   UNL     1      -9.471   5.781  67.480  1.00  0.00    -0.111 OA 
BRANCH  13  14
HETATM   14  C   UNL     1      -9.740   4.954  66.434  1.00  0.00    -0.189 C  
HETATM   15  O   UNL     1     -10.848   4.773  65.929  1.00  0.00    -0.304 OA 
BRANCH  14  16
HETATM   16  C   UNL     1      -8.491   4.210  65.960  1.00  0.00    -0.109 C  
HETATM   17  C   UNL     1      -8.430   4.081  64.428  1.00  0.00    -0.105 C  
HETATM   18  C   UNL     1      -7.318   5.051  66.484  1.00  0.00    -0.086 C  
BRANCH  16  19
HETATM   19  C   UNL     1      -8.504   2.799  66.604  1.00  0.00    -0.102 C  
HETATM   20  C   UNL     1      -7.372   2.559  67.595  1.00  0.00    -0.056 C  
ENDBRANCH  16  19
ENDBRANCH  14  16
ENDBRANCH  13  14
ENDBRANCH   2  13
BRANCH  12  21
HETATM   21  C   UNL     1     -10.654   8.556  66.866  1.00  0.00    -0.279 C  
BRANCH  21  22
HETATM   22  C   UNL     1      -9.898   9.590  66.045  1.00  0.00    -0.353 C  
BRANCH  22  23
HETATM   23  C   UNL     1     -10.510  10.810  65.370  1.00  0.00    -0.202 C  
HETATM   24  C   UNL     1     -10.022  11.203  63.997  1.00  0.00    -0.376 C  
HETATM   25  C   UNL     1     -11.027  12.220  63.456  1.00  0.00    -0.459 C  
HETATM   26  O   UNL     1     -12.242  11.566  63.080  1.00  0.00    -0.968 OA 
HETATM   27  C   UNL     1     -11.294  13.357  64.438  1.00  0.00    -0.419 C  
HETATM   28  C   UNL     1     -11.345  12.942  65.891  1.00  0.00    -0.312 C  
HETATM   29  H   UNL     1     -12.866  12.198  62.743  1.00  0.00     0.000 HD 
HETATM   30  O   UNL     1     -12.007  13.545  66.726  1.00  0.00    -0.382 OA 
HETATM   31  O   UNL     1     -10.480  11.948  66.238  1.00  0.00    -0.226 OA 
ENDBRANCH  22  23
ENDBRANCH  21  22
ENDBRANCH  12  21
TORSDOF 7
ENDMDL
MODEL       65
REMARK 921   NORMALIZED FREE ENERGY PREDICTED BY IDOCK:   -5.68 KCAL/MOL
REMARK 922        TOTAL FREE ENERGY PREDICTED BY IDOCK:   -9.49 KCAL/MOL
REMARK 923 INTER-LIGAND FREE ENERGY PREDICTED BY IDOCK:   -7.65 KCAL/MOL
REMARK 924 INTRA-LIGAND FREE ENERGY PREDICTED BY IDOCK:   -1.84 KCAL/MOL
REMARK 927      BINDING AFFINITY PREDICTED BY RF-SCORE:    0.00 PKD
ROOT
HETATM    1  C   UNL     1     -11.307  11.346  69.179  1.00  0.00    -0.353 C  
HETATM    2  C   UNL     1     -10.800   9.873  69.428  1.00  0.00    -0.237 C  
HETATM    3  C   UNL     1     -11.353   9.086  70.631  1.00  0.00    -0.311 C  
HETATM    4  C   UNL     1     -10.798  13.890  68.720  1.00  0.00    -0.282 C  
HETATM    5  C   UNL     1     -12.732   9.483  71.130  1.00  0.00    -0.371 C  
HETATM    6  C   UNL     1     -11.629  14.167  69.936  1.00  0.00    -0.329 C  
HETATM    7  C   UNL     1     -11.683  14.379  67.558  1.00  0.00    -0.416 C  
HETATM    8  C   UNL     1     -12.292  13.232  70.618  1.00  0.00    -0.416 C  
HETATM    9  C   UNL     1     -12.868  10.976  71.144  1.00  0.00    -0.491 C  
HETATM   10  C   UNL     1     -12.888   8.925  72.558  1.00  0.00    -0.401 C  
HETATM   11  C   UNL     1     -12.190  11.817  70.341  1.00  0.00    -0.416 C  
HETATM   12  C   UNL     1     -10.227  12.416  68.716  1.00  0.00    -0.103 C  
ENDROOT
BRANCH   2  13
HETATM   13  O   UNL     1      -9.372   9.705  69.425  1.00  0.00    -0.169 OA 
BRANCH  13  14
HETATM   14  C   UNL     1      -8.833   8.680  68.712  1.00  0.00    -0.139 C  
HETATM   15  O   UNL     1      -9.457   7.901  67.991  1.00  0.00    -0.147 OA 
BRANCH  14  16
HETATM   16  C   UNL     1      -7.326   8.557  68.939  1.00  0.00    -0.086 C  
HETATM   17  C   UNL     1      -6.976   8.241  70.404  1.00  0.00    -0.037 C  
HETATM   18  C   UNL     1      -6.889   7.411  68.015  1.00  0.00    -0.070 C  
BRANCH  16  19
HETATM   19  C   UNL     1      -6.670   9.899  68.522  1.00  0.00    -0.055 C  
HETATM   20  C   UNL     1      -6.372  10.007  67.031  1.00  0.00    -0.064 C  
ENDBRANCH  16  19
ENDBRANCH  14  16
ENDBRANCH  13  14
ENDBRANCH   2  13
BRANCH  12  21
HETATM   21  C   UNL     1      -9.380  12.045  67.425  1.00  0.00    -0.178 C  
BRANCH  21  22
HETATM   22  C   UNL     1     -10.178  11.292  66.371  1.00  0.00    -0.273 C  
BRANCH  22  23
HETATM   23  C   UNL     1      -9.637  10.781  65.043  1.00  0.00    -0.254 C  
HETATM   24  C   UNL     1     -10.383  11.118  63.776  1.00  0.00    -0.447 C  
HETATM   25  C   UNL     1      -9.446  10.772  62.618  1.00  0.00    -0.300 C  
HETATM   26  O   UNL     1      -8.398  11.741  62.521  1.00  0.00    -0.614 OA 
HETATM   27  C   UNL     1      -8.883   9.359  62.723  1.00  0.00    -0.224 C  
HETATM   28  C   UNL     1      -8.547   8.913  64.129  1.00  0.00    -0.106 C  
HETATM   29  H   UNL     1      -7.816  11.526  61.801  1.00  0.00     0.000 HD 
HETATM   30  O   UNL     1      -7.673   8.089  64.367  1.00  0.00    -0.114 OA 
HETATM   31  O   UNL     1      -9.387   9.371  65.097  1.00  0.00    -0.252 OA 
ENDBRANCH  22  23
ENDBRANCH  21  22
ENDBRANCH  12  21
TORSDOF 7
ENDMDL
MODEL       66
REMARK 921   NORMALIZED FREE ENERGY PREDICTED BY IDOCK:   -5.67 KCAL/MOL
REMARK 922        TOTAL FREE ENERGY PREDICTED BY IDOCK:   -9.49 KCAL/MOL
REMARK 923 INTER-LIGAND FREE ENERGY PREDICTED BY IDOCK:   -7.90 KCAL/MOL
REMARK 924 INTRA-LIGAND FREE ENERGY PREDICTED BY IDOCK:   -1.59 KCAL/MOL
REMARK 927      BINDING AFFINITY PREDICTED BY RF-SCORE:    0.00 PKD
ROOT
HETATM    1  C   UNL     1     -10.616   7.371  69.151  1.00  0.00    -0.213 C  
HETATM    2  C   UNL     1     -10.486   6.421  67.899  1.00  0.00    -0.222 C  
HETATM    3  C   UNL     1      -9.810   5.047  68.070  1.00  0.00    -0.202 C  
HETATM    4  C   UNL     1     -10.292   9.735  70.269  1.00  0.00    -0.348 C  
HETATM    5  C   UNL     1      -9.861   4.431  69.458  1.00  0.00    -0.258 C  
HETATM    6  C   UNL     1      -9.504   9.013  71.319  1.00  0.00    -0.339 C  
HETATM    7  C   UNL     1     -11.590  10.130  70.998  1.00  0.00    -0.462 C  
HETATM    8  C   UNL     1      -9.366   7.688  71.372  1.00  0.00    -0.157 C  
HETATM    9  C   UNL     1      -9.600   5.479  70.500  1.00  0.00    -0.225 C  
HETATM   10  C   UNL     1      -8.774   3.340  69.523  1.00  0.00    -0.132 C  
HETATM   11  C   UNL     1      -9.858   6.792  70.351  1.00  0.00    -0.186 C  
HETATM   12  C   UNL     1     -10.360   8.922  68.915  1.00  0.00    -0.229 C  
ENDROOT
BRANCH   2  13
HETATM   13  O   UNL     1      -9.929   7.028  66.720  1.00  0.00    -0.196 OA 
BRANCH  13  14
HETATM   14  C   UNL     1      -8.781   6.520  66.200  1.00  0.00    -0.147 C  
HETATM   15  O   UNL     1      -8.668   5.432  65.634  1.00  0.00    -0.143 OA 
BRANCH  14  16
HETATM   16  C   UNL     1      -7.588   7.448  66.436  1.00  0.00    -0.088 C  
HETATM   17  C   UNL     1      -7.071   7.385  67.883  1.00  0.00    -0.085 C  
HETATM   18  C   UNL     1      -6.517   6.956  65.451  1.00  0.00    -0.046 C  
BRANCH  16  19
HETATM   19  C   UNL     1      -8.037   8.895  66.103  1.00  0.00    -0.114 C  
HETATM   20  C   UNL     1      -6.959   9.740  65.434  1.00  0.00    -0.105 C  
ENDBRANCH  16  19
ENDBRANCH  14  16
ENDBRANCH  13  14
ENDBRANCH   2  13
BRANCH  12  21
HETATM   21  C   UNL     1     -11.227   9.612  67.778  1.00  0.00     0.065 C  
BRANCH  21  22
HETATM   22  C   UNL     1     -10.665  10.947  67.312  1.00  0.00    -0.317 C  
BRANCH  22  23
HETATM   23  C   UNL     1     -11.025  11.660  66.016  1.00  0.00    -0.286 C  
HETATM   24  C   UNL     1      -9.978  11.779  64.936  1.00  0.00    -0.280 C  
HETATM   25  C   UNL     1     -10.712  12.223  63.670  1.00  0.00    -0.467 C  
HETATM   26  O   UNL     1     -11.466  11.136  63.127  1.00  0.00    -0.795 OA 
HETATM   27  C   UNL     1     -11.595  13.444  63.904  1.00  0.00    -0.401 C  
HETATM   28  C   UNL     1     -12.306  13.467  65.238  1.00  0.00    -0.467 C  
HETATM   29  H   UNL     1     -11.921  11.411  62.340  1.00  0.00     0.000 HD 
HETATM   30  O   UNL     1     -13.377  14.039  65.405  1.00  0.00    -0.721 OA 
HETATM   31  O   UNL     1     -11.599  12.946  66.278  1.00  0.00    -0.333 OA 
ENDBRANCH  22  23
ENDBRANCH  21  22
ENDBRANCH  12  21
TORSDOF 7
ENDMDL
MODEL       67
REMARK 921   NORMALIZED FREE ENERGY PREDICTED BY IDOCK:   -5.66 KCAL/MOL
REMARK 922        TOTAL FREE ENERGY PREDICTED BY IDOCK:   -9.47 KCAL/MOL
REMARK 923 INTER-LIGAND FREE ENERGY PREDICTED BY IDOCK:   -7.81 KCAL/MOL
REMARK 924 INTRA-LIGAND FREE ENERGY PREDICTED BY IDOCK:   -1.66 KCAL/MOL
REMARK 927      BINDING AFFINITY PREDICTED BY RF-SCORE:    0.00 PKD
ROOT
HETATM    1  C   UNL     1     -11.937  11.197  70.909  1.00  0.00    -0.362 C  
HETATM    2  C   UNL     1     -11.693  12.546  70.129  1.00  0.00    -0.175 C  
HETATM    3  C   UNL     1     -12.564  13.771  70.465  1.00  0.00    -0.361 C  
HETATM    4  C   UNL     1     -12.345   8.593  70.899  1.00  0.00    -0.075 C  
HETATM    5  C   UNL     1     -13.149  13.828  71.866  1.00  0.00    -0.474 C  
HETATM    6  C   UNL     1     -13.575   8.890  71.704  1.00  0.00    -0.432 C  
HETATM    7  C   UNL     1     -11.398   7.931  71.917  1.00  0.00    -0.324 C  
HETATM    8  C   UNL     1     -13.903  10.104  72.148  1.00  0.00    -0.047 C  
HETATM    9  C   UNL     1     -13.651  12.474  72.273  1.00  0.00    -0.443 C  
HETATM   10  C   UNL     1     -14.313  14.838  71.845  1.00  0.00    -0.657 C  
HETATM   11  C   UNL     1     -13.178  11.305  71.803  1.00  0.00    -0.480 C  
HETATM   12  C   UNL     1     -11.863   9.850  70.069  1.00  0.00    -0.131 C  
ENDROOT
BRANCH   2  13
HETATM   13  O   UNL     1     -11.652  12.430  68.696  1.00  0.00    -0.273 OA 
BRANCH  13  14
HETATM   14  C   UNL     1     -10.601  12.969  68.023  1.00  0.00    -0.235 C  
HETATM   15  O   UNL     1      -9.514  13.274  68.515  1.00  0.00    -0.198 OA 
BRANCH  14  16
HETATM   16  C   UNL     1     -10.931  13.213  66.550  1.00  0.00    -0.303 C  
HETATM   17  C   UNL     1      -9.777  13.894  65.794  1.00  0.00    -0.190 C  
HETATM   18  C   UNL     1     -11.206  11.813  65.981  1.00  0.00    -0.352 C  
BRANCH  16  19
HETATM   19  C   UNL     1     -12.197  14.106  66.486  1.00  0.00    -0.463 C  
HETATM   20  C   UNL     1     -13.035  13.905  65.229  1.00  0.00    -0.341 C  
ENDBRANCH  16  19
ENDBRANCH  14  16
ENDBRANCH  13  14
ENDBRANCH   2  13
BRANCH  12  21
HETATM   21  C   UNL     1     -10.533   9.613  69.235  1.00  0.00    -0.232 C  
BRANCH  21  22
HETATM   22  C   UNL     1      -9.267   9.982  69.995  1.00  0.00    -0.146 C  
BRANCH  22  23
HETATM   23  C   UNL     1      -8.182   9.011  70.438  1.00  0.00    -0.151 C  
HETATM   24  C   UNL     1      -8.237   7.585  69.949  1.00  0.00    -0.131 C  
HETATM   25  C   UNL     1      -6.877   6.964  70.270  1.00  0.00    -0.057 C  
HETATM   26  O   UNL     1      -5.880   7.465  69.376  1.00  0.00    -0.025 OA 
HETATM   27  C   UNL     1      -6.469   7.171  71.725  1.00  0.00    -0.047 C  
HETATM   28  C   UNL     1      -6.842   8.518  72.303  1.00  0.00    -0.077 C  
HETATM   29  H   UNL     1      -5.035   7.079  69.575  1.00  0.00     0.000 HD 
HETATM   30  O   UNL     1      -6.205   9.047  73.205  1.00  0.00    -0.282 OA 
HETATM   31  O   UNL     1      -8.025   9.028  71.862  1.00  0.00    -0.348 OA 
ENDBRANCH  22  23
ENDBRANCH  21  22
ENDBRANCH  12  21
TORSDOF 7
ENDMDL
MODEL       68
REMARK 921   NORMALIZED FREE ENERGY PREDICTED BY IDOCK:   -5.65 KCAL/MOL
REMARK 922        TOTAL FREE ENERGY PREDICTED BY IDOCK:   -9.45 KCAL/MOL
REMARK 923 INTER-LIGAND FREE ENERGY PREDICTED BY IDOCK:   -7.45 KCAL/MOL
REMARK 924 INTRA-LIGAND FREE ENERGY PREDICTED BY IDOCK:   -2.01 KCAL/MOL
REMARK 927      BINDING AFFINITY PREDICTED BY RF-SCORE:    0.00 PKD
ROOT
HETATM    1  C   UNL     1      -8.858  16.147  68.098  1.00  0.00    -0.184 C  
HETATM    2  C   UNL     1      -8.638  14.661  68.578  1.00  0.00    -0.170 C  
HETATM    3  C   UNL     1      -7.338  14.301  69.323  1.00  0.00    -0.053 C  
HETATM    4  C   UNL     1      -9.477  17.866  66.199  1.00  0.00    -0.169 C  
HETATM    5  C   UNL     1      -6.650  15.427  70.077  1.00  0.00    -0.101 C  
HETATM    6  C   UNL     1      -8.159  18.513  66.502  1.00  0.00    -0.299 C  
HETATM    7  C   UNL     1     -10.508  18.871  66.746  1.00  0.00    -0.497 C  
HETATM    8  C   UNL     1      -7.353  18.140  67.496  1.00  0.00    -0.213 C  
HETATM    9  C   UNL     1      -6.668  16.684  69.259  1.00  0.00    -0.221 C  
HETATM   10  C   UNL     1      -5.197  14.989  70.342  1.00  0.00    -0.119 C  
HETATM   11  C   UNL     1      -7.593  16.983  68.328  1.00  0.00    -0.213 C  
HETATM   12  C   UNL     1      -9.516  16.356  66.666  1.00  0.00    -0.277 C  
ENDROOT
BRANCH   2  13
HETATM   13  O   UNL     1      -8.851  13.652  67.576  1.00  0.00    -0.182 OA 
BRANCH  13  14
HETATM   14  C   UNL     1      -9.703  12.627  67.847  1.00  0.00    -0.216 C  
HETATM   15  O   UNL     1     -10.832  12.740  68.326  1.00  0.00    -0.229 OA 
BRANCH  14  16
HETATM   16  C   UNL     1      -9.081  11.268  67.527  1.00  0.00    -0.151 C  
HETATM   17  C   UNL     1      -7.954  11.366  66.485  1.00  0.00    -0.128 C  
HETATM   18  C   UNL     1      -8.538  10.766  68.873  1.00  0.00    -0.155 C  
BRANCH  16  19
HETATM   19  C   UNL     1     -10.207  10.342  66.994  1.00  0.00    -0.277 C  
HETATM   20  C   UNL     1      -9.700   9.144  66.201  1.00  0.00    -0.357 C  
ENDBRANCH  16  19
ENDBRANCH  14  16
ENDBRANCH  13  14
ENDBRANCH   2  13
BRANCH  12  21
HETATM   21  C   UNL     1     -10.906  15.629  66.420  1.00  0.00    -0.252 C  
BRANCH  21  22
HETATM   22  C   UNL     1     -11.141  15.246  64.966  1.00  0.00    -0.436 C  
BRANCH  22  23
HETATM   23  C   UNL     1     -11.309  13.829  64.436  1.00  0.00    -0.360 C  
HETATM   24  C   UNL     1     -12.309  12.917  65.103  1.00  0.00    -0.547 C  
HETATM   25  C   UNL     1     -12.493  11.720  64.168  1.00  0.00    -0.149 C  
HETATM   26  O   UNL     1     -13.266  12.098  63.026  1.00  0.00    -0.484 OA 
HETATM   27  C   UNL     1     -11.166  11.093  63.753  1.00  0.00    -0.046 C  
HETATM   28  C   UNL     1     -10.047  12.079  63.509  1.00  0.00    -0.424 C  
HETATM   29  H   UNL     1     -13.381  11.355  62.445  1.00  0.00     0.000 HD 
HETATM   30  O   UNL     1      -9.129  11.854  62.730  1.00  0.00    -0.206 OA 
HETATM   31  O   UNL     1     -10.044  13.165  64.330  1.00  0.00    -0.334 OA 
ENDBRANCH  22  23
ENDBRANCH  21  22
ENDBRANCH  12  21
TORSDOF 7
ENDMDL
MODEL       69
REMARK 921   NORMALIZED FREE ENERGY PREDICTED BY IDOCK:   -5.64 KCAL/MOL
REMARK 922        TOTAL FREE ENERGY PREDICTED BY IDOCK:   -9.45 KCAL/MOL
REMARK 923 INTER-LIGAND FREE ENERGY PREDICTED BY IDOCK:   -8.05 KCAL/MOL
REMARK 924 INTRA-LIGAND FREE ENERGY PREDICTED BY IDOCK:   -1.40 KCAL/MOL
REMARK 927      BINDING AFFINITY PREDICTED BY RF-SCORE:    0.00 PKD
ROOT
HETATM    1  C   UNL     1      -9.621  12.275  66.487  1.00  0.00    -0.242 C  
HETATM    2  C   UNL     1      -8.575  11.570  67.434  1.00  0.00    -0.145 C  
HETATM    3  C   UNL     1      -7.759  10.381  66.893  1.00  0.00    -0.111 C  
HETATM    4  C   UNL     1     -12.053  13.191  66.050  1.00  0.00    -0.495 C  
HETATM    5  C   UNL     1      -7.539  10.333  65.390  1.00  0.00    -0.146 C  
HETATM    6  C   UNL     1     -12.053  12.309  64.838  1.00  0.00    -0.422 C  
HETATM    7  C   UNL     1     -11.958  14.612  65.463  1.00  0.00    -0.256 C  
HETATM    8  C   UNL     1     -11.000  11.602  64.427  1.00  0.00    -0.399 C  
HETATM    9  C   UNL     1      -8.800  10.708  64.670  1.00  0.00    -0.191 C  
HETATM   10  C   UNL     1      -7.129   8.893  65.026  1.00  0.00    -0.083 C  
HETATM   11  C   UNL     1      -9.764  11.503  65.170  1.00  0.00    -0.268 C  
HETATM   12  C   UNL     1     -11.007  12.709  67.133  1.00  0.00    -0.296 C  
ENDROOT
BRANCH   2  13
HETATM   13  O   UNL     1      -9.073  11.193  68.730  1.00  0.00    -0.177 OA 
BRANCH  13  14
HETATM   14  C   UNL     1      -9.045   9.882  69.089  1.00  0.00    -0.173 C  
HETATM   15  O   UNL     1      -8.041   9.248  69.415  1.00  0.00    -0.098 OA 
BRANCH  14  16
HETATM   16  C   UNL     1     -10.428   9.236  68.999  1.00  0.00    -0.233 C  
HETATM   17  C   UNL     1     -10.474   7.851  69.666  1.00  0.00    -0.226 C  
HETATM   18  C   UNL     1     -11.361  10.221  69.719  1.00  0.00    -0.334 C  
BRANCH  16  19
HETATM   19  C   UNL     1     -10.797   9.106  67.498  1.00  0.00    -0.151 C  
HETATM   20  C   UNL     1     -10.450   7.753  66.888  1.00  0.00    -0.388 C  
ENDBRANCH  16  19
ENDBRANCH  14  16
ENDBRANCH  13  14
ENDBRANCH   2  13
BRANCH  12  21
HETATM   21  C   UNL     1     -10.922  13.634  68.420  1.00  0.00    -0.284 C  
BRANCH  21  22
HETATM   22  C   UNL     1     -12.280  14.107  68.918  1.00  0.00    -0.257 C  
BRANCH  22  23
HETATM   23  C   UNL     1     -12.661  14.341  70.373  1.00  0.00    -0.295 C  
HETATM   24  C   UNL     1     -14.016  13.881  70.854  1.00  0.00     0.422 C  
HETATM   25  C   UNL     1     -13.976  13.940  72.381  1.00  0.00    -0.531 C  
HETATM   26  O   UNL     1     -13.183  12.868  72.899  1.00  0.00    -0.401 OA 
HETATM   27  C   UNL     1     -13.488  15.288  72.902  1.00  0.00    -0.611 C  
HETATM   28  C   UNL     1     -12.378  15.917  72.090  1.00  0.00    -0.477 C  
HETATM   29  H   UNL     1     -13.159  12.904  73.848  1.00  0.00     0.000 HD 
HETATM   30  O   UNL     1     -11.552  16.677  72.582  1.00  0.00    -0.366 OA 
HETATM   31  O   UNL     1     -12.454  15.708  70.747  1.00  0.00    -0.415 OA 
ENDBRANCH  22  23
ENDBRANCH  21  22
ENDBRANCH  12  21
TORSDOF 7
ENDMDL
MODEL       70
REMARK 921   NORMALIZED FREE ENERGY PREDICTED BY IDOCK:   -5.64 KCAL/MOL
REMARK 922        TOTAL FREE ENERGY PREDICTED BY IDOCK:   -9.44 KCAL/MOL
REMARK 923 INTER-LIGAND FREE ENERGY PREDICTED BY IDOCK:   -8.89 KCAL/MOL
REMARK 924 INTRA-LIGAND FREE ENERGY PREDICTED BY IDOCK:   -0.55 KCAL/MOL
REMARK 927      BINDING AFFINITY PREDICTED BY RF-SCORE:    0.00 PKD
ROOT
HETATM    1  C   UNL     1     -10.844  11.681  68.529  1.00  0.00    -0.257 C  
HETATM    2  C   UNL     1     -11.397  11.900  69.991  1.00  0.00    -0.012 C  
HETATM    3  C   UNL     1     -11.630  10.673  70.893  1.00  0.00    -0.311 C  
HETATM    4  C   UNL     1     -11.008  12.118  65.936  1.00  0.00    -0.332 C  
HETATM    5  C   UNL     1     -10.787   9.443  70.603  1.00  0.00    -0.346 C  
HETATM    6  C   UNL     1     -11.024  10.626  65.793  1.00  0.00     0.091 C  
HETATM    7  C   UNL     1      -9.619  12.517  65.404  1.00  0.00    -0.015 C  
HETATM    8  C   UNL     1     -10.868   9.775  66.808  1.00  0.00    -0.071 C  
HETATM    9  C   UNL     1     -10.688   9.220  69.123  1.00  0.00    -0.202 C  
HETATM   10  C   UNL     1     -11.474   8.239  71.274  1.00  0.00    -0.314 C  
HETATM   11  C   UNL     1     -10.787  10.187  68.191  1.00  0.00    -0.310 C  
HETATM   12  C   UNL     1     -11.468  12.580  67.376  1.00  0.00    -0.404 C  
ENDROOT
BRANCH   2  13
HETATM   13  O   UNL     1     -12.565  12.733  70.089  1.00  0.00    -0.086 OA 
BRANCH  13  14
HETATM   14  C   UNL     1     -13.032  13.065  71.322  1.00  0.00    -0.243 C  
HETATM   15  O   UNL     1     -13.627  12.311  72.092  1.00  0.00    -0.461 OA 
BRANCH  14  16
HETATM   16  C   UNL     1     -12.778  14.537  71.651  1.00  0.00    -0.414 C  
HETATM   17  C   UNL     1     -11.565  15.107  70.895  1.00  0.00    -0.380 C  
HETATM   18  C   UNL     1     -14.069  15.254  71.231  1.00  0.00    -0.527 C  
BRANCH  16  19
HETATM   19  C   UNL     1     -12.542  14.650  73.180  1.00  0.00    -0.486 C  
HETATM   20  C   UNL     1     -12.845  16.029  73.754  1.00  0.00    -0.690 C  
ENDBRANCH  16  19
ENDBRANCH  14  16
ENDBRANCH  13  14
ENDBRANCH   2  13
BRANCH  12  21
HETATM   21  C   UNL     1     -11.422  14.150  67.607  1.00  0.00    -0.364 C  
BRANCH  21  22
HETATM   22  C   UNL     1     -10.011  14.703  67.737  1.00  0.00    -0.224 C  
BRANCH  22  23
HETATM   23  C   UNL     1      -9.609  16.162  67.573  1.00  0.00    -0.229 C  
HETATM   24  C   UNL     1      -9.012  16.889  68.752  1.00  0.00    -0.256 C  
HETATM   25  C   UNL     1      -8.414  18.186  68.204  1.00  0.00    -0.273 C  
HETATM   26  O   UNL     1      -7.211  17.911  67.481  1.00  0.00    -0.191 OA 
HETATM   27  C   UNL     1      -9.405  18.970  67.349  1.00  0.00    -0.345 C  
HETATM   28  C   UNL     1     -10.301  18.120  66.476  1.00  0.00    -0.386 C  
HETATM   29  H   UNL     1      -6.840  18.716  67.141  1.00  0.00     0.000 HD 
HETATM   30  O   UNL     1     -10.766  18.525  65.418  1.00  0.00    -0.585 OA 
HETATM   31  O   UNL     1     -10.684  16.934  67.024  1.00  0.00    -0.267 OA 
ENDBRANCH  22  23
ENDBRANCH  21  22
ENDBRANCH  12  21
TORSDOF 7
ENDMDL
MODEL       71
REMARK 921   NORMALIZED FREE ENERGY PREDICTED BY IDOCK:   -5.63 KCAL/MOL
REMARK 922        TOTAL FREE ENERGY PREDICTED BY IDOCK:   -9.43 KCAL/MOL
REMARK 923 INTER-LIGAND FREE ENERGY PREDICTED BY IDOCK:   -8.09 KCAL/MOL
REMARK 924 INTRA-LIGAND FREE ENERGY PREDICTED BY IDOCK:   -1.34 KCAL/MOL
REMARK 927      BINDING AFFINITY PREDICTED BY RF-SCORE:    0.00 PKD
ROOT
HETATM    1  C   UNL     1      -8.317   7.443  68.375  1.00  0.00    -0.125 C  
HETATM    2  C   UNL     1      -8.681   7.565  69.905  1.00  0.00    -0.140 C  
HETATM    3  C   UNL     1      -8.654   6.300  70.783  1.00  0.00    -0.135 C  
HETATM    4  C   UNL     1      -8.886   7.919  65.847  1.00  0.00    -0.183 C  
HETATM    5  C   UNL     1      -7.733   5.178  70.333  1.00  0.00    -0.074 C  
HETATM    6  C   UNL     1      -8.763   6.438  65.650  1.00  0.00    -0.108 C  
HETATM    7  C   UNL     1      -7.636   8.483  65.146  1.00  0.00    -0.094 C  
HETATM    8  C   UNL     1      -8.377   5.587  66.601  1.00  0.00    -0.109 C  
HETATM    9  C   UNL     1      -7.819   5.002  68.847  1.00  0.00    -0.077 C  
HETATM   10  C   UNL     1      -8.188   3.889  71.046  1.00  0.00    -0.076 C  
HETATM   11  C   UNL     1      -8.149   5.973  67.975  1.00  0.00    -0.110 C  
HETATM   12  C   UNL     1      -9.188   8.294  67.353  1.00  0.00    -0.163 C  
ENDROOT
BRANCH   2  13
HETATM   13  O   UNL     1      -9.906   8.261  70.193  1.00  0.00    -0.182 OA 
BRANCH  13  14
HETATM   14  C   UNL     1     -11.064   7.551  70.260  1.00  0.00    -0.248 C  
HETATM   15  O   UNL     1     -11.423   6.685  69.461  1.00  0.00    -0.320 OA 
BRANCH  14  16
HETATM   16  C   UNL     1     -11.930   7.982  71.444  1.00  0.00    -0.328 C  
HETATM   17  C   UNL     1     -11.213   7.802  72.794  1.00  0.00    -0.456 C  
HETATM   18  C   UNL     1     -12.234   9.464  71.181  1.00  0.00    -0.402 C  
BRANCH  16  19
HETATM   19  C   UNL     1     -13.226   7.129  71.423  1.00  0.00    -0.391 C  
HETATM   20  C   UNL     1     -14.399   7.764  72.159  1.00  0.00    -0.376 C  
ENDBRANCH  16  19
ENDBRANCH  14  16
ENDBRANCH  13  14
ENDBRANCH   2  13
BRANCH  12  21
HETATM   21  C   UNL     1      -9.278   9.853  67.635  1.00  0.00    -0.146 C  
BRANCH  21  22
HETATM   22  C   UNL     1     -10.607  10.469  67.222  1.00  0.00    -0.317 C  
BRANCH  22  23
HETATM   23  C   UNL     1     -10.835  11.359  66.008  1.00  0.00    -0.249 C  
HETATM   24  C   UNL     1      -9.696  11.581  65.045  1.00  0.00    -0.268 C  
HETATM   25  C   UNL     1     -10.305  12.214  63.793  1.00  0.00    -0.437 C  
HETATM   26  O   UNL     1     -11.036  11.236  63.048  1.00  0.00    -0.804 OA 
HETATM   27  C   UNL     1     -11.174  13.426  64.114  1.00  0.00    -0.379 C  
HETATM   28  C   UNL     1     -11.997  13.299  65.376  1.00  0.00    -0.395 C  
HETATM   29  H   UNL     1     -11.414  11.629  62.270  1.00  0.00     0.000 HD 
HETATM   30  O   UNL     1     -13.063  13.883  65.529  1.00  0.00    -0.699 OA 
HETATM   31  O   UNL     1     -11.397  12.619  66.392  1.00  0.00    -0.297 OA 
ENDBRANCH  22  23
ENDBRANCH  21  22
ENDBRANCH  12  21
TORSDOF 7
ENDMDL
MODEL       72
REMARK 921   NORMALIZED FREE ENERGY PREDICTED BY IDOCK:   -5.62 KCAL/MOL
REMARK 922        TOTAL FREE ENERGY PREDICTED BY IDOCK:   -9.42 KCAL/MOL
REMARK 923 INTER-LIGAND FREE ENERGY PREDICTED BY IDOCK:   -7.59 KCAL/MOL
REMARK 924 INTRA-LIGAND FREE ENERGY PREDICTED BY IDOCK:   -1.83 KCAL/MOL
REMARK 927      BINDING AFFINITY PREDICTED BY RF-SCORE:    0.00 PKD
ROOT
HETATM    1  C   UNL     1      -9.369  13.151  66.899  1.00  0.00    -0.246 C  
HETATM    2  C   UNL     1      -7.820  13.384  67.091  1.00  0.00    -0.019 C  
HETATM    3  C   UNL     1      -7.053  12.511  68.102  1.00  0.00    -0.103 C  
HETATM    4  C   UNL     1     -11.823  14.102  66.775  1.00  0.00    -0.449 C  
HETATM    5  C   UNL     1      -7.632  11.137  68.393  1.00  0.00    -0.110 C  
HETATM    6  C   UNL     1     -12.148  13.111  67.852  1.00  0.00    -0.247 C  
HETATM    7  C   UNL     1     -12.524  13.526  65.531  1.00  0.00    -0.538 C  
HETATM    8  C   UNL     1     -11.288  12.206  68.320  1.00  0.00    -0.343 C  
HETATM    9  C   UNL     1      -9.123  11.220  68.524  1.00  0.00    -0.173 C  
HETATM   10  C   UNL     1      -7.012  10.641  69.714  1.00  0.00    -0.145 C  
HETATM   11  C   UNL     1      -9.897  12.149  67.932  1.00  0.00    -0.199 C  
HETATM   12  C   UNL     1     -10.280  14.443  66.730  1.00  0.00    -0.270 C  
ENDROOT
BRANCH   2  13
HETATM   13  O   UNL     1      -7.425  14.748  67.316  1.00  0.00    -0.197 OA 
BRANCH  13  14
HETATM   14  C   UNL     1      -7.404  15.224  68.589  1.00  0.00    -0.120 C  
HETATM   15  O   UNL     1      -8.356  15.225  69.371  1.00  0.00    -0.232 OA 
BRANCH  14  16
HETATM   16  C   UNL     1      -6.045  15.821  68.953  1.00  0.00    -0.113 C  
HETATM   17  C   UNL     1      -5.295  14.982  70.003  1.00  0.00    -0.111 C  
HETATM   18  C   UNL     1      -5.271  15.854  67.627  1.00  0.00    -0.125 C  
BRANCH  16  19
HETATM   19  C   UNL     1      -6.284  17.253  69.501  1.00  0.00    -0.251 C  
HETATM   20  C   UNL     1      -5.152  17.779  70.376  1.00  0.00    -0.249 C  
ENDBRANCH  16  19
ENDBRANCH  14  16
ENDBRANCH  13  14
ENDBRANCH   2  13
BRANCH  12  21
HETATM   21  C   UNL     1      -9.864  15.449  65.574  1.00  0.00    -0.359 C  
BRANCH  21  22
HETATM   22  C   UNL     1     -10.362  16.869  65.798  1.00  0.00    -0.298 C  
BRANCH  22  23
HETATM   23  C   UNL     1      -9.556  18.007  66.409  1.00  0.00    -0.295 C  
HETATM   24  C   UNL     1      -8.066  18.050  66.178  1.00  0.00    -0.203 C  
HETATM   25  C   UNL     1      -7.601  19.441  66.609  1.00  0.00    -0.254 C  
HETATM   26  O   UNL     1      -8.002  20.419  65.644  1.00  0.00    -0.535 OA 
HETATM   27  C   UNL     1      -8.086  19.814  68.006  1.00  0.00    -0.338 C  
HETATM   28  C   UNL     1      -9.486  19.347  68.336  1.00  0.00    -0.374 C  
HETATM   29  H   UNL     1      -7.712  21.283  65.911  1.00  0.00     0.000 HD 
HETATM   30  O   UNL     1     -10.206  19.936  69.134  1.00  0.00    -0.407 OA 
HETATM   31  O   UNL     1      -9.833  18.141  67.809  1.00  0.00    -0.289 OA 
ENDBRANCH  22  23
ENDBRANCH  21  22
ENDBRANCH  12  21
TORSDOF 7
ENDMDL
MODEL       73
REMARK 921   NORMALIZED FREE ENERGY PREDICTED BY IDOCK:   -5.62 KCAL/MOL
REMARK 922        TOTAL FREE ENERGY PREDICTED BY IDOCK:   -9.41 KCAL/MOL
REMARK 923 INTER-LIGAND FREE ENERGY PREDICTED BY IDOCK:   -7.97 KCAL/MOL
REMARK 924 INTRA-LIGAND FREE ENERGY PREDICTED BY IDOCK:   -1.44 KCAL/MOL
REMARK 927      BINDING AFFINITY PREDICTED BY RF-SCORE:    0.00 PKD
ROOT
HETATM    1  C   UNL     1      -9.110  14.073  67.695  1.00  0.00    -0.192 C  
HETATM    2  C   UNL     1      -9.957  15.179  68.437  1.00  0.00    -0.222 C  
HETATM    3  C   UNL     1      -9.285  16.517  68.797  1.00  0.00    -0.252 C  
HETATM    4  C   UNL     1      -8.270  11.583  67.506  1.00  0.00    -0.140 C  
HETATM    5  C   UNL     1      -8.113  16.947  67.931  1.00  0.00    -0.191 C  
HETATM    6  C   UNL     1      -6.887  12.161  67.513  1.00  0.00    -0.127 C  
HETATM    7  C   UNL     1      -8.452  11.099  66.056  1.00  0.00    -0.138 C  
HETATM    8  C   UNL     1      -6.622  13.468  67.500  1.00  0.00    -0.130 C  
HETATM    9  C   UNL     1      -7.229  15.773  67.636  1.00  0.00    -0.189 C  
HETATM   10  C   UNL     1      -7.327  18.019  68.710  1.00  0.00    -0.279 C  
HETATM   11  C   UNL     1      -7.638  14.491  67.603  1.00  0.00    -0.198 C  
HETATM   12  C   UNL     1      -9.326  12.567  68.152  1.00  0.00    -0.210 C  
ENDROOT
BRANCH   2  13
HETATM   13  O   UNL     1     -10.669  14.729  69.602  1.00  0.00    -0.240 OA 
BRANCH  13  14
HETATM   14  C   UNL     1     -11.954  15.136  69.783  1.00  0.00    -0.334 C  
HETATM   15  O   UNL     1     -12.649  15.717  68.948  1.00  0.00     0.118 OA 
BRANCH  14  16
HETATM   16  C   UNL     1     -12.456  14.829  71.195  1.00  0.00    -0.397 C  
HETATM   17  C   UNL     1     -11.582  15.475  72.283  1.00  0.00    -0.554 C  
HETATM   18  C   UNL     1     -13.882  15.400  71.229  1.00  0.00    -0.523 C  
BRANCH  16  19
HETATM   19  C   UNL     1     -12.462  13.288  71.374  1.00  0.00    -0.284 C  
HETATM   20  C   UNL     1     -13.602  12.769  72.243  1.00  0.00    -0.563 C  
ENDBRANCH  16  19
ENDBRANCH  14  16
ENDBRANCH  13  14
ENDBRANCH   2  13
BRANCH  12  21
HETATM   21  C   UNL     1     -10.821  12.032  68.127  1.00  0.00    -0.257 C  
BRANCH  21  22
HETATM   22  C   UNL     1     -10.926  10.519  68.249  1.00  0.00    -0.314 C  
BRANCH  22  23
HETATM   23  C   UNL     1     -11.079   9.740  69.548  1.00  0.00    -0.192 C  
HETATM   24  C   UNL     1     -12.323   9.945  70.376  1.00  0.00    -0.148 C  
HETATM   25  C   UNL     1     -12.349   8.814  71.406  1.00  0.00    -0.306 C  
HETATM   26  O   UNL     1     -12.704   7.580  70.777  1.00  0.00    -0.557 OA 
HETATM   27  C   UNL     1     -11.033   8.687  72.167  1.00  0.00    -0.434 C  
HETATM   28  C   UNL     1      -9.793   8.927  71.336  1.00  0.00    -0.306 C  
HETATM   29  H   UNL     1     -12.720   6.877  71.416  1.00  0.00     0.000 HD 
HETATM   30  O   UNL     1      -8.715   8.407  71.597  1.00  0.00    -0.149 OA 
HETATM   31  O   UNL     1      -9.918   9.882  70.374  1.00  0.00    -0.259 OA 
ENDBRANCH  22  23
ENDBRANCH  21  22
ENDBRANCH  12  21
TORSDOF 7
ENDMDL
MODEL       74
REMARK 921   NORMALIZED FREE ENERGY PREDICTED BY IDOCK:   -5.56 KCAL/MOL
REMARK 922        TOTAL FREE ENERGY PREDICTED BY IDOCK:   -9.33 KCAL/MOL
REMARK 923 INTER-LIGAND FREE ENERGY PREDICTED BY IDOCK:   -7.08 KCAL/MOL
REMARK 924 INTRA-LIGAND FREE ENERGY PREDICTED BY IDOCK:   -2.25 KCAL/MOL
REMARK 927      BINDING AFFINITY PREDICTED BY RF-SCORE:    0.00 PKD
ROOT
HETATM    1  C   UNL     1      -9.972  14.090  66.533  1.00  0.00    -0.289 C  
HETATM    2  C   UNL     1      -8.619  13.665  67.223  1.00  0.00    -0.214 C  
HETATM    3  C   UNL     1      -7.453  14.670  67.265  1.00  0.00    -0.148 C  
HETATM    4  C   UNL     1     -11.921  13.598  64.829  1.00  0.00    -0.426 C  
HETATM    5  C   UNL     1      -7.822  16.144  67.216  1.00  0.00    -0.207 C  
HETATM    6  C   UNL     1     -11.583  14.927  64.223  1.00  0.00    -0.201 C  
HETATM    7  C   UNL     1     -13.272  13.849  65.523  1.00  0.00    -0.039 C  
HETATM    8  C   UNL     1     -10.679  15.769  64.724  1.00  0.00    -0.282 C  
HETATM    9  C   UNL     1      -8.913  16.371  66.212  1.00  0.00    -0.368 C  
HETATM   10  C   UNL     1      -6.558  16.926  66.810  1.00  0.00    -0.260 C  
HETATM   11  C   UNL     1      -9.823  15.451  65.844  1.00  0.00    -0.387 C  
HETATM   12  C   UNL     1     -10.709  12.996  65.647  1.00  0.00    -0.293 C  
ENDROOT
BRANCH   2  13
HETATM   13  O   UNL     1      -8.080  12.402  66.796  1.00  0.00    -0.111 OA 
BRANCH  13  14
HETATM   14  C   UNL     1      -7.729  11.485  67.737  1.00  0.00    -0.124 C  
HETATM   15  O   UNL     1      -7.878  11.611  68.953  1.00  0.00    -0.118 OA 
BRANCH  14  16
HETATM   16  C   UNL     1      -7.064  10.256  67.116  1.00  0.00    -0.089 C  
HETATM   17  C   UNL     1      -7.975   9.543  66.102  1.00  0.00    -0.107 C  
HETATM   18  C   UNL     1      -5.806  10.805  66.428  1.00  0.00    -0.109 C  
BRANCH  16  19
HETATM   19  C   UNL     1      -6.697   9.281  68.266  1.00  0.00    -0.060 C  
HETATM   20  C   UNL     1      -7.384   7.924  68.171  1.00  0.00    -0.099 C  
ENDBRANCH  16  19
ENDBRANCH  14  16
ENDBRANCH  13  14
ENDBRANCH   2  13
BRANCH  12  21
HETATM   21  C   UNL     1     -11.022  11.611  66.358  1.00  0.00    -0.345 C  
BRANCH  21  22
HETATM   22  C   UNL     1     -11.686  11.763  67.718  1.00  0.00    -0.337 C  
BRANCH  22  23
HETATM   23  C   UNL     1     -11.454  10.866  68.926  1.00  0.00    -0.300 C  
HETATM   24  C   UNL     1     -10.770   9.537  68.724  1.00  0.00    -0.218 C  
HETATM   25  C   UNL     1     -10.383   9.033  70.116  1.00  0.00    -0.210 C  
HETATM   26  O   UNL     1      -9.272   9.779  70.621  1.00  0.00    -0.322 OA 
HETATM   27  C   UNL     1     -11.554   9.058  71.093  1.00  0.00    -0.372 C  
HETATM   28  C   UNL     1     -12.477  10.247  70.947  1.00  0.00    -0.370 C  
HETATM   29  H   UNL     1      -9.031   9.466  71.485  1.00  0.00     0.000 HD 
HETATM   30  O   UNL     1     -13.121  10.699  71.885  1.00  0.00    -0.469 OA 
HETATM   31  O   UNL     1     -12.664  10.680  69.670  1.00  0.00    -0.212 OA 
ENDBRANCH  22  23
ENDBRANCH  21  22
ENDBRANCH  12  21
TORSDOF 7
ENDMDL
MODEL       75
REMARK 921   NORMALIZED FREE ENERGY PREDICTED BY IDOCK:   -5.55 KCAL/MOL
REMARK 922        TOTAL FREE ENERGY PREDICTED BY IDOCK:   -9.31 KCAL/MOL
REMARK 923 INTER-LIGAND FREE ENERGY PREDICTED BY IDOCK:   -8.31 KCAL/MOL
REMARK 924 INTRA-LIGAND FREE ENERGY PREDICTED BY IDOCK:   -1.00 KCAL/MOL
REMARK 927      BINDING AFFINITY PREDICTED BY RF-SCORE:    0.00 PKD
ROOT
HETATM    1  C   UNL     1      -9.579   9.340  66.463  1.00  0.00    -0.285 C  
HETATM    2  C   UNL     1     -10.280  10.672  65.990  1.00  0.00    -0.247 C  
HETATM    3  C   UNL     1      -9.964  11.227  64.589  1.00  0.00    -0.331 C  
HETATM    4  C   UNL     1      -8.204   7.998  68.265  1.00  0.00    -0.123 C  
HETATM    5  C   UNL     1      -9.519  10.219  63.542  1.00  0.00    -0.345 C  
HETATM    6  C   UNL     1      -7.226   7.726  67.162  1.00  0.00    -0.090 C  
HETATM    7  C   UNL     1      -8.876   6.631  68.496  1.00  0.00    -0.122 C  
HETATM    8  C   UNL     1      -7.411   8.088  65.893  1.00  0.00    -0.076 C  
HETATM    9  C   UNL     1      -8.558   9.237  64.144  1.00  0.00    -0.207 C  
HETATM   10  C   UNL     1      -8.832  11.002  62.405  1.00  0.00    -0.358 C  
HETATM   11  C   UNL     1      -8.522   8.895  65.445  1.00  0.00    -0.176 C  
HETATM   12  C   UNL     1      -9.087   9.276  67.972  1.00  0.00    -0.132 C  
ENDROOT
BRANCH   2  13
HETATM   13  O   UNL     1     -10.199  11.771  66.914  1.00  0.00    -0.205 OA 
BRANCH  13  14
HETATM   14  C   UNL     1     -11.351  12.320  67.384  1.00  0.00    -0.325 C  
HETATM   15  O   UNL     1     -12.225  11.725  68.016  1.00  0.00    -0.518 OA 
BRANCH  14  16
HETATM   16  C   UNL     1     -11.480  13.794  66.997  1.00  0.00    -0.368 C  
HETATM   17  C   UNL     1     -11.907  14.678  68.182  1.00  0.00    -0.332 C  
HETATM   18  C   UNL     1     -10.082  14.186  66.499  1.00  0.00    -0.283 C  
BRANCH  16  19
HETATM   19  C   UNL     1     -12.532  13.898  65.861  1.00  0.00    -0.519 C  
HETATM   20  C   UNL     1     -12.023  14.597  64.607  1.00  0.00    -0.472 C  
ENDBRANCH  16  19
ENDBRANCH  14  16
ENDBRANCH  13  14
ENDBRANCH   2  13
BRANCH  12  21
HETATM   21  C   UNL     1     -10.180   9.586  69.081  1.00  0.00    -0.209 C  
BRANCH  21  22
HETATM   22  C   UNL     1      -9.732   9.229  70.491  1.00  0.00    -0.316 C  
BRANCH  22  23
HETATM   23  C   UNL     1     -10.369   8.174  71.385  1.00  0.00    -0.208 C  
HETATM   24  C   UNL     1      -9.483   7.140  72.035  1.00  0.00    -0.151 C  
HETATM   25  C   UNL     1     -10.332   6.455  73.107  1.00  0.00    -0.226 C  
HETATM   26  O   UNL     1     -10.514   7.325  74.227  1.00  0.00    -0.469 OA 
HETATM   27  C   UNL     1     -11.671   5.964  72.566  1.00  0.00    -0.288 C  
HETATM   28  C   UNL     1     -12.323   6.882  71.556  1.00  0.00    -0.376 C  
HETATM   29  H   UNL     1     -11.042   6.899  74.893  1.00  0.00     0.000 HD 
HETATM   30  O   UNL     1     -13.537   6.936  71.401  1.00  0.00    -0.275 OA 
HETATM   31  O   UNL     1     -11.461   7.527  70.722  1.00  0.00    -0.281 OA 
ENDBRANCH  22  23
ENDBRANCH  21  22
ENDBRANCH  12  21
TORSDOF 7
ENDMDL
MODEL       76
REMARK 921   NORMALIZED FREE ENERGY PREDICTED BY IDOCK:   -5.48 KCAL/MOL
REMARK 922        TOTAL FREE ENERGY PREDICTED BY IDOCK:   -9.21 KCAL/MOL
REMARK 923 INTER-LIGAND FREE ENERGY PREDICTED BY IDOCK:   -7.72 KCAL/MOL
REMARK 924 INTRA-LIGAND FREE ENERGY PREDICTED BY IDOCK:   -1.49 KCAL/MOL
REMARK 927      BINDING AFFINITY PREDICTED BY RF-SCORE:    0.00 PKD
ROOT
HETATM    1  C   UNL     1      -8.759  12.788  67.933  1.00  0.00    -0.185 C  
HETATM    2  C   UNL     1     -10.054  12.150  67.298  1.00  0.00    -0.202 C  
HETATM    3  C   UNL     1      -9.910  10.916  66.388  1.00  0.00    -0.249 C  
HETATM    4  C   UNL     1      -7.258  14.897  68.428  1.00  0.00    -0.116 C  
HETATM    5  C   UNL     1      -8.696  10.033  66.625  1.00  0.00    -0.138 C  
HETATM    6  C   UNL     1      -6.151  14.132  67.768  1.00  0.00    -0.134 C  
HETATM    7  C   UNL     1      -6.862  14.895  69.916  1.00  0.00    -0.167 C  
HETATM    8  C   UNL     1      -6.259  12.871  67.350  1.00  0.00    -0.109 C  
HETATM    9  C   UNL     1      -7.480  10.878  66.863  1.00  0.00    -0.128 C  
HETATM   10  C   UNL     1      -8.498   9.166  65.366  1.00  0.00    -0.163 C  
HETATM   11  C   UNL     1      -7.497  12.125  67.370  1.00  0.00    -0.156 C  
HETATM   12  C   UNL     1      -8.684  14.375  67.986  1.00  0.00    -0.170 C  
ENDROOT
BRANCH   2  13
HETATM   13  O   UNL     1     -10.932  13.074  66.630  1.00  0.00    -0.272 OA 
BRANCH  13  14
HETATM   14  C   UNL     1     -10.681  13.398  65.334  1.00  0.00    -0.300 C  
HETATM   15  O   UNL     1      -9.609  13.240  64.748  1.00  0.00     0.090 OA 
BRANCH  14  16
HETATM   16  C   UNL     1     -11.893  14.045  64.663  1.00  0.00    -0.433 C  
HETATM   17  C   UNL     1     -13.143  14.023  65.559  1.00  0.00    -0.217 C  
HETATM   18  C   UNL     1     -11.451  15.487  64.376  1.00  0.00    -0.264 C  
BRANCH  16  19
HETATM   19  C   UNL     1     -12.179  13.272  63.348  1.00  0.00    -0.476 C  
HETATM   20  C   UNL     1     -12.553  11.809  63.557  1.00  0.00    -0.485 C  
ENDBRANCH  16  19
ENDBRANCH  14  16
ENDBRANCH  13  14
ENDBRANCH   2  13
BRANCH  12  21
HETATM   21  C   UNL     1      -9.900  15.112  68.692  1.00  0.00    -0.218 C  
BRANCH  21  22
HETATM   22  C   UNL     1     -10.521  16.209  67.841  1.00  0.00    -0.290 C  
BRANCH  22  23
HETATM   23  C   UNL     1      -9.913  17.579  67.573  1.00  0.00    -0.315 C  
HETATM   24  C   UNL     1      -9.095  18.237  68.656  1.00  0.00    -0.301 C  
HETATM   25  C   UNL     1      -8.358  19.402  67.996  1.00  0.00    -0.319 C  
HETATM   26  O   UNL     1      -7.290  18.914  67.179  1.00  0.00    -0.212 OA 
HETATM   27  C   UNL     1      -9.291  20.308  67.199  1.00  0.00    -0.536 C  
HETATM   28  C   UNL     1     -10.391  19.587  66.453  1.00  0.00    -0.496 C  
HETATM   29  H   UNL     1      -6.831  19.637  66.769  1.00  0.00     0.000 HD 
HETATM   30  O   UNL     1     -10.888  20.028  65.424  1.00  0.00    -0.363 OA 
HETATM   31  O   UNL     1     -10.901  18.496  67.088  1.00  0.00    -0.391 OA 
ENDBRANCH  22  23
ENDBRANCH  21  22
ENDBRANCH  12  21
TORSDOF 7
ENDMDL
MODEL       77
REMARK 921   NORMALIZED FREE ENERGY PREDICTED BY IDOCK:   -5.48 KCAL/MOL
REMARK 922        TOTAL FREE ENERGY PREDICTED BY IDOCK:   -9.21 KCAL/MOL
REMARK 923 INTER-LIGAND FREE ENERGY PREDICTED BY IDOCK:   -7.61 KCAL/MOL
REMARK 924 INTRA-LIGAND FREE ENERGY PREDICTED BY IDOCK:   -1.60 KCAL/MOL
REMARK 927      BINDING AFFINITY PREDICTED BY RF-SCORE:    0.00 PKD
ROOT
HETATM    1  C   UNL     1     -11.937  11.908  69.208  1.00  0.00    -0.342 C  
HETATM    2  C   UNL     1     -11.489  10.410  68.998  1.00  0.00    -0.193 C  
HETATM    3  C   UNL     1     -11.691   9.403  70.146  1.00  0.00    -0.057 C  
HETATM    4  C   UNL     1     -11.410  14.488  69.093  1.00  0.00    -0.305 C  
HETATM    5  C   UNL     1     -12.809   9.705  71.129  1.00  0.00    -0.400 C  
HETATM    6  C   UNL     1     -11.793  14.522  70.542  1.00  0.00    -0.372 C  
HETATM    7  C   UNL     1     -12.577  15.209  68.394  1.00  0.00     0.668 C  
HETATM    8  C   UNL     1     -12.274  13.476  71.214  1.00  0.00    -0.209 C  
HETATM    9  C   UNL     1     -12.822  11.166  71.465  1.00  0.00    -0.542 C  
HETATM   10  C   UNL     1     -12.549   8.872  72.400  1.00  0.00    -0.423 C  
HETATM   11  C   UNL     1     -12.371  12.145  70.659  1.00  0.00    -0.385 C  
HETATM   12  C   UNL     1     -10.982  13.039  68.628  1.00  0.00    -0.297 C  
ENDROOT
BRANCH   2  13
HETATM   13  O   UNL     1     -10.152  10.231  68.501  1.00  0.00    -0.155 OA 
BRANCH  13  14
HETATM   14  C   UNL     1      -9.933   9.319  67.517  1.00  0.00    -0.202 C  
HETATM   15  O   UNL     1     -10.723   8.444  67.161  1.00  0.00    -0.291 OA 
BRANCH  14  16
HETATM   16  C   UNL     1      -8.540   9.463  66.905  1.00  0.00    -0.132 C  
HETATM   17  C   UNL     1      -8.559  10.230  65.571  1.00  0.00    -0.173 C  
HETATM   18  C   UNL     1      -7.730  10.227  67.963  1.00  0.00    -0.089 C  
BRANCH  16  19
HETATM   19  C   UNL     1      -7.969   8.038  66.679  1.00  0.00    -0.102 C  
HETATM   20  C   UNL     1      -7.395   7.394  67.936  1.00  0.00    -0.093 C  
ENDBRANCH  16  19
ENDBRANCH  14  16
ENDBRANCH  13  14
ENDBRANCH   2  13
BRANCH  12  21
HETATM   21  C   UNL     1     -10.615  12.926  67.088  1.00  0.00    -0.246 C  
BRANCH  21  22
HETATM   22  C   UNL     1      -9.396  13.747  66.693  1.00  0.00    -0.277 C  
BRANCH  22  23
HETATM   23  C   UNL     1      -9.395  15.231  66.354  1.00  0.00    -0.296 C  
HETATM   24  C   UNL     1      -8.893  16.212  67.385  1.00  0.00    -0.199 C  
HETATM   25  C   UNL     1      -8.699  17.543  66.657  1.00  0.00    -0.263 C  
HETATM   26  O   UNL     1      -7.538  17.486  65.822  1.00  0.00    -0.514 OA 
HETATM   27  C   UNL     1      -9.931  17.959  65.860  1.00  0.00    -0.121 C  
HETATM   28  C   UNL     1     -10.660  16.822  65.179  1.00  0.00    -0.114 C  
HETATM   29  H   UNL     1      -7.417  18.313  65.370  1.00  0.00     0.000 HD 
HETATM   30  O   UNL     1     -11.309  16.977  64.152  1.00  0.00    -1.164 OA 
HETATM   31  O   UNL     1     -10.677  15.650  65.871  1.00  0.00    -0.322 OA 
ENDBRANCH  22  23
ENDBRANCH  21  22
ENDBRANCH  12  21
TORSDOF 7
ENDMDL
MODEL       78
REMARK 921   NORMALIZED FREE ENERGY PREDICTED BY IDOCK:   -5.46 KCAL/MOL
REMARK 922        TOTAL FREE ENERGY PREDICTED BY IDOCK:   -9.19 KCAL/MOL
REMARK 923 INTER-LIGAND FREE ENERGY PREDICTED BY IDOCK:   -7.90 KCAL/MOL
REMARK 924 INTRA-LIGAND FREE ENERGY PREDICTED BY IDOCK:   -1.30 KCAL/MOL
REMARK 927      BINDING AFFINITY PREDICTED BY RF-SCORE:    0.00 PKD
ROOT
HETATM    1  C   UNL     1      -9.778  10.574  65.575  1.00  0.00    -0.298 C  
HETATM    2  C   UNL     1     -10.532  11.704  66.376  1.00  0.00    -0.244 C  
HETATM    3  C   UNL     1     -11.359  12.746  65.599  1.00  0.00    -0.354 C  
HETATM    4  C   UNL     1      -7.579   9.215  65.064  1.00  0.00    -0.106 C  
HETATM    5  C   UNL     1     -11.905  12.313  64.249  1.00  0.00    -0.482 C  
HETATM    6  C   UNL     1      -7.785   9.624  63.637  1.00  0.00    -0.129 C  
HETATM    7  C   UNL     1      -7.906   7.710  65.060  1.00  0.00    -0.126 C  
HETATM    8  C   UNL     1      -8.849  10.297  63.197  1.00  0.00    -0.226 C  
HETATM    9  C   UNL     1     -10.867  11.534  63.496  1.00  0.00    -0.473 C  
HETATM   10  C   UNL     1     -12.279  13.588  63.468  1.00  0.00    -0.410 C  
HETATM   11  C   UNL     1      -9.877  10.823  64.066  1.00  0.00    -0.390 C  
HETATM   12  C   UNL     1      -8.318  10.185  66.070  1.00  0.00    -0.130 C  
ENDROOT
BRANCH   2  13
HETATM   13  O   UNL     1      -9.731  12.420  67.333  1.00  0.00    -0.189 OA 
BRANCH  13  14
HETATM   14  C   UNL     1     -10.319  13.382  68.092  1.00  0.00    -0.247 C  
HETATM   15  O   UNL     1     -11.311  13.229  68.805  1.00  0.00    -0.254 OA 
BRANCH  14  16
HETATM   16  C   UNL     1      -9.628  14.737  67.932  1.00  0.00    -0.210 C  
HETATM   17  C   UNL     1      -8.405  14.667  67.001  1.00  0.00    -0.214 C  
HETATM   18  C   UNL     1     -10.710  15.655  67.344  1.00  0.00    -0.309 C  
BRANCH  16  19
HETATM   19  C   UNL     1      -9.187  15.217  69.340  1.00  0.00    -0.175 C  
HETATM   20  C   UNL     1      -7.678  15.355  69.504  1.00  0.00    -0.210 C  
ENDBRANCH  16  19
ENDBRANCH  14  16
ENDBRANCH  13  14
ENDBRANCH   2  13
BRANCH  12  21
HETATM   21  C   UNL     1      -8.181   9.774  67.597  1.00  0.00    -0.114 C  
BRANCH  21  22
HETATM   22  C   UNL     1      -9.238   8.780  68.055  1.00  0.00    -0.147 C  
BRANCH  22  23
HETATM   23  C   UNL     1     -10.131   8.932  69.279  1.00  0.00    -0.203 C  
HETATM   24  C   UNL     1     -10.344  10.309  69.857  1.00  0.00    -0.281 C  
HETATM   25  C   UNL     1     -11.517  10.193  70.831  1.00  0.00    -0.360 C  
HETATM   26  O   UNL     1     -12.747  10.062  70.113  1.00  0.00    -0.535 OA 
HETATM   27  C   UNL     1     -11.337   9.053  71.829  1.00  0.00    -0.447 C  
HETATM   28  C   UNL     1     -10.699   7.806  71.260  1.00  0.00    -0.228 C  
HETATM   29  H   UNL     1     -13.476   9.991  70.718  1.00  0.00     0.000 HD 
HETATM   30  O   UNL     1     -10.921   6.688  71.709  1.00  0.00    -0.228 OA 
HETATM   31  O   UNL     1      -9.741   8.026  70.318  1.00  0.00    -0.175 OA 
ENDBRANCH  22  23
ENDBRANCH  21  22
ENDBRANCH  12  21
TORSDOF 7
ENDMDL
MODEL       79
REMARK 921   NORMALIZED FREE ENERGY PREDICTED BY IDOCK:   -5.43 KCAL/MOL
REMARK 922        TOTAL FREE ENERGY PREDICTED BY IDOCK:   -9.14 KCAL/MOL
REMARK 923 INTER-LIGAND FREE ENERGY PREDICTED BY IDOCK:   -7.85 KCAL/MOL
REMARK 924 INTRA-LIGAND FREE ENERGY PREDICTED BY IDOCK:   -1.29 KCAL/MOL
REMARK 927      BINDING AFFINITY PREDICTED BY RF-SCORE:    0.00 PKD
ROOT
HETATM    1  C   UNL     1      -8.420   6.904  68.477  1.00  0.00    -0.123 C  
HETATM    2  C   UNL     1      -8.671   7.125  70.019  1.00  0.00    -0.141 C  
HETATM    3  C   UNL     1      -8.642   5.908  70.963  1.00  0.00    -0.131 C  
HETATM    4  C   UNL     1      -9.139   7.273  65.969  1.00  0.00    -0.117 C  
HETATM    5  C   UNL     1      -7.806   4.719  70.517  1.00  0.00    -0.062 C  
HETATM    6  C   UNL     1      -9.097   5.779  65.849  1.00  0.00    -0.148 C  
HETATM    7  C   UNL     1      -7.916   7.736  65.157  1.00  0.00    -0.129 C  
HETATM    8  C   UNL     1      -8.687   4.961  66.818  1.00  0.00    -0.107 C  
HETATM    9  C   UNL     1      -8.002   4.469  69.051  1.00  0.00    -0.070 C  
HETATM   10  C   UNL     1      -8.269   3.494  71.329  1.00  0.00    -0.077 C  
HETATM   11  C   UNL     1      -8.347   5.408  68.150  1.00  0.00    -0.098 C  
HETATM   12  C   UNL     1      -9.319   7.741  67.469  1.00  0.00    -0.161 C  
ENDROOT
BRANCH   2  13
HETATM   13  O   UNL     1      -9.840   7.894  70.348  1.00  0.00    -0.183 OA 
BRANCH  13  14
HETATM   14  C   UNL     1     -11.024   7.248  70.521  1.00  0.00    -0.260 C  
HETATM   15  O   UNL     1     -11.445   6.322  69.827  1.00  0.00    -0.430 OA 
BRANCH  14  16
HETATM   16  C   UNL     1     -11.831   7.837  71.678  1.00  0.00    -0.321 C  
HETATM   17  C   UNL     1     -13.290   7.348  71.687  1.00  0.00    -0.426 C  
HETATM   18  C   UNL     1     -11.092   7.370  72.941  1.00  0.00    -0.397 C  
BRANCH  16  19
HETATM   19  C   UNL     1     -11.798   9.382  71.546  1.00  0.00    -0.456 C  
HETATM   20  C   UNL     1     -13.134  10.058  71.832  1.00  0.00    -0.563 C  
ENDBRANCH  16  19
ENDBRANCH  14  16
ENDBRANCH  13  14
ENDBRANCH   2  13
BRANCH  12  21
HETATM   21  C   UNL     1      -9.318   9.316  67.669  1.00  0.00    -0.146 C  
BRANCH  21  22
HETATM   22  C   UNL     1     -10.698   9.944  67.544  1.00  0.00    -0.333 C  
BRANCH  22  23
HETATM   23  C   UNL     1     -11.017  11.426  67.686  1.00  0.00    -0.250 C  
HETATM   24  C   UNL     1     -11.503  11.942  69.017  1.00  0.00    -0.355 C  
HETATM   25  C   UNL     1     -11.412  13.467  68.950  1.00  0.00    -0.304 C  
HETATM   26  O   UNL     1     -10.048  13.887  69.035  1.00  0.00    -0.402 OA 
HETATM   27  C   UNL     1     -12.089  14.038  67.708  1.00  0.00    -0.325 C  
HETATM   28  C   UNL     1     -11.913  13.213  66.453  1.00  0.00    -0.402 C  
HETATM   29  H   UNL     1      -9.991  14.834  68.994  1.00  0.00     0.000 HD 
HETATM   30  O   UNL     1     -11.925  13.707  65.333  1.00  0.00    -0.342 OA 
HETATM   31  O   UNL     1     -11.899  11.865  66.646  1.00  0.00    -0.591 OA 
ENDBRANCH  22  23
ENDBRANCH  21  22
ENDBRANCH  12  21
TORSDOF 7
ENDMDL
MODEL       80
REMARK 921   NORMALIZED FREE ENERGY PREDICTED BY IDOCK:   -5.42 KCAL/MOL
REMARK 922        TOTAL FREE ENERGY PREDICTED BY IDOCK:   -9.13 KCAL/MOL
REMARK 923 INTER-LIGAND FREE ENERGY PREDICTED BY IDOCK:   -8.28 KCAL/MOL
REMARK 924 INTRA-LIGAND FREE ENERGY PREDICTED BY IDOCK:   -0.85 KCAL/MOL
REMARK 927      BINDING AFFINITY PREDICTED BY RF-SCORE:    0.00 PKD
ROOT
HETATM    1  C   UNL     1     -11.569   9.966  70.581  1.00  0.00    -0.413 C  
HETATM    2  C   UNL     1     -11.298  11.065  69.482  1.00  0.00    -0.287 C  
HETATM    3  C   UNL     1     -12.010  12.426  69.595  1.00  0.00    -0.341 C  
HETATM    4  C   UNL     1     -12.208   7.494  71.231  1.00  0.00    -0.357 C  
HETATM    5  C   UNL     1     -12.419  12.868  70.990  1.00  0.00    -0.374 C  
HETATM    6  C   UNL     1     -13.303   8.106  72.052  1.00  0.00    -0.309 C  
HETATM    7  C   UNL     1     -11.212   6.977  72.285  1.00  0.00    -0.299 C  
HETATM    8  C   UNL     1     -13.467   9.418  72.222  1.00  0.00    -0.539 C  
HETATM    9  C   UNL     1     -12.990  11.709  71.753  1.00  0.00    -0.483 C  
HETATM   10  C   UNL     1     -13.481  13.974  70.836  1.00  0.00    -0.096 C  
HETATM   11  C   UNL     1     -12.682  10.417  71.534  1.00  0.00    -0.564 C  
HETATM   12  C   UNL     1     -11.716   8.464  70.083  1.00  0.00     0.202 C  
ENDROOT
BRANCH   2  13
HETATM   13  O   UNL     1     -11.436  10.622  68.121  1.00  0.00    -0.352 OA 
BRANCH  13  14
HETATM   14  C   UNL     1     -11.290  11.527  67.117  1.00  0.00    -0.284 C  
HETATM   15  O   UNL     1     -11.981  12.533  66.951  1.00  0.00    -0.507 OA 
BRANCH  14  16
HETATM   16  C   UNL     1     -10.171  11.134  66.152  1.00  0.00    -0.293 C  
HETATM   17  C   UNL     1      -9.853   9.630  66.201  1.00  0.00    -0.334 C  
HETATM   18  C   UNL     1     -10.697  11.536  64.767  1.00  0.00    -0.366 C  
BRANCH  16  19
HETATM   19  C   UNL     1      -8.906  11.948  66.532  1.00  0.00    -0.178 C  
HETATM   20  C   UNL     1      -7.797  11.114  67.161  1.00  0.00    -0.139 C  
ENDBRANCH  16  19
ENDBRANCH  14  16
ENDBRANCH  13  14
ENDBRANCH   2  13
BRANCH  12  21
HETATM   21  C   UNL     1     -10.519   7.893  69.210  1.00  0.00    -0.221 C  
BRANCH  21  22
HETATM   22  C   UNL     1     -10.806   6.524  68.610  1.00  0.00    -0.357 C  
BRANCH  22  23
HETATM   23  C   UNL     1     -10.099   5.916  67.406  1.00  0.00    -0.169 C  
HETATM   24  C   UNL     1     -10.138   4.420  67.219  1.00  0.00    -0.101 C  
HETATM   25  C   UNL     1      -9.656   4.149  65.794  1.00  0.00    -0.190 C  
HETATM   26  O   UNL     1     -10.666   4.516  64.850  1.00  0.00    -0.499 OA 
HETATM   27  C   UNL     1      -8.333   4.842  65.483  1.00  0.00    -0.123 C  
HETATM   28  C   UNL     1      -8.182   6.221  66.085  1.00  0.00    -0.121 C  
HETATM   29  H   UNL     1     -10.366   4.348  63.964  1.00  0.00     0.000 HD 
HETATM   30  O   UNL     1      -7.485   7.090  65.576  1.00  0.00    -0.079 OA 
HETATM   31  O   UNL     1      -8.747   6.380  67.314  1.00  0.00    -0.108 OA 
ENDBRANCH  22  23
ENDBRANCH  21  22
ENDBRANCH  12  21
TORSDOF 7
ENDMDL
MODEL       81
REMARK 921   NORMALIZED FREE ENERGY PREDICTED BY IDOCK:   -5.41 KCAL/MOL
REMARK 922        TOTAL FREE ENERGY PREDICTED BY IDOCK:   -9.12 KCAL/MOL
REMARK 923 INTER-LIGAND FREE ENERGY PREDICTED BY IDOCK:   -7.76 KCAL/MOL
REMARK 924 INTRA-LIGAND FREE ENERGY PREDICTED BY IDOCK:   -1.36 KCAL/MOL
REMARK 927      BINDING AFFINITY PREDICTED BY RF-SCORE:    0.00 PKD
ROOT
HETATM    1  C   UNL     1      -9.112   5.638  68.540  1.00  0.00    -0.118 C  
HETATM    2  C   UNL     1      -9.400   6.357  69.914  1.00  0.00    -0.151 C  
HETATM    3  C   UNL     1      -8.865   5.728  71.214  1.00  0.00    -0.139 C  
HETATM    4  C   UNL     1      -9.969   4.672  66.243  1.00  0.00    -0.268 C  
HETATM    5  C   UNL     1      -7.631   4.851  71.088  1.00  0.00    -0.082 C  
HETATM    6  C   UNL     1      -9.332   3.383  66.668  1.00  0.00    -0.179 C  
HETATM    7  C   UNL     1      -9.051   5.173  65.112  1.00  0.00    -0.101 C  
HETATM    8  C   UNL     1      -8.607   3.237  67.778  1.00  0.00    -0.117 C  
HETATM    9  C   UNL     1      -7.738   3.976  69.875  1.00  0.00    -0.052 C  
HETATM   10  C   UNL     1      -7.545   3.984  72.359  1.00  0.00    -0.072 C  
HETATM   11  C   UNL     1      -8.450   4.275  68.772  1.00  0.00    -0.096 C  
HETATM   12  C   UNL     1     -10.292   5.608  67.475  1.00  0.00    -0.277 C  
ENDROOT
BRANCH   2  13
HETATM   13  O   UNL     1     -10.774   6.715  70.145  1.00  0.00    -0.211 OA 
BRANCH  13  14
HETATM   14  C   UNL     1     -11.057   7.954  70.628  1.00  0.00    -0.259 C  
HETATM   15  O   UNL     1     -10.691   9.020  70.132  1.00  0.00    -0.220 OA 
BRANCH  14  16
HETATM   16  C   UNL     1     -11.869   7.890  71.922  1.00  0.00    -0.345 C  
HETATM   17  C   UNL     1     -10.986   7.651  73.159  1.00  0.00    -0.411 C  
HETATM   18  C   UNL     1     -12.568   9.255  72.007  1.00  0.00    -0.465 C  
BRANCH  16  19
HETATM   19  C   UNL     1     -12.898   6.738  71.783  1.00  0.00    -0.307 C  
HETATM   20  C   UNL     1     -14.348   7.204  71.730  1.00  0.00    -0.515 C  
ENDBRANCH  16  19
ENDBRANCH  14  16
ENDBRANCH  13  14
ENDBRANCH   2  13
BRANCH  12  21
HETATM   21  C   UNL     1     -10.921   7.012  67.085  1.00  0.00    -0.393 C  
BRANCH  21  22
HETATM   22  C   UNL     1      -9.882   8.101  66.861  1.00  0.00    -0.316 C  
BRANCH  22  23
HETATM   23  C   UNL     1     -10.148   9.472  66.254  1.00  0.00    -0.257 C  
HETATM   24  C   UNL     1      -9.138  10.051  65.295  1.00  0.00    -0.243 C  
HETATM   25  C   UNL     1      -9.820  11.238  64.613  1.00  0.00    -0.268 C  
HETATM   26  O   UNL     1     -10.787  10.777  63.665  1.00  0.00    -0.504 OA 
HETATM   27  C   UNL     1     -10.446  12.206  65.612  1.00  0.00    -0.290 C  
HETATM   28  C   UNL     1     -11.090  11.549  66.813  1.00  0.00    -0.302 C  
HETATM   29  H   UNL     1     -11.210  11.514  63.241  1.00  0.00     0.000 HD 
HETATM   30  O   UNL     1     -12.025  12.058  67.419  1.00  0.00    -0.583 OA 
HETATM   31  O   UNL     1     -10.457  10.434  67.270  1.00  0.00    -0.221 OA 
ENDBRANCH  22  23
ENDBRANCH  21  22
ENDBRANCH  12  21
TORSDOF 7
ENDMDL
MODEL       82
REMARK 921   NORMALIZED FREE ENERGY PREDICTED BY IDOCK:   -5.41 KCAL/MOL
REMARK 922        TOTAL FREE ENERGY PREDICTED BY IDOCK:   -9.12 KCAL/MOL
REMARK 923 INTER-LIGAND FREE ENERGY PREDICTED BY IDOCK:   -8.44 KCAL/MOL
REMARK 924 INTRA-LIGAND FREE ENERGY PREDICTED BY IDOCK:   -0.68 KCAL/MOL
REMARK 927      BINDING AFFINITY PREDICTED BY RF-SCORE:    0.00 PKD
ROOT
HETATM    1  C   UNL     1     -11.267  14.170  67.666  1.00  0.00    -0.315 C  
HETATM    2  C   UNL     1     -10.385  14.835  66.539  1.00  0.00    -0.286 C  
HETATM    3  C   UNL     1     -10.289  14.148  65.163  1.00  0.00    -0.429 C  
HETATM    4  C   UNL     1     -11.541  13.307  70.140  1.00  0.00    -0.155 C  
HETATM    5  C   UNL     1     -11.458  13.267  64.758  1.00  0.00    -0.355 C  
HETATM    6  C   UNL     1     -11.935  11.998  69.527  1.00  0.00    -0.346 C  
HETATM    7  C   UNL     1     -12.863  13.848  70.718  1.00  0.00    -0.329 C  
HETATM    8  C   UNL     1     -12.087  11.800  68.217  1.00  0.00    -0.068 C  
HETATM    9  C   UNL     1     -11.916  12.444  65.925  1.00  0.00    -0.434 C  
HETATM   10  C   UNL     1     -10.975  12.347  63.619  1.00  0.00    -0.525 C  
HETATM   11  C   UNL     1     -11.771  12.794  67.217  1.00  0.00    -0.440 C  
HETATM   12  C   UNL     1     -10.690  14.194  69.146  1.00  0.00    -0.216 C  
ENDROOT
BRANCH   2  13
HETATM   13  O   UNL     1      -9.050  15.194  66.933  1.00  0.00    -0.216 OA 
BRANCH  13  14
HETATM   14  C   UNL     1      -8.152  14.205  67.189  1.00  0.00    -0.115 C  
HETATM   15  O   UNL     1      -8.332  13.003  66.991  1.00  0.00    -0.170 OA 
BRANCH  14  16
HETATM   16  C   UNL     1      -6.867  14.748  67.813  1.00  0.00    -0.195 C  
HETATM   17  C   UNL     1      -5.664  13.815  67.590  1.00  0.00    -0.024 C  
HETATM   18  C   UNL     1      -6.644  16.101  67.121  1.00  0.00    -0.208 C  
BRANCH  16  19
HETATM   19  C   UNL     1      -7.114  14.928  69.334  1.00  0.00    -0.175 C  
HETATM   20  C   UNL     1      -6.121  14.181  70.216  1.00  0.00    -0.164 C  
ENDBRANCH  16  19
ENDBRANCH  14  16
ENDBRANCH  13  14
ENDBRANCH   2  13
BRANCH  12  21
HETATM   21  C   UNL     1     -10.286  15.619  69.720  1.00  0.00    -0.303 C  
BRANCH  21  22
HETATM   22  C   UNL     1     -11.031  16.771  69.062  1.00  0.00    -0.239 C  
BRANCH  22  23
HETATM   23  C   UNL     1     -10.388  17.985  68.406  1.00  0.00    -0.368 C  
HETATM   24  C   UNL     1      -9.830  19.077  69.286  1.00  0.00    -0.211 C  
HETATM   25  C   UNL     1      -8.975  19.966  68.382  1.00  0.00    -0.192 C  
HETATM   26  O   UNL     1      -7.752  19.304  68.049  1.00  0.00    -0.270 OA 
HETATM   27  C   UNL     1      -9.720  20.413  67.128  1.00  0.00    -0.601 C  
HETATM   28  C   UNL     1     -10.626  19.366  66.522  1.00  0.00    -0.458 C  
HETATM   29  H   UNL     1      -7.220  19.856  67.488  1.00  0.00     0.000 HD 
HETATM   30  O   UNL     1     -10.891  19.336  65.326  1.00  0.00    -0.503 OA 
HETATM   31  O   UNL     1     -11.254  18.556  67.418  1.00  0.00    -0.128 OA 
ENDBRANCH  22  23
ENDBRANCH  21  22
ENDBRANCH  12  21
TORSDOF 7
ENDMDL
MODEL       83
REMARK 921   NORMALIZED FREE ENERGY PREDICTED BY IDOCK:   -5.41 KCAL/MOL
REMARK 922        TOTAL FREE ENERGY PREDICTED BY IDOCK:   -9.12 KCAL/MOL
REMARK 923 INTER-LIGAND FREE ENERGY PREDICTED BY IDOCK:   -7.85 KCAL/MOL
REMARK 924 INTRA-LIGAND FREE ENERGY PREDICTED BY IDOCK:   -1.26 KCAL/MOL
REMARK 927      BINDING AFFINITY PREDICTED BY RF-SCORE:    0.00 PKD
ROOT
HETATM    1  C   UNL     1     -10.865  16.040  67.443  1.00  0.00    -0.277 C  
HETATM    2  C   UNL     1     -10.126  16.868  68.564  1.00  0.00    -0.297 C  
HETATM    3  C   UNL     1      -9.587  18.270  68.226  1.00  0.00    -0.332 C  
HETATM    4  C   UNL     1     -11.171  13.807  66.079  1.00  0.00    -0.307 C  
HETATM    5  C   UNL     1     -10.288  19.017  67.103  1.00  0.00    -0.496 C  
HETATM    6  C   UNL     1     -10.972  14.651  64.856  1.00  0.00    -0.419 C  
HETATM    7  C   UNL     1     -12.668  13.447  66.031  1.00  0.00    -0.233 C  
HETATM    8  C   UNL     1     -10.849  15.978  64.875  1.00  0.00    -0.391 C  
HETATM    9  C   UNL     1     -10.585  18.084  65.968  1.00  0.00    -0.258 C  
HETATM   10  C   UNL     1      -9.344  20.141  66.632  1.00  0.00    -0.490 C  
HETATM   11  C   UNL     1     -10.768  16.756  66.090  1.00  0.00    -0.116 C  
HETATM   12  C   UNL     1     -10.559  14.482  67.371  1.00  0.00    -0.271 C  
ENDROOT
BRANCH   2  13
HETATM   13  O   UNL     1      -9.082  16.165  69.261  1.00  0.00    -0.252 OA 
BRANCH  13  14
HETATM   14  C   UNL     1      -7.793  16.559  69.084  1.00  0.00    -0.192 C  
HETATM   15  O   UNL     1      -7.293  17.597  69.520  1.00  0.00    -0.017 OA 
BRANCH  14  16
HETATM   16  C   UNL     1      -7.008  15.572  68.220  1.00  0.00    -0.118 C  
HETATM   17  C   UNL     1      -7.371  15.677  66.729  1.00  0.00     0.010 C  
HETATM   18  C   UNL     1      -5.536  15.943  68.450  1.00  0.00    -0.106 C  
BRANCH  16  19
HETATM   19  C   UNL     1      -7.315  14.140  68.733  1.00  0.00    -0.128 C  
HETATM   20  C   UNL     1      -6.092  13.392  69.252  1.00  0.00    -0.098 C  
ENDBRANCH  16  19
ENDBRANCH  14  16
ENDBRANCH  13  14
ENDBRANCH   2  13
BRANCH  12  21
HETATM   21  C   UNL     1     -10.784  13.660  68.710  1.00  0.00    -0.265 C  
BRANCH  21  22
HETATM   22  C   UNL     1     -10.478  12.176  68.569  1.00  0.00    -0.248 C  
BRANCH  22  23
HETATM   23  C   UNL     1     -10.858  11.091  69.568  1.00  0.00    -0.216 C  
HETATM   24  C   UNL     1     -10.568   9.652  69.223  1.00  0.00    -0.236 C  
HETATM   25  C   UNL     1     -10.740   8.854  70.516  1.00  0.00    -0.230 C  
HETATM   26  O   UNL     1      -9.640   9.095  71.397  1.00  0.00    -0.286 OA 
HETATM   27  C   UNL     1     -12.072   9.137  71.205  1.00  0.00    -0.365 C  
HETATM   28  C   UNL     1     -12.527  10.577  71.137  1.00  0.00    -0.412 C  
HETATM   29  H   UNL     1      -9.747   8.599  72.201  1.00  0.00     0.000 HD 
HETATM   30  O   UNL     1     -13.240  11.084  71.995  1.00  0.00    -0.499 OA 
HETATM   31  O   UNL     1     -12.224  11.225  69.979  1.00  0.00    -0.310 OA 
ENDBRANCH  22  23
ENDBRANCH  21  22
ENDBRANCH  12  21
TORSDOF 7
ENDMDL
MODEL       84
REMARK 921   NORMALIZED FREE ENERGY PREDICTED BY IDOCK:   -5.41 KCAL/MOL
REMARK 922        TOTAL FREE ENERGY PREDICTED BY IDOCK:   -9.12 KCAL/MOL
REMARK 923 INTER-LIGAND FREE ENERGY PREDICTED BY IDOCK:   -7.78 KCAL/MOL
REMARK 924 INTRA-LIGAND FREE ENERGY PREDICTED BY IDOCK:   -1.34 KCAL/MOL
REMARK 927      BINDING AFFINITY PREDICTED BY RF-SCORE:    0.00 PKD
ROOT
HETATM    1  C   UNL     1      -8.778   8.604  68.611  1.00  0.00    -0.138 C  
HETATM    2  C   UNL     1      -9.184   8.069  70.039  1.00  0.00    -0.156 C  
HETATM    3  C   UNL     1      -8.746   6.653  70.459  1.00  0.00    -0.144 C  
HETATM    4  C   UNL     1      -9.437   9.724  66.319  1.00  0.00    -0.250 C  
HETATM    5  C   UNL     1      -7.495   6.102  69.796  1.00  0.00    -0.081 C  
HETATM    6  C   UNL     1      -8.819   8.520  65.675  1.00  0.00    -0.214 C  
HETATM    7  C   UNL     1      -8.439  10.854  66.005  1.00  0.00    -0.167 C  
HETATM    8  C   UNL     1      -8.184   7.557  66.343  1.00  0.00    -0.122 C  
HETATM    9  C   UNL     1      -7.494   6.435  68.334  1.00  0.00    -0.088 C  
HETATM   10  C   UNL     1      -7.499   4.574  69.991  1.00  0.00    -0.054 C  
HETATM   11  C   UNL     1      -8.119   7.493  67.785  1.00  0.00    -0.119 C  
HETATM   12  C   UNL     1      -9.869   9.440  67.813  1.00  0.00    -0.207 C  
ENDROOT
BRANCH   2  13
HETATM   13  O   UNL     1     -10.576   8.204  70.374  1.00  0.00    -0.215 OA 
BRANCH  13  14
HETATM   14  C   UNL     1     -11.347   7.086  70.439  1.00  0.00    -0.310 C  
HETATM   15  O   UNL     1     -11.503   6.267  69.532  1.00  0.00    -0.428 OA 
BRANCH  14  16
HETATM   16  C   UNL     1     -12.065   6.965  71.783  1.00  0.00    -0.385 C  
HETATM   17  C   UNL     1     -11.529   7.959  72.828  1.00  0.00    -0.428 C  
HETATM   18  C   UNL     1     -13.539   7.254  71.461  1.00  0.00    -0.442 C  
BRANCH  16  19
HETATM   19  C   UNL     1     -11.875   5.513  72.297  1.00  0.00    -0.054 C  
HETATM   20  C   UNL     1     -10.655   5.326  73.191  1.00  0.00    -0.278 C  
ENDBRANCH  16  19
ENDBRANCH  14  16
ENDBRANCH  13  14
ENDBRANCH   2  13
BRANCH  12  21
HETATM   21  C   UNL     1     -10.483  10.694  68.568  1.00  0.00    -0.212 C  
BRANCH  21  22
HETATM   22  C   UNL     1     -11.714  11.271  67.884  1.00  0.00    -0.289 C  
BRANCH  22  23
HETATM   23  C   UNL     1     -11.748  12.531  67.030  1.00  0.00    -0.367 C  
HETATM   24  C   UNL     1     -11.977  12.398  65.545  1.00  0.00    -0.453 C  
HETATM   25  C   UNL     1     -12.292  13.802  65.027  1.00  0.00    -0.428 C  
HETATM   26  O   UNL     1     -13.611  14.190  65.420  1.00  0.00    -0.600 OA 
HETATM   27  C   UNL     1     -11.258  14.833  65.469  1.00  0.00    -0.346 C  
HETATM   28  C   UNL     1     -10.734  14.644  66.875  1.00  0.00    -0.294 C  
HETATM   29  H   UNL     1     -13.807  15.063  65.098  1.00  0.00     0.000 HD 
HETATM   30  O   UNL     1     -10.328  15.576  67.558  1.00  0.00    -0.260 OA 
HETATM   31  O   UNL     1     -10.596  13.348  67.271  1.00  0.00    -0.252 OA 
ENDBRANCH  22  23
ENDBRANCH  21  22
ENDBRANCH  12  21
TORSDOF 7
ENDMDL
MODEL       85
REMARK 921   NORMALIZED FREE ENERGY PREDICTED BY IDOCK:   -5.40 KCAL/MOL
REMARK 922        TOTAL FREE ENERGY PREDICTED BY IDOCK:   -9.10 KCAL/MOL
REMARK 923 INTER-LIGAND FREE ENERGY PREDICTED BY IDOCK:   -7.40 KCAL/MOL
REMARK 924 INTRA-LIGAND FREE ENERGY PREDICTED BY IDOCK:   -1.70 KCAL/MOL
REMARK 927      BINDING AFFINITY PREDICTED BY RF-SCORE:    0.00 PKD
ROOT
HETATM    1  C   UNL     1     -11.539  12.692  66.901  1.00  0.00    -0.438 C  
HETATM    2  C   UNL     1     -11.268  12.086  68.332  1.00  0.00    -0.262 C  
HETATM    3  C   UNL     1     -11.362  13.006  69.564  1.00  0.00    -0.223 C  
HETATM    4  C   UNL     1     -10.813  13.041  64.393  1.00  0.00    -0.409 C  
HETATM    5  C   UNL     1     -12.267  14.220  69.440  1.00  0.00    -0.319 C  
HETATM    6  C   UNL     1     -10.941  14.509  64.671  1.00  0.00    -0.351 C  
HETATM    7  C   UNL     1     -12.012  12.741  63.474  1.00  0.00    -0.633 C  
HETATM    8  C   UNL     1     -11.394  15.016  65.818  1.00  0.00    -0.279 C  
HETATM    9  C   UNL     1     -12.094  14.860  68.094  1.00  0.00    -0.120 C  
HETATM   10  C   UNL     1     -11.872  15.211  70.552  1.00  0.00    -0.361 C  
HETATM   11  C   UNL     1     -11.700  14.214  66.981  1.00  0.00    -0.430 C  
HETATM   12  C   UNL     1     -10.599  12.204  65.717  1.00  0.00    -0.295 C  
ENDROOT
BRANCH   2  13
HETATM   13  O   UNL     1     -10.054  11.324  68.458  1.00  0.00    -0.190 OA 
BRANCH  13  14
HETATM   14  C   UNL     1     -10.074  10.171  69.178  1.00  0.00    -0.213 C  
HETATM   15  O   UNL     1     -11.000   9.787  69.893  1.00  0.00    -0.238 OA 
BRANCH  14  16
HETATM   16  C   UNL     1      -8.766   9.391  69.042  1.00  0.00    -0.136 C  
HETATM   17  C   UNL     1      -7.818  10.009  68.000  1.00  0.00    -0.089 C  
HETATM   18  C   UNL     1      -8.142   9.438  70.444  1.00  0.00    -0.197 C  
BRANCH  16  19
HETATM   19  C   UNL     1      -9.119   7.937  68.630  1.00  0.00    -0.136 C  
HETATM   20  C   UNL     1     -10.064   7.841  67.439  1.00  0.00    -0.288 C  
ENDBRANCH  16  19
ENDBRANCH  14  16
ENDBRANCH  13  14
ENDBRANCH   2  13
BRANCH  12  21
HETATM   21  C   UNL     1     -10.508  10.635  65.493  1.00  0.00    -0.246 C  
BRANCH  21  22
HETATM   22  C   UNL     1      -9.686  10.243  64.274  1.00  0.00    -0.373 C  
BRANCH  22  23
HETATM   23  C   UNL     1      -8.204   9.896  64.275  1.00  0.00    -0.161 C  
HETATM   24  C   UNL     1      -7.366  10.278  63.080  1.00  0.00    -0.116 C  
HETATM   25  C   UNL     1      -5.906  10.113  63.505  1.00  0.00    -0.137 C  
HETATM   26  O   UNL     1      -5.524  11.170  64.390  1.00  0.00    -0.469 OA 
HETATM   27  C   UNL     1      -5.628   8.747  64.125  1.00  0.00    -0.064 C  
HETATM   28  C   UNL     1      -6.737   8.211  65.002  1.00  0.00    -0.052 C  
HETATM   29  H   UNL     1      -4.617  11.067  64.653  1.00  0.00     0.000 HD 
HETATM   30  O   UNL     1      -6.528   7.445  65.935  1.00  0.00    -0.043 OA 
HETATM   31  O   UNL     1      -7.999   8.512  64.587  1.00  0.00    -0.127 OA 
ENDBRANCH  22  23
ENDBRANCH  21  22
ENDBRANCH  12  21
TORSDOF 7
ENDMDL
MODEL       86
REMARK 921   NORMALIZED FREE ENERGY PREDICTED BY IDOCK:   -5.40 KCAL/MOL
REMARK 922        TOTAL FREE ENERGY PREDICTED BY IDOCK:   -9.10 KCAL/MOL
REMARK 923 INTER-LIGAND FREE ENERGY PREDICTED BY IDOCK:   -7.28 KCAL/MOL
REMARK 924 INTRA-LIGAND FREE ENERGY PREDICTED BY IDOCK:   -1.82 KCAL/MOL
REMARK 927      BINDING AFFINITY PREDICTED BY RF-SCORE:    0.00 PKD
ROOT
HETATM    1  C   UNL     1     -11.304  13.111  69.265  1.00  0.00    -0.312 C  
HETATM    2  C   UNL     1     -10.979  11.597  68.964  1.00  0.00    -0.233 C  
HETATM    3  C   UNL     1     -11.647  10.505  69.820  1.00  0.00    -0.368 C  
HETATM    4  C   UNL     1     -10.490  15.574  69.728  1.00  0.00    -0.308 C  
HETATM    5  C   UNL     1     -12.981  10.858  70.456  1.00  0.00    -0.212 C  
HETATM    6  C   UNL     1     -11.311  15.496  70.980  1.00  0.00    -0.421 C  
HETATM    7  C   UNL     1     -11.285  16.543  68.834  1.00  0.00    -0.257 C  
HETATM    8  C   UNL     1     -12.093  14.465  71.299  1.00  0.00    -0.405 C  
HETATM    9  C   UNL     1     -12.941  12.254  71.001  1.00  0.00    -0.152 C  
HETATM   10  C   UNL     1     -13.234   9.852  71.596  1.00  0.00    -0.519 C  
HETATM   11  C   UNL     1     -12.152  13.240  70.536  1.00  0.00    -0.391 C  
HETATM   12  C   UNL     1     -10.096  14.141  69.189  1.00  0.00    -0.023 C  
ENDROOT
BRANCH   2  13
HETATM   13  O   UNL     1      -9.580  11.274  68.872  1.00  0.00    -0.183 OA 
BRANCH  13  14
HETATM   14  C   UNL     1      -9.213  10.113  68.266  1.00  0.00    -0.130 C  
HETATM   15  O   UNL     1      -9.968   9.343  67.672  1.00  0.00    -0.169 OA 
BRANCH  14  16
HETATM   16  C   UNL     1      -7.721   9.826  68.440  1.00  0.00    -0.081 C  
HETATM   17  C   UNL     1      -6.995   9.652  67.095  1.00  0.00    -0.085 C  
HETATM   18  C   UNL     1      -7.180  11.047  69.199  1.00  0.00    -0.121 C  
BRANCH  16  19
HETATM   19  C   UNL     1      -7.580   8.531  69.282  1.00  0.00    -0.095 C  
HETATM   20  C   UNL     1      -7.965   8.698  70.747  1.00  0.00    -0.127 C  
ENDBRANCH  16  19
ENDBRANCH  14  16
ENDBRANCH  13  14
ENDBRANCH   2  13
BRANCH  12  21
HETATM   21  C   UNL     1      -9.269  14.155  67.834  1.00  0.00    -0.196 C  
BRANCH  21  22
HETATM   22  C   UNL     1     -10.135  14.335  66.596  1.00  0.00    -0.274 C  
BRANCH  22  23
HETATM   23  C   UNL     1     -10.497  13.244  65.597  1.00  0.00    -0.281 C  
HETATM   24  C   UNL     1      -9.507  12.135  65.341  1.00  0.00    -0.035 C  
HETATM   25  C   UNL     1     -10.264  11.047  64.580  1.00  0.00    -0.344 C  
HETATM   26  O   UNL     1     -11.151  10.351  65.460  1.00  0.00     0.254 OA 
HETATM   27  C   UNL     1     -11.007  11.593  63.365  1.00  0.00    -0.442 C  
HETATM   28  C   UNL     1     -11.635  12.954  63.564  1.00  0.00    -0.468 C  
HETATM   29  H   UNL     1     -11.621   9.675  64.987  1.00  0.00     0.000 HD 
HETATM   30  O   UNL     1     -12.632  13.315  62.952  1.00  0.00    -0.509 OA 
HETATM   31  O   UNL     1     -10.925  13.808  64.352  1.00  0.00    -0.390 OA 
ENDBRANCH  22  23
ENDBRANCH  21  22
ENDBRANCH  12  21
TORSDOF 7
ENDMDL
MODEL       87
REMARK 921   NORMALIZED FREE ENERGY PREDICTED BY IDOCK:   -5.37 KCAL/MOL
REMARK 922        TOTAL FREE ENERGY PREDICTED BY IDOCK:   -9.05 KCAL/MOL
REMARK 923 INTER-LIGAND FREE ENERGY PREDICTED BY IDOCK:   -6.99 KCAL/MOL
REMARK 924 INTRA-LIGAND FREE ENERGY PREDICTED BY IDOCK:   -2.07 KCAL/MOL
REMARK 927      BINDING AFFINITY PREDICTED BY RF-SCORE:    0.00 PKD
ROOT
HETATM    1  C   UNL     1      -7.241  11.904  68.583  1.00  0.00    -0.109 C  
HETATM    2  C   UNL     1      -7.883  13.291  68.190  1.00  0.00    -0.145 C  
HETATM    3  C   UNL     1      -7.279  14.584  68.769  1.00  0.00    -0.126 C  
HETATM    4  C   UNL     1      -7.500   9.436  69.468  1.00  0.00    -0.083 C  
HETATM    5  C   UNL     1      -5.810  14.537  69.155  1.00  0.00    -0.092 C  
HETATM    6  C   UNL     1      -6.493   9.817  70.511  1.00  0.00    -0.108 C  
HETATM    7  C   UNL     1      -6.719   8.484  68.543  1.00  0.00    -0.060 C  
HETATM    8  C   UNL     1      -5.865  10.993  70.550  1.00  0.00    -0.134 C  
HETATM    9  C   UNL     1      -5.498  13.244  69.846  1.00  0.00    -0.101 C  
HETATM   10  C   UNL     1      -5.540  15.722  70.102  1.00  0.00    -0.158 C  
HETATM   11  C   UNL     1      -6.168  12.091  69.661  1.00  0.00    -0.131 C  
HETATM   12  C   UNL     1      -8.237  10.699  68.867  1.00  0.00    -0.145 C  
ENDROOT
BRANCH   2  13
HETATM   13  O   UNL     1      -9.310  13.376  68.349  1.00  0.00    -0.206 OA 
BRANCH  13  14
HETATM   14  C   UNL     1     -10.056  13.879  67.330  1.00  0.00    -0.242 C  
HETATM   15  O   UNL     1      -9.678  14.020  66.166  1.00  0.00    -0.293 OA 
BRANCH  14  16
HETATM   16  C   UNL     1     -11.445  14.311  67.798  1.00  0.00    -0.354 C  
HETATM   17  C   UNL     1     -11.513  15.810  68.136  1.00  0.00    -0.302 C  
HETATM   18  C   UNL     1     -12.371  13.975  66.620  1.00  0.00    -0.408 C  
BRANCH  16  19
HETATM   19  C   UNL     1     -11.806  13.475  69.055  1.00  0.00    -0.385 C  
HETATM   20  C   UNL     1     -12.074  14.312  70.300  1.00  0.00    -0.403 C  
ENDBRANCH  16  19
ENDBRANCH  14  16
ENDBRANCH  13  14
ENDBRANCH   2  13
BRANCH  12  21
HETATM   21  C   UNL     1      -9.280  10.363  67.718  1.00  0.00    -0.148 C  
BRANCH  21  22
HETATM   22  C   UNL     1     -10.691  10.119  68.232  1.00  0.00    -0.277 C  
BRANCH  22  23
HETATM   23  C   UNL     1     -11.066   9.751  69.661  1.00  0.00    -0.217 C  
HETATM   24  C   UNL     1     -10.957   8.310  70.093  1.00  0.00    -0.222 C  
HETATM   25  C   UNL     1     -11.065   8.307  71.619  1.00  0.00    -0.265 C  
HETATM   26  O   UNL     1      -9.858   8.804  72.203  1.00  0.00    -0.314 OA 
HETATM   27  C   UNL     1     -12.280   9.081  72.120  1.00  0.00    -0.427 C  
HETATM   28  C   UNL     1     -12.598  10.337  71.341  1.00  0.00    -0.434 C  
HETATM   29  H   UNL     1      -9.925   8.801  73.151  1.00  0.00     0.000 HD 
HETATM   30  O   UNL     1     -13.161  11.301  71.846  1.00  0.00    -0.493 OA 
HETATM   31  O   UNL     1     -12.359  10.263  70.002  1.00  0.00    -0.206 OA 
ENDBRANCH  22  23
ENDBRANCH  21  22
ENDBRANCH  12  21
TORSDOF 7
ENDMDL
MODEL       88
REMARK 921   NORMALIZED FREE ENERGY PREDICTED BY IDOCK:   -5.37 KCAL/MOL
REMARK 922        TOTAL FREE ENERGY PREDICTED BY IDOCK:   -9.05 KCAL/MOL
REMARK 923 INTER-LIGAND FREE ENERGY PREDICTED BY IDOCK:   -6.98 KCAL/MOL
REMARK 924 INTRA-LIGAND FREE ENERGY PREDICTED BY IDOCK:   -2.08 KCAL/MOL
REMARK 927      BINDING AFFINITY PREDICTED BY RF-SCORE:    0.00 PKD
ROOT
HETATM    1  C   UNL     1     -10.937  12.808  66.524  1.00  0.00    -0.291 C  
HETATM    2  C   UNL     1      -9.939  12.763  67.745  1.00  0.00    -0.219 C  
HETATM    3  C   UNL     1     -10.139  13.751  68.910  1.00  0.00    -0.075 C  
HETATM    4  C   UNL     1     -11.364  12.913  63.926  1.00  0.00    -0.489 C  
HETATM    5  C   UNL     1     -11.551  14.264  69.133  1.00  0.00    -0.346 C  
HETATM    6  C   UNL     1     -12.197  14.125  64.219  1.00  0.00    -0.449 C  
HETATM    7  C   UNL     1     -12.404  11.844  63.543  1.00  0.00    -0.603 C  
HETATM    8  C   UNL     1     -12.467  14.568  65.448  1.00  0.00    -0.265 C  
HETATM    9  C   UNL     1     -12.200  14.584  67.820  1.00  0.00    -0.148 C  
HETATM   10  C   UNL     1     -11.453  15.535  69.999  1.00  0.00    -0.344 C  
HETATM   11  C   UNL     1     -11.887  14.004  66.646  1.00  0.00    -0.443 C  
HETATM   12  C   UNL     1     -10.315  12.624  65.072  1.00  0.00    -0.320 C  
ENDROOT
BRANCH   2  13
HETATM   13  O   UNL     1      -8.543  12.784  67.400  1.00  0.00    -0.174 OA 
BRANCH  13  14
HETATM   14  C   UNL     1      -7.658  12.134  68.202  1.00  0.00    -0.125 C  
HETATM   15  O   UNL     1      -7.895  11.118  68.857  1.00  0.00    -0.135 OA 
BRANCH  14  16
HETATM   16  C   UNL     1      -6.303  12.840  68.249  1.00  0.00    -0.078 C  
HETATM   17  C   UNL     1      -5.683  12.832  69.656  1.00  0.00    -0.105 C  
HETATM   18  C   UNL     1      -5.426  12.056  67.261  1.00  0.00    -0.128 C  
BRANCH  16  19
HETATM   19  C   UNL     1      -6.512  14.303  67.778  1.00  0.00    -0.181 C  
HETATM   20  C   UNL     1      -6.693  15.301  68.915  1.00  0.00    -0.115 C  
ENDBRANCH  16  19
ENDBRANCH  14  16
ENDBRANCH  13  14
ENDBRANCH   2  13
BRANCH  12  21
HETATM   21  C   UNL     1      -9.437  11.321  64.844  1.00  0.00    -0.223 C  
BRANCH  21  22
HETATM   22  C   UNL     1     -10.072  10.056  65.403  1.00  0.00    -0.317 C  
BRANCH  22  23
HETATM   23  C   UNL     1      -9.552   9.247  66.583  1.00  0.00    -0.204 C  
HETATM   24  C   UNL     1      -8.793   7.972  66.312  1.00  0.00    -0.191 C  
HETATM   25  C   UNL     1      -8.125   7.577  67.630  1.00  0.00    -0.118 C  
HETATM   26  O   UNL     1      -7.018   8.440  67.903  1.00  0.00    -0.075 OA 
HETATM   27  C   UNL     1      -9.107   7.553  68.798  1.00  0.00    -0.135 C  
HETATM   28  C   UNL     1     -10.148   8.650  68.774  1.00  0.00    -0.196 C  
HETATM   29  H   UNL     1      -6.603   8.195  68.722  1.00  0.00     0.000 HD 
HETATM   30  O   UNL     1     -10.660   9.094  69.795  1.00  0.00    -0.218 OA 
HETATM   31  O   UNL     1     -10.593   8.997  67.535  1.00  0.00    -0.265 OA 
ENDBRANCH  22  23
ENDBRANCH  21  22
ENDBRANCH  12  21
TORSDOF 7
ENDMDL
MODEL       89
REMARK 921   NORMALIZED FREE ENERGY PREDICTED BY IDOCK:   -5.34 KCAL/MOL
REMARK 922        TOTAL FREE ENERGY PREDICTED BY IDOCK:   -9.02 KCAL/MOL
REMARK 923 INTER-LIGAND FREE ENERGY PREDICTED BY IDOCK:   -7.40 KCAL/MOL
REMARK 924 INTRA-LIGAND FREE ENERGY PREDICTED BY IDOCK:   -1.62 KCAL/MOL
REMARK 927      BINDING AFFINITY PREDICTED BY RF-SCORE:    0.00 PKD
ROOT
HETATM    1  C   UNL     1      -8.423  11.734  68.409  1.00  0.00    -0.155 C  
HETATM    2  C   UNL     1      -9.788  11.838  67.624  1.00  0.00    -0.185 C  
HETATM    3  C   UNL     1     -10.417  10.556  67.045  1.00  0.00    -0.304 C  
HETATM    4  C   UNL     1      -5.951  12.553  68.811  1.00  0.00    -0.066 C  
HETATM    5  C   UNL     1     -10.066   9.251  67.740  1.00  0.00    -0.253 C  
HETATM    6  C   UNL     1      -5.556  11.121  68.606  1.00  0.00    -0.043 C  
HETATM    7  C   UNL     1      -5.734  12.774  70.320  1.00  0.00    -0.165 C  
HETATM    8  C   UNL     1      -6.423  10.122  68.438  1.00  0.00    -0.053 C  
HETATM    9  C   UNL     1      -8.607   9.225  68.087  1.00  0.00    -0.125 C  
HETATM   10  C   UNL     1     -10.399   8.103  66.768  1.00  0.00    -0.361 C  
HETATM   11  C   UNL     1      -7.850  10.315  68.311  1.00  0.00    -0.101 C  
HETATM   12  C   UNL     1      -7.352  12.880  68.156  1.00  0.00    -0.119 C  
ENDROOT
BRANCH   2  13
HETATM   13  O   UNL     1      -9.830  12.839  66.593  1.00  0.00    -0.238 OA 
BRANCH  13  14
HETATM   14  C   UNL     1     -10.920  13.648  66.507  1.00  0.00    -0.295 C  
HETATM   15  O   UNL     1     -11.636  13.990  67.449  1.00  0.00    -0.327 OA 
BRANCH  14  16
HETATM   16  C   UNL     1     -11.206  14.069  65.065  1.00  0.00    -0.352 C  
HETATM   17  C   UNL     1     -12.709  14.068  64.739  1.00  0.00    -0.236 C  
HETATM   18  C   UNL     1     -10.625  15.487  64.955  1.00  0.00    -0.435 C  
BRANCH  16  19
HETATM   19  C   UNL     1     -10.465  13.083  64.124  1.00  0.00    -0.395 C  
HETATM   20  C   UNL     1     -11.370  12.032  63.492  1.00  0.00    -0.528 C  
ENDBRANCH  16  19
ENDBRANCH  14  16
ENDBRANCH  13  14
ENDBRANCH   2  13
BRANCH  12  21
HETATM   21  C   UNL     1      -7.851  14.370  68.385  1.00  0.00    -0.138 C  
BRANCH  21  22
HETATM   22  C   UNL     1      -7.633  15.275  67.181  1.00  0.00    -0.224 C  
BRANCH  22  23
HETATM   23  C   UNL     1      -7.625  16.797  67.203  1.00  0.00    -0.188 C  
HETATM   24  C   UNL     1      -6.347  17.522  66.861  1.00  0.00    -0.212 C  
HETATM   25  C   UNL     1      -6.727  18.987  66.641  1.00  0.00    -0.193 C  
HETATM   26  O   UNL     1      -7.408  19.140  65.392  1.00  0.00    -0.456 OA 
HETATM   27  C   UNL     1      -7.549  19.558  67.792  1.00  0.00    -0.307 C  
HETATM   28  C   UNL     1      -8.551  18.598  68.392  1.00  0.00    -0.337 C  
HETATM   29  H   UNL     1      -7.644  20.050  65.255  1.00  0.00     0.000 HD 
HETATM   30  O   UNL     1      -9.586  18.975  68.928  1.00  0.00    -0.376 OA 
HETATM   31  O   UNL     1      -8.150  17.297  68.439  1.00  0.00    -0.239 OA 
ENDBRANCH  22  23
ENDBRANCH  21  22
ENDBRANCH  12  21
TORSDOF 7
ENDMDL
MODEL       90
REMARK 921   NORMALIZED FREE ENERGY PREDICTED BY IDOCK:   -5.34 KCAL/MOL
REMARK 922        TOTAL FREE ENERGY PREDICTED BY IDOCK:   -9.02 KCAL/MOL
REMARK 923 INTER-LIGAND FREE ENERGY PREDICTED BY IDOCK:   -8.00 KCAL/MOL
REMARK 924 INTRA-LIGAND FREE ENERGY PREDICTED BY IDOCK:   -1.02 KCAL/MOL
REMARK 927      BINDING AFFINITY PREDICTED BY RF-SCORE:    0.00 PKD
ROOT
HETATM    1  C   UNL     1     -10.434  16.162  66.965  1.00  0.00    -0.306 C  
HETATM    2  C   UNL     1      -9.343  16.684  67.977  1.00  0.00    -0.227 C  
HETATM    3  C   UNL     1      -8.802  18.118  67.818  1.00  0.00    -0.259 C  
HETATM    4  C   UNL     1     -11.300  14.323  65.287  1.00  0.00    -0.336 C  
HETATM    5  C   UNL     1      -9.721  19.123  67.144  1.00  0.00    -0.393 C  
HETATM    6  C   UNL     1     -11.379  15.431  64.280  1.00  0.00    -0.136 C  
HETATM    7  C   UNL     1     -12.776  14.012  65.599  1.00  0.00    -0.515 C  
HETATM    8  C   UNL     1     -11.141  16.713  64.558  1.00  0.00     0.081 C  
HETATM    9  C   UNL     1     -10.403  18.493  65.967  1.00  0.00    -0.423 C  
HETATM   10  C   UNL     1      -8.854  20.309  66.681  1.00  0.00    -0.334 C  
HETATM   11  C   UNL     1     -10.657  17.177  65.838  1.00  0.00    -0.219 C  
HETATM   12  C   UNL     1     -10.296  14.661  66.461  1.00  0.00    -0.283 C  
ENDROOT
BRANCH   2  13
HETATM   13  O   UNL     1      -8.211  15.817  68.164  1.00  0.00    -0.139 OA 
BRANCH  13  14
HETATM   14  C   UNL     1      -7.821  15.510  69.430  1.00  0.00    -0.231 C  
HETATM   15  O   UNL     1      -8.572  15.226  70.364  1.00  0.00     0.516 OA 
BRANCH  14  16
HETATM   16  C   UNL     1      -6.304  15.600  69.597  1.00  0.00    -0.174 C  
HETATM   17  C   UNL     1      -5.841  17.004  70.024  1.00  0.00    -0.215 C  
HETATM   18  C   UNL     1      -5.973  14.564  70.681  1.00  0.00    -0.184 C  
BRANCH  16  19
HETATM   19  C   UNL     1      -5.652  15.224  68.241  1.00  0.00    -0.122 C  
HETATM   20  C   UNL     1      -5.701  13.735  67.921  1.00  0.00    -0.116 C  
ENDBRANCH  16  19
ENDBRANCH  14  16
ENDBRANCH  13  14
ENDBRANCH   2  13
BRANCH  12  21
HETATM   21  C   UNL     1     -10.208  13.547  67.589  1.00  0.00    -0.239 C  
BRANCH  21  22
HETATM   22  C   UNL     1     -11.565  13.137  68.144  1.00  0.00    -0.375 C  
BRANCH  22  23
HETATM   23  C   UNL     1     -12.157  13.592  69.470  1.00  0.00    -0.297 C  
HETATM   24  C   UNL     1     -11.768  14.944  70.015  1.00  0.00    -0.338 C  
HETATM   25  C   UNL     1     -12.752  15.254  71.144  1.00  0.00    -0.410 C  
HETATM   26  O   UNL     1     -14.033  15.593  70.607  1.00  0.00    -0.827 OA 
HETATM   27  C   UNL     1     -12.860  14.117  72.154  1.00  0.00    -0.417 C  
HETATM   28  C   UNL     1     -12.809  12.729  71.555  1.00  0.00    -0.270 C  
HETATM   29  H   UNL     1     -14.644  15.786  71.308  1.00  0.00     0.000 HD 
HETATM   30  O   UNL     1     -13.356  11.765  72.077  1.00  0.00    -0.487 OA 
HETATM   31  O   UNL     1     -11.980  12.593  70.483  1.00  0.00    -0.325 OA 
ENDBRANCH  22  23
ENDBRANCH  21  22
ENDBRANCH  12  21
TORSDOF 7
ENDMDL
MODEL       91
REMARK 921   NORMALIZED FREE ENERGY PREDICTED BY IDOCK:   -5.32 KCAL/MOL
REMARK 922        TOTAL FREE ENERGY PREDICTED BY IDOCK:   -8.98 KCAL/MOL
REMARK 923 INTER-LIGAND FREE ENERGY PREDICTED BY IDOCK:   -7.56 KCAL/MOL
REMARK 924 INTRA-LIGAND FREE ENERGY PREDICTED BY IDOCK:   -1.43 KCAL/MOL
REMARK 927      BINDING AFFINITY PREDICTED BY RF-SCORE:    0.00 PKD
ROOT
HETATM    1  C   UNL     1     -10.455  12.763  66.810  1.00  0.00    -0.253 C  
HETATM    2  C   UNL     1     -10.193  12.920  68.358  1.00  0.00    -0.237 C  
HETATM    3  C   UNL     1      -9.607  11.730  69.141  1.00  0.00     0.280 C  
HETATM    4  C   UNL     1     -12.056  12.989  64.730  1.00  0.00    -0.465 C  
HETATM    5  C   UNL     1      -8.768  10.740  68.350  1.00  0.00    -0.142 C  
HETATM    6  C   UNL     1     -11.775  11.537  64.489  1.00  0.00    -0.089 C  
HETATM    7  C   UNL     1     -11.302  13.697  63.589  1.00  0.00     0.134 C  
HETATM    8  C   UNL     1     -10.905  10.815  65.197  1.00  0.00    -0.057 C  
HETATM    9  C   UNL     1      -9.408  10.463  67.023  1.00  0.00    -0.176 C  
HETATM   10  C   UNL     1      -8.677   9.442  69.176  1.00  0.00    -0.142 C  
HETATM   11  C   UNL     1     -10.216  11.315  66.366  1.00  0.00    -0.273 C  
HETATM   12  C   UNL     1     -11.790  13.403  66.233  1.00  0.00    -0.438 C  
ENDROOT
BRANCH   2  13
HETATM   13  O   UNL     1     -11.300  13.431  69.121  1.00  0.00    -0.261 OA 
BRANCH  13  14
HETATM   14  C   UNL     1     -11.073  14.422  70.024  1.00  0.00    -0.076 C  
HETATM   15  O   UNL     1     -10.075  15.144  70.063  1.00  0.00    -0.199 OA 
BRANCH  14  16
HETATM   16  C   UNL     1     -12.199  14.526  71.052  1.00  0.00    -0.407 C  
HETATM   17  C   UNL     1     -13.364  15.403  70.562  1.00  0.00    -0.173 C  
HETATM   18  C   UNL     1     -12.660  13.077  71.268  1.00  0.00    -0.373 C  
BRANCH  16  19
HETATM   19  C   UNL     1     -11.604  15.128  72.353  1.00  0.00    -0.457 C  
HETATM   20  C   UNL     1     -12.555  15.096  73.543  1.00  0.00    -0.682 C  
ENDBRANCH  16  19
ENDBRANCH  14  16
ENDBRANCH  13  14
ENDBRANCH   2  13
BRANCH  12  21
HETATM   21  C   UNL     1     -12.020  14.943  66.539  1.00  0.00    -0.085 C  
BRANCH  21  22
HETATM   22  C   UNL     1     -10.893  15.836  66.043  1.00  0.00    -0.256 C  
BRANCH  22  23
HETATM   23  C   UNL     1     -10.368  17.080  66.746  1.00  0.00    -0.302 C  
HETATM   24  C   UNL     1     -10.898  17.418  68.117  1.00  0.00    -0.273 C  
HETATM   25  C   UNL     1      -9.967  18.488  68.690  1.00  0.00    -0.383 C  
HETATM   26  O   UNL     1      -8.718  17.904  69.074  1.00  0.00    -0.157 OA 
HETATM   27  C   UNL     1      -9.758  19.655  67.730  1.00  0.00    -0.481 C  
HETATM   28  C   UNL     1      -9.661  19.268  66.272  1.00  0.00    -0.374 C  
HETATM   29  H   UNL     1      -8.140  18.569  69.430  1.00  0.00     0.000 HD 
HETATM   30  O   UNL     1      -9.027  19.926  65.456  1.00  0.00    -0.228 OA 
HETATM   31  O   UNL     1     -10.457  18.229  65.896  1.00  0.00    -0.532 OA 
ENDBRANCH  22  23
ENDBRANCH  21  22
ENDBRANCH  12  21
TORSDOF 7
ENDMDL
MODEL       92
REMARK 921   NORMALIZED FREE ENERGY PREDICTED BY IDOCK:   -5.31 KCAL/MOL
REMARK 922        TOTAL FREE ENERGY PREDICTED BY IDOCK:   -8.98 KCAL/MOL
REMARK 923 INTER-LIGAND FREE ENERGY PREDICTED BY IDOCK:   -8.69 KCAL/MOL
REMARK 924 INTRA-LIGAND FREE ENERGY PREDICTED BY IDOCK:   -0.29 KCAL/MOL
REMARK 927      BINDING AFFINITY PREDICTED BY RF-SCORE:    0.00 PKD
ROOT
HETATM    1  C   UNL     1      -9.366  10.614  67.915  1.00  0.00    -0.154 C  
HETATM    2  C   UNL     1      -9.350  10.234  69.446  1.00  0.00    -0.199 C  
HETATM    3  C   UNL     1      -8.387   9.135  69.933  1.00  0.00    -0.146 C  
HETATM    4  C   UNL     1     -10.695  11.040  65.680  1.00  0.00    -0.217 C  
HETATM    5  C   UNL     1      -7.129   8.916  69.108  1.00  0.00    -0.063 C  
HETATM    6  C   UNL     1      -9.792  10.010  65.071  1.00  0.00    -0.374 C  
HETATM    7  C   UNL     1     -10.214  12.361  65.051  1.00  0.00    -0.306 C  
HETATM    8  C   UNL     1      -8.770   9.440  65.710  1.00  0.00    -0.183 C  
HETATM    9  C   UNL     1      -7.454   8.970  67.645  1.00  0.00    -0.085 C  
HETATM   10  C   UNL     1      -6.568   7.529  69.475  1.00  0.00    -0.036 C  
HETATM   11  C   UNL     1      -8.482   9.654  67.110  1.00  0.00    -0.131 C  
HETATM   12  C   UNL     1     -10.782  10.895  67.252  1.00  0.00    -0.317 C  
ENDROOT
BRANCH   2  13
HETATM   13  O   UNL     1     -10.638   9.963  70.026  1.00  0.00    -0.247 OA 
BRANCH  13  14
HETATM   14  C   UNL     1     -11.054   8.673  70.127  1.00  0.00    -0.192 C  
HETATM   15  O   UNL     1     -10.907   7.801  69.269  1.00  0.00    -0.188 OA 
BRANCH  14  16
HETATM   16  C   UNL     1     -11.791   8.412  71.441  1.00  0.00    -0.339 C  
HETATM   17  C   UNL     1     -10.830   8.118  72.606  1.00  0.00    -0.429 C  
HETATM   18  C   UNL     1     -12.585   9.700  71.700  1.00  0.00    -0.493 C  
BRANCH  16  19
HETATM   19  C   UNL     1     -12.736   7.201  71.225  1.00  0.00    -0.412 C  
HETATM   20  C   UNL     1     -14.186   7.470  71.608  1.00  0.00    -0.592 C  
ENDBRANCH  16  19
ENDBRANCH  14  16
ENDBRANCH  13  14
ENDBRANCH   2  13
BRANCH  12  21
HETATM   21  C   UNL     1     -11.685  11.992  67.962  1.00  0.00    -0.398 C  
BRANCH  21  22
HETATM   22  C   UNL     1     -11.818  13.279  67.161  1.00  0.00    -0.424 C  
BRANCH  22  23
HETATM   23  C   UNL     1     -11.233  14.630  67.546  1.00  0.00    -0.333 C  
HETATM   24  C   UNL     1     -11.778  15.340  68.760  1.00  0.00    -0.374 C  
HETATM   25  C   UNL     1     -10.795  16.467  69.081  1.00  0.00    -0.329 C  
HETATM   26  O   UNL     1      -9.599  15.933  69.656  1.00  0.00    -0.259 OA 
HETATM   27  C   UNL     1     -10.483  17.334  67.865  1.00  0.00    -0.382 C  
HETATM   28  C   UNL     1     -10.371  16.579  66.560  1.00  0.00    -0.305 C  
HETATM   29  H   UNL     1      -8.988  16.633  69.855  1.00  0.00     0.000 HD 
HETATM   30  O   UNL     1      -9.672  16.968  65.632  1.00  0.00    -0.543 OA 
HETATM   31  O   UNL     1     -11.222  15.525  66.427  1.00  0.00    -0.240 OA 
ENDBRANCH  22  23
ENDBRANCH  21  22
ENDBRANCH  12  21
TORSDOF 7
ENDMDL
MODEL       93
REMARK 921   NORMALIZED FREE ENERGY PREDICTED BY IDOCK:   -5.31 KCAL/MOL
REMARK 922        TOTAL FREE ENERGY PREDICTED BY IDOCK:   -8.97 KCAL/MOL
REMARK 923 INTER-LIGAND FREE ENERGY PREDICTED BY IDOCK:   -7.62 KCAL/MOL
REMARK 924 INTRA-LIGAND FREE ENERGY PREDICTED BY IDOCK:   -1.35 KCAL/MOL
REMARK 927      BINDING AFFINITY PREDICTED BY RF-SCORE:    0.00 PKD
ROOT
HETATM    1  C   UNL     1     -11.333  11.198  68.236  1.00  0.00    -0.365 C  
HETATM    2  C   UNL     1     -11.857  10.849  69.682  1.00  0.00    -0.344 C  
HETATM    3  C   UNL     1     -12.091  11.992  70.688  1.00  0.00    -0.369 C  
HETATM    4  C   UNL     1      -9.630  10.798  66.266  1.00  0.00    -0.234 C  
HETATM    5  C   UNL     1     -12.399  13.361  70.105  1.00  0.00    -0.322 C  
HETATM    6  C   UNL     1      -9.339  12.265  66.361  1.00  0.00    -0.219 C  
HETATM    7  C   UNL     1     -10.410  10.669  64.944  1.00  0.00    -0.347 C  
HETATM    8  C   UNL     1      -9.989  13.106  67.165  1.00  0.00    -0.236 C  
HETATM    9  C   UNL     1     -11.514  13.632  68.925  1.00  0.00    -0.344 C  
HETATM   10  C   UNL     1     -12.143  14.405  71.209  1.00  0.00    -0.405 C  
HETATM   11  C   UNL     1     -10.974  12.685  68.135  1.00  0.00    -0.265 C  
HETATM   12  C   UNL     1     -10.242  10.227  67.607  1.00  0.00    -0.247 C  
ENDROOT
BRANCH   2  13
HETATM   13  O   UNL     1     -11.129   9.816  70.369  1.00  0.00    -0.260 OA 
BRANCH  13  14
HETATM   14  C   UNL     1     -11.820   8.890  71.085  1.00  0.00    -0.298 C  
HETATM   15  O   UNL     1     -12.970   9.021  71.508  1.00  0.00    -0.325 OA 
BRANCH  14  16
HETATM   16  C   UNL     1     -10.982   7.642  71.364  1.00  0.00    -0.257 C  
HETATM   17  C   UNL     1     -11.393   6.449  70.485  1.00  0.00    -0.438 C  
HETATM   18  C   UNL     1      -9.539   8.071  71.062  1.00  0.00    -0.184 C  
BRANCH  16  19
HETATM   19  C   UNL     1     -11.159   7.274  72.861  1.00  0.00    -0.369 C  
HETATM   20  C   UNL     1     -10.025   6.429  73.430  1.00  0.00    -0.203 C  
ENDBRANCH  16  19
ENDBRANCH  14  16
ENDBRANCH  13  14
ENDBRANCH   2  13
BRANCH  12  21
HETATM   21  C   UNL     1     -10.621   8.687  67.551  1.00  0.00    -0.292 C  
BRANCH  21  22
HETATM   22  C   UNL     1      -9.730   7.876  66.622  1.00  0.00    -0.305 C  
BRANCH  22  23
HETATM   23  C   UNL     1      -9.308   6.429  66.834  1.00  0.00    -0.134 C  
HETATM   24  C   UNL     1      -8.037   6.145  67.595  1.00  0.00    -0.113 C  
HETATM   25  C   UNL     1      -8.057   4.654  67.931  1.00  0.00    -0.092 C  
HETATM   26  O   UNL     1      -9.002   4.393  68.973  1.00  0.00    -0.096 OA 
HETATM   27  C   UNL     1      -8.330   3.783  66.709  1.00  0.00    -0.103 C  
HETATM   28  C   UNL     1      -9.336   4.353  65.735  1.00  0.00    -0.162 C  
HETATM   29  H   UNL     1      -9.014   3.466  69.183  1.00  0.00     0.000 HD 
HETATM   30  O   UNL     1     -10.033   3.646  65.018  1.00  0.00    -0.168 OA 
HETATM   31  O   UNL     1      -9.302   5.707  65.596  1.00  0.00    -0.120 OA 
ENDBRANCH  22  23
ENDBRANCH  21  22
ENDBRANCH  12  21
TORSDOF 7
ENDMDL
MODEL       94
REMARK 921   NORMALIZED FREE ENERGY PREDICTED BY IDOCK:   -5.31 KCAL/MOL
REMARK 922        TOTAL FREE ENERGY PREDICTED BY IDOCK:   -8.97 KCAL/MOL
REMARK 923 INTER-LIGAND FREE ENERGY PREDICTED BY IDOCK:   -7.31 KCAL/MOL
REMARK 924 INTRA-LIGAND FREE ENERGY PREDICTED BY IDOCK:   -1.66 KCAL/MOL
REMARK 927      BINDING AFFINITY PREDICTED BY RF-SCORE:    0.00 PKD
ROOT
HETATM    1  C   UNL     1     -10.610   7.201  69.600  1.00  0.00    -0.249 C  
HETATM    2  C   UNL     1     -10.290   5.913  68.747  1.00  0.00    -0.219 C  
HETATM    3  C   UNL     1      -9.907   4.611  69.474  1.00  0.00    -0.286 C  
HETATM    4  C   UNL     1     -10.242   9.763  70.094  1.00  0.00    -0.328 C  
HETATM    5  C   UNL     1     -10.430   4.443  70.891  1.00  0.00     0.158 C  
HETATM    6  C   UNL     1      -9.893   9.335  71.488  1.00  0.00    -0.245 C  
HETATM    7  C   UNL     1     -11.613  10.446  70.259  1.00  0.00    -0.410 C  
HETATM    8  C   UNL     1      -9.981   8.081  71.930  1.00  0.00    -0.255 C  
HETATM    9  C   UNL     1     -10.306   5.733  71.645  1.00  0.00    -0.266 C  
HETATM   10  C   UNL     1      -9.585   3.349  71.572  1.00  0.00    -0.233 C  
HETATM   11  C   UNL     1     -10.307   6.956  71.083  1.00  0.00    -0.222 C  
HETATM   12  C   UNL     1     -10.062   8.588  69.051  1.00  0.00    -0.207 C  
ENDROOT
BRANCH   2  13
HETATM   13  O   UNL     1      -9.345   6.101  67.679  1.00  0.00    -0.115 OA 
BRANCH  13  14
HETATM   14  C   UNL     1      -9.523   5.417  66.517  1.00  0.00    -0.149 C  
HETATM   15  O   UNL     1     -10.608   5.112  66.022  1.00  0.00    -0.252 OA 
BRANCH  14  16
HETATM   16  C   UNL     1      -8.191   5.008  65.887  1.00  0.00    -0.114 C  
HETATM   17  C   UNL     1      -7.444   3.953  66.721  1.00  0.00    -0.076 C  
HETATM   18  C   UNL     1      -8.573   4.444  64.510  1.00  0.00    -0.135 C  
BRANCH  16  19
HETATM   19  C   UNL     1      -7.317   6.282  65.750  1.00  0.00    -0.080 C  
HETATM   20  C   UNL     1      -7.903   7.340  64.822  1.00  0.00    -0.126 C  
ENDBRANCH  16  19
ENDBRANCH  14  16
ENDBRANCH  13  14
ENDBRANCH   2  13
BRANCH  12  21
HETATM   21  C   UNL     1     -10.467   8.965  67.563  1.00  0.00    -0.337 C  
BRANCH  21  22
HETATM   22  C   UNL     1      -9.552  10.002  66.929  1.00  0.00    -0.219 C  
BRANCH  22  23
HETATM   23  C   UNL     1      -9.927  10.940  65.790  1.00  0.00    -0.247 C  
HETATM   24  C   UNL     1     -11.051  11.924  65.998  1.00  0.00    -0.369 C  
HETATM   25  C   UNL     1     -10.969  12.925  64.845  1.00  0.00    -0.301 C  
HETATM   26  O   UNL     1      -9.863  13.811  65.036  1.00  0.00    -0.586 OA 
HETATM   27  C   UNL     1     -10.902  12.243  63.483  1.00  0.00    -0.508 C  
HETATM   28  C   UNL     1     -10.075  10.978  63.447  1.00  0.00    -0.370 C  
HETATM   29  H   UNL     1      -9.812  14.434  64.320  1.00  0.00     0.000 HD 
HETATM   30  O   UNL     1      -9.505  10.591  62.434  1.00  0.00    -0.262 OA 
HETATM   31  O   UNL     1     -10.138  10.215  64.573  1.00  0.00    -0.304 OA 
ENDBRANCH  22  23
ENDBRANCH  21  22
ENDBRANCH  12  21
TORSDOF 7
ENDMDL
MODEL       95
REMARK 921   NORMALIZED FREE ENERGY PREDICTED BY IDOCK:   -5.30 KCAL/MOL
REMARK 922        TOTAL FREE ENERGY PREDICTED BY IDOCK:   -8.96 KCAL/MOL
REMARK 923 INTER-LIGAND FREE ENERGY PREDICTED BY IDOCK:   -8.54 KCAL/MOL
REMARK 924 INTRA-LIGAND FREE ENERGY PREDICTED BY IDOCK:   -0.42 KCAL/MOL
REMARK 927      BINDING AFFINITY PREDICTED BY RF-SCORE:    0.00 PKD
ROOT
HETATM    1  C   UNL     1      -9.885  14.898  67.891  1.00  0.00    -0.214 C  
HETATM    2  C   UNL     1     -11.284  15.544  68.226  1.00  0.00    -0.343 C  
HETATM    3  C   UNL     1     -11.377  17.070  68.413  1.00  0.00     0.114 C  
HETATM    4  C   UNL     1      -8.027  13.093  68.374  1.00  0.00    -0.130 C  
HETATM    5  C   UNL     1     -10.334  17.909  67.695  1.00  0.00    -0.387 C  
HETATM    6  C   UNL     1      -7.085  14.252  68.503  1.00  0.00    -0.105 C  
HETATM    7  C   UNL     1      -7.608  12.433  67.048  1.00  0.00    -0.046 C  
HETATM    8  C   UNL     1      -7.421  15.520  68.265  1.00  0.00    -0.116 C  
HETATM    9  C   UNL     1      -8.984  17.267  67.810  1.00  0.00    -0.234 C  
HETATM   10  C   UNL     1     -10.317  19.300  68.359  1.00  0.00    -0.435 C  
HETATM   11  C   UNL     1      -8.771  15.948  67.973  1.00  0.00    -0.169 C  
HETATM   12  C   UNL     1      -9.530  13.524  68.607  1.00  0.00    -0.057 C  
ENDROOT
BRANCH   2  13
HETATM   13  O   UNL     1     -11.998  14.935  69.317  1.00  0.00    -0.306 OA 
BRANCH  13  14
HETATM   14  C   UNL     1     -11.768  15.379  70.581  1.00  0.00    -0.339 C  
HETATM   15  O   UNL     1     -10.907  16.196  70.911  1.00  0.00    -0.154 OA 
BRANCH  14  16
HETATM   16  C   UNL     1     -12.690  14.705  71.598  1.00  0.00    -0.399 C  
HETATM   17  C   UNL     1     -14.136  15.225  71.518  1.00  0.00    -0.625 C  
HETATM   18  C   UNL     1     -12.626  13.212  71.247  1.00  0.00    -0.382 C  
BRANCH  16  19
HETATM   19  C   UNL     1     -12.115  14.976  73.014  1.00  0.00    -0.427 C  
HETATM   20  C   UNL     1     -12.877  16.036  73.801  1.00  0.00    -0.690 C  
ENDBRANCH  16  19
ENDBRANCH  14  16
ENDBRANCH  13  14
ENDBRANCH   2  13
BRANCH  12  21
HETATM   21  C   UNL     1     -10.583  12.349  68.432  1.00  0.00    -0.251 C  
BRANCH  21  22
HETATM   22  C   UNL     1     -10.508  11.664  67.075  1.00  0.00    -0.258 C  
BRANCH  22  23
HETATM   23  C   UNL     1     -11.129  12.179  65.784  1.00  0.00    -0.319 C  
HETATM   24  C   UNL     1     -11.280  11.232  64.620  1.00  0.00    -0.152 C  
HETATM   25  C   UNL     1     -12.214  11.917  63.622  1.00  0.00    -0.479 C  
HETATM   26  O   UNL     1     -13.560  11.890  64.104  1.00  0.00    -0.481 OA 
HETATM   27  C   UNL     1     -11.774  13.340  63.292  1.00  0.00    -0.176 C  
HETATM   28  C   UNL     1     -11.213  14.117  64.461  1.00  0.00    -0.337 C  
HETATM   29  H   UNL     1     -14.141  12.316  63.484  1.00  0.00     0.000 HD 
HETATM   30  O   UNL     1     -11.281  15.338  64.534  1.00  0.00    -0.356 OA 
HETATM   31  O   UNL     1     -10.486  13.383  65.348  1.00  0.00    -0.286 OA 
ENDBRANCH  22  23
ENDBRANCH  21  22
ENDBRANCH  12  21
TORSDOF 7
ENDMDL
MODEL       96
REMARK 921   NORMALIZED FREE ENERGY PREDICTED BY IDOCK:   -5.29 KCAL/MOL
REMARK 922        TOTAL FREE ENERGY PREDICTED BY IDOCK:   -8.95 KCAL/MOL
REMARK 923 INTER-LIGAND FREE ENERGY PREDICTED BY IDOCK:   -7.12 KCAL/MOL
REMARK 924 INTRA-LIGAND FREE ENERGY PREDICTED BY IDOCK:   -1.83 KCAL/MOL
REMARK 927      BINDING AFFINITY PREDICTED BY RF-SCORE:    0.00 PKD
ROOT
HETATM    1  C   UNL     1     -11.173  11.586  68.997  1.00  0.00    -0.324 C  
HETATM    2  C   UNL     1     -10.403  10.216  69.143  1.00  0.00    -0.219 C  
HETATM    3  C   UNL     1     -10.754   9.284  70.318  1.00  0.00    -0.284 C  
HETATM    4  C   UNL     1     -11.141  14.200  68.666  1.00  0.00    -0.283 C  
HETATM    5  C   UNL     1     -12.158   9.403  70.887  1.00  0.00    -0.327 C  
HETATM    6  C   UNL     1     -11.953  14.262  69.924  1.00  0.00    -0.397 C  
HETATM    7  C   UNL     1     -12.149  14.581  67.566  1.00  0.00    -0.284 C  
HETATM    8  C   UNL     1     -12.409  13.192  70.575  1.00  0.00    -0.380 C  
HETATM    9  C   UNL     1     -12.554  10.845  70.990  1.00  0.00    -0.517 C  
HETATM   10  C   UNL     1     -12.150   8.755  72.285  1.00  0.00    -0.423 C  
HETATM   11  C   UNL     1     -12.072  11.833  70.213  1.00  0.00    -0.426 C  
HETATM   12  C   UNL     1     -10.320  12.853  68.557  1.00  0.00    -0.239 C  
ENDROOT
BRANCH   2  13
HETATM   13  O   UNL     1      -8.969  10.306  69.080  1.00  0.00    -0.152 OA 
BRANCH  13  14
HETATM   14  C   UNL     1      -8.279   9.339  68.418  1.00  0.00    -0.115 C  
HETATM   15  O   UNL     1      -8.695   8.689  67.458  1.00  0.00    -0.133 OA 
BRANCH  14  16
HETATM   16  C   UNL     1      -6.902   9.096  69.036  1.00  0.00    -0.055 C  
HETATM   17  C   UNL     1      -6.488   7.615  68.990  1.00  0.00    -0.040 C  
HETATM   18  C   UNL     1      -5.946   9.957  68.196  1.00  0.00    -0.043 C  
BRANCH  16  19
HETATM   19  C   UNL     1      -6.948   9.581  70.509  1.00  0.00    -0.124 C  
HETATM   20  C   UNL     1      -7.250   8.477  71.516  1.00  0.00    -0.104 C  
ENDBRANCH  16  19
ENDBRANCH  14  16
ENDBRANCH  13  14
ENDBRANCH   2  13
BRANCH  12  21
HETATM   21  C   UNL     1      -9.479  12.704  67.219  1.00  0.00    -0.199 C  
BRANCH  21  22
HETATM   22  C   UNL     1      -8.061  13.244  67.330  1.00  0.00    -0.179 C  
BRANCH  22  23
HETATM   23  C   UNL     1      -7.680  14.685  67.640  1.00  0.00    -0.177 C  
HETATM   24  C   UNL     1      -7.561  15.113  69.082  1.00  0.00    -0.188 C  
HETATM   25  C   UNL     1      -6.857  16.470  69.075  1.00  0.00    -0.203 C  
HETATM   26  O   UNL     1      -5.467  16.305  68.778  1.00  0.00    -0.107 OA 
HETATM   27  C   UNL     1      -7.511  17.463  68.120  1.00  0.00    -0.208 C  
HETATM   28  C   UNL     1      -8.012  16.863  66.825  1.00  0.00    -0.236 C  
HETATM   29  H   UNL     1      -5.029  17.149  68.774  1.00  0.00     0.000 HD 
HETATM   30  O   UNL     1      -8.089  17.507  65.787  1.00  0.00    -0.551 OA 
HETATM   31  O   UNL     1      -8.520  15.604  66.931  1.00  0.00    -0.206 OA 
ENDBRANCH  22  23
ENDBRANCH  21  22
ENDBRANCH  12  21
TORSDOF 7
ENDMDL
MODEL       97
REMARK 921   NORMALIZED FREE ENERGY PREDICTED BY IDOCK:   -5.28 KCAL/MOL
REMARK 922        TOTAL FREE ENERGY PREDICTED BY IDOCK:   -8.94 KCAL/MOL
REMARK 923 INTER-LIGAND FREE ENERGY PREDICTED BY IDOCK:   -7.57 KCAL/MOL
REMARK 924 INTRA-LIGAND FREE ENERGY PREDICTED BY IDOCK:   -1.37 KCAL/MOL
REMARK 927      BINDING AFFINITY PREDICTED BY RF-SCORE:    0.00 PKD
ROOT
HETATM    1  C   UNL     1      -9.964   8.610  70.124  1.00  0.00    -0.193 C  
HETATM    2  C   UNL     1     -10.590   9.871  69.413  1.00  0.00    -0.229 C  
HETATM    3  C   UNL     1     -11.840  10.530  70.025  1.00  0.00    -0.388 C  
HETATM    4  C   UNL     1      -9.053   6.140  70.009  1.00  0.00    -0.151 C  
HETATM    5  C   UNL     1     -12.040  10.355  71.521  1.00  0.00    -0.364 C  
HETATM    6  C   UNL     1     -10.049   5.835  71.086  1.00  0.00    -0.257 C  
HETATM    7  C   UNL     1      -7.698   6.068  70.739  1.00  0.00    -0.098 C  
HETATM    8  C   UNL     1     -10.812   6.752  71.682  1.00  0.00    -0.259 C  
HETATM    9  C   UNL     1     -11.716   8.948  71.926  1.00  0.00    -0.439 C  
HETATM   10  C   UNL     1     -13.516  10.669  71.834  1.00  0.00    -0.341 C  
HETATM   11  C   UNL     1     -10.859   8.139  71.276  1.00  0.00    -0.278 C  
HETATM   12  C   UNL     1      -9.444   7.434  69.190  1.00  0.00    -0.149 C  
ENDROOT
BRANCH   2  13
HETATM   13  O   UNL     1     -10.828   9.727  68.002  1.00  0.00    -0.250 OA 
BRANCH  13  14
HETATM   14  C   UNL     1     -11.022  10.844  67.252  1.00  0.00    -0.294 C  
HETATM   15  O   UNL     1     -11.966  11.628  67.361  1.00  0.00    -0.621 OA 
BRANCH  14  16
HETATM   16  C   UNL     1      -9.937  11.013  66.188  1.00  0.00    -0.277 C  
HETATM   17  C   UNL     1      -9.737   9.742  65.345  1.00  0.00    -0.383 C  
HETATM   18  C   UNL     1     -10.431  12.175  65.314  1.00  0.00    -0.311 C  
BRANCH  16  19
HETATM   19  C   UNL     1      -8.613  11.375  66.911  1.00  0.00    -0.154 C  
HETATM   20  C   UNL     1      -8.676  12.674  67.706  1.00  0.00    -0.179 C  
ENDBRANCH  16  19
ENDBRANCH  14  16
ENDBRANCH  13  14
ENDBRANCH   2  13
BRANCH  12  21
HETATM   21  C   UNL     1      -8.398   7.840  68.066  1.00  0.00    -0.124 C  
BRANCH  21  22
HETATM   22  C   UNL     1      -7.853   6.652  67.287  1.00  0.00    -0.112 C  
BRANCH  22  23
HETATM   23  C   UNL     1      -8.612   5.858  66.232  1.00  0.00    -0.132 C  
HETATM   24  C   UNL     1      -9.261   4.555  66.629  1.00  0.00    -0.138 C  
HETATM   25  C   UNL     1     -10.203   4.175  65.486  1.00  0.00    -0.157 C  
HETATM   26  O   UNL     1     -11.362   5.012  65.500  1.00  0.00    -0.836 OA 
HETATM   27  C   UNL     1      -9.515   4.209  64.125  1.00  0.00    -0.156 C  
HETATM   28  C   UNL     1      -8.520   5.334  63.945  1.00  0.00    -0.100 C  
HETATM   29  H   UNL     1     -11.948   4.776  64.791  1.00  0.00     0.000 HD 
HETATM   30  O   UNL     1      -8.265   5.818  62.849  1.00  0.00    -0.110 OA 
HETATM   31  O   UNL     1      -7.812   5.663  65.060  1.00  0.00    -0.090 OA 
ENDBRANCH  22  23
ENDBRANCH  21  22
ENDBRANCH  12  21
TORSDOF 7
ENDMDL
MODEL       98
REMARK 921   NORMALIZED FREE ENERGY PREDICTED BY IDOCK:   -5.26 KCAL/MOL
REMARK 922        TOTAL FREE ENERGY PREDICTED BY IDOCK:   -8.90 KCAL/MOL
REMARK 923 INTER-LIGAND FREE ENERGY PREDICTED BY IDOCK:   -7.55 KCAL/MOL
REMARK 924 INTRA-LIGAND FREE ENERGY PREDICTED BY IDOCK:   -1.36 KCAL/MOL
REMARK 927      BINDING AFFINITY PREDICTED BY RF-SCORE:    0.00 PKD
ROOT
HETATM    1  C   UNL     1     -10.542  13.274  69.320  1.00  0.00     0.086 C  
HETATM    2  C   UNL     1      -9.668  12.549  68.225  1.00  0.00    -0.220 C  
HETATM    3  C   UNL     1      -8.591  13.355  67.475  1.00  0.00    -0.200 C  
HETATM    4  C   UNL     1     -12.899  13.856  70.344  1.00  0.00    -0.200 C  
HETATM    5  C   UNL     1      -8.012  14.559  68.200  1.00  0.00    -0.133 C  
HETATM    6  C   UNL     1     -12.487  15.291  70.204  1.00  0.00    -0.374 C  
HETATM    7  C   UNL     1     -12.861  13.616  71.865  1.00  0.00    -0.381 C  
HETATM    8  C   UNL     1     -11.280  15.687  69.801  1.00  0.00    -0.322 C  
HETATM    9  C   UNL     1      -9.102  15.318  68.896  1.00  0.00    -0.209 C  
HETATM   10  C   UNL     1      -7.334  15.455  67.145  1.00  0.00    -0.203 C  
HETATM   11  C   UNL     1     -10.257  14.780  69.330  1.00  0.00    -0.193 C  
HETATM   12  C   UNL     1     -12.088  12.910  69.371  1.00  0.00    -0.254 C  
ENDROOT
BRANCH   2  13
HETATM   13  O   UNL     1     -10.406  11.803  67.243  1.00  0.00    -0.201 OA 
BRANCH  13  14
HETATM   14  C   UNL     1      -9.949  11.769  65.963  1.00  0.00    -0.229 C  
HETATM   15  O   UNL     1      -8.907  11.231  65.586  1.00  0.00    -0.189 OA 
BRANCH  14  16
HETATM   16  C   UNL     1     -10.866  12.534  65.009  1.00  0.00    -0.324 C  
HETATM   17  C   UNL     1     -10.306  13.918  64.636  1.00  0.00    -0.366 C  
HETATM   18  C   UNL     1     -10.970  11.634  63.769  1.00  0.00    -0.495 C  
BRANCH  16  19
HETATM   19  C   UNL     1     -12.245  12.699  65.702  1.00  0.00    -0.474 C  
HETATM   20  C   UNL     1     -12.959  14.001  65.362  1.00  0.00    -0.346 C  
ENDBRANCH  16  19
ENDBRANCH  14  16
ENDBRANCH  13  14
ENDBRANCH   2  13
BRANCH  12  21
HETATM   21  C   UNL     1     -12.443  11.369  69.510  1.00  0.00    -0.100 C  
BRANCH  21  22
HETATM   22  C   UNL     1     -11.627  10.652  70.575  1.00  0.00    -0.444 C  
BRANCH  22  23
HETATM   23  C   UNL     1     -10.883   9.336  70.389  1.00  0.00    -0.254 C  
HETATM   24  C   UNL     1      -9.707   9.033  71.284  1.00  0.00    -0.371 C  
HETATM   25  C   UNL     1      -9.393   7.548  71.097  1.00  0.00    -0.151 C  
HETATM   26  O   UNL     1     -10.380   6.746  71.750  1.00  0.00    -0.199 OA 
HETATM   27  C   UNL     1      -9.251   7.161  69.628  1.00  0.00    -0.146 C  
HETATM   28  C   UNL     1     -10.216   7.855  68.693  1.00  0.00    -0.205 C  
HETATM   29  H   UNL     1     -10.185   5.823  71.634  1.00  0.00     0.000 HD 
HETATM   30  O   UNL     1     -10.596   7.349  67.644  1.00  0.00    -0.233 OA 
HETATM   31  O   UNL     1     -10.511   9.144  69.019  1.00  0.00    -0.218 OA 
ENDBRANCH  22  23
ENDBRANCH  21  22
ENDBRANCH  12  21
TORSDOF 7
ENDMDL
MODEL       99
REMARK 921   NORMALIZED FREE ENERGY PREDICTED BY IDOCK:   -5.26 KCAL/MOL
REMARK 922        TOTAL FREE ENERGY PREDICTED BY IDOCK:   -8.90 KCAL/MOL
REMARK 923 INTER-LIGAND FREE ENERGY PREDICTED BY IDOCK:   -7.24 KCAL/MOL
REMARK 924 INTRA-LIGAND FREE ENERGY PREDICTED BY IDOCK:   -1.66 KCAL/MOL
REMARK 927      BINDING AFFINITY PREDICTED BY RF-SCORE:    0.00 PKD
ROOT
HETATM    1  C   UNL     1     -10.553  12.289  67.089  1.00  0.00    -0.250 C  
HETATM    2  C   UNL     1      -9.528  11.523  66.167  1.00  0.00    -0.220 C  
HETATM    3  C   UNL     1      -9.423   9.990  66.279  1.00  0.00    -0.241 C  
HETATM    4  C   UNL     1     -11.089  14.226  68.793  1.00  0.00    -0.276 C  
HETATM    5  C   UNL     1     -10.659   9.256  66.770  1.00  0.00    -0.207 C  
HETATM    6  C   UNL     1     -11.594  13.145  69.700  1.00  0.00    -0.321 C  
HETATM    7  C   UNL     1     -12.373  14.950  68.345  1.00  0.00     0.096 C  
HETATM    8  C   UNL     1     -11.682  11.860  69.356  1.00  0.00    -0.401 C  
HETATM    9  C   UNL     1     -11.286  10.003  67.909  1.00  0.00    -0.169 C  
HETATM   10  C   UNL     1     -10.214   7.857  67.237  1.00  0.00    -0.343 C  
HETATM   11  C   UNL     1     -11.186  11.331  68.106  1.00  0.00    -0.351 C  
HETATM   12  C   UNL     1     -10.076  13.670  67.715  1.00  0.00    -0.242 C  
ENDROOT
BRANCH   2  13
HETATM   13  O   UNL     1      -8.188  12.046  66.171  1.00  0.00     0.099 OA 
BRANCH  13  14
HETATM   14  C   UNL     1      -7.161  11.218  66.501  1.00  0.00    -0.097 C  
HETATM   15  O   UNL     1      -6.735  10.291  65.811  1.00  0.00    -0.106 OA 
BRANCH  14  16
HETATM   16  C   UNL     1      -6.595  11.535  67.886  1.00  0.00    -0.064 C  
HETATM   17  C   UNL     1      -7.512  11.048  69.021  1.00  0.00    -0.129 C  
HETATM   18  C   UNL     1      -5.243  10.808  67.926  1.00  0.00    -0.036 C  
BRANCH  16  19
HETATM   19  C   UNL     1      -6.411  13.072  67.985  1.00  0.00    -0.120 C  
HETATM   20  C   UNL     1      -6.466  13.613  69.409  1.00  0.00    -0.106 C  
ENDBRANCH  16  19
ENDBRANCH  14  16
ENDBRANCH  13  14
ENDBRANCH   2  13
BRANCH  12  21
HETATM   21  C   UNL     1      -9.545  14.759  66.689  1.00  0.00    -0.289 C  
BRANCH  21  22
HETATM   22  C   UNL     1      -8.794  15.903  67.354  1.00  0.00    -0.201 C  
BRANCH  22  23
HETATM   23  C   UNL     1      -9.180  17.375  67.292  1.00  0.00    -0.234 C  
HETATM   24  C   UNL     1     -10.630  17.755  67.465  1.00  0.00    -0.365 C  
HETATM   25  C   UNL     1     -10.657  19.267  67.690  1.00  0.00    -0.447 C  
HETATM   26  O   UNL     1     -10.188  19.581  69.004  1.00  0.00    -0.576 OA 
HETATM   27  C   UNL     1      -9.873  20.030  66.627  1.00  0.00    -0.577 C  
HETATM   28  C   UNL     1      -8.599  19.355  66.171  1.00  0.00    -0.284 C  
HETATM   29  H   UNL     1     -10.206  20.521  69.144  1.00  0.00     0.000 HD 
HETATM   30  O   UNL     1      -7.636  19.982  65.749  1.00  0.00    -0.331 OA 
HETATM   31  O   UNL     1      -8.655  17.996  66.112  1.00  0.00    -0.454 OA 
ENDBRANCH  22  23
ENDBRANCH  21  22
ENDBRANCH  12  21
TORSDOF 7
ENDMDL
MODEL      100
REMARK 921   NORMALIZED FREE ENERGY PREDICTED BY IDOCK:   -5.25 KCAL/MOL
REMARK 922        TOTAL FREE ENERGY PREDICTED BY IDOCK:   -8.89 KCAL/MOL
REMARK 923 INTER-LIGAND FREE ENERGY PREDICTED BY IDOCK:   -8.10 KCAL/MOL
REMARK 924 INTRA-LIGAND FREE ENERGY PREDICTED BY IDOCK:   -0.79 KCAL/MOL
REMARK 927      BINDING AFFINITY PREDICTED BY RF-SCORE:    0.00 PKD
ROOT
HETATM    1  C   UNL     1      -9.594  10.046  69.290  1.00  0.00    -0.227 C  
HETATM    2  C   UNL     1      -9.939   8.725  70.082  1.00  0.00    -0.184 C  
HETATM    3  C   UNL     1      -8.889   7.601  70.153  1.00  0.00    -0.146 C  
HETATM    4  C   UNL     1     -10.228  11.861  67.489  1.00  0.00    -0.212 C  
HETATM    5  C   UNL     1      -7.434   8.017  70.017  1.00  0.00    -0.074 C  
HETATM    6  C   UNL     1      -8.913  11.533  66.849  1.00  0.00    -0.179 C  
HETATM    7  C   UNL     1     -10.000  13.263  68.085  1.00  0.00    -0.234 C  
HETATM    8  C   UNL     1      -8.017  10.693  67.369  1.00  0.00    -0.111 C  
HETATM    9  C   UNL     1      -7.289   9.048  68.938  1.00  0.00    -0.074 C  
HETATM   10  C   UNL     1      -6.621   6.758  69.659  1.00  0.00    -0.048 C  
HETATM   11  C   UNL     1      -8.257   9.900  68.553  1.00  0.00    -0.106 C  
HETATM   12  C   UNL     1     -10.750  10.685  68.407  1.00  0.00    -0.260 C  
ENDROOT
BRANCH   2  13
HETATM   13  O   UNL     1     -11.197   8.116  69.744  1.00  0.00    -0.129 OA 
BRANCH  13  14
HETATM   14  C   UNL     1     -11.531   6.934  70.326  1.00  0.00    -0.323 C  
HETATM   15  O   UNL     1     -11.360   5.817  69.834  1.00  0.00    -0.287 OA 
BRANCH  14  16
HETATM   16  C   UNL     1     -12.208   7.136  71.682  1.00  0.00    -0.385 C  
HETATM   17  C   UNL     1     -11.636   8.339  72.451  1.00  0.00    -0.464 C  
HETATM   18  C   UNL     1     -13.689   7.358  71.345  1.00  0.00    -0.419 C  
BRANCH  16  19
HETATM   19  C   UNL     1     -12.008   5.841  72.513  1.00  0.00    -0.157 C  
HETATM   20  C   UNL     1     -10.661   5.761  73.222  1.00  0.00    -0.297 C  
ENDBRANCH  16  19
ENDBRANCH  14  16
ENDBRANCH  13  14
ENDBRANCH   2  13
BRANCH  12  21
HETATM   21  C   UNL     1     -12.116  10.994  69.155  1.00  0.00    -0.333 C  
BRANCH  21  22
HETATM   22  C   UNL     1     -11.926  11.566  70.552  1.00  0.00    -0.439 C  
BRANCH  22  23
HETATM   23  C   UNL     1     -12.448  12.911  71.040  1.00  0.00    -0.283 C  
HETATM   24  C   UNL     1     -13.628  12.937  71.979  1.00  0.00    -0.499 C  
HETATM   25  C   UNL     1     -13.701  14.355  72.545  1.00  0.00    -0.488 C  
HETATM   26  O   UNL     1     -12.655  14.563  73.498  1.00  0.00    -0.422 OA 
HETATM   27  C   UNL     1     -13.672  15.421  71.454  1.00  0.00    -0.591 C  
HETATM   28  C   UNL     1     -12.755  15.116  70.292  1.00  0.00    -0.299 C  
HETATM   29  H   UNL     1     -12.700  15.445  73.850  1.00  0.00     0.000 HD 
HETATM   30  O   UNL     1     -12.226  15.993  69.621  1.00  0.00    -0.248 OA 
HETATM   31  O   UNL     1     -12.683  13.801  69.943  1.00  0.00    -0.177 OA 
ENDBRANCH  22  23
ENDBRANCH  21  22
ENDBRANCH  12  21
TORSDOF 7
ENDMDL
MODEL      101
REMARK 921   NORMALIZED FREE ENERGY PREDICTED BY IDOCK:   -5.18 KCAL/MOL
REMARK 922        TOTAL FREE ENERGY PREDICTED BY IDOCK:   -8.80 KCAL/MOL
REMARK 923 INTER-LIGAND FREE ENERGY PREDICTED BY IDOCK:   -7.28 KCAL/MOL
REMARK 924 INTRA-LIGAND FREE ENERGY PREDICTED BY IDOCK:   -1.52 KCAL/MOL
REMARK 927      BINDING AFFINITY PREDICTED BY RF-SCORE:    0.00 PKD
ROOT
HETATM    1  C   UNL     1     -11.544  13.110  69.569  1.00  0.00    -0.347 C  
HETATM    2  C   UNL     1     -10.275  12.670  68.742  1.00  0.00    -0.079 C  
HETATM    3  C   UNL     1      -9.937  11.171  68.632  1.00  0.00    -0.210 C  
HETATM    4  C   UNL     1     -12.652  14.617  71.425  1.00  0.00    -0.404 C  
HETATM    5  C   UNL     1     -11.097  10.199  68.771  1.00  0.00    -0.250 C  
HETATM    6  C   UNL     1     -13.107  13.331  72.047  1.00  0.00    -0.475 C  
HETATM    7  C   UNL     1     -13.951  15.228  70.868  1.00  0.00    -0.250 C  
HETATM    8  C   UNL     1     -12.927  12.129  71.499  1.00  0.00    -0.398 C  
HETATM    9  C   UNL     1     -12.009  10.636  69.878  1.00  0.00    -0.385 C  
HETATM   10  C   UNL     1     -10.506   8.812  69.089  1.00  0.00    -0.230 C  
HETATM   11  C   UNL     1     -12.161  11.907  70.293  1.00  0.00    -0.409 C  
HETATM   12  C   UNL     1     -11.404  14.407  70.476  1.00  0.00    -0.117 C  
ENDROOT
BRANCH   2  13
HETATM   13  O   UNL     1      -9.057  13.360  69.069  1.00  0.00     0.175 OA 
BRANCH  13  14
HETATM   14  C   UNL     1      -8.169  13.634  68.076  1.00  0.00    -0.162 C  
HETATM   15  O   UNL     1      -8.208  13.178  66.933  1.00  0.00    -0.103 OA 
BRANCH  14  16
HETATM   16  C   UNL     1      -7.051  14.562  68.550  1.00  0.00    -0.114 C  
HETATM   17  C   UNL     1      -7.298  15.106  69.968  1.00  0.00     0.035 C  
HETATM   18  C   UNL     1      -5.785  13.692  68.513  1.00  0.00    -0.090 C  
BRANCH  16  19
HETATM   19  C   UNL     1      -6.953  15.742  67.547  1.00  0.00    -0.216 C  
HETATM   20  C   UNL     1      -7.939  16.871  67.820  1.00  0.00    -0.188 C  
ENDBRANCH  16  19
ENDBRANCH  14  16
ENDBRANCH  13  14
ENDBRANCH   2  13
BRANCH  12  21
HETATM   21  C   UNL     1     -10.907  15.725  69.745  1.00  0.00    -0.314 C  
BRANCH  21  22
HETATM   22  C   UNL     1     -11.652  16.019  68.451  1.00  0.00    -0.279 C  
BRANCH  22  23
HETATM   23  C   UNL     1     -11.395  15.353  67.107  1.00  0.00    -0.203 C  
HETATM   24  C   UNL     1     -10.961  16.209  65.942  1.00  0.00    -0.072 C  
HETATM   25  C   UNL     1     -10.466  15.248  64.860  1.00  0.00    -0.302 C  
HETATM   26  O   UNL     1      -9.192  14.707  65.223  1.00  0.00    -0.257 OA 
HETATM   27  C   UNL     1     -11.470  14.141  64.558  1.00  0.00    -0.380 C  
HETATM   28  C   UNL     1     -12.208  13.606  65.764  1.00  0.00    -0.464 C  
HETATM   29  H   UNL     1      -8.884  14.111  64.551  1.00  0.00     0.000 HD 
HETATM   30  O   UNL     1     -12.636  12.460  65.820  1.00  0.00    -0.532 OA 
HETATM   31  O   UNL     1     -12.503  14.533  66.718  1.00  0.00    -0.257 OA 
ENDBRANCH  22  23
ENDBRANCH  21  22
ENDBRANCH  12  21
TORSDOF 7
ENDMDL
MODEL      102
REMARK 921   NORMALIZED FREE ENERGY PREDICTED BY IDOCK:   -5.18 KCAL/MOL
REMARK 922        TOTAL FREE ENERGY PREDICTED BY IDOCK:   -8.80 KCAL/MOL
REMARK 923 INTER-LIGAND FREE ENERGY PREDICTED BY IDOCK:   -7.10 KCAL/MOL
REMARK 924 INTRA-LIGAND FREE ENERGY PREDICTED BY IDOCK:   -1.69 KCAL/MOL
REMARK 927      BINDING AFFINITY PREDICTED BY RF-SCORE:    0.00 PKD
ROOT
HETATM    1  C   UNL     1     -10.754  10.044  68.922  1.00  0.00    -0.243 C  
HETATM    2  C   UNL     1     -11.267   9.225  70.170  1.00  0.00    -0.208 C  
HETATM    3  C   UNL     1     -12.112   9.944  71.238  1.00  0.00    -0.485 C  
HETATM    4  C   UNL     1      -8.793  10.780  67.323  1.00  0.00    -0.133 C  
HETATM    5  C   UNL     1     -12.903  11.158  70.779  1.00  0.00    -0.322 C  
HETATM    6  C   UNL     1      -9.188  12.186  67.661  1.00  0.00    -0.181 C  
HETATM    7  C   UNL     1      -9.249  10.618  65.861  1.00  0.00    -0.209 C  
HETATM    8  C   UNL     1     -10.244  12.508  68.408  1.00  0.00    -0.230 C  
HETATM    9  C   UNL     1     -12.072  11.998  69.857  1.00  0.00    -0.334 C  
HETATM   10  C   UNL     1     -13.283  11.967  72.035  1.00  0.00    -0.481 C  
HETATM   11  C   UNL     1     -11.070  11.535  69.087  1.00  0.00    -0.316 C  
HETATM   12  C   UNL     1      -9.274   9.750  68.422  1.00  0.00    -0.130 C  
ENDROOT
BRANCH   2  13
HETATM   13  O   UNL     1     -10.264   8.461  70.860  1.00  0.00    -0.188 OA 
BRANCH  13  14
HETATM   14  C   UNL     1     -10.544   7.178  71.215  1.00  0.00    -0.213 C  
HETATM   15  O   UNL     1     -11.671   6.699  71.345  1.00  0.00    -0.293 OA 
BRANCH  14  16
HETATM   16  C   UNL     1      -9.275   6.373  71.493  1.00  0.00    -0.145 C  
HETATM   17  C   UNL     1      -8.013   7.252  71.516  1.00  0.00    -0.100 C  
HETATM   18  C   UNL     1      -9.518   5.731  72.867  1.00  0.00    -0.160 C  
BRANCH  16  19
HETATM   19  C   UNL     1      -9.141   5.296  70.384  1.00  0.00    -0.173 C  
HETATM   20  C   UNL     1      -9.693   3.930  70.776  1.00  0.00    -0.255 C  
ENDBRANCH  16  19
ENDBRANCH  14  16
ENDBRANCH  13  14
ENDBRANCH   2  13
BRANCH  12  21
HETATM   21  C   UNL     1      -8.932   8.234  68.094  1.00  0.00    -0.139 C  
BRANCH  21  22
HETATM   22  C   UNL     1     -10.067   7.490  67.407  1.00  0.00    -0.282 C  
BRANCH  22  23
HETATM   23  C   UNL     1      -9.909   6.342  66.420  1.00  0.00    -0.063 C  
HETATM   24  C   UNL     1     -10.291   4.950  66.857  1.00  0.00    -0.237 C  
HETATM   25  C   UNL     1     -10.345   4.098  65.588  1.00  0.00    -0.097 C  
HETATM   26  O   UNL     1     -11.512   4.418  64.826  1.00  0.00    -1.011 OA 
HETATM   27  C   UNL     1      -9.082   4.226  64.743  1.00  0.00    -0.149 C  
HETATM   28  C   UNL     1      -8.488   5.616  64.697  1.00  0.00    -0.085 C  
HETATM   29  H   UNL     1     -11.547   3.888  64.038  1.00  0.00     0.000 HD 
HETATM   30  O   UNL     1      -7.835   6.022  63.744  1.00  0.00    -0.102 OA 
HETATM   31  O   UNL     1      -8.593   6.328  65.854  1.00  0.00    -0.141 OA 
ENDBRANCH  22  23
ENDBRANCH  21  22
ENDBRANCH  12  21
TORSDOF 7
ENDMDL
MODEL      103
REMARK 921   NORMALIZED FREE ENERGY PREDICTED BY IDOCK:   -5.16 KCAL/MOL
REMARK 922        TOTAL FREE ENERGY PREDICTED BY IDOCK:   -8.77 KCAL/MOL
REMARK 923 INTER-LIGAND FREE ENERGY PREDICTED BY IDOCK:   -7.01 KCAL/MOL
REMARK 924 INTRA-LIGAND FREE ENERGY PREDICTED BY IDOCK:   -1.76 KCAL/MOL
REMARK 927      BINDING AFFINITY PREDICTED BY RF-SCORE:    0.00 PKD
ROOT
HETATM    1  C   UNL     1      -8.255  11.315  68.433  1.00  0.00    -0.149 C  
HETATM    2  C   UNL     1      -8.539  12.787  67.941  1.00  0.00    -0.181 C  
HETATM    3  C   UNL     1      -7.475  13.875  68.184  1.00  0.00    -0.126 C  
HETATM    4  C   UNL     1      -9.014   9.158  69.741  1.00  0.00    -0.168 C  
HETATM    5  C   UNL     1      -6.035  13.405  68.305  1.00  0.00    -0.093 C  
HETATM    6  C   UNL     1      -7.737   9.304  70.512  1.00  0.00    -0.160 C  
HETATM    7  C   UNL     1      -8.764   7.920  68.859  1.00  0.00    -0.135 C  
HETATM    8  C   UNL     1      -6.803  10.218  70.246  1.00  0.00    -0.145 C  
HETATM    9  C   UNL     1      -5.966  12.155  69.131  1.00  0.00    -0.075 C  
HETATM   10  C   UNL     1      -5.233  14.533  68.983  1.00  0.00    -0.089 C  
HETATM   11  C   UNL     1      -6.964  11.261  69.258  1.00  0.00    -0.119 C  
HETATM   12  C   UNL     1      -9.468  10.521  69.083  1.00  0.00    -0.205 C  
ENDROOT
BRANCH   2  13
HETATM   13  O   UNL     1      -9.809  13.334  68.335  1.00  0.00    -0.234 OA 
BRANCH  13  14
HETATM   14  C   UNL     1     -10.232  14.491  67.760  1.00  0.00    -0.226 C  
HETATM   15  O   UNL     1     -10.104  14.792  66.573  1.00  0.00    -0.258 OA 
BRANCH  14  16
HETATM   16  C   UNL     1     -10.867  15.436  68.781  1.00  0.00    -0.252 C  
HETATM   17  C   UNL     1     -12.071  16.201  68.205  1.00  0.00     0.489 C  
HETATM   18  C   UNL     1     -11.303  14.521  69.935  1.00  0.00    -0.288 C  
BRANCH  16  19
HETATM   19  C   UNL     1      -9.779  16.442  69.240  1.00  0.00    -0.221 C  
HETATM   20  C   UNL     1      -9.979  17.857  68.709  1.00  0.00    -0.377 C  
ENDBRANCH  16  19
ENDBRANCH  14  16
ENDBRANCH  13  14
ENDBRANCH   2  13
BRANCH  12  21
HETATM   21  C   UNL     1     -10.789  10.419  68.208  1.00  0.00    -0.299 C  
BRANCH  21  22
HETATM   22  C   UNL     1     -10.540   9.930  66.789  1.00  0.00    -0.214 C  
BRANCH  22  23
HETATM   23  C   UNL     1     -10.731  10.749  65.520  1.00  0.00    -0.075 C  
HETATM   24  C   UNL     1      -9.513  11.296  64.817  1.00  0.00    -0.221 C  
HETATM   25  C   UNL     1      -9.983  11.764  63.439  1.00  0.00    -0.423 C  
HETATM   26  O   UNL     1     -10.239  10.639  62.594  1.00  0.00    -0.751 OA 
HETATM   27  C   UNL     1     -11.197  12.684  63.517  1.00  0.00    -0.489 C  
HETATM   28  C   UNL     1     -12.210  12.309  64.575  1.00  0.00    -0.388 C  
HETATM   29  H   UNL     1     -10.531  10.930  61.737  1.00  0.00     0.000 HD 
HETATM   30  O   UNL     1     -13.401  12.575  64.470  1.00  0.00    -0.780 OA 
HETATM   31  O   UNL     1     -11.685  11.799  65.723  1.00  0.00    -0.359 OA 
ENDBRANCH  22  23
ENDBRANCH  21  22
ENDBRANCH  12  21
TORSDOF 7
ENDMDL
MODEL      104
REMARK 921   NORMALIZED FREE ENERGY PREDICTED BY IDOCK:   -5.16 KCAL/MOL
REMARK 922        TOTAL FREE ENERGY PREDICTED BY IDOCK:   -8.76 KCAL/MOL
REMARK 923 INTER-LIGAND FREE ENERGY PREDICTED BY IDOCK:   -7.70 KCAL/MOL
REMARK 924 INTRA-LIGAND FREE ENERGY PREDICTED BY IDOCK:   -1.07 KCAL/MOL
REMARK 927      BINDING AFFINITY PREDICTED BY RF-SCORE:    0.00 PKD
ROOT
HETATM    1  C   UNL     1     -12.030  12.475  69.654  1.00  0.00    -0.339 C  
HETATM    2  C   UNL     1     -11.778  10.953  69.326  1.00  0.00    -0.324 C  
HETATM    3  C   UNL     1     -12.137   9.891  70.383  1.00  0.00    -0.230 C  
HETATM    4  C   UNL     1     -11.166  14.962  69.762  1.00  0.00    -0.308 C  
HETATM    5  C   UNL     1     -13.228  10.258  71.375  1.00  0.00    -0.464 C  
HETATM    6  C   UNL     1     -11.574  14.929  71.204  1.00  0.00    -0.347 C  
HETATM    7  C   UNL     1     -12.211  15.887  69.111  1.00  0.00    -0.013 C  
HETATM    8  C   UNL     1     -12.204  13.906  71.780  1.00  0.00    -0.090 C  
HETATM    9  C   UNL     1     -13.056  11.676  71.832  1.00  0.00    -0.490 C  
HETATM   10  C   UNL     1     -13.108   9.298  72.574  1.00  0.00    -0.416 C  
HETATM   11  C   UNL     1     -12.462  12.649  71.115  1.00  0.00    -0.326 C  
HETATM   12  C   UNL     1     -10.921  13.511  69.183  1.00  0.00    -0.220 C  
ENDROOT
BRANCH   2  13
HETATM   13  O   UNL     1     -10.465  10.639  68.832  1.00  0.00    -0.187 OA 
BRANCH  13  14
HETATM   14  C   UNL     1     -10.263   9.442  68.218  1.00  0.00    -0.196 C  
HETATM   15  O   UNL     1     -10.599   8.343  68.660  1.00  0.00    -0.196 OA 
BRANCH  14  16
HETATM   16  C   UNL     1      -9.507   9.598  66.898  1.00  0.00    -0.198 C  
HETATM   17  C   UNL     1      -8.178  10.354  67.066  1.00  0.00    -0.123 C  
HETATM   18  C   UNL     1      -9.260   8.159  66.423  1.00  0.00    -0.250 C  
BRANCH  16  19
HETATM   19  C   UNL     1     -10.426  10.367  65.911  1.00  0.00    -0.196 C  
HETATM   20  C   UNL     1      -9.724  10.821  64.637  1.00  0.00    -0.344 C  
ENDBRANCH  16  19
ENDBRANCH  14  16
ENDBRANCH  13  14
ENDBRANCH   2  13
BRANCH  12  21
HETATM   21  C   UNL     1     -10.537  13.477  67.643  1.00  0.00    -0.246 C  
BRANCH  21  22
HETATM   22  C   UNL     1      -9.197  14.129  67.337  1.00  0.00    -0.204 C  
BRANCH  22  23
HETATM   23  C   UNL     1      -8.912  15.625  67.351  1.00  0.00    -0.194 C  
HETATM   24  C   UNL     1      -9.183  16.429  66.104  1.00  0.00    -0.365 C  
HETATM   25  C   UNL     1      -9.129  17.900  66.517  1.00  0.00    -0.261 C  
HETATM   26  O   UNL     1     -10.299  18.249  67.262  1.00  0.00    -0.355 OA 
HETATM   27  C   UNL     1      -7.860  18.244  67.290  1.00  0.00    -0.233 C  
HETATM   28  C   UNL     1      -7.388  17.172  68.246  1.00  0.00    -0.214 C  
HETATM   29  H   UNL     1     -10.266  19.163  67.519  1.00  0.00     0.000 HD 
HETATM   30  O   UNL     1      -6.748  17.426  69.258  1.00  0.00    -0.241 OA 
HETATM   31  O   UNL     1      -7.586  15.893  67.822  1.00  0.00    -0.127 OA 
ENDBRANCH  22  23
ENDBRANCH  21  22
ENDBRANCH  12  21
TORSDOF 7
ENDMDL
MODEL      105
REMARK 921   NORMALIZED FREE ENERGY PREDICTED BY IDOCK:   -5.16 KCAL/MOL
REMARK 922        TOTAL FREE ENERGY PREDICTED BY IDOCK:   -8.76 KCAL/MOL
REMARK 923 INTER-LIGAND FREE ENERGY PREDICTED BY IDOCK:   -7.66 KCAL/MOL
REMARK 924 INTRA-LIGAND FREE ENERGY PREDICTED BY IDOCK:   -1.10 KCAL/MOL
REMARK 927      BINDING AFFINITY PREDICTED BY RF-SCORE:    0.00 PKD
ROOT
HETATM    1  C   UNL     1      -8.814   9.795  68.388  1.00  0.00    -0.120 C  
HETATM    2  C   UNL     1      -9.014   9.837  69.952  1.00  0.00    -0.229 C  
HETATM    3  C   UNL     1      -8.034   9.059  70.852  1.00  0.00    -0.194 C  
HETATM    4  C   UNL     1      -9.790   9.417  65.970  1.00  0.00    -0.366 C  
HETATM    5  C   UNL     1      -6.641   8.821  70.295  1.00  0.00    -0.040 C  
HETATM    6  C   UNL     1      -8.693   8.410  65.800  1.00  0.00    -0.199 C  
HETATM    7  C   UNL     1      -9.353  10.583  65.063  1.00  0.00    -0.268 C  
HETATM    8  C   UNL     1      -7.737   8.185  66.702  1.00  0.00    -0.094 C  
HETATM    9  C   UNL     1      -6.720   8.440  68.846  1.00  0.00    -0.053 C  
HETATM   10  C   UNL     1      -6.004   7.677  71.108  1.00  0.00    -0.035 C  
HETATM   11  C   UNL     1      -7.712   8.799  68.010  1.00  0.00    -0.101 C  
HETATM   12  C   UNL     1     -10.122   9.679  67.493  1.00  0.00    -0.247 C  
ENDROOT
BRANCH   2  13
HETATM   13  O   UNL     1     -10.344   9.540  70.411  1.00  0.00    -0.237 OA 
BRANCH  13  14
HETATM   14  C   UNL     1     -10.677   8.246  70.666  1.00  0.00    -0.220 C  
HETATM   15  O   UNL     1     -10.334   7.271  69.998  1.00  0.00    -0.204 OA 
BRANCH  14  16
HETATM   16  C   UNL     1     -11.593   8.123  71.885  1.00  0.00    -0.361 C  
HETATM   17  C   UNL     1     -12.577   6.947  71.764  1.00  0.00    -0.386 C  
HETATM   18  C   UNL     1     -10.635   7.914  73.067  1.00  0.00    -0.406 C  
BRANCH  16  19
HETATM   19  C   UNL     1     -12.381   9.452  72.026  1.00  0.00    -0.418 C  
HETATM   20  C   UNL     1     -13.893   9.273  72.088  1.00  0.00    -0.478 C  
ENDBRANCH  16  19
ENDBRANCH  14  16
ENDBRANCH  13  14
ENDBRANCH   2  13
BRANCH  12  21
HETATM   21  C   UNL     1     -11.242  10.778  67.740  1.00  0.00    -0.385 C  
BRANCH  21  22
HETATM   22  C   UNL     1     -10.747  12.203  67.546  1.00  0.00    -0.265 C  
BRANCH  22  23
HETATM   23  C   UNL     1     -10.839  13.324  68.572  1.00  0.00    -0.265 C  
HETATM   24  C   UNL     1     -12.196  13.891  68.909  1.00  0.00    -0.257 C  
HETATM   25  C   UNL     1     -12.011  14.731  70.174  1.00  0.00    -0.312 C  
HETATM   26  O   UNL     1     -11.837  13.882  71.312  1.00  0.00    -0.449 OA 
HETATM   27  C   UNL     1     -10.865  15.730  70.050  1.00  0.00    -0.348 C  
HETATM   28  C   UNL     1      -9.657  15.219  69.297  1.00  0.00    -0.249 C  
HETATM   29  H   UNL     1     -11.723  14.404  72.098  1.00  0.00     0.000 HD 
HETATM   30  O   UNL     1      -8.524  15.630  69.513  1.00  0.00    -0.252 OA 
HETATM   31  O   UNL     1      -9.935  14.389  68.254  1.00  0.00    -0.219 OA 
ENDBRANCH  22  23
ENDBRANCH  21  22
ENDBRANCH  12  21
TORSDOF 7
ENDMDL
MODEL      106
REMARK 921   NORMALIZED FREE ENERGY PREDICTED BY IDOCK:   -5.15 KCAL/MOL
REMARK 922        TOTAL FREE ENERGY PREDICTED BY IDOCK:   -8.76 KCAL/MOL
REMARK 923 INTER-LIGAND FREE ENERGY PREDICTED BY IDOCK:   -7.18 KCAL/MOL
REMARK 924 INTRA-LIGAND FREE ENERGY PREDICTED BY IDOCK:   -1.58 KCAL/MOL
REMARK 927      BINDING AFFINITY PREDICTED BY RF-SCORE:    0.00 PKD
ROOT
HETATM    1  C   UNL     1     -11.015  10.149  70.407  1.00  0.00    -0.386 C  
HETATM    2  C   UNL     1     -10.353  10.827  69.146  1.00  0.00    -0.217 C  
HETATM    3  C   UNL     1     -10.849  12.214  68.697  1.00  0.00    -0.268 C  
HETATM    4  C   UNL     1     -12.156   8.065  71.546  1.00  0.00    -0.330 C  
HETATM    5  C   UNL     1     -11.463  13.099  69.769  1.00  0.00    -0.216 C  
HETATM    6  C   UNL     1     -13.286   8.995  71.870  1.00  0.00    -0.474 C  
HETATM    7  C   UNL     1     -11.493   7.812  72.912  1.00  0.00    -0.359 C  
HETATM    8  C   UNL     1     -13.273  10.304  71.621  1.00  0.00    -0.509 C  
HETATM    9  C   UNL     1     -12.354  12.288  70.662  1.00  0.00    -0.375 C  
HETATM   10  C   UNL     1     -12.282  14.193  69.058  1.00  0.00    -0.274 C  
HETATM   11  C   UNL     1     -12.215  10.969  70.895  1.00  0.00    -0.471 C  
HETATM   12  C   UNL     1     -11.291   8.586  70.329  1.00  0.00    -0.135 C  
ENDROOT
BRANCH   2  13
HETATM   13  O   UNL     1     -10.276   9.999  67.972  1.00  0.00    -0.164 OA 
BRANCH  13  14
HETATM   14  C   UNL     1      -9.075   9.851  67.351  1.00  0.00    -0.134 C  
HETATM   15  O   UNL     1      -7.995  10.273  67.766  1.00  0.00    -0.101 OA 
BRANCH  14  16
HETATM   16  C   UNL     1      -9.210   9.121  66.015  1.00  0.00    -0.271 C  
HETATM   17  C   UNL     1      -7.853   8.658  65.457  1.00  0.00    -0.099 C  
HETATM   18  C   UNL     1     -10.113   7.918  66.322  1.00  0.00    -0.011 C  
BRANCH  16  19
HETATM   19  C   UNL     1      -9.886  10.090  65.008  1.00  0.00    -0.374 C  
HETATM   20  C   UNL     1      -9.262  10.073  63.618  1.00  0.00    -0.314 C  
ENDBRANCH  16  19
ENDBRANCH  14  16
ENDBRANCH  13  14
ENDBRANCH   2  13
BRANCH  12  21
HETATM   21  C   UNL     1     -10.046   7.669  69.970  1.00  0.00    -0.204 C  
BRANCH  21  22
HETATM   22  C   UNL     1     -10.425   6.233  69.639  1.00  0.00    -0.295 C  
BRANCH  22  23
HETATM   23  C   UNL     1     -10.025   5.002  70.440  1.00  0.00    -0.247 C  
HETATM   24  C   UNL     1      -9.201   5.182  71.691  1.00  0.00    -0.174 C  
HETATM   25  C   UNL     1      -9.248   3.848  72.437  1.00  0.00    -0.112 C  
HETATM   26  O   UNL     1     -10.531   3.664  73.043  1.00  0.00    -0.159 OA 
HETATM   27  C   UNL     1      -8.885   2.666  71.544  1.00  0.00    -0.127 C  
HETATM   28  C   UNL     1      -9.401   2.760  70.126  1.00  0.00    -0.129 C  
HETATM   29  H   UNL     1     -10.560   2.836  73.507  1.00  0.00     0.000 HD 
HETATM   30  O   UNL     1      -9.653   1.770  69.450  1.00  0.00    -0.084 OA 
HETATM   31  O   UNL     1      -9.417   4.015  69.598  1.00  0.00    -0.161 OA 
ENDBRANCH  22  23
ENDBRANCH  21  22
ENDBRANCH  12  21
TORSDOF 7
ENDMDL
MODEL      107
REMARK 921   NORMALIZED FREE ENERGY PREDICTED BY IDOCK:   -5.11 KCAL/MOL
REMARK 922        TOTAL FREE ENERGY PREDICTED BY IDOCK:   -8.69 KCAL/MOL
REMARK 923 INTER-LIGAND FREE ENERGY PREDICTED BY IDOCK:   -6.95 KCAL/MOL
REMARK 924 INTRA-LIGAND FREE ENERGY PREDICTED BY IDOCK:   -1.74 KCAL/MOL
REMARK 927      BINDING AFFINITY PREDICTED BY RF-SCORE:    0.00 PKD
ROOT
HETATM    1  C   UNL     1      -7.207  11.437  67.956  1.00  0.00    -0.084 C  
HETATM    2  C   UNL     1      -8.067  12.446  67.101  1.00  0.00    -0.167 C  
HETATM    3  C   UNL     1      -7.828  13.959  67.267  1.00  0.00    -0.134 C  
HETATM    4  C   UNL     1      -7.059   9.361  69.573  1.00  0.00    -0.062 C  
HETATM    5  C   UNL     1      -6.446  14.383  67.733  1.00  0.00    -0.181 C  
HETATM    6  C   UNL     1      -6.301  10.268  70.495  1.00  0.00    -0.112 C  
HETATM    7  C   UNL     1      -5.981   8.393  69.051  1.00  0.00    -0.043 C  
HETATM    8  C   UNL     1      -5.942  11.515  70.190  1.00  0.00    -0.159 C  
HETATM    9  C   UNL     1      -5.964  13.471  68.822  1.00  0.00    -0.084 C  
HETATM   10  C   UNL     1      -6.557  15.826  68.263  1.00  0.00    -0.124 C  
HETATM   11  C   UNL     1      -6.348  12.191  68.979  1.00  0.00    -0.087 C  
HETATM   12  C   UNL     1      -7.958  10.170  68.554  1.00  0.00    -0.104 C  
ENDROOT
BRANCH   2  13
HETATM   13  O   UNL     1      -9.488  12.230  67.140  1.00  0.00    -0.187 OA 
BRANCH  13  14
HETATM   14  C   UNL     1     -10.188  12.254  65.974  1.00  0.00    -0.243 C  
HETATM   15  O   UNL     1      -9.872  11.675  64.934  1.00  0.00    -0.241 OA 
BRANCH  14  16
HETATM   16  C   UNL     1     -11.429  13.142  66.072  1.00  0.00    -0.370 C  
HETATM   17  C   UNL     1     -12.535  12.718  65.091  1.00  0.00    -0.565 C  
HETATM   18  C   UNL     1     -11.900  12.987  67.526  1.00  0.00    -0.408 C  
BRANCH  16  19
HETATM   19  C   UNL     1     -10.997  14.602  65.773  1.00  0.00    -0.330 C  
HETATM   20  C   UNL     1     -10.976  15.506  67.000  1.00  0.00    -0.283 C  
ENDBRANCH  16  19
ENDBRANCH  14  16
ENDBRANCH  13  14
ENDBRANCH   2  13
BRANCH  12  21
HETATM   21  C   UNL     1      -8.747   9.266  67.515  1.00  0.00    -0.116 C  
BRANCH  21  22
HETATM   22  C   UNL     1     -10.239   9.177  67.799  1.00  0.00    -0.278 C  
BRANCH  22  23
HETATM   23  C   UNL     1     -10.880   9.117  69.178  1.00  0.00    -0.110 C  
HETATM   24  C   UNL     1     -11.004  10.389  69.979  1.00  0.00    -0.370 C  
HETATM   25  C   UNL     1     -11.962  10.084  71.131  1.00  0.00    -0.392 C  
HETATM   26  O   UNL     1     -13.305   9.995  70.649  1.00  0.00    -0.602 OA 
HETATM   27  C   UNL     1     -11.568   8.828  71.902  1.00  0.00    -0.432 C  
HETATM   28  C   UNL     1     -11.028   7.703  71.048  1.00  0.00    -0.248 C  
HETATM   29  H   UNL     1     -13.901   9.805  71.365  1.00  0.00     0.000 HD 
HETATM   30  O   UNL     1     -11.134   6.525  71.365  1.00  0.00    -0.248 OA 
HETATM   31  O   UNL     1     -10.276   8.096  69.982  1.00  0.00    -0.194 OA 
ENDBRANCH  22  23
ENDBRANCH  21  22
ENDBRANCH  12  21
TORSDOF 7
ENDMDL
MODEL      108
REMARK 921   NORMALIZED FREE ENERGY PREDICTED BY IDOCK:   -5.10 KCAL/MOL
REMARK 922        TOTAL FREE ENERGY PREDICTED BY IDOCK:   -8.68 KCAL/MOL
REMARK 923 INTER-LIGAND FREE ENERGY PREDICTED BY IDOCK:   -6.94 KCAL/MOL
REMARK 924 INTRA-LIGAND FREE ENERGY PREDICTED BY IDOCK:   -1.74 KCAL/MOL
REMARK 927      BINDING AFFINITY PREDICTED BY RF-SCORE:    0.00 PKD
ROOT
HETATM    1  C   UNL     1     -10.732   9.711  70.366  1.00  0.00    -0.356 C  
HETATM    2  C   UNL     1     -10.113  10.168  68.989  1.00  0.00    -0.205 C  
HETATM    3  C   UNL     1     -10.646  11.448  68.318  1.00  0.00    -0.224 C  
HETATM    4  C   UNL     1     -11.807   7.840  71.879  1.00  0.00    -0.338 C  
HETATM    5  C   UNL     1     -11.252  12.496  69.235  1.00  0.00    -0.256 C  
HETATM    6  C   UNL     1     -12.948   8.795  72.065  1.00  0.00    -0.437 C  
HETATM    7  C   UNL     1     -11.109   7.840  73.251  1.00  0.00    -0.190 C  
HETATM    8  C   UNL     1     -12.965  10.041  71.591  1.00  0.00    -0.554 C  
HETATM    9  C   UNL     1     -12.107  11.840  70.278  1.00  0.00    -0.426 C  
HETATM   10  C   UNL     1     -12.108  13.437  68.364  1.00  0.00    -0.270 C  
HETATM   11  C   UNL     1     -11.937  10.585  70.733  1.00  0.00    -0.472 C  
HETATM   12  C   UNL     1     -10.980   8.154  70.569  1.00  0.00    -0.248 C  
ENDROOT
BRANCH   2  13
HETATM   13  O   UNL     1     -10.045   9.149  67.976  1.00  0.00    -0.176 OA 
BRANCH  13  14
HETATM   14  C   UNL     1      -8.826   8.688  67.589  1.00  0.00    -0.136 C  
HETATM   15  O   UNL     1      -7.739   9.115  67.981  1.00  0.00    -0.091 OA 
BRANCH  14  16
HETATM   16  C   UNL     1      -8.941   7.576  66.546  1.00  0.00    -0.189 C  
HETATM   17  C   UNL     1      -8.680   8.081  65.116  1.00  0.00    -0.015 C  
HETATM   18  C   UNL     1      -7.882   6.545  66.962  1.00  0.00    -0.108 C  
BRANCH  16  19
HETATM   19  C   UNL     1     -10.371   6.983  66.638  1.00  0.00    -0.215 C  
HETATM   20  C   UNL     1     -10.429   5.471  66.453  1.00  0.00    -0.294 C  
ENDBRANCH  16  19
ENDBRANCH  14  16
ENDBRANCH  13  14
ENDBRANCH   2  13
BRANCH  12  21
HETATM   21  C   UNL     1      -9.725   7.208  70.343  1.00  0.00    -0.176 C  
BRANCH  21  22
HETATM   22  C   UNL     1     -10.094   5.744  70.160  1.00  0.00    -0.274 C  
BRANCH  22  23
HETATM   23  C   UNL     1      -9.830   4.629  71.163  1.00  0.00    -0.191 C  
HETATM   24  C   UNL     1      -9.633   3.223  70.652  1.00  0.00    -0.223 C  
HETATM   25  C   UNL     1      -9.067   2.414  71.820  1.00  0.00    -0.088 C  
HETATM   26  O   UNL     1      -7.698   2.761  72.045  1.00  0.00    -0.051 OA 
HETATM   27  C   UNL     1      -9.892   2.569  73.093  1.00  0.00    -0.170 C  
HETATM   28  C   UNL     1     -10.439   3.958  73.330  1.00  0.00    -0.177 C  
HETATM   29  H   UNL     1      -7.345   2.258  72.770  1.00  0.00     0.000 HD 
HETATM   30  O   UNL     1     -10.665   4.395  74.451  1.00  0.00    -0.253 OA 
HETATM   31  O   UNL     1     -10.812   4.631  72.206  1.00  0.00    -0.136 OA 
ENDBRANCH  22  23
ENDBRANCH  21  22
ENDBRANCH  12  21
TORSDOF 7
ENDMDL
MODEL      109
REMARK 921   NORMALIZED FREE ENERGY PREDICTED BY IDOCK:   -5.09 KCAL/MOL
REMARK 922        TOTAL FREE ENERGY PREDICTED BY IDOCK:   -8.66 KCAL/MOL
REMARK 923 INTER-LIGAND FREE ENERGY PREDICTED BY IDOCK:   -8.05 KCAL/MOL
REMARK 924 INTRA-LIGAND FREE ENERGY PREDICTED BY IDOCK:   -0.61 KCAL/MOL
REMARK 927      BINDING AFFINITY PREDICTED BY RF-SCORE:    0.00 PKD
ROOT
HETATM    1  C   UNL     1      -9.523   8.858  69.706  1.00  0.00    -0.174 C  
HETATM    2  C   UNL     1     -10.737   7.878  69.937  1.00  0.00    -0.244 C  
HETATM    3  C   UNL     1     -10.946   7.263  71.333  1.00  0.00    -0.256 C  
HETATM    4  C   UNL     1      -7.409   9.589  68.313  1.00  0.00    -0.077 C  
HETATM    5  C   UNL     1     -10.404   8.051  72.513  1.00  0.00    -0.374 C  
HETATM    6  C   UNL     1      -6.657   9.499  69.607  1.00  0.00    -0.046 C  
HETATM    7  C   UNL     1      -7.482  11.103  68.043  1.00  0.00    -0.094 C  
HETATM    8  C   UNL     1      -7.225   9.244  70.786  1.00  0.00    -0.126 C  
HETATM    9  C   UNL     1      -9.051   8.610  72.186  1.00  0.00    -0.301 C  
HETATM   10  C   UNL     1     -10.302   7.086  73.710  1.00  0.00    -0.408 C  
HETATM   11  C   UNL     1      -8.620   8.901  70.944  1.00  0.00    -0.242 C  
HETATM   12  C   UNL     1      -8.731   8.722  68.335  1.00  0.00    -0.135 C  
ENDROOT
BRANCH   2  13
HETATM   13  O   UNL     1     -10.860   6.814  68.977  1.00  0.00    -0.236 OA 
BRANCH  13  14
HETATM   14  C   UNL     1     -10.389   5.580  69.300  1.00  0.00    -0.265 C  
HETATM   15  O   UNL     1     -10.440   5.061  70.416  1.00  0.00    -0.249 OA 
BRANCH  14  16
HETATM   16  C   UNL     1      -9.722   4.893  68.108  1.00  0.00    -0.202 C  
HETATM   17  C   UNL     1      -8.305   5.428  67.837  1.00  0.00    -0.099 C  
HETATM   18  C   UNL     1      -9.680   3.407  68.494  1.00  0.00    -0.011 C  
BRANCH  16  19
HETATM   19  C   UNL     1     -10.617   5.126  66.862  1.00  0.00    -0.234 C  
HETATM   20  C   UNL     1     -10.106   4.448  65.596  1.00  0.00    -0.256 C  
ENDBRANCH  16  19
ENDBRANCH  14  16
ENDBRANCH  13  14
ENDBRANCH   2  13
BRANCH  12  21
HETATM   21  C   UNL     1      -9.599   8.818  67.010  1.00  0.00    -0.236 C  
BRANCH  21  22
HETATM   22  C   UNL     1     -10.505  10.040  66.965  1.00  0.00    -0.302 C  
BRANCH  22  23
HETATM   23  C   UNL     1     -10.751  10.920  65.748  1.00  0.00    -0.109 C  
HETATM   24  C   UNL     1      -9.564  11.480  65.004  1.00  0.00    -0.222 C  
HETATM   25  C   UNL     1     -10.100  12.020  63.677  1.00  0.00    -0.415 C  
HETATM   26  O   UNL     1     -10.422  10.940  62.797  1.00  0.00    -0.772 OA 
HETATM   27  C   UNL     1     -11.292  12.953  63.864  1.00  0.00    -0.489 C  
HETATM   28  C   UNL     1     -12.251  12.545  64.959  1.00  0.00    -0.456 C  
HETATM   29  H   UNL     1     -10.755  11.275  61.972  1.00  0.00     0.000 HD 
HETATM   30  O   UNL     1     -13.441  12.834  64.934  1.00  0.00    -0.557 OA 
HETATM   31  O   UNL     1     -11.673  11.974  66.051  1.00  0.00    -0.460 OA 
ENDBRANCH  22  23
ENDBRANCH  21  22
ENDBRANCH  12  21
TORSDOF 7
ENDMDL
MODEL      110
REMARK 921   NORMALIZED FREE ENERGY PREDICTED BY IDOCK:   -5.09 KCAL/MOL
REMARK 922        TOTAL FREE ENERGY PREDICTED BY IDOCK:   -8.66 KCAL/MOL
REMARK 923 INTER-LIGAND FREE ENERGY PREDICTED BY IDOCK:   -7.39 KCAL/MOL
REMARK 924 INTRA-LIGAND FREE ENERGY PREDICTED BY IDOCK:   -1.27 KCAL/MOL
REMARK 927      BINDING AFFINITY PREDICTED BY RF-SCORE:    0.00 PKD
ROOT
HETATM    1  C   UNL     1     -11.086  14.112  70.012  1.00  0.00    -0.025 C  
HETATM    2  C   UNL     1     -10.000  13.912  68.886  1.00  0.00    -0.069 C  
HETATM    3  C   UNL     1      -9.507  15.140  68.097  1.00  0.00    -0.201 C  
HETATM    4  C   UNL     1     -13.379  13.435  71.121  1.00  0.00    -0.096 C  
HETATM    5  C   UNL     1      -9.598  16.484  68.801  1.00  0.00    -0.248 C  
HETATM    6  C   UNL     1     -13.758  14.877  70.967  1.00  0.00    -0.367 C  
HETATM    7  C   UNL     1     -13.176  13.275  72.639  1.00  0.00    -0.372 C  
HETATM    8  C   UNL     1     -12.933  15.824  70.519  1.00  0.00    -0.090 C  
HETATM    9  C   UNL     1     -10.900  16.596  69.537  1.00  0.00    -0.285 C  
HETATM   10  C   UNL     1      -9.503  17.581  67.723  1.00  0.00    -0.269 C  
HETATM   11  C   UNL     1     -11.607  15.554  70.011  1.00  0.00    -0.356 C  
HETATM   12  C   UNL     1     -12.230  13.014  70.119  1.00  0.00    -0.342 C  
ENDROOT
BRANCH   2  13
HETATM   13  O   UNL     1     -10.287  12.876  67.931  1.00  0.00    -0.220 OA 
BRANCH  13  14
HETATM   14  C   UNL     1      -9.546  12.809  66.793  1.00  0.00    -0.244 C  
HETATM   15  O   UNL     1      -8.327  12.636  66.738  1.00  0.00    -0.126 OA 
BRANCH  14  16
HETATM   16  C   UNL     1     -10.399  13.022  65.542  1.00  0.00    -0.304 C  
HETATM   17  C   UNL     1     -10.199  14.416  64.923  1.00  0.00    -0.357 C  
HETATM   18  C   UNL     1      -9.942  11.923  64.572  1.00  0.00    -0.255 C  
BRANCH  16  19
HETATM   19  C   UNL     1     -11.887  12.836  65.943  1.00  0.00    -0.490 C  
HETATM   20  C   UNL     1     -12.785  14.004  65.551  1.00  0.00    -0.517 C  
ENDBRANCH  16  19
ENDBRANCH  14  16
ENDBRANCH  13  14
ENDBRANCH   2  13
BRANCH  12  21
HETATM   21  C   UNL     1     -11.747  11.509  70.270  1.00  0.00    -0.379 C  
BRANCH  21  22
HETATM   22  C   UNL     1     -11.761  10.734  68.960  1.00  0.00    -0.357 C  
BRANCH  22  23
HETATM   23  C   UNL     1     -10.702   9.738  68.506  1.00  0.00    -0.215 C  
HETATM   24  C   UNL     1     -10.640   9.357  67.048  1.00  0.00    -0.272 C  
HETATM   25  C   UNL     1      -9.308   8.634  66.845  1.00  0.00    -0.170 C  
HETATM   26  O   UNL     1      -8.227   9.570  66.875  1.00  0.00    -0.112 OA 
HETATM   27  C   UNL     1      -9.094   7.511  67.855  1.00  0.00    -0.130 C  
HETATM   28  C   UNL     1      -9.588   7.810  69.252  1.00  0.00    -0.159 C  
HETATM   29  H   UNL     1      -7.399   9.121  66.749  1.00  0.00     0.000 HD 
HETATM   30  O   UNL     1      -9.090   7.304  70.250  1.00  0.00    -0.151 OA 
HETATM   31  O   UNL     1     -10.726   8.556  69.314  1.00  0.00    -0.213 OA 
ENDBRANCH  22  23
ENDBRANCH  21  22
ENDBRANCH  12  21
TORSDOF 7
ENDMDL
MODEL      111
REMARK 921   NORMALIZED FREE ENERGY PREDICTED BY IDOCK:   -5.08 KCAL/MOL
REMARK 922        TOTAL FREE ENERGY PREDICTED BY IDOCK:   -8.65 KCAL/MOL
REMARK 923 INTER-LIGAND FREE ENERGY PREDICTED BY IDOCK:   -7.14 KCAL/MOL
REMARK 924 INTRA-LIGAND FREE ENERGY PREDICTED BY IDOCK:   -1.51 KCAL/MOL
REMARK 927      BINDING AFFINITY PREDICTED BY RF-SCORE:    0.00 PKD
ROOT
HETATM    1  C   UNL     1      -9.205  10.419  65.692  1.00  0.00    -0.220 C  
HETATM    2  C   UNL     1      -8.521   9.028  65.988  1.00  0.00    -0.130 C  
HETATM    3  C   UNL     1      -8.245   8.067  64.816  1.00  0.00    -0.124 C  
HETATM    4  C   UNL     1     -11.075  12.201  66.210  1.00  0.00    -0.353 C  
HETATM    5  C   UNL     1      -8.065   8.698  63.445  1.00  0.00    -0.168 C  
HETATM    6  C   UNL     1     -11.427  12.097  64.756  1.00  0.00    -0.377 C  
HETATM    7  C   UNL     1     -10.426  13.593  66.326  1.00  0.00    -0.291 C  
HETATM    8  C   UNL     1     -10.741  11.375  63.870  1.00  0.00    -0.462 C  
HETATM    9  C   UNL     1      -9.075   9.786  63.239  1.00  0.00    -0.267 C  
HETATM   10  C   UNL     1      -8.260   7.588  62.394  1.00  0.00    -0.089 C  
HETATM   11  C   UNL     1      -9.644  10.504  64.226  1.00  0.00    -0.364 C  
HETATM   12  C   UNL     1     -10.303  10.921  66.725  1.00  0.00    -0.289 C  
ENDROOT
BRANCH   2  13
HETATM   13  O   UNL     1      -9.125   8.257  67.041  1.00  0.00    -0.137 OA 
BRANCH  13  14
HETATM   14  C   UNL     1      -8.395   7.279  67.641  1.00  0.00    -0.117 C  
HETATM   15  O   UNL     1      -7.219   7.375  67.993  1.00  0.00    -0.085 OA 
BRANCH  14  16
HETATM   16  C   UNL     1      -9.194   5.986  67.800  1.00  0.00    -0.107 C  
HETATM   17  C   UNL     1      -8.886   5.262  69.122  1.00  0.00    -0.113 C  
HETATM   18  C   UNL     1     -10.663   6.432  67.752  1.00  0.00    -0.377 C  
BRANCH  16  19
HETATM   19  C   UNL     1      -8.848   5.061  66.604  1.00  0.00    -0.111 C  
HETATM   20  C   UNL     1      -8.796   3.580  66.959  1.00  0.00    -0.143 C  
ENDBRANCH  16  19
ENDBRANCH  14  16
ENDBRANCH  13  14
ENDBRANCH   2  13
BRANCH  12  21
HETATM   21  C   UNL     1      -9.856  10.993  68.246  1.00  0.00    -0.185 C  
BRANCH  21  22
HETATM   22  C   UNL     1     -11.024  11.008  69.222  1.00  0.00    -0.305 C  
BRANCH  22  23
HETATM   23  C   UNL     1     -11.282   9.980  70.315  1.00  0.00    -0.313 C  
HETATM   24  C   UNL     1     -10.607   8.634  70.222  1.00  0.00    -0.240 C  
HETATM   25  C   UNL     1     -10.780   7.968  71.587  1.00  0.00    -0.232 C  
HETATM   26  O   UNL     1      -9.919   8.581  72.551  1.00  0.00    -0.293 OA 
HETATM   27  C   UNL     1     -12.230   7.974  72.061  1.00  0.00    -0.374 C  
HETATM   28  C   UNL     1     -13.001   9.231  71.729  1.00  0.00    -0.396 C  
HETATM   29  H   UNL     1     -10.026   8.167  73.399  1.00  0.00     0.000 HD 
HETATM   30  O   UNL     1     -13.938   9.630  72.410  1.00  0.00    -0.327 OA 
HETATM   31  O   UNL     1     -12.687   9.803  70.533  1.00  0.00    -0.147 OA 
ENDBRANCH  22  23
ENDBRANCH  21  22
ENDBRANCH  12  21
TORSDOF 7
ENDMDL
MODEL      112
REMARK 921   NORMALIZED FREE ENERGY PREDICTED BY IDOCK:   -5.07 KCAL/MOL
REMARK 922        TOTAL FREE ENERGY PREDICTED BY IDOCK:   -8.64 KCAL/MOL
REMARK 923 INTER-LIGAND FREE ENERGY PREDICTED BY IDOCK:   -7.34 KCAL/MOL
REMARK 924 INTRA-LIGAND FREE ENERGY PREDICTED BY IDOCK:   -1.30 KCAL/MOL
REMARK 927      BINDING AFFINITY PREDICTED BY RF-SCORE:    0.00 PKD
ROOT
HETATM    1  C   UNL     1      -9.742   9.167  68.142  1.00  0.00    -0.174 C  
HETATM    2  C   UNL     1     -10.495   7.880  67.625  1.00  0.00    -0.234 C  
HETATM    3  C   UNL     1     -10.891   6.789  68.638  1.00  0.00    -0.277 C  
HETATM    4  C   UNL     1      -7.740  10.871  67.960  1.00  0.00    -0.101 C  
HETATM    5  C   UNL     1     -11.102   7.237  70.075  1.00  0.00    -0.262 C  
HETATM    6  C   UNL     1      -7.471  10.545  69.398  1.00  0.00    -0.141 C  
HETATM    7  C   UNL     1      -8.295  12.306  68.012  1.00  0.00    -0.165 C  
HETATM    8  C   UNL     1      -8.246   9.757  70.144  1.00  0.00    -0.202 C  
HETATM    9  C   UNL     1     -10.038   8.215  70.474  1.00  0.00    -0.201 C  
HETATM   10  C   UNL     1     -11.031   5.983  70.968  1.00  0.00    -0.350 C  
HETATM   11  C   UNL     1      -9.375   9.020  69.623  1.00  0.00    -0.169 C  
HETATM   12  C   UNL     1      -8.562   9.729  67.238  1.00  0.00    -0.128 C  
ENDROOT
BRANCH   2  13
HETATM   13  O   UNL     1      -9.886   7.221  66.501  1.00  0.00    -0.193 OA 
BRANCH  13  14
HETATM   14  C   UNL     1      -8.920   6.292  66.729  1.00  0.00    -0.125 C  
HETATM   15  O   UNL     1      -7.908   6.460  67.411  1.00  0.00    -0.102 OA 
BRANCH  14  16
HETATM   16  C   UNL     1      -9.202   4.983  65.991  1.00  0.00    -0.154 C  
HETATM   17  C   UNL     1     -10.703   4.764  65.732  1.00  0.00    -0.220 C  
HETATM   18  C   UNL     1      -8.433   5.113  64.668  1.00  0.00    -0.146 C  
BRANCH  16  19
HETATM   19  C   UNL     1      -8.646   3.819  66.854  1.00  0.00    -0.109 C  
HETATM   20  C   UNL     1      -9.590   3.360  67.959  1.00  0.00    -0.160 C  
ENDBRANCH  16  19
ENDBRANCH  14  16
ENDBRANCH  13  14
ENDBRANCH   2  13
BRANCH  12  21
HETATM   21  C   UNL     1      -8.925  10.040  65.723  1.00  0.00    -0.187 C  
BRANCH  21  22
HETATM   22  C   UNL     1     -10.396  10.360  65.505  1.00  0.00    -0.265 C  
BRANCH  22  23
HETATM   23  C   UNL     1     -11.012  11.752  65.506  1.00  0.00    -0.290 C  
HETATM   24  C   UNL     1     -11.590  12.291  66.791  1.00  0.00    -0.434 C  
HETATM   25  C   UNL     1     -11.816  13.788  66.569  1.00  0.00    -0.407 C  
HETATM   26  O   UNL     1     -10.567  14.484  66.580  1.00  0.00    -0.289 OA 
HETATM   27  C   UNL     1     -12.599  14.078  65.293  1.00  0.00    -0.495 C  
HETATM   28  C   UNL     1     -12.260  13.182  64.123  1.00  0.00    -0.398 C  
HETATM   29  H   UNL     1     -10.707  15.414  66.442  1.00  0.00     0.000 HD 
HETATM   30  O   UNL     1     -12.378  13.545  62.959  1.00  0.00    -0.661 OA 
HETATM   31  O   UNL     1     -11.969  11.892  64.449  1.00  0.00    -0.300 OA 
ENDBRANCH  22  23
ENDBRANCH  21  22
ENDBRANCH  12  21
TORSDOF 7
ENDMDL
MODEL      113
REMARK 921   NORMALIZED FREE ENERGY PREDICTED BY IDOCK:   -5.07 KCAL/MOL
REMARK 922        TOTAL FREE ENERGY PREDICTED BY IDOCK:   -8.64 KCAL/MOL
REMARK 923 INTER-LIGAND FREE ENERGY PREDICTED BY IDOCK:   -7.36 KCAL/MOL
REMARK 924 INTRA-LIGAND FREE ENERGY PREDICTED BY IDOCK:   -1.28 KCAL/MOL
REMARK 927      BINDING AFFINITY PREDICTED BY RF-SCORE:    0.00 PKD
ROOT
HETATM    1  C   UNL     1      -7.791  13.092  67.461  1.00  0.00    -0.178 C  
HETATM    2  C   UNL     1      -9.044  13.813  66.829  1.00  0.00    -0.221 C  
HETATM    3  C   UNL     1      -9.321  15.284  67.192  1.00  0.00    -0.227 C  
HETATM    4  C   UNL     1      -6.740  11.045  68.744  1.00  0.00    -0.065 C  
HETATM    5  C   UNL     1      -8.122  16.121  67.606  1.00  0.00    -0.163 C  
HETATM    6  C   UNL     1      -6.231  12.057  69.726  1.00  0.00    -0.136 C  
HETATM    7  C   UNL     1      -5.469  10.586  68.006  1.00  0.00    -0.036 C  
HETATM    8  C   UNL     1      -6.364  13.376  69.577  1.00  0.00    -0.106 C  
HETATM    9  C   UNL     1      -7.225  15.330  68.511  1.00  0.00    -0.114 C  
HETATM   10  C   UNL     1      -8.655  17.364  68.345  1.00  0.00    -0.270 C  
HETATM   11  C   UNL     1      -7.124  13.987  68.511  1.00  0.00    -0.102 C  
HETATM   12  C   UNL     1      -7.981  11.584  67.927  1.00  0.00    -0.126 C  
ENDROOT
BRANCH   2  13
HETATM   13  O   UNL     1     -10.288  13.101  66.947  1.00  0.00    -0.244 OA 
BRANCH  13  14
HETATM   14  C   UNL     1     -11.422  13.676  66.465  1.00  0.00    -0.335 C  
HETATM   15  O   UNL     1     -12.258  14.287  67.132  1.00  0.00    -0.410 OA 
BRANCH  14  16
HETATM   16  C   UNL     1     -11.585  13.443  64.962  1.00  0.00    -0.339 C  
HETATM   17  C   UNL     1     -12.844  12.624  64.628  1.00  0.00    -0.361 C  
HETATM   18  C   UNL     1     -11.675  14.853  64.361  1.00  0.00    -0.338 C  
BRANCH  16  19
HETATM   19  C   UNL     1     -10.325  12.694  64.456  1.00  0.00    -0.369 C  
HETATM   20  C   UNL     1     -10.631  11.470  63.602  1.00  0.00    -0.491 C  
ENDBRANCH  16  19
ENDBRANCH  14  16
ENDBRANCH  13  14
ENDBRANCH   2  13
BRANCH  12  21
HETATM   21  C   UNL     1      -8.534  10.575  66.832  1.00  0.00    -0.125 C  
BRANCH  21  22
HETATM   22  C   UNL     1      -9.702   9.731  67.320  1.00  0.00    -0.213 C  
BRANCH  22  23
HETATM   23  C   UNL     1     -10.350   9.820  68.695  1.00  0.00    -0.201 C  
HETATM   24  C   UNL     1     -10.764   8.546  69.388  1.00  0.00    -0.166 C  
HETATM   25  C   UNL     1     -11.057   8.919  70.842  1.00  0.00    -0.271 C  
HETATM   26  O   UNL     1      -9.837   9.165  71.546  1.00  0.00    -0.304 OA 
HETATM   27  C   UNL     1     -12.011  10.103  70.961  1.00  0.00    -0.474 C  
HETATM   28  C   UNL     1     -11.809  11.187  69.927  1.00  0.00    -0.363 C  
HETATM   29  H   UNL     1     -10.018   9.397  72.449  1.00  0.00     0.000 HD 
HETATM   30  O   UNL     1     -12.091  12.360  70.138  1.00  0.00    -0.335 OA 
HETATM   31  O   UNL     1     -11.442  10.746  68.691  1.00  0.00    -0.273 OA 
ENDBRANCH  22  23
ENDBRANCH  21  22
ENDBRANCH  12  21
TORSDOF 7
ENDMDL
MODEL      114
REMARK 921   NORMALIZED FREE ENERGY PREDICTED BY IDOCK:   -5.07 KCAL/MOL
REMARK 922        TOTAL FREE ENERGY PREDICTED BY IDOCK:   -8.63 KCAL/MOL
REMARK 923 INTER-LIGAND FREE ENERGY PREDICTED BY IDOCK:   -7.81 KCAL/MOL
REMARK 924 INTRA-LIGAND FREE ENERGY PREDICTED BY IDOCK:   -0.83 KCAL/MOL
REMARK 927      BINDING AFFINITY PREDICTED BY RF-SCORE:    0.00 PKD
ROOT
HETATM    1  C   UNL     1      -9.522  15.641  67.911  1.00  0.00    -0.204 C  
HETATM    2  C   UNL     1     -11.009  16.140  68.082  1.00  0.00    -0.341 C  
HETATM    3  C   UNL     1     -11.272  17.640  68.314  1.00  0.00     0.336 C  
HETATM    4  C   UNL     1      -7.578  13.989  68.568  1.00  0.00    -0.130 C  
HETATM    5  C   UNL     1     -10.230  18.606  67.777  1.00  0.00    -0.427 C  
HETATM    6  C   UNL     1      -6.777  15.220  68.868  1.00  0.00    -0.115 C  
HETATM    7  C   UNL     1      -6.929  13.439  67.285  1.00  0.00     0.035 C  
HETATM    8  C   UNL     1      -7.200  16.463  68.638  1.00  0.00    -0.178 C  
HETATM    9  C   UNL     1      -8.851  18.083  68.047  1.00  0.00    -0.278 C  
HETATM   10  C   UNL     1     -10.434  19.956  68.492  1.00  0.00    -0.341 C  
HETATM   11  C   UNL     1      -8.535  16.782  68.185  1.00  0.00    -0.213 C  
HETATM   12  C   UNL     1      -9.133  14.270  68.613  1.00  0.00    -0.160 C  
ENDROOT
BRANCH   2  13
HETATM   13  O   UNL     1     -11.797  15.413  69.041  1.00  0.00    -0.343 OA 
BRANCH  13  14
HETATM   14  C   UNL     1     -11.642  15.691  70.363  1.00  0.00    -0.349 C  
HETATM   15  O   UNL     1     -10.889  16.545  70.834  1.00  0.00     0.020 OA 
BRANCH  14  16
HETATM   16  C   UNL     1     -12.491  14.773  71.242  1.00  0.00    -0.391 C  
HETATM   17  C   UNL     1     -13.954  15.240  71.339  1.00  0.00    -0.601 C  
HETATM   18  C   UNL     1     -12.401  13.398  70.564  1.00  0.00    -0.401 C  
BRANCH  16  19
HETATM   19  C   UNL     1     -11.856  14.746  72.657  1.00  0.00    -0.212 C  
HETATM   20  C   UNL     1     -12.774  15.261  73.759  1.00  0.00    -0.697 C  
ENDBRANCH  16  19
ENDBRANCH  14  16
ENDBRANCH  13  14
ENDBRANCH   2  13
BRANCH  12  21
HETATM   21  C   UNL     1     -10.036  13.015  68.252  1.00  0.00    -0.239 C  
BRANCH  21  22
HETATM   22  C   UNL     1     -10.487  12.990  66.799  1.00  0.00    -0.264 C  
BRANCH  22  23
HETATM   23  C   UNL     1      -9.950  12.062  65.718  1.00  0.00    -0.241 C  
HETATM   24  C   UNL     1     -10.856  11.674  64.576  1.00  0.00    -0.383 C  
HETATM   25  C   UNL     1      -9.962  11.039  63.511  1.00  0.00    -0.370 C  
HETATM   26  O   UNL     1      -9.190  12.043  62.847  1.00  0.00    -0.591 OA 
HETATM   27  C   UNL     1      -9.068   9.940  64.077  1.00  0.00    -0.300 C  
HETATM   28  C   UNL     1      -8.520  10.218  65.458  1.00  0.00    -0.162 C  
HETATM   29  H   UNL     1      -8.635  11.649  62.185  1.00  0.00     0.000 HD 
HETATM   30  O   UNL     1      -7.456   9.754  65.851  1.00  0.00    -0.097 OA 
HETATM   31  O   UNL     1      -9.363  10.888  66.291  1.00  0.00    -0.170 OA 
ENDBRANCH  22  23
ENDBRANCH  21  22
ENDBRANCH  12  21
TORSDOF 7
ENDMDL
MODEL      115
REMARK 921   NORMALIZED FREE ENERGY PREDICTED BY IDOCK:   -5.06 KCAL/MOL
REMARK 922        TOTAL FREE ENERGY PREDICTED BY IDOCK:   -8.62 KCAL/MOL
REMARK 923 INTER-LIGAND FREE ENERGY PREDICTED BY IDOCK:   -7.70 KCAL/MOL
REMARK 924 INTRA-LIGAND FREE ENERGY PREDICTED BY IDOCK:   -0.93 KCAL/MOL
REMARK 927      BINDING AFFINITY PREDICTED BY RF-SCORE:    0.00 PKD
ROOT
HETATM    1  C   UNL     1      -9.395  12.496  68.915  1.00  0.00     0.266 C  
HETATM    2  C   UNL     1     -10.821  12.017  68.440  1.00  0.00    -0.233 C  
HETATM    3  C   UNL     1     -11.078  10.510  68.250  1.00  0.00    -0.340 C  
HETATM    4  C   UNL     1      -7.293  14.058  68.618  1.00  0.00    -0.120 C  
HETATM    5  C   UNL     1     -10.221   9.564  69.075  1.00  0.00    -0.211 C  
HETATM    6  C   UNL     1      -6.490  12.792  68.591  1.00  0.00    -0.079 C  
HETATM    7  C   UNL     1      -6.935  14.684  69.979  1.00  0.00    -0.058 C  
HETATM    8  C   UNL     1      -6.999  11.578  68.798  1.00  0.00    -0.096 C  
HETATM    9  C   UNL     1      -8.799  10.038  69.096  1.00  0.00    -0.171 C  
HETATM   10  C   UNL     1     -10.305   8.171  68.420  1.00  0.00    -0.236 C  
HETATM   11  C   UNL     1      -8.413  11.319  68.951  1.00  0.00    -0.062 C  
HETATM   12  C   UNL     1      -8.806  13.806  68.235  1.00  0.00    -0.185 C  
ENDROOT
BRANCH   2  13
HETATM   13  O   UNL     1     -11.341  12.689  67.280  1.00  0.00    -0.281 OA 
BRANCH  13  14
HETATM   14  C   UNL     1     -10.846  12.366  66.056  1.00  0.00    -0.273 C  
HETATM   15  O   UNL     1     -10.007  11.494  65.828  1.00  0.00    -0.216 OA 
BRANCH  14  16
HETATM   16  C   UNL     1     -11.420  13.258  64.954  1.00  0.00    -0.342 C  
HETATM   17  C   UNL     1     -12.768  13.886  65.349  1.00  0.00    -0.525 C  
HETATM   18  C   UNL     1     -10.354  14.342  64.740  1.00  0.00    -0.352 C  
BRANCH  16  19
HETATM   19  C   UNL     1     -11.601  12.387  63.683  1.00  0.00    -0.580 C  
HETATM   20  C   UNL     1     -13.049  12.018  63.385  1.00  0.00    -0.101 C  
ENDBRANCH  16  19
ENDBRANCH  14  16
ENDBRANCH  13  14
ENDBRANCH   2  13
BRANCH  12  21
HETATM   21  C   UNL     1      -9.722  15.102  68.296  1.00  0.00    -0.219 C  
BRANCH  21  22
HETATM   22  C   UNL     1      -9.976  15.598  69.712  1.00  0.00    -0.281 C  
BRANCH  22  23
HETATM   23  C   UNL     1     -11.152  15.203  70.595  1.00  0.00    -0.263 C  
HETATM   24  C   UNL     1     -12.402  14.664  69.944  1.00  0.00    -0.341 C  
HETATM   25  C   UNL     1     -13.246  14.056  71.065  1.00  0.00    -0.227 C  
HETATM   26  O   UNL     1     -12.673  12.820  71.501  1.00  0.00    -0.321 OA 
HETATM   27  C   UNL     1     -13.444  15.015  72.234  1.00  0.00    -0.521 C  
HETATM   28  C   UNL     1     -12.238  15.864  72.569  1.00  0.00    -0.500 C  
HETATM   29  H   UNL     1     -13.197  12.441  72.197  1.00  0.00     0.000 HD 
HETATM   30  O   UNL     1     -12.023  16.286  73.698  1.00  0.00    -0.416 OA 
HETATM   31  O   UNL     1     -11.495  16.260  71.499  1.00  0.00    -0.412 OA 
ENDBRANCH  22  23
ENDBRANCH  21  22
ENDBRANCH  12  21
TORSDOF 7
ENDMDL
MODEL      116
REMARK 921   NORMALIZED FREE ENERGY PREDICTED BY IDOCK:   -5.02 KCAL/MOL
REMARK 922        TOTAL FREE ENERGY PREDICTED BY IDOCK:   -8.57 KCAL/MOL
REMARK 923 INTER-LIGAND FREE ENERGY PREDICTED BY IDOCK:   -7.89 KCAL/MOL
REMARK 924 INTRA-LIGAND FREE ENERGY PREDICTED BY IDOCK:   -0.68 KCAL/MOL
REMARK 927      BINDING AFFINITY PREDICTED BY RF-SCORE:    0.00 PKD
ROOT
HETATM    1  C   UNL     1      -9.773  13.853  67.513  1.00  0.00    -0.232 C  
HETATM    2  C   UNL     1     -11.126  14.508  67.992  1.00  0.00    -0.276 C  
HETATM    3  C   UNL     1     -11.280  16.039  67.926  1.00  0.00    -0.276 C  
HETATM    4  C   UNL     1      -7.748  12.222  67.939  1.00  0.00    -0.133 C  
HETATM    5  C   UNL     1     -10.439  16.764  66.888  1.00  0.00    -0.269 C  
HETATM    6  C   UNL     1      -6.873  13.412  67.682  1.00  0.00    -0.172 C  
HETATM    7  C   UNL     1      -7.538  11.343  66.691  1.00  0.00    -0.119 C  
HETATM    8  C   UNL     1      -7.327  14.605  67.298  1.00  0.00    -0.122 C  
HETATM    9  C   UNL     1      -9.053  16.193  66.854  1.00  0.00    -0.241 C  
HETATM   10  C   UNL     1     -10.389  18.251  67.286  1.00  0.00    -0.407 C  
HETATM   11  C   UNL     1      -8.731  14.932  67.199  1.00  0.00    -0.240 C  
HETATM   12  C   UNL     1      -9.208  12.643  68.375  1.00  0.00    -0.135 C  
ENDROOT
BRANCH   2  13
HETATM   13  O   UNL     1     -11.589  14.086  69.287  1.00  0.00    -0.268 OA 
BRANCH  13  14
HETATM   14  C   UNL     1     -11.352  14.886  70.361  1.00  0.00    -0.243 C  
HETATM   15  O   UNL     1     -10.418  15.680  70.473  1.00  0.00    -0.290 OA 
BRANCH  14  16
HETATM   16  C   UNL     1     -12.372  14.659  71.477  1.00  0.00    -0.415 C  
HETATM   17  C   UNL     1     -11.922  15.264  72.818  1.00  0.00    -0.522 C  
HETATM   18  C   UNL     1     -13.653  15.341  70.973  1.00  0.00    -0.486 C  
BRANCH  16  19
HETATM   19  C   UNL     1     -12.574  13.129  71.635  1.00  0.00    -0.229 C  
HETATM   20  C   UNL     1     -13.822  12.746  72.422  1.00  0.00    -0.360 C  
ENDBRANCH  16  19
ENDBRANCH  14  16
ENDBRANCH  13  14
ENDBRANCH   2  13
BRANCH  12  21
HETATM   21  C   UNL     1     -10.199  11.425  68.611  1.00  0.00    -0.217 C  
BRANCH  21  22
HETATM   22  C   UNL     1      -9.491  10.131  68.984  1.00  0.00    -0.195 C  
BRANCH  22  23
HETATM   23  C   UNL     1      -9.845   8.743  68.467  1.00  0.00    -0.168 C  
HETATM   24  C   UNL     1     -10.184   8.575  67.007  1.00  0.00    -0.371 C  
HETATM   25  C   UNL     1     -10.159   7.072  66.726  1.00  0.00    -0.200 C  
HETATM   26  O   UNL     1      -8.810   6.596  66.696  1.00  0.00    -0.126 OA 
HETATM   27  C   UNL     1     -11.001   6.278  67.719  1.00  0.00    -0.427 C  
HETATM   28  C   UNL     1     -10.949   6.784  69.143  1.00  0.00    -0.244 C  
HETATM   29  H   UNL     1      -8.794   5.663  66.521  1.00  0.00     0.000 HD 
HETATM   30  O   UNL     1     -11.115   6.050  70.110  1.00  0.00    -0.338 OA 
HETATM   31  O   UNL     1     -10.862   8.137  69.273  1.00  0.00    -0.172 OA 
ENDBRANCH  22  23
ENDBRANCH  21  22
ENDBRANCH  12  21
TORSDOF 7
ENDMDL
MODEL      117
REMARK 921   NORMALIZED FREE ENERGY PREDICTED BY IDOCK:   -5.00 KCAL/MOL
REMARK 922        TOTAL FREE ENERGY PREDICTED BY IDOCK:   -8.53 KCAL/MOL
REMARK 923 INTER-LIGAND FREE ENERGY PREDICTED BY IDOCK:   -7.08 KCAL/MOL
REMARK 924 INTRA-LIGAND FREE ENERGY PREDICTED BY IDOCK:   -1.45 KCAL/MOL
REMARK 927      BINDING AFFINITY PREDICTED BY RF-SCORE:    0.00 PKD
ROOT
HETATM    1  C   UNL     1      -8.857   8.181  68.987  1.00  0.00    -0.144 C  
HETATM    2  C   UNL     1      -9.747   8.962  70.029  1.00  0.00    -0.174 C  
HETATM    3  C   UNL     1      -9.402   8.865  71.527  1.00  0.00    -0.335 C  
HETATM    4  C   UNL     1      -8.650   6.536  66.939  1.00  0.00    -0.114 C  
HETATM    5  C   UNL     1      -7.953   8.568  71.875  1.00  0.00    -0.170 C  
HETATM    6  C   UNL     1      -7.740   5.729  67.816  1.00  0.00    -0.097 C  
HETATM    7  C   UNL     1      -7.698   7.148  65.895  1.00  0.00    -0.101 C  
HETATM    8  C   UNL     1      -7.345   6.106  69.032  1.00  0.00    -0.085 C  
HETATM    9  C   UNL     1      -7.406   7.516  70.957  1.00  0.00    -0.071 C  
HETATM   10  C   UNL     1      -7.917   8.069  73.333  1.00  0.00    -0.236 C  
HETATM   11  C   UNL     1      -7.845   7.282  69.706  1.00  0.00    -0.117 C  
HETATM   12  C   UNL     1      -9.609   7.469  67.781  1.00  0.00    -0.166 C  
ENDROOT
BRANCH   2  13
HETATM   13  O   UNL     1     -11.165   8.759  69.903  1.00  0.00    -0.182 OA 
BRANCH  13  14
HETATM   14  C   UNL     1     -11.786   7.908  70.763  1.00  0.00    -0.176 C  
HETATM   15  O   UNL     1     -11.493   6.725  70.941  1.00  0.00    -0.294 OA 
BRANCH  14  16
HETATM   16  C   UNL     1     -12.958   8.578  71.481  1.00  0.00    -0.328 C  
HETATM   17  C   UNL     1     -14.246   7.739  71.414  1.00  0.00    -0.489 C  
HETATM   18  C   UNL     1     -12.483   8.734  72.933  1.00  0.00     0.144 C  
BRANCH  16  19
HETATM   19  C   UNL     1     -13.199   9.959  70.816  1.00  0.00    -0.231 C  
HETATM   20  C   UNL     1     -13.028  11.141  71.763  1.00  0.00    -0.526 C  
ENDBRANCH  16  19
ENDBRANCH  14  16
ENDBRANCH  13  14
ENDBRANCH   2  13
BRANCH  12  21
HETATM   21  C   UNL     1     -10.563   8.388  66.907  1.00  0.00    -0.285 C  
BRANCH  21  22
HETATM   22  C   UNL     1      -9.917   9.698  66.478  1.00  0.00    -0.313 C  
BRANCH  22  23
HETATM   23  C   UNL     1     -10.493  11.089  66.706  1.00  0.00    -0.251 C  
HETATM   24  C   UNL     1     -11.553  11.274  67.763  1.00  0.00    -0.307 C  
HETATM   25  C   UNL     1     -11.682  12.781  67.988  1.00  0.00    -0.356 C  
HETATM   26  O   UNL     1     -10.554  13.272  68.718  1.00  0.00    -0.266 OA 
HETATM   27  C   UNL     1     -11.874  13.552  66.686  1.00  0.00    -0.450 C  
HETATM   28  C   UNL     1     -11.076  13.026  65.514  1.00  0.00    -0.275 C  
HETATM   29  H   UNL     1     -10.634  14.208  68.858  1.00  0.00     0.000 HD 
HETATM   30  O   UNL     1     -10.708  13.744  64.592  1.00  0.00    -0.387 OA 
HETATM   31  O   UNL     1     -10.932  11.673  65.474  1.00  0.00    -0.297 OA 
ENDBRANCH  22  23
ENDBRANCH  21  22
ENDBRANCH  12  21
TORSDOF 7
ENDMDL
MODEL      118
REMARK 921   NORMALIZED FREE ENERGY PREDICTED BY IDOCK:   -4.99 KCAL/MOL
REMARK 922        TOTAL FREE ENERGY PREDICTED BY IDOCK:   -8.52 KCAL/MOL
REMARK 923 INTER-LIGAND FREE ENERGY PREDICTED BY IDOCK:   -6.86 KCAL/MOL
REMARK 924 INTRA-LIGAND FREE ENERGY PREDICTED BY IDOCK:   -1.66 KCAL/MOL
REMARK 927      BINDING AFFINITY PREDICTED BY RF-SCORE:    0.00 PKD
ROOT
HETATM    1  C   UNL     1     -11.256   9.901  69.166  1.00  0.00    -0.151 C  
HETATM    2  C   UNL     1     -11.841   9.386  70.537  1.00  0.00    -0.151 C  
HETATM    3  C   UNL     1     -12.389  10.410  71.548  1.00  0.00    -0.468 C  
HETATM    4  C   UNL     1      -9.324   9.934  67.374  1.00  0.00    -0.158 C  
HETATM    5  C   UNL     1     -12.898  11.724  70.979  1.00  0.00    -0.309 C  
HETATM    6  C   UNL     1      -9.334  11.423  67.546  1.00  0.00    -0.166 C  
HETATM    7  C   UNL     1      -9.932   9.728  65.974  1.00  0.00    -0.342 C  
HETATM    8  C   UNL     1     -10.211  12.083  68.303  1.00  0.00    -0.207 C  
HETATM    9  C   UNL     1     -11.973  12.218  69.908  1.00  0.00    -0.377 C  
HETATM   10  C   UNL     1     -12.959  12.740  72.136  1.00  0.00    -0.344 C  
HETATM   11  C   UNL     1     -11.185  11.433  69.150  1.00  0.00    -0.335 C  
HETATM   12  C   UNL     1      -9.942   9.190  68.625  1.00  0.00    -0.185 C  
ENDROOT
BRANCH   2  13
HETATM   13  O   UNL     1     -10.996   8.476  71.264  1.00  0.00    -0.235 OA 
BRANCH  13  14
HETATM   14  C   UNL     1     -11.455   7.225  71.531  1.00  0.00    -0.263 C  
HETATM   15  O   UNL     1     -12.506   6.740  71.109  1.00  0.00    -0.367 OA 
BRANCH  14  16
HETATM   16  C   UNL     1     -10.525   6.466  72.478  1.00  0.00    -0.225 C  
HETATM   17  C   UNL     1      -9.978   7.358  73.606  1.00  0.00    -0.379 C  
HETATM   18  C   UNL     1     -11.395   5.336  73.049  1.00  0.00    -0.376 C  
BRANCH  16  19
HETATM   19  C   UNL     1      -9.348   5.901  71.640  1.00  0.00    -0.162 C  
HETATM   20  C   UNL     1      -9.638   4.552  70.994  1.00  0.00    -0.248 C  
ENDBRANCH  16  19
ENDBRANCH  14  16
ENDBRANCH  13  14
ENDBRANCH   2  13
BRANCH  12  21
HETATM   21  C   UNL     1     -10.007   7.610  68.481  1.00  0.00    -0.190 C  
BRANCH  21  22
HETATM   22  C   UNL     1      -8.723   6.996  67.943  1.00  0.00    -0.125 C  
BRANCH  22  23
HETATM   23  C   UNL     1      -8.621   5.701  67.150  1.00  0.00    -0.109 C  
HETATM   24  C   UNL     1      -8.572   5.771  65.644  1.00  0.00    -0.151 C  
HETATM   25  C   UNL     1      -8.139   4.387  65.159  1.00  0.00    -0.102 C  
HETATM   26  O   UNL     1      -6.747   4.184  65.417  1.00  0.00    -0.049 OA 
HETATM   27  C   UNL     1      -8.980   3.267  65.763  1.00  0.00    -0.145 C  
HETATM   28  C   UNL     1      -9.370   3.476  67.209  1.00  0.00    -0.205 C  
HETATM   29  H   UNL     1      -6.477   3.324  65.116  1.00  0.00     0.000 HD 
HETATM   30  O   UNL     1      -9.580   2.544  67.976  1.00  0.00    -0.198 OA 
HETATM   31  O   UNL     1      -9.628   4.767  67.557  1.00  0.00    -0.141 OA 
ENDBRANCH  22  23
ENDBRANCH  21  22
ENDBRANCH  12  21
TORSDOF 7
ENDMDL
MODEL      119
REMARK 921   NORMALIZED FREE ENERGY PREDICTED BY IDOCK:   -4.98 KCAL/MOL
REMARK 922        TOTAL FREE ENERGY PREDICTED BY IDOCK:   -8.51 KCAL/MOL
REMARK 923 INTER-LIGAND FREE ENERGY PREDICTED BY IDOCK:   -7.35 KCAL/MOL
REMARK 924 INTRA-LIGAND FREE ENERGY PREDICTED BY IDOCK:   -1.15 KCAL/MOL
REMARK 927      BINDING AFFINITY PREDICTED BY RF-SCORE:    0.00 PKD
ROOT
HETATM    1  C   UNL     1      -9.099   9.563  68.497  1.00  0.00    -0.131 C  
HETATM    2  C   UNL     1      -9.349   9.539  70.055  1.00  0.00    -0.234 C  
HETATM    3  C   UNL     1      -8.500   8.602  70.933  1.00  0.00    -0.195 C  
HETATM    4  C   UNL     1     -10.024   9.441  66.033  1.00  0.00    -0.352 C  
HETATM    5  C   UNL     1      -7.124   8.232  70.404  1.00  0.00    -0.037 C  
HETATM    6  C   UNL     1      -9.046   8.322  65.834  1.00  0.00    -0.203 C  
HETATM    7  C   UNL     1      -9.423  10.597  65.212  1.00  0.00    -0.270 C  
HETATM    8  C   UNL     1      -8.157   7.935  66.749  1.00  0.00    -0.108 C  
HETATM    9  C   UNL     1      -7.195   7.946  68.933  1.00  0.00    -0.076 C  
HETATM   10  C   UNL     1      -6.655   6.976  71.165  1.00  0.00    -0.045 C  
HETATM   11  C   UNL     1      -8.107   8.467  68.092  1.00  0.00    -0.120 C  
HETATM   12  C   UNL     1     -10.379   9.654  67.559  1.00  0.00    -0.297 C  
ENDROOT
BRANCH   2  13
HETATM   13  O   UNL     1     -10.720   9.376  70.456  1.00  0.00    -0.232 OA 
BRANCH  13  14
HETATM   14  C   UNL     1     -11.222   8.119  70.583  1.00  0.00    -0.260 C  
HETATM   15  O   UNL     1     -11.038   7.189  69.797  1.00  0.00    -0.254 OA 
BRANCH  14  16
HETATM   16  C   UNL     1     -12.109   7.981  71.821  1.00  0.00    -0.344 C  
HETATM   17  C   UNL     1     -12.997   9.217  72.050  1.00  0.00    -0.496 C  
HETATM   18  C   UNL     1     -12.966   6.737  71.545  1.00  0.00    -0.281 C  
BRANCH  16  19
HETATM   19  C   UNL     1     -11.184   7.767  73.048  1.00  0.00    -0.380 C  
HETATM   20  C   UNL     1     -10.804   6.312  73.292  1.00  0.00    -0.269 C  
ENDBRANCH  16  19
ENDBRANCH  14  16
ENDBRANCH  13  14
ENDBRANCH   2  13
BRANCH  12  21
HETATM   21  C   UNL     1     -11.371  10.861  67.839  1.00  0.00    -0.380 C  
BRANCH  21  22
HETATM   22  C   UNL     1     -10.699  12.060  68.493  1.00  0.00    -0.261 C  
BRANCH  22  23
HETATM   23  C   UNL     1      -9.817  13.079  67.785  1.00  0.00    -0.224 C  
HETATM   24  C   UNL     1      -8.752  13.794  68.578  1.00  0.00    -0.118 C  
HETATM   25  C   UNL     1      -7.837  14.476  67.559  1.00  0.00    -0.193 C  
HETATM   26  O   UNL     1      -7.013  13.506  66.906  1.00  0.00    -0.356 OA 
HETATM   27  C   UNL     1      -8.612  15.312  66.546  1.00  0.00    -0.264 C  
HETATM   28  C   UNL     1      -9.928  14.713  66.102  1.00  0.00    -0.304 C  
HETATM   29  H   UNL     1      -6.445  13.929  66.273  1.00  0.00     0.000 HD 
HETATM   30  O   UNL     1     -10.417  14.940  65.003  1.00  0.00    -0.393 OA 
HETATM   31  O   UNL     1     -10.608  14.034  67.067  1.00  0.00    -0.276 OA 
ENDBRANCH  22  23
ENDBRANCH  21  22
ENDBRANCH  12  21
TORSDOF 7
ENDMDL
MODEL      120
REMARK 921   NORMALIZED FREE ENERGY PREDICTED BY IDOCK:   -4.97 KCAL/MOL
REMARK 922        TOTAL FREE ENERGY PREDICTED BY IDOCK:   -8.50 KCAL/MOL
REMARK 923 INTER-LIGAND FREE ENERGY PREDICTED BY IDOCK:   -7.79 KCAL/MOL
REMARK 924 INTRA-LIGAND FREE ENERGY PREDICTED BY IDOCK:   -0.71 KCAL/MOL
REMARK 927      BINDING AFFINITY PREDICTED BY RF-SCORE:    0.00 PKD
ROOT
HETATM    1  C   UNL     1      -8.354  16.104  67.032  1.00  0.00    -0.247 C  
HETATM    2  C   UNL     1      -9.572  16.440  66.087  1.00  0.00    -0.325 C  
HETATM    3  C   UNL     1     -10.200  17.844  66.149  1.00  0.00    -0.343 C  
HETATM    4  C   UNL     1      -7.199  14.524  68.797  1.00  0.00    -0.126 C  
HETATM    5  C   UNL     1      -9.298  18.975  66.614  1.00  0.00    -0.360 C  
HETATM    6  C   UNL     1      -7.107  15.741  69.668  1.00  0.00    -0.150 C  
HETATM    7  C   UNL     1      -5.741  14.274  68.371  1.00  0.00    -0.106 C  
HETATM    8  C   UNL     1      -7.465  16.966  69.282  1.00  0.00    -0.116 C  
HETATM    9  C   UNL     1      -8.463  18.526  67.776  1.00  0.00    -0.285 C  
HETATM   10  C   UNL     1     -10.203  20.149  67.035  1.00  0.00    -0.558 C  
HETATM   11  C   UNL     1      -8.101  17.252  68.016  1.00  0.00    -0.221 C  
HETATM   12  C   UNL     1      -8.332  14.663  67.703  1.00  0.00    -0.186 C  
ENDROOT
BRANCH   2  13
HETATM   13  O   UNL     1     -10.649  15.487  66.110  1.00  0.00    -0.298 OA 
BRANCH  13  14
HETATM   14  C   UNL     1     -11.292  15.195  64.948  1.00  0.00    -0.399 C  
HETATM   15  O   UNL     1     -11.655  16.015  64.103  1.00  0.00    -0.527 OA 
BRANCH  14  16
HETATM   16  C   UNL     1     -11.572  13.699  64.810  1.00  0.00    -0.374 C  
HETATM   17  C   UNL     1     -10.310  12.895  64.452  1.00  0.00    -0.393 C  
HETATM   18  C   UNL     1     -12.113  13.280  66.185  1.00  0.00    -0.477 C  
BRANCH  16  19
HETATM   19  C   UNL     1     -12.643  13.513  63.703  1.00  0.00    -0.121 C  
HETATM   20  C   UNL     1     -12.986  12.058  63.409  1.00  0.00    -0.282 C  
ENDBRANCH  16  19
ENDBRANCH  14  16
ENDBRANCH  13  14
ENDBRANCH   2  13
BRANCH  12  21
HETATM   21  C   UNL     1      -8.444  13.426  66.714  1.00  0.00     0.021 C  
BRANCH  21  22
HETATM   22  C   UNL     1      -7.876  12.137  67.289  1.00  0.00    -0.176 C  
BRANCH  22  23
HETATM   23  C   UNL     1      -8.673  11.056  68.006  1.00  0.00    -0.138 C  
HETATM   24  C   UNL     1      -8.023   9.718  68.255  1.00  0.00    -0.096 C  
HETATM   25  C   UNL     1      -8.913   8.985  69.260  1.00  0.00    -0.144 C  
HETATM   26  O   UNL     1      -8.759   9.551  70.564  1.00  0.00    -0.228 OA 
HETATM   27  C   UNL     1     -10.379   8.965  68.837  1.00  0.00    -0.229 C  
HETATM   28  C   UNL     1     -10.866  10.236  68.179  1.00  0.00    -0.265 C  
HETATM   29  H   UNL     1      -9.312   9.096  71.189  1.00  0.00     0.000 HD 
HETATM   30  O   UNL     1     -12.035  10.599  68.232  1.00  0.00    -0.462 OA 
HETATM   31  O   UNL     1      -9.952  10.866  67.390  1.00  0.00    -0.180 OA 
ENDBRANCH  22  23
ENDBRANCH  21  22
ENDBRANCH  12  21
TORSDOF 7
ENDMDL
MODEL      121
REMARK 921   NORMALIZED FREE ENERGY PREDICTED BY IDOCK:   -4.93 KCAL/MOL
REMARK 922        TOTAL FREE ENERGY PREDICTED BY IDOCK:   -8.44 KCAL/MOL
REMARK 923 INTER-LIGAND FREE ENERGY PREDICTED BY IDOCK:   -6.79 KCAL/MOL
REMARK 924 INTRA-LIGAND FREE ENERGY PREDICTED BY IDOCK:   -1.64 KCAL/MOL
REMARK 927      BINDING AFFINITY PREDICTED BY RF-SCORE:    0.00 PKD
ROOT
HETATM    1  C   UNL     1      -7.262  12.336  68.022  1.00  0.00    -0.102 C  
HETATM    2  C   UNL     1      -8.005  13.528  67.302  1.00  0.00    -0.112 C  
HETATM    3  C   UNL     1      -7.502  14.966  67.527  1.00  0.00    -0.224 C  
HETATM    4  C   UNL     1      -7.339  10.159  69.504  1.00  0.00    -0.123 C  
HETATM    5  C   UNL     1      -6.035  15.126  67.890  1.00  0.00    -0.165 C  
HETATM    6  C   UNL     1      -6.368  10.865  70.402  1.00  0.00    -0.090 C  
HETATM    7  C   UNL     1      -6.485   9.065  68.836  1.00  0.00    -0.048 C  
HETATM    8  C   UNL     1      -5.829  12.054  70.134  1.00  0.00    -0.162 C  
HETATM    9  C   UNL     1      -5.629  14.076  68.880  1.00  0.00    -0.082 C  
HETATM   10  C   UNL     1      -5.858  16.529  68.504  1.00  0.00    -0.120 C  
HETATM   11  C   UNL     1      -6.210  12.868  69.002  1.00  0.00    -0.095 C  
HETATM   12  C   UNL     1      -8.166  11.172  68.615  1.00  0.00    -0.152 C  
ENDROOT
BRANCH   2  13
HETATM   13  O   UNL     1      -9.434  13.545  67.456  1.00  0.00    -0.209 OA 
BRANCH  13  14
HETATM   14  C   UNL     1     -10.207  13.866  66.384  1.00  0.00    -0.292 C  
HETATM   15  O   UNL     1      -9.849  14.538  65.416  1.00  0.00    -0.334 OA 
BRANCH  14  16
HETATM   16  C   UNL     1     -11.631  13.328  66.525  1.00  0.00    -0.392 C  
HETATM   17  C   UNL     1     -11.998  13.009  67.985  1.00  0.00    -0.335 C  
HETATM   18  C   UNL     1     -12.523  14.448  65.970  1.00  0.00    -0.305 C  
BRANCH  16  19
HETATM   19  C   UNL     1     -11.742  12.041  65.665  1.00  0.00    -0.312 C  
HETATM   20  C   UNL     1     -12.309  12.275  64.270  1.00  0.00    -0.519 C  
ENDBRANCH  16  19
ENDBRANCH  14  16
ENDBRANCH  13  14
ENDBRANCH   2  13
BRANCH  12  21
HETATM   21  C   UNL     1      -9.177  10.482  67.603  1.00  0.00    -0.153 C  
BRANCH  21  22
HETATM   22  C   UNL     1     -10.421   9.922  68.276  1.00  0.00    -0.246 C  
BRANCH  22  23
HETATM   23  C   UNL     1     -10.630   8.472  68.694  1.00  0.00    -0.118 C  
HETATM   24  C   UNL     1     -10.328   8.074  70.117  1.00  0.00    -0.215 C  
HETATM   25  C   UNL     1     -10.939   6.687  70.317  1.00  0.00    -0.303 C  
HETATM   26  O   UNL     1     -12.363   6.782  70.413  1.00  0.00    -0.584 OA 
HETATM   27  C   UNL     1     -10.523   5.702  69.229  1.00  0.00    -0.356 C  
HETATM   28  C   UNL     1     -10.427   6.294  67.841  1.00  0.00    -0.230 C  
HETATM   29  H   UNL     1     -12.743   5.920  70.538  1.00  0.00     0.000 HD 
HETATM   30  O   UNL     1     -10.605   5.629  66.828  1.00  0.00    -0.262 OA 
HETATM   31  O   UNL     1      -9.972   7.576  67.790  1.00  0.00    -0.155 OA 
ENDBRANCH  22  23
ENDBRANCH  21  22
ENDBRANCH  12  21
TORSDOF 7
ENDMDL
MODEL      122
REMARK 921   NORMALIZED FREE ENERGY PREDICTED BY IDOCK:   -4.93 KCAL/MOL
REMARK 922        TOTAL FREE ENERGY PREDICTED BY IDOCK:   -8.43 KCAL/MOL
REMARK 923 INTER-LIGAND FREE ENERGY PREDICTED BY IDOCK:   -6.70 KCAL/MOL
REMARK 924 INTRA-LIGAND FREE ENERGY PREDICTED BY IDOCK:   -1.73 KCAL/MOL
REMARK 927      BINDING AFFINITY PREDICTED BY RF-SCORE:    0.00 PKD
ROOT
HETATM    1  C   UNL     1     -10.971  12.697  66.498  1.00  0.00    -0.302 C  
HETATM    2  C   UNL     1     -10.054  12.670  67.782  1.00  0.00    -0.220 C  
HETATM    3  C   UNL     1     -10.375  13.621  68.950  1.00  0.00    -0.127 C  
HETATM    4  C   UNL     1     -11.232  12.841  63.880  1.00  0.00    -0.491 C  
HETATM    5  C   UNL     1     -11.822  14.064  69.089  1.00  0.00    -0.391 C  
HETATM    6  C   UNL     1     -12.138  14.007  64.142  1.00  0.00    -0.456 C  
HETATM    7  C   UNL     1     -12.194  11.735  63.409  1.00  0.00    -0.461 C  
HETATM    8  C   UNL     1     -12.508  14.409  65.358  1.00  0.00    -0.357 C  
HETATM    9  C   UNL     1     -12.397  14.384  67.742  1.00  0.00    -0.022 C  
HETATM   10  C   UNL     1     -11.840  15.319  69.984  1.00  0.00    -0.365 C  
HETATM   11  C   UNL     1     -11.982  13.846  66.580  1.00  0.00    -0.474 C  
HETATM   12  C   UNL     1     -10.248  12.574  65.088  1.00  0.00    -0.299 C  
ENDROOT
BRANCH   2  13
HETATM   13  O   UNL     1      -8.641  12.762  67.531  1.00  0.00    -0.165 OA 
BRANCH  13  14
HETATM   14  C   UNL     1      -7.789  12.031  68.298  1.00  0.00    -0.145 C  
HETATM   15  O   UNL     1      -8.095  11.051  68.978  1.00  0.00    -0.145 OA 
BRANCH  14  16
HETATM   16  C   UNL     1      -6.368  12.594  68.268  1.00  0.00    -0.072 C  
HETATM   17  C   UNL     1      -5.672  12.510  69.637  1.00  0.00    -0.102 C  
HETATM   18  C   UNL     1      -5.634  11.733  67.229  1.00  0.00    -0.115 C  
BRANCH  16  19
HETATM   19  C   UNL     1      -6.451  14.075  67.813  1.00  0.00    -0.181 C  
HETATM   20  C   UNL     1      -6.373  15.080  68.956  1.00  0.00    -0.100 C  
ENDBRANCH  16  19
ENDBRANCH  14  16
ENDBRANCH  13  14
ENDBRANCH   2  13
BRANCH  12  21
HETATM   21  C   UNL     1      -9.297  11.317  64.894  1.00  0.00    -0.181 C  
BRANCH  21  22
HETATM   22  C   UNL     1      -9.960   9.994  65.249  1.00  0.00    -0.368 C  
BRANCH  22  23
HETATM   23  C   UNL     1      -9.331   8.877  66.070  1.00  0.00    -0.242 C  
HETATM   24  C   UNL     1     -10.081   8.340  67.264  1.00  0.00    -0.315 C  
HETATM   25  C   UNL     1      -9.381   7.042  67.667  1.00  0.00    -0.122 C  
HETATM   26  O   UNL     1      -9.684   6.004  66.730  1.00  0.00    -0.142 OA 
HETATM   27  C   UNL     1      -7.875   7.217  67.829  1.00  0.00    -0.114 C  
HETATM   28  C   UNL     1      -7.231   8.143  66.823  1.00  0.00    -0.082 C  
HETATM   29  H   UNL     1      -9.249   5.197  66.981  1.00  0.00     0.000 HD 
HETATM   30  O   UNL     1      -6.063   8.027  66.473  1.00  0.00    -0.046 OA 
HETATM   31  O   UNL     1      -7.991   9.210  66.452  1.00  0.00    -0.099 OA 
ENDBRANCH  22  23
ENDBRANCH  21  22
ENDBRANCH  12  21
TORSDOF 7
ENDMDL
MODEL      123
REMARK 921   NORMALIZED FREE ENERGY PREDICTED BY IDOCK:   -4.92 KCAL/MOL
REMARK 922        TOTAL FREE ENERGY PREDICTED BY IDOCK:   -8.43 KCAL/MOL
REMARK 923 INTER-LIGAND FREE ENERGY PREDICTED BY IDOCK:   -7.33 KCAL/MOL
REMARK 924 INTRA-LIGAND FREE ENERGY PREDICTED BY IDOCK:   -1.09 KCAL/MOL
REMARK 927      BINDING AFFINITY PREDICTED BY RF-SCORE:    0.00 PKD
ROOT
HETATM    1  C   UNL     1     -10.839   7.497  69.315  1.00  0.00    -0.131 C  
HETATM    2  C   UNL     1     -10.324   6.771  68.013  1.00  0.00    -0.189 C  
HETATM    3  C   UNL     1      -9.602   5.417  68.148  1.00  0.00    -0.154 C  
HETATM    4  C   UNL     1     -10.998   9.659  70.813  1.00  0.00    -0.397 C  
HETATM    5  C   UNL     1      -9.945   4.581  69.370  1.00  0.00    -0.212 C  
HETATM    6  C   UNL     1     -10.439   8.808  71.914  1.00  0.00    -0.423 C  
HETATM    7  C   UNL     1     -12.464   9.874  71.232  1.00  0.00    -0.479 C  
HETATM    8  C   UNL     1     -10.211   7.499  71.805  1.00  0.00    -0.216 C  
HETATM    9  C   UNL     1     -10.039   5.454  70.586  1.00  0.00    -0.300 C  
HETATM   10  C   UNL     1      -8.823   3.540  69.551  1.00  0.00    -0.148 C  
HETATM   11  C   UNL     1     -10.358   6.761  70.571  1.00  0.00    -0.226 C  
HETATM   12  C   UNL     1     -10.660   9.075  69.384  1.00  0.00    -0.231 C  
ENDROOT
BRANCH   2  13
HETATM   13  O   UNL     1      -9.544   7.585  67.121  1.00  0.00    -0.143 OA 
BRANCH  13  14
HETATM   14  C   UNL     1      -8.228   7.789  67.399  1.00  0.00    -0.123 C  
HETATM   15  O   UNL     1      -7.695   7.641  68.499  1.00  0.00    -0.113 OA 
BRANCH  14  16
HETATM   16  C   UNL     1      -7.456   8.281  66.175  1.00  0.00    -0.081 C  
HETATM   17  C   UNL     1      -7.731   9.762  65.862  1.00  0.00    -0.105 C  
HETATM   18  C   UNL     1      -5.979   8.066  66.538  1.00  0.00    -0.041 C  
BRANCH  16  19
HETATM   19  C   UNL     1      -7.871   7.405  64.964  1.00  0.00    -0.124 C  
HETATM   20  C   UNL     1      -7.922   8.159  63.641  1.00  0.00    -0.140 C  
ENDBRANCH  16  19
ENDBRANCH  14  16
ENDBRANCH  13  14
ENDBRANCH   2  13
BRANCH  12  21
HETATM   21  C   UNL     1     -11.270   9.905  68.175  1.00  0.00    -0.142 C  
BRANCH  21  22
HETATM   22  C   UNL     1     -10.746  11.331  68.093  1.00  0.00    -0.244 C  
BRANCH  22  23
HETATM   23  C   UNL     1     -11.004  12.308  66.954  1.00  0.00    -0.267 C  
HETATM   24  C   UNL     1     -10.922  11.808  65.533  1.00  0.00    -0.344 C  
HETATM   25  C   UNL     1     -11.545  12.894  64.656  1.00  0.00    -0.346 C  
HETATM   26  O   UNL     1     -12.967  12.900  64.806  1.00  0.00    -0.743 OA 
HETATM   27  C   UNL     1     -10.956  14.275  64.928  1.00  0.00    -0.413 C  
HETATM   28  C   UNL     1     -10.650  14.558  66.382  1.00  0.00    -0.302 C  
HETATM   29  H   UNL     1     -13.354  13.574  64.261  1.00  0.00     0.000 HD 
HETATM   30  O   UNL     1     -10.663  15.690  66.849  1.00  0.00    -0.311 OA 
HETATM   31  O   UNL     1     -10.205  13.489  67.098  1.00  0.00    -0.244 OA 
ENDBRANCH  22  23
ENDBRANCH  21  22
ENDBRANCH  12  21
TORSDOF 7
ENDMDL
MODEL      124
REMARK 921   NORMALIZED FREE ENERGY PREDICTED BY IDOCK:   -4.90 KCAL/MOL
REMARK 922        TOTAL FREE ENERGY PREDICTED BY IDOCK:   -8.40 KCAL/MOL
REMARK 923 INTER-LIGAND FREE ENERGY PREDICTED BY IDOCK:   -7.39 KCAL/MOL
REMARK 924 INTRA-LIGAND FREE ENERGY PREDICTED BY IDOCK:   -1.01 KCAL/MOL
REMARK 927      BINDING AFFINITY PREDICTED BY RF-SCORE:    0.00 PKD
ROOT
HETATM    1  C   UNL     1      -9.508  12.822  68.358  1.00  0.00    -0.162 C  
HETATM    2  C   UNL     1     -11.084  12.768  68.325  1.00  0.00    -0.257 C  
HETATM    3  C   UNL     1     -11.801  11.523  68.880  1.00  0.00    -0.406 C  
HETATM    4  C   UNL     1      -7.210  13.233  67.135  1.00  0.00     0.108 C  
HETATM    5  C   UNL     1     -11.061  10.727  69.942  1.00  0.00    -0.339 C  
HETATM    6  C   UNL     1      -6.839  11.857  67.600  1.00  0.00    -0.112 C  
HETATM    7  C   UNL     1      -6.336  14.156  68.003  1.00  0.00    -0.154 C  
HETATM    8  C   UNL     1      -7.598  11.106  68.398  1.00  0.00    -0.110 C  
HETATM    9  C   UNL     1      -9.611  10.601  69.577  1.00  0.00    -0.060 C  
HETATM   10  C   UNL     1     -11.711   9.332  70.015  1.00  0.00     0.079 C  
HETATM   11  C   UNL     1      -8.931  11.478  68.816  1.00  0.00    -0.053 C  
HETATM   12  C   UNL     1      -8.777  13.439  67.088  1.00  0.00    -0.220 C  
ENDROOT
BRANCH   2  13
HETATM   13  O   UNL     1     -11.685  13.077  67.055  1.00  0.00    -0.345 OA 
BRANCH  13  14
HETATM   14  C   UNL     1     -11.648  12.144  66.067  1.00  0.00    -0.358 C  
HETATM   15  O   UNL     1     -11.425  10.943  66.221  1.00  0.00    -0.057 OA 
BRANCH  14  16
HETATM   16  C   UNL     1     -11.873  12.764  64.687  1.00  0.00    -0.428 C  
HETATM   17  C   UNL     1     -10.557  13.006  63.928  1.00  0.00    -0.292 C  
HETATM   18  C   UNL     1     -12.752  11.747  63.946  1.00  0.00    -0.318 C  
BRANCH  16  19
HETATM   19  C   UNL     1     -12.617  14.111  64.886  1.00  0.00    -0.362 C  
HETATM   20  C   UNL     1     -11.857  15.323  64.359  1.00  0.00    -0.288 C  
ENDBRANCH  16  19
ENDBRANCH  14  16
ENDBRANCH  13  14
ENDBRANCH   2  13
BRANCH  12  21
HETATM   21  C   UNL     1      -9.234  14.896  66.653  1.00  0.00    -0.302 C  
BRANCH  21  22
HETATM   22  C   UNL     1      -9.436  15.844  67.826  1.00  0.00    -0.216 C  
BRANCH  22  23
HETATM   23  C   UNL     1      -9.542  17.360  67.735  1.00  0.00    -0.264 C  
HETATM   24  C   UNL     1      -9.722  18.154  69.006  1.00  0.00    -0.208 C  
HETATM   25  C   UNL     1      -9.460  19.616  68.643  1.00  0.00    -0.348 C  
HETATM   26  O   UNL     1      -8.061  19.834  68.442  1.00  0.00    -0.324 OA 
HETATM   27  C   UNL     1     -10.269  20.071  67.433  1.00  0.00    -0.546 C  
HETATM   28  C   UNL     1     -10.417  19.035  66.341  1.00  0.00    -0.446 C  
HETATM   29  H   UNL     1      -7.898  20.743  68.217  1.00  0.00     0.000 HD 
HETATM   30  O   UNL     1     -10.565  19.335  65.163  1.00  0.00    -0.260 OA 
HETATM   31  O   UNL     1     -10.533  17.750  66.777  1.00  0.00    -0.340 OA 
ENDBRANCH  22  23
ENDBRANCH  21  22
ENDBRANCH  12  21
TORSDOF 7
ENDMDL
MODEL      125
REMARK 921   NORMALIZED FREE ENERGY PREDICTED BY IDOCK:   -4.89 KCAL/MOL
REMARK 922        TOTAL FREE ENERGY PREDICTED BY IDOCK:   -8.38 KCAL/MOL
REMARK 923 INTER-LIGAND FREE ENERGY PREDICTED BY IDOCK:   -7.17 KCAL/MOL
REMARK 924 INTRA-LIGAND FREE ENERGY PREDICTED BY IDOCK:   -1.21 KCAL/MOL
REMARK 927      BINDING AFFINITY PREDICTED BY RF-SCORE:    0.00 PKD
ROOT
HETATM    1  C   UNL     1      -9.907  10.071  67.201  1.00  0.00    -0.231 C  
HETATM    2  C   UNL     1      -9.528   8.560  66.948  1.00  0.00    -0.183 C  
HETATM    3  C   UNL     1      -8.881   8.167  65.607  1.00  0.00    -0.160 C  
HETATM    4  C   UNL     1     -11.663  11.893  67.935  1.00  0.00    -0.368 C  
HETATM    5  C   UNL     1      -8.103   9.252  64.881  1.00  0.00    -0.130 C  
HETATM    6  C   UNL     1     -11.398  12.531  66.605  1.00  0.00    -0.389 C  
HETATM    7  C   UNL     1     -11.000  12.856  68.937  1.00  0.00    -0.271 C  
HETATM    8  C   UNL     1     -10.476  12.106  65.742  1.00  0.00    -0.287 C  
HETATM    9  C   UNL     1      -8.843  10.555  64.951  1.00  0.00    -0.207 C  
HETATM   10  C   UNL     1      -7.947   8.810  63.413  1.00  0.00    -0.161 C  
HETATM   11  C   UNL     1      -9.700  10.900  65.929  1.00  0.00    -0.269 C  
HETATM   12  C   UNL     1     -11.284  10.358  67.942  1.00  0.00    -0.332 C  
ENDROOT
BRANCH   2  13
HETATM   13  O   UNL     1     -10.574   7.610  67.215  1.00  0.00    -0.295 OA 
BRANCH  13  14
HETATM   14  C   UNL     1     -10.279   6.283  67.181  1.00  0.00    -0.196 C  
HETATM   15  O   UNL     1     -10.239   5.581  66.170  1.00  0.00    -0.157 OA 
BRANCH  14  16
HETATM   16  C   UNL     1     -10.038   5.716  68.581  1.00  0.00    -0.240 C  
HETATM   17  C   UNL     1      -8.779   6.301  69.244  1.00  0.00    -0.124 C  
HETATM   18  C   UNL     1     -11.298   6.095  69.373  1.00  0.00    -0.401 C  
BRANCH  16  19
HETATM   19  C   UNL     1      -9.894   4.177  68.454  1.00  0.00    -0.082 C  
HETATM   20  C   UNL     1      -9.135   3.528  69.605  1.00  0.00    -0.204 C  
ENDBRANCH  16  19
ENDBRANCH  14  16
ENDBRANCH  13  14
ENDBRANCH   2  13
BRANCH  12  21
HETATM   21  C   UNL     1     -11.493   9.637  69.341  1.00  0.00     0.048 C  
BRANCH  21  22
HETATM   22  C   UNL     1     -10.246   9.630  70.212  1.00  0.00    -0.333 C  
BRANCH  22  23
HETATM   23  C   UNL     1     -10.020   8.753  71.436  1.00  0.00    -0.283 C  
HETATM   24  C   UNL     1     -11.162   8.541  72.399  1.00  0.00    -0.399 C  
HETATM   25  C   UNL     1     -10.752   7.382  73.308  1.00  0.00    -0.391 C  
HETATM   26  O   UNL     1     -10.830   6.143  72.598  1.00  0.00    -0.221 OA 
HETATM   27  C   UNL     1      -9.369   7.580  73.921  1.00  0.00    -0.301 C  
HETATM   28  C   UNL     1      -8.353   8.217  73.000  1.00  0.00    -0.199 C  
HETATM   29  H   UNL     1     -10.575   5.423  73.162  1.00  0.00     0.000 HD 
HETATM   30  O   UNL     1      -7.150   8.007  73.100  1.00  0.00    -0.092 OA 
HETATM   31  O   UNL     1      -8.850   9.161  72.155  1.00  0.00    -0.314 OA 
ENDBRANCH  22  23
ENDBRANCH  21  22
ENDBRANCH  12  21
TORSDOF 7
ENDMDL
MODEL      126
REMARK 921   NORMALIZED FREE ENERGY PREDICTED BY IDOCK:   -4.86 KCAL/MOL
REMARK 922        TOTAL FREE ENERGY PREDICTED BY IDOCK:   -8.35 KCAL/MOL
REMARK 923 INTER-LIGAND FREE ENERGY PREDICTED BY IDOCK:   -6.91 KCAL/MOL
REMARK 924 INTRA-LIGAND FREE ENERGY PREDICTED BY IDOCK:   -1.43 KCAL/MOL
REMARK 927      BINDING AFFINITY PREDICTED BY RF-SCORE:    0.00 PKD
ROOT
HETATM    1  C   UNL     1      -9.299   9.256  70.509  1.00  0.00    -0.316 C  
HETATM    2  C   UNL     1     -10.417  10.139  69.833  1.00  0.00    -0.275 C  
HETATM    3  C   UNL     1     -11.866  10.032  70.346  1.00  0.00    -0.343 C  
HETATM    4  C   UNL     1      -7.288   7.565  70.303  1.00  0.00    -0.076 C  
HETATM    5  C   UNL     1     -12.047   9.595  71.789  1.00  0.00    -0.446 C  
HETATM    6  C   UNL     1      -8.073   6.684  71.228  1.00  0.00    -0.112 C  
HETATM    7  C   UNL     1      -6.122   8.061  71.178  1.00  0.00    -0.034 C  
HETATM    8  C   UNL     1      -9.223   7.038  71.803  1.00  0.00    -0.145 C  
HETATM    9  C   UNL     1     -11.101   8.478  72.115  1.00  0.00    -0.436 C  
HETATM   10  C   UNL     1     -13.504   9.118  71.952  1.00  0.00    -0.492 C  
HETATM   11  C   UNL     1      -9.918   8.270  71.507  1.00  0.00    -0.260 C  
HETATM   12  C   UNL     1      -8.212   8.604  69.550  1.00  0.00    -0.115 C  
ENDROOT
BRANCH   2  13
HETATM   13  O   UNL     1     -10.465  10.079  68.397  1.00  0.00    -0.185 OA 
BRANCH  13  14
HETATM   14  C   UNL     1     -11.135  11.051  67.721  1.00  0.00    -0.295 C  
HETATM   15  O   UNL     1     -12.263  11.466  67.989  1.00  0.00    -0.607 OA 
BRANCH  14  16
HETATM   16  C   UNL     1     -10.337  11.565  66.522  1.00  0.00    -0.269 C  
HETATM   17  C   UNL     1      -9.086  12.356  66.943  1.00  0.00    -0.211 C  
HETATM   18  C   UNL     1      -9.946  10.298  65.747  1.00  0.00    -0.337 C  
BRANCH  16  19
HETATM   19  C   UNL     1     -11.272  12.473  65.681  1.00  0.00    -0.352 C  
HETATM   20  C   UNL     1     -11.597  11.918  64.299  1.00  0.00    -0.405 C  
ENDBRANCH  16  19
ENDBRANCH  14  16
ENDBRANCH  13  14
ENDBRANCH   2  13
BRANCH  12  21
HETATM   21  C   UNL     1      -7.431   9.602  68.593  1.00  0.00    -0.075 C  
BRANCH  21  22
HETATM   22  C   UNL     1      -6.697   8.904  67.457  1.00  0.00    -0.066 C  
BRANCH  22  23
HETATM   23  C   UNL     1      -7.338   8.020  66.396  1.00  0.00    -0.083 C  
HETATM   24  C   UNL     1      -7.421   6.533  66.640  1.00  0.00    -0.079 C  
HETATM   25  C   UNL     1      -8.387   5.976  65.593  1.00  0.00    -0.145 C  
HETATM   26  O   UNL     1      -9.733   6.330  65.922  1.00  0.00    -0.386 OA 
HETATM   27  C   UNL     1      -8.031   6.417  64.177  1.00  0.00    -0.096 C  
HETATM   28  C   UNL     1      -7.528   7.838  64.062  1.00  0.00    -0.103 C  
HETATM   29  H   UNL     1     -10.333   5.984  65.272  1.00  0.00     0.000 HD 
HETATM   30  O   UNL     1      -7.670   8.508  63.047  1.00  0.00    -0.113 OA 
HETATM   31  O   UNL     1      -6.765   8.267  65.106  1.00  0.00    -0.055 OA 
ENDBRANCH  22  23
ENDBRANCH  21  22
ENDBRANCH  12  21
TORSDOF 7
ENDMDL
MODEL      127
REMARK 921   NORMALIZED FREE ENERGY PREDICTED BY IDOCK:   -4.84 KCAL/MOL
REMARK 922        TOTAL FREE ENERGY PREDICTED BY IDOCK:   -8.31 KCAL/MOL
REMARK 923 INTER-LIGAND FREE ENERGY PREDICTED BY IDOCK:   -7.45 KCAL/MOL
REMARK 924 INTRA-LIGAND FREE ENERGY PREDICTED BY IDOCK:   -0.86 KCAL/MOL
REMARK 927      BINDING AFFINITY PREDICTED BY RF-SCORE:    0.00 PKD
ROOT
HETATM    1  C   UNL     1      -9.741  11.883  68.291  1.00  0.00    -0.200 C  
HETATM    2  C   UNL     1      -9.179  10.409  68.305  1.00  0.00    -0.149 C  
HETATM    3  C   UNL     1      -7.844  10.111  67.597  1.00  0.00    -0.098 C  
HETATM    4  C   UNL     1     -11.719  13.570  67.859  1.00  0.00    -0.392 C  
HETATM    5  C   UNL     1      -6.868  11.269  67.469  1.00  0.00    -0.086 C  
HETATM    6  C   UNL     1     -10.771  14.280  66.938  1.00  0.00    -0.290 C  
HETATM    7  C   UNL     1     -11.838  14.525  69.061  1.00  0.00    -0.354 C  
HETATM    8  C   UNL     1      -9.491  13.945  66.780  1.00  0.00    -0.287 C  
HETATM    9  C   UNL     1      -7.599  12.524  67.094  1.00  0.00    -0.087 C  
HETATM   10  C   UNL     1      -5.852  10.901  66.371  1.00  0.00    -0.123 C  
HETATM   11  C   UNL     1      -8.889  12.778  67.384  1.00  0.00    -0.190 C  
HETATM   12  C   UNL     1     -11.307  12.060  68.083  1.00  0.00    -0.349 C  
ENDROOT
BRANCH   2  13
HETATM   13  O   UNL     1     -10.113   9.391  67.905  1.00  0.00    -0.173 OA 
BRANCH  13  14
HETATM   14  C   UNL     1      -9.817   8.616  66.827  1.00  0.00    -0.253 C  
HETATM   15  O   UNL     1      -9.691   9.015  65.669  1.00  0.00    -0.243 OA 
BRANCH  14  16
HETATM   16  C   UNL     1      -9.698   7.138  67.202  1.00  0.00    -0.212 C  
HETATM   17  C   UNL     1     -10.981   6.348  66.892  1.00  0.00    -0.413 C  
HETATM   18  C   UNL     1      -8.522   6.621  66.361  1.00  0.00    -0.125 C  
BRANCH  16  19
HETATM   19  C   UNL     1      -9.385   7.055  68.719  1.00  0.00    -0.134 C  
HETATM   20  C   UNL     1      -8.818   5.712  69.162  1.00  0.00    -0.111 C  
ENDBRANCH  16  19
ENDBRANCH  14  16
ENDBRANCH  13  14
ENDBRANCH   2  13
BRANCH  12  21
HETATM   21  C   UNL     1     -12.243  11.268  69.091  1.00  0.00    -0.251 C  
BRANCH  21  22
HETATM   22  C   UNL     1     -11.540  10.858  70.377  1.00  0.00    -0.418 C  
BRANCH  22  23
HETATM   23  C   UNL     1     -11.506   9.453  70.962  1.00  0.00    -0.334 C  
HETATM   24  C   UNL     1     -12.791   8.844  71.466  1.00  0.00    -0.383 C  
HETATM   25  C   UNL     1     -12.513   7.354  71.670  1.00  0.00    -0.349 C  
HETATM   26  O   UNL     1     -12.433   6.687  70.407  1.00  0.00    -0.500 OA 
HETATM   27  C   UNL     1     -11.263   7.102  72.506  1.00  0.00    -0.327 C  
HETATM   28  C   UNL     1     -10.120   8.057  72.244  1.00  0.00    -0.246 C  
HETATM   29  H   UNL     1     -12.260   5.762  70.533  1.00  0.00     0.000 HD 
HETATM   30  O   UNL     1      -8.948   7.743  72.409  1.00  0.00    -0.129 OA 
HETATM   31  O   UNL     1     -10.490   9.337  71.965  1.00  0.00    -0.250 OA 
ENDBRANCH  22  23
ENDBRANCH  21  22
ENDBRANCH  12  21
TORSDOF 7
ENDMDL
MODEL      128
REMARK 921   NORMALIZED FREE ENERGY PREDICTED BY IDOCK:   -4.84 KCAL/MOL
REMARK 922        TOTAL FREE ENERGY PREDICTED BY IDOCK:   -8.31 KCAL/MOL
REMARK 923 INTER-LIGAND FREE ENERGY PREDICTED BY IDOCK:   -8.54 KCAL/MOL
REMARK 924 INTRA-LIGAND FREE ENERGY PREDICTED BY IDOCK:    0.22 KCAL/MOL
REMARK 927      BINDING AFFINITY PREDICTED BY RF-SCORE:    0.00 PKD
ROOT
HETATM    1  C   UNL     1     -10.344  11.660  65.454  1.00  0.00    -0.313 C  
HETATM    2  C   UNL     1      -9.635  10.582  66.362  1.00  0.00    -0.177 C  
HETATM    3  C   UNL     1      -8.951   9.375  65.692  1.00  0.00    -0.236 C  
HETATM    4  C   UNL     1     -12.452  13.133  64.881  1.00  0.00    -0.490 C  
HETATM    5  C   UNL     1      -8.462   9.572  64.267  1.00  0.00    -0.193 C  
HETATM    6  C   UNL     1     -12.376  12.521  63.515  1.00  0.00    -0.623 C  
HETATM    7  C   UNL     1     -12.002  14.588  64.651  1.00  0.00    -0.478 C  
HETATM    8  C   UNL     1     -11.404  11.701  63.115  1.00  0.00    -0.153 C  
HETATM    9  C   UNL     1      -9.479  10.335  63.472  1.00  0.00    -0.345 C  
HETATM   10  C   UNL     1      -8.248   8.176  63.651  1.00  0.00    -0.057 C  
HETATM   11  C   UNL     1     -10.367  11.203  63.991  1.00  0.00    -0.437 C  
HETATM   12  C   UNL     1     -11.730  12.243  65.970  1.00  0.00    -0.451 C  
ENDROOT
BRANCH   2  13
HETATM   13  O   UNL     1     -10.427  10.076  67.450  1.00  0.00    -0.225 OA 
BRANCH  13  14
HETATM   14  C   UNL     1      -9.973   9.001  68.148  1.00  0.00    -0.175 C  
HETATM   15  O   UNL     1     -10.320   7.832  67.971  1.00  0.00    -0.200 OA 
BRANCH  14  16
HETATM   16  C   UNL     1      -8.989   9.406  69.245  1.00  0.00    -0.154 C  
HETATM   17  C   UNL     1      -9.583   9.250  70.656  1.00  0.00    -0.334 C  
HETATM   18  C   UNL     1      -7.789   8.468  69.052  1.00  0.00    -0.104 C  
BRANCH  16  19
HETATM   19  C   UNL     1      -8.591  10.886  69.006  1.00  0.00    -0.110 C  
HETATM   20  C   UNL     1      -7.099  11.159  69.156  1.00  0.00    -0.116 C  
ENDBRANCH  16  19
ENDBRANCH  14  16
ENDBRANCH  13  14
ENDBRANCH   2  13
BRANCH  12  21
HETATM   21  C   UNL     1     -11.730  12.864  67.431  1.00  0.00    -0.428 C  
BRANCH  21  22
HETATM   22  C   UNL     1     -11.852  14.381  67.445  1.00  0.00    -0.430 C  
BRANCH  22  23
HETATM   23  C   UNL     1     -10.691  15.366  67.430  1.00  0.00    -0.296 C  
HETATM   24  C   UNL     1      -9.296  14.843  67.191  1.00  0.00    -0.227 C  
HETATM   25  C   UNL     1      -8.420  16.062  66.901  1.00  0.00    -0.241 C  
HETATM   26  O   UNL     1      -8.694  16.568  65.591  1.00  0.00    -0.401 OA 
HETATM   27  C   UNL     1      -8.569  17.154  67.956  1.00  0.00    -0.227 C  
HETATM   28  C   UNL     1      -9.974  17.338  68.483  1.00  0.00    -0.320 C  
HETATM   29  H   UNL     1      -8.149  17.326  65.410  1.00  0.00     0.000 HD 
HETATM   30  O   UNL     1     -10.382  18.411  68.911  1.00  0.00    -0.332 OA 
HETATM   31  O   UNL     1     -10.703  16.194  68.599  1.00  0.00    -0.261 OA 
ENDBRANCH  22  23
ENDBRANCH  21  22
ENDBRANCH  12  21
TORSDOF 7
ENDMDL
MODEL      129
REMARK 921   NORMALIZED FREE ENERGY PREDICTED BY IDOCK:   -4.83 KCAL/MOL
REMARK 922        TOTAL FREE ENERGY PREDICTED BY IDOCK:   -8.30 KCAL/MOL
REMARK 923 INTER-LIGAND FREE ENERGY PREDICTED BY IDOCK:   -6.86 KCAL/MOL
REMARK 924 INTRA-LIGAND FREE ENERGY PREDICTED BY IDOCK:   -1.45 KCAL/MOL
REMARK 927      BINDING AFFINITY PREDICTED BY RF-SCORE:    0.00 PKD
ROOT
HETATM    1  C   UNL     1      -8.419   9.062  68.381  1.00  0.00    -0.129 C  
HETATM    2  C   UNL     1      -8.174   8.820  69.921  1.00  0.00    -0.118 C  
HETATM    3  C   UNL     1      -8.123   7.374  70.451  1.00  0.00    -0.108 C  
HETATM    4  C   UNL     1      -9.730  10.265  66.438  1.00  0.00    -0.252 C  
HETATM    5  C   UNL     1      -7.702   6.300  69.462  1.00  0.00    -0.099 C  
HETATM    6  C   UNL     1     -10.023   8.887  65.926  1.00  0.00    -0.099 C  
HETATM    7  C   UNL     1      -8.720  10.823  65.419  1.00  0.00    -0.190 C  
HETATM    8  C   UNL     1      -9.527   7.770  66.458  1.00  0.00    -0.262 C  
HETATM    9  C   UNL     1      -8.350   6.539  68.131  1.00  0.00    -0.116 C  
HETATM   10  C   UNL     1      -8.151   4.941  70.032  1.00  0.00    -0.073 C  
HETATM   11  C   UNL     1      -8.742   7.742  67.671  1.00  0.00    -0.126 C  
HETATM   12  C   UNL     1      -9.381  10.262  67.980  1.00  0.00    -0.145 C  
ENDROOT
BRANCH   2  13
HETATM   13  O   UNL     1      -9.025   9.570  70.805  1.00  0.00    -0.220 OA 
BRANCH  13  14
HETATM   14  C   UNL     1      -9.820   8.898  71.679  1.00  0.00    -0.317 C  
HETATM   15  O   UNL     1      -9.446   8.357  72.720  1.00  0.00    -0.272 OA 
BRANCH  14  16
HETATM   16  C   UNL     1     -11.271   8.838  71.201  1.00  0.00    -0.339 C  
HETATM   17  C   UNL     1     -11.457   7.894  70.001  1.00  0.00     0.046 C  
HETATM   18  C   UNL     1     -12.058   8.334  72.420  1.00  0.00    -0.430 C  
BRANCH  16  19
HETATM   19  C   UNL     1     -11.703  10.275  70.808  1.00  0.00    -0.453 C  
HETATM   20  C   UNL     1     -13.003  10.732  71.458  1.00  0.00    -0.562 C  
ENDBRANCH  16  19
ENDBRANCH  14  16
ENDBRANCH  13  14
ENDBRANCH   2  13
BRANCH  12  21
HETATM   21  C   UNL     1      -9.009  11.688  68.571  1.00  0.00    -0.138 C  
BRANCH  21  22
HETATM   22  C   UNL     1     -10.074  12.745  68.318  1.00  0.00    -0.237 C  
BRANCH  22  23
HETATM   23  C   UNL     1      -9.827  14.137  67.753  1.00  0.00    -0.231 C  
HETATM   24  C   UNL     1     -10.884  14.765  66.878  1.00  0.00    -0.316 C  
HETATM   25  C   UNL     1     -10.516  16.244  66.749  1.00  0.00    -0.287 C  
HETATM   26  O   UNL     1     -10.802  16.934  67.969  1.00  0.00    -0.363 OA 
HETATM   27  C   UNL     1      -9.066  16.451  66.324  1.00  0.00    -0.362 C  
HETATM   28  C   UNL     1      -8.082  15.476  66.931  1.00  0.00    -0.249 C  
HETATM   29  H   UNL     1     -10.574  17.852  67.889  1.00  0.00     0.000 HD 
HETATM   30  O   UNL     1      -6.906  15.761  67.123  1.00  0.00    -0.198 OA 
HETATM   31  O   UNL     1      -8.553  14.210  67.101  1.00  0.00    -0.209 OA 
ENDBRANCH  22  23
ENDBRANCH  21  22
ENDBRANCH  12  21
TORSDOF 7
ENDMDL
MODEL      130
REMARK 921   NORMALIZED FREE ENERGY PREDICTED BY IDOCK:   -4.81 KCAL/MOL
REMARK 922        TOTAL FREE ENERGY PREDICTED BY IDOCK:   -8.27 KCAL/MOL
REMARK 923 INTER-LIGAND FREE ENERGY PREDICTED BY IDOCK:   -6.85 KCAL/MOL
REMARK 924 INTRA-LIGAND FREE ENERGY PREDICTED BY IDOCK:   -1.42 KCAL/MOL
REMARK 927      BINDING AFFINITY PREDICTED BY RF-SCORE:    0.00 PKD
ROOT
HETATM    1  C   UNL     1     -11.067  12.525  66.921  1.00  0.00    -0.323 C  
HETATM    2  C   UNL     1     -10.675  12.308  68.433  1.00  0.00    -0.234 C  
HETATM    3  C   UNL     1     -10.989  13.417  69.454  1.00  0.00    -0.079 C  
HETATM    4  C   UNL     1     -10.421  12.502  64.367  1.00  0.00    -0.384 C  
HETATM    5  C   UNL     1     -12.150  14.340  69.121  1.00  0.00    -0.337 C  
HETATM    6  C   UNL     1     -10.888  13.926  64.345  1.00  0.00    -0.306 C  
HETATM    7  C   UNL     1     -11.511  11.752  63.578  1.00  0.00    -0.489 C  
HETATM    8  C   UNL     1     -11.454  14.544  65.381  1.00  0.00    -0.348 C  
HETATM    9  C   UNL     1     -12.118  14.709  67.668  1.00  0.00    -0.216 C  
HETATM   10  C   UNL     1     -12.003  15.604  69.991  1.00  0.00    -0.384 C  
HETATM   11  C   UNL     1     -11.577  13.953  66.695  1.00  0.00    -0.392 C  
HETATM   12  C   UNL     1     -10.030  12.030  65.824  1.00  0.00    -0.266 C  
ENDROOT
BRANCH   2  13
HETATM   13  O   UNL     1      -9.319  11.886  68.663  1.00  0.00    -0.165 OA 
BRANCH  13  14
HETATM   14  C   UNL     1      -8.314  12.788  68.499  1.00  0.00    -0.054 C  
HETATM   15  O   UNL     1      -8.458  13.988  68.262  1.00  0.00    -0.158 OA 
BRANCH  14  16
HETATM   16  C   UNL     1      -6.937  12.132  68.598  1.00  0.00    -0.097 C  
HETATM   17  C   UNL     1      -6.208  12.087  67.244  1.00  0.00    -0.149 C  
HETATM   18  C   UNL     1      -6.167  13.001  69.604  1.00  0.00    -0.113 C  
BRANCH  16  19
HETATM   19  C   UNL     1      -7.133  10.689  69.134  1.00  0.00    -0.095 C  
HETATM   20  C   UNL     1      -6.567   9.607  68.224  1.00  0.00    -0.057 C  
ENDBRANCH  16  19
ENDBRANCH  14  16
ENDBRANCH  13  14
ENDBRANCH   2  13
BRANCH  12  21
HETATM   21  C   UNL     1      -9.576  10.511  65.921  1.00  0.00    -0.254 C  
BRANCH  21  22
HETATM   22  C   UNL     1     -10.613   9.609  66.575  1.00  0.00    -0.142 C  
BRANCH  22  23
HETATM   23  C   UNL     1     -10.315   8.362  67.395  1.00  0.00    -0.285 C  
HETATM   24  C   UNL     1     -10.249   8.479  68.898  1.00  0.00    -0.221 C  
HETATM   25  C   UNL     1     -10.275   7.051  69.445  1.00  0.00    -0.189 C  
HETATM   26  O   UNL     1     -11.588   6.498  69.324  1.00  0.00    -0.628 OA 
HETATM   27  C   UNL     1      -9.235   6.153  68.783  1.00  0.00    -0.124 C  
HETATM   28  C   UNL     1      -9.039   6.394  67.303  1.00  0.00    -0.117 C  
HETATM   29  H   UNL     1     -11.605   5.611  69.664  1.00  0.00     0.000 HD 
HETATM   30  O   UNL     1      -8.670   5.513  66.535  1.00  0.00    -0.116 OA 
HETATM   31  O   UNL     1      -9.146   7.693  66.910  1.00  0.00    -0.133 OA 
ENDBRANCH  22  23
ENDBRANCH  21  22
ENDBRANCH  12  21
TORSDOF 7
ENDMDL
MODEL      131
REMARK 921   NORMALIZED FREE ENERGY PREDICTED BY IDOCK:   -4.74 KCAL/MOL
REMARK 922        TOTAL FREE ENERGY PREDICTED BY IDOCK:   -8.18 KCAL/MOL
REMARK 923 INTER-LIGAND FREE ENERGY PREDICTED BY IDOCK:   -6.44 KCAL/MOL
REMARK 924 INTRA-LIGAND FREE ENERGY PREDICTED BY IDOCK:   -1.74 KCAL/MOL
REMARK 927      BINDING AFFINITY PREDICTED BY RF-SCORE:    0.00 PKD
ROOT
HETATM    1  C   UNL     1      -8.273   8.105  68.481  1.00  0.00    -0.125 C  
HETATM    2  C   UNL     1      -7.668   7.930  69.927  1.00  0.00    -0.098 C  
HETATM    3  C   UNL     1      -7.290   6.518  70.412  1.00  0.00    -0.085 C  
HETATM    4  C   UNL     1     -10.137   9.067  66.886  1.00  0.00    -0.338 C  
HETATM    5  C   UNL     1      -6.940   5.499  69.340  1.00  0.00    -0.063 C  
HETATM    6  C   UNL     1     -10.327   7.652  66.429  1.00  0.00     0.073 C  
HETATM    7  C   UNL     1      -9.465   9.749  65.679  1.00  0.00    -0.307 C  
HETATM    8  C   UNL     1      -9.568   6.630  66.825  1.00  0.00    -0.207 C  
HETATM    9  C   UNL     1      -7.889   5.616  68.185  1.00  0.00    -0.096 C  
HETATM   10  C   UNL     1      -7.048   4.099  69.975  1.00  0.00    -0.042 C  
HETATM   11  C   UNL     1      -8.544   6.740  67.838  1.00  0.00    -0.122 C  
HETATM   12  C   UNL     1      -9.466   9.143  68.315  1.00  0.00    -0.152 C  
ENDROOT
BRANCH   2  13
HETATM   13  O   UNL     1      -8.408   8.563  70.985  1.00  0.00    -0.119 OA 
BRANCH  13  14
HETATM   14  C   UNL     1      -8.688   7.850  72.108  1.00  0.00    -0.142 C  
HETATM   15  O   UNL     1      -7.867   7.488  72.952  1.00  0.00    -0.092 OA 
BRANCH  14  16
HETATM   16  C   UNL     1     -10.170   7.489  72.201  1.00  0.00    -0.238 C  
HETATM   17  C   UNL     1     -10.660   7.381  73.656  1.00  0.00    -0.316 C  
HETATM   18  C   UNL     1     -10.891   8.628  71.465  1.00  0.00    -0.352 C  
BRANCH  16  19
HETATM   19  C   UNL     1     -10.377   6.132  71.478  1.00  0.00    -0.253 C  
HETATM   20  C   UNL     1     -11.156   6.238  70.172  1.00  0.00    -0.443 C  
ENDBRANCH  16  19
ENDBRANCH  14  16
ENDBRANCH  13  14
ENDBRANCH   2  13
BRANCH  12  21
HETATM   21  C   UNL     1      -9.189  10.619  68.832  1.00  0.00    -0.189 C  
BRANCH  21  22
HETATM   22  C   UNL     1     -10.434  11.494  68.861  1.00  0.00    -0.212 C  
BRANCH  22  23
HETATM   23  C   UNL     1     -10.629  12.787  68.082  1.00  0.00    -0.229 C  
HETATM   24  C   UNL     1     -11.909  12.984  67.308  1.00  0.00    -0.419 C  
HETATM   25  C   UNL     1     -11.960  14.464  66.925  1.00  0.00    -0.399 C  
HETATM   26  O   UNL     1     -12.270  15.262  68.071  1.00  0.00    -0.455 OA 
HETATM   27  C   UNL     1     -10.676  14.938  66.253  1.00  0.00    -0.320 C  
HETATM   28  C   UNL     1      -9.406  14.347  66.822  1.00  0.00    -0.268 C  
HETATM   29  H   UNL     1     -12.302  16.181  67.833  1.00  0.00     0.000 HD 
HETATM   30  O   UNL     1      -8.332  14.934  66.786  1.00  0.00    -0.219 OA 
HETATM   31  O   UNL     1      -9.505  13.053  67.234  1.00  0.00    -0.210 OA 
ENDBRANCH  22  23
ENDBRANCH  21  22
ENDBRANCH  12  21
TORSDOF 7
ENDMDL
MODEL      132
REMARK 921   NORMALIZED FREE ENERGY PREDICTED BY IDOCK:   -4.74 KCAL/MOL
REMARK 922        TOTAL FREE ENERGY PREDICTED BY IDOCK:   -8.18 KCAL/MOL
REMARK 923 INTER-LIGAND FREE ENERGY PREDICTED BY IDOCK:   -6.31 KCAL/MOL
REMARK 924 INTRA-LIGAND FREE ENERGY PREDICTED BY IDOCK:   -1.86 KCAL/MOL
REMARK 927      BINDING AFFINITY PREDICTED BY RF-SCORE:    0.00 PKD
ROOT
HETATM    1  C   UNL     1      -9.921  12.902  66.342  1.00  0.00    -0.267 C  
HETATM    2  C   UNL     1      -9.555  11.762  65.314  1.00  0.00    -0.168 C  
HETATM    3  C   UNL     1     -10.583  11.370  64.236  1.00  0.00    -0.416 C  
HETATM    4  C   UNL     1     -10.095  13.771  68.823  1.00  0.00    -0.141 C  
HETATM    5  C   UNL     1     -11.579  12.440  63.823  1.00  0.00    -0.553 C  
HETATM    6  C   UNL     1     -11.534  14.052  68.511  1.00  0.00    -0.336 C  
HETATM    7  C   UNL     1      -9.463  15.172  68.911  1.00  0.00    -0.213 C  
HETATM    8  C   UNL     1     -12.081  13.902  67.305  1.00  0.00    -0.403 C  
HETATM    9  C   UNL     1     -12.073  13.182  65.029  1.00  0.00    -0.458 C  
HETATM   10  C   UNL     1     -12.755  11.735  63.119  1.00  0.00    -0.179 C  
HETATM   11  C   UNL     1     -11.383  13.330  66.176  1.00  0.00    -0.335 C  
HETATM   12  C   UNL     1      -9.481  12.684  67.853  1.00  0.00    -0.204 C  
ENDROOT
BRANCH   2  13
HETATM   13  O   UNL     1      -9.060  10.544  65.897  1.00  0.00    -0.158 OA 
BRANCH  13  14
HETATM   14  C   UNL     1      -7.840  10.081  65.513  1.00  0.00    -0.134 C  
HETATM   15  O   UNL     1      -6.878  10.778  65.185  1.00  0.00     0.002 OA 
BRANCH  14  16
HETATM   16  C   UNL     1      -7.792   8.554  65.484  1.00  0.00    -0.104 C  
HETATM   17  C   UNL     1      -6.714   7.981  66.420  1.00  0.00    -0.058 C  
HETATM   18  C   UNL     1      -9.194   8.115  65.933  1.00  0.00    -0.158 C  
BRANCH  16  19
HETATM   19  C   UNL     1      -7.505   8.113  64.024  1.00  0.00    -0.115 C  
HETATM   20  C   UNL     1      -8.368   8.817  62.983  1.00  0.00    -0.175 C  
ENDBRANCH  16  19
ENDBRANCH  14  16
ENDBRANCH  13  14
ENDBRANCH   2  13
BRANCH  12  21
HETATM   21  C   UNL     1      -7.942  12.380  68.100  1.00  0.00    -0.153 C  
BRANCH  21  22
HETATM   22  C   UNL     1      -7.698  11.183  69.008  1.00  0.00    -0.114 C  
BRANCH  22  23
HETATM   23  C   UNL     1      -8.644  10.006  69.200  1.00  0.00    -0.158 C  
HETATM   24  C   UNL     1      -9.866  10.188  70.066  1.00  0.00    -0.179 C  
HETATM   25  C   UNL     1     -10.768   8.983  69.800  1.00  0.00    -0.225 C  
HETATM   26  O   UNL     1     -11.388   9.100  68.516  1.00  0.00    -0.379 OA 
HETATM   27  C   UNL     1     -10.027   7.657  69.935  1.00  0.00    -0.190 C  
HETATM   28  C   UNL     1      -8.607   7.668  69.417  1.00  0.00    -0.136 C  
HETATM   29  H   UNL     1     -11.949   8.352  68.351  1.00  0.00     0.000 HD 
HETATM   30  O   UNL     1      -8.055   6.663  68.985  1.00  0.00    -0.113 OA 
HETATM   31  O   UNL     1      -7.930   8.834  69.612  1.00  0.00    -0.091 OA 
ENDBRANCH  22  23
ENDBRANCH  21  22
ENDBRANCH  12  21
TORSDOF 7
ENDMDL
MODEL      133
REMARK 921   NORMALIZED FREE ENERGY PREDICTED BY IDOCK:   -4.73 KCAL/MOL
REMARK 922        TOTAL FREE ENERGY PREDICTED BY IDOCK:   -8.16 KCAL/MOL
REMARK 923 INTER-LIGAND FREE ENERGY PREDICTED BY IDOCK:   -6.65 KCAL/MOL
REMARK 924 INTRA-LIGAND FREE ENERGY PREDICTED BY IDOCK:   -1.52 KCAL/MOL
REMARK 927      BINDING AFFINITY PREDICTED BY RF-SCORE:    0.00 PKD
ROOT
HETATM    1  C   UNL     1      -7.536   7.400  66.612  1.00  0.00    -0.088 C  
HETATM    2  C   UNL     1      -7.788   7.330  68.167  1.00  0.00    -0.118 C  
HETATM    3  C   UNL     1      -7.611   5.984  68.894  1.00  0.00    -0.091 C  
HETATM    4  C   UNL     1      -8.327   8.101  64.198  1.00  0.00    -0.025 C  
HETATM    5  C   UNL     1      -6.655   4.988  68.259  1.00  0.00    -0.049 C  
HETATM    6  C   UNL     1      -8.121   6.663  63.829  1.00  0.00    -0.003 C  
HETATM    7  C   UNL     1      -7.173   8.827  63.481  1.00  0.00    -0.094 C  
HETATM    8  C   UNL     1      -7.608   5.746  64.649  1.00  0.00    -0.083 C  
HETATM    9  C   UNL     1      -6.842   4.966  66.771  1.00  0.00    -0.062 C  
HETATM   10  C   UNL     1      -6.967   3.600  68.852  1.00  0.00    -0.046 C  
HETATM   11  C   UNL     1      -7.301   5.998  66.039  1.00  0.00    -0.077 C  
HETATM   12  C   UNL     1      -8.536   8.288  65.754  1.00  0.00    -0.182 C  
ENDROOT
BRANCH   2  13
HETATM   13  O   UNL     1      -9.031   7.898  68.615  1.00  0.00    -0.135 OA 
BRANCH  13  14
HETATM   14  C   UNL     1      -9.038   8.658  69.743  1.00  0.00    -0.150 C  
HETATM   15  O   UNL     1      -8.065   9.243  70.220  1.00  0.00    -0.116 OA 
BRANCH  14  16
HETATM   16  C   UNL     1     -10.413   8.676  70.411  1.00  0.00    -0.233 C  
HETATM   17  C   UNL     1     -10.323   8.666  71.946  1.00  0.00    -0.405 C  
HETATM   18  C   UNL     1     -11.067   9.973  69.911  1.00  0.00    -0.336 C  
BRANCH  16  19
HETATM   19  C   UNL     1     -11.196   7.427  69.925  1.00  0.00    -0.155 C  
HETATM   20  C   UNL     1     -11.996   6.732  71.020  1.00  0.00    -0.431 C  
ENDBRANCH  16  19
ENDBRANCH  14  16
ENDBRANCH  13  14
ENDBRANCH   2  13
BRANCH  12  21
HETATM   21  C   UNL     1      -8.708   9.798  66.215  1.00  0.00    -0.152 C  
BRANCH  21  22
HETATM   22  C   UNL     1      -9.998  10.439  65.726  1.00  0.00    -0.334 C  
BRANCH  22  23
HETATM   23  C   UNL     1     -10.418  11.883  65.960  1.00  0.00    -0.245 C  
HETATM   24  C   UNL     1      -9.817  12.637  67.121  1.00  0.00    -0.212 C  
HETATM   25  C   UNL     1     -10.155  14.112  66.902  1.00  0.00    -0.258 C  
HETATM   26  O   UNL     1      -9.353  14.653  65.849  1.00  0.00    -0.478 OA 
HETATM   27  C   UNL     1     -11.640  14.337  66.635  1.00  0.00    -0.397 C  
HETATM   28  C   UNL     1     -12.302  13.275  65.787  1.00  0.00    -0.447 C  
HETATM   29  H   UNL     1      -9.563  15.570  65.713  1.00  0.00     0.000 HD 
HETATM   30  O   UNL     1     -13.272  13.507  65.077  1.00  0.00    -0.721 OA 
HETATM   31  O   UNL     1     -11.844  12.008  65.989  1.00  0.00    -0.522 OA 
ENDBRANCH  22  23
ENDBRANCH  21  22
ENDBRANCH  12  21
TORSDOF 7
ENDMDL
MODEL      134
REMARK 921   NORMALIZED FREE ENERGY PREDICTED BY IDOCK:   -4.73 KCAL/MOL
REMARK 922        TOTAL FREE ENERGY PREDICTED BY IDOCK:   -8.16 KCAL/MOL
REMARK 923 INTER-LIGAND FREE ENERGY PREDICTED BY IDOCK:   -6.45 KCAL/MOL
REMARK 924 INTRA-LIGAND FREE ENERGY PREDICTED BY IDOCK:   -1.71 KCAL/MOL
REMARK 927      BINDING AFFINITY PREDICTED BY RF-SCORE:    0.00 PKD
ROOT
HETATM    1  C   UNL     1      -9.172  12.177  66.117  1.00  0.00    -0.155 C  
HETATM    2  C   UNL     1      -9.565  10.846  65.366  1.00  0.00    -0.225 C  
HETATM    3  C   UNL     1     -10.769  10.858  64.405  1.00  0.00    -0.250 C  
HETATM    4  C   UNL     1      -8.582  13.454  68.345  1.00  0.00    -0.134 C  
HETATM    5  C   UNL     1     -11.119  12.192  63.768  1.00  0.00    -0.505 C  
HETATM    6  C   UNL     1      -9.701  14.384  67.984  1.00  0.00    -0.221 C  
HETATM    7  C   UNL     1      -7.318  14.303  68.119  1.00  0.00    -0.128 C  
HETATM    8  C   UNL     1     -10.387  14.320  66.842  1.00  0.00    -0.268 C  
HETATM    9  C   UNL     1     -11.017  13.293  64.782  1.00  0.00    -0.365 C  
HETATM   10  C   UNL     1     -12.564  12.091  63.241  1.00  0.00    -0.512 C  
HETATM   11  C   UNL     1     -10.218  13.269  65.865  1.00  0.00    -0.295 C  
HETATM   12  C   UNL     1      -8.729  12.047  67.638  1.00  0.00    -0.166 C  
ENDROOT
BRANCH   2  13
HETATM   13  O   UNL     1      -9.696   9.683  66.202  1.00  0.00    -0.212 OA 
BRANCH  13  14
HETATM   14  C   UNL     1      -8.984   8.567  65.890  1.00  0.00    -0.189 C  
HETATM   15  O   UNL     1      -8.240   8.438  64.917  1.00  0.00    -0.142 OA 
BRANCH  14  16
HETATM   16  C   UNL     1      -9.244   7.430  66.879  1.00  0.00    -0.183 C  
HETATM   17  C   UNL     1      -8.092   7.245  67.880  1.00  0.00    -0.119 C  
HETATM   18  C   UNL     1     -10.537   7.836  67.602  1.00  0.00    -0.283 C  
BRANCH  16  19
HETATM   19  C   UNL     1      -9.442   6.125  66.063  1.00  0.00    -0.046 C  
HETATM   20  C   UNL     1     -10.238   5.051  66.794  1.00  0.00    -0.286 C  
ENDBRANCH  16  19
ENDBRANCH  14  16
ENDBRANCH  13  14
ENDBRANCH   2  13
BRANCH  12  21
HETATM   21  C   UNL     1      -7.545  11.034  67.941  1.00  0.00    -0.095 C  
BRANCH  21  22
HETATM   22  C   UNL     1      -7.214  10.913  69.421  1.00  0.00    -0.126 C  
BRANCH  22  23
HETATM   23  C   UNL     1      -7.895   9.978  70.411  1.00  0.00     0.082 C  
HETATM   24  C   UNL     1      -7.208   8.687  70.783  1.00  0.00    -0.067 C  
HETATM   25  C   UNL     1      -7.942   8.144  72.009  1.00  0.00    -0.124 C  
HETATM   26  O   UNL     1      -7.609   8.914  73.168  1.00  0.00    -0.366 OA 
HETATM   27  C   UNL     1      -9.452   8.080  71.805  1.00  0.00    -0.223 C  
HETATM   28  C   UNL     1     -10.036   9.234  71.022  1.00  0.00    -0.303 C  
HETATM   29  H   UNL     1      -8.065   8.576  73.930  1.00  0.00     0.000 HD 
HETATM   30  O   UNL     1     -11.188   9.620  71.179  1.00  0.00    -0.331 OA 
HETATM   31  O   UNL     1      -9.247   9.711  70.021  1.00  0.00    -0.212 OA 
ENDBRANCH  22  23
ENDBRANCH  21  22
ENDBRANCH  12  21
TORSDOF 7
ENDMDL
MODEL      135
REMARK 921   NORMALIZED FREE ENERGY PREDICTED BY IDOCK:   -4.71 KCAL/MOL
REMARK 922        TOTAL FREE ENERGY PREDICTED BY IDOCK:   -8.13 KCAL/MOL
REMARK 923 INTER-LIGAND FREE ENERGY PREDICTED BY IDOCK:   -7.07 KCAL/MOL
REMARK 924 INTRA-LIGAND FREE ENERGY PREDICTED BY IDOCK:   -1.06 KCAL/MOL
REMARK 927      BINDING AFFINITY PREDICTED BY RF-SCORE:    0.00 PKD
ROOT
HETATM    1  C   UNL     1     -10.966  10.158  68.638  1.00  0.00    -0.273 C  
HETATM    2  C   UNL     1     -10.779   8.858  69.512  1.00  0.00    -0.199 C  
HETATM    3  C   UNL     1     -11.513   8.754  70.862  1.00  0.00    -0.330 C  
HETATM    4  C   UNL     1      -9.933  12.148  67.253  1.00  0.00    -0.211 C  
HETATM    5  C   UNL     1     -12.794   9.558  71.006  1.00  0.00    -0.295 C  
HETATM    6  C   UNL     1     -10.722  13.047  68.157  1.00  0.00    -0.258 C  
HETATM    7  C   UNL     1     -10.667  12.256  65.904  1.00  0.00    -0.294 C  
HETATM    8  C   UNL     1     -11.580  12.613  69.080  1.00  0.00    -0.374 C  
HETATM    9  C   UNL     1     -12.621  10.920  70.403  1.00  0.00    -0.376 C  
HETATM   10  C   UNL     1     -13.100   9.681  72.511  1.00  0.00    -0.271 C  
HETATM   11  C   UNL     1     -11.764  11.217  69.408  1.00  0.00    -0.409 C  
HETATM   12  C   UNL     1      -9.677  10.730  67.905  1.00  0.00    -0.181 C  
ENDROOT
BRANCH   2  13
HETATM   13  O   UNL     1      -9.416   8.455  69.733  1.00  0.00    -0.161 OA 
BRANCH  13  14
HETATM   14  C   UNL     1      -8.765   8.918  70.833  1.00  0.00    -0.210 C  
HETATM   15  O   UNL     1      -9.296   9.276  71.885  1.00  0.00    -0.299 OA 
BRANCH  14  16
HETATM   16  C   UNL     1      -7.254   8.996  70.611  1.00  0.00    -0.093 C  
HETATM   17  C   UNL     1      -6.455   8.712  71.894  1.00  0.00    -0.074 C  
HETATM   18  C   UNL     1      -6.966   7.932  69.541  1.00  0.00    -0.054 C  
BRANCH  16  19
HETATM   19  C   UNL     1      -6.921  10.420  70.092  1.00  0.00    -0.146 C  
HETATM   20  C   UNL     1      -5.610  10.984  70.626  1.00  0.00    -0.132 C  
ENDBRANCH  16  19
ENDBRANCH  14  16
ENDBRANCH  13  14
ENDBRANCH   2  13
BRANCH  12  21
HETATM   21  C   UNL     1      -8.890   9.713  66.973  1.00  0.00    -0.142 C  
BRANCH  21  22
HETATM   22  C   UNL     1      -9.799   8.761  66.210  1.00  0.00    -0.342 C  
BRANCH  22  23
HETATM   23  C   UNL     1      -9.720   7.241  66.239  1.00  0.00     0.002 C  
HETATM   24  C   UNL     1     -10.715   6.477  67.077  1.00  0.00    -0.434 C  
HETATM   25  C   UNL     1     -10.606   5.012  66.650  1.00  0.00    -0.195 C  
HETATM   26  O   UNL     1     -11.209   4.825  65.366  1.00  0.00    -0.896 OA 
HETATM   27  C   UNL     1      -9.168   4.505  66.663  1.00  0.00    -0.138 C  
HETATM   28  C   UNL     1      -8.136   5.508  66.198  1.00  0.00    -0.107 C  
HETATM   29  H   UNL     1     -11.142   3.915  65.100  1.00  0.00     0.000 HD 
HETATM   30  O   UNL     1      -7.080   5.173  65.677  1.00  0.00    -0.064 OA 
HETATM   31  O   UNL     1      -8.391   6.800  66.543  1.00  0.00    -0.113 OA 
ENDBRANCH  22  23
ENDBRANCH  21  22
ENDBRANCH  12  21
TORSDOF 7
ENDMDL
MODEL      136
REMARK 921   NORMALIZED FREE ENERGY PREDICTED BY IDOCK:   -4.69 KCAL/MOL
REMARK 922        TOTAL FREE ENERGY PREDICTED BY IDOCK:   -8.10 KCAL/MOL
REMARK 923 INTER-LIGAND FREE ENERGY PREDICTED BY IDOCK:   -5.98 KCAL/MOL
REMARK 924 INTRA-LIGAND FREE ENERGY PREDICTED BY IDOCK:   -2.13 KCAL/MOL
REMARK 927      BINDING AFFINITY PREDICTED BY RF-SCORE:    0.00 PKD
ROOT
HETATM    1  C   UNL     1      -9.917   8.360  68.628  1.00  0.00    -0.197 C  
HETATM    2  C   UNL     1      -9.938   8.967  70.085  1.00  0.00    -0.185 C  
HETATM    3  C   UNL     1     -10.561  10.358  70.305  1.00  0.00    -0.184 C  
HETATM    4  C   UNL     1      -8.605   7.223  66.647  1.00  0.00    -0.128 C  
HETATM    5  C   UNL     1     -11.625  10.794  69.312  1.00  0.00    -0.376 C  
HETATM    6  C   UNL     1      -9.105   8.358  65.805  1.00  0.00    -0.195 C  
HETATM    7  C   UNL     1      -9.411   6.013  66.138  1.00  0.00    -0.140 C  
HETATM    8  C   UNL     1      -9.955   9.291  66.235  1.00  0.00    -0.357 C  
HETATM    9  C   UNL     1     -11.217  10.418  67.918  1.00  0.00    -0.332 C  
HETATM   10  C   UNL     1     -11.769  12.324  69.426  1.00  0.00    -0.392 C  
HETATM   11  C   UNL     1     -10.403   9.393  67.605  1.00  0.00    -0.303 C  
HETATM   12  C   UNL     1      -8.603   7.584  68.186  1.00  0.00    -0.123 C  
ENDROOT
BRANCH   2  13
HETATM   13  O   UNL     1      -8.679   8.946  70.779  1.00  0.00    -0.166 OA 
BRANCH  13  14
HETATM   14  C   UNL     1      -8.633   8.442  72.041  1.00  0.00    -0.191 C  
HETATM   15  O   UNL     1      -9.604   8.255  72.775  1.00  0.00    -0.264 OA 
BRANCH  14  16
HETATM   16  C   UNL     1      -7.199   8.162  72.491  1.00  0.00    -0.123 C  
HETATM   17  C   UNL     1      -6.165   9.000  71.720  1.00  0.00    -0.065 C  
HETATM   18  C   UNL     1      -7.187   8.520  73.985  1.00  0.00    -0.127 C  
BRANCH  16  19
HETATM   19  C   UNL     1      -6.917   6.652  72.273  1.00  0.00    -0.068 C  
HETATM   20  C   UNL     1      -5.455   6.329  71.988  1.00  0.00    -0.031 C  
ENDBRANCH  16  19
ENDBRANCH  14  16
ENDBRANCH  13  14
ENDBRANCH   2  13
BRANCH  12  21
HETATM   21  C   UNL     1      -8.132   6.402  69.135  1.00  0.00    -0.111 C  
BRANCH  21  22
HETATM   22  C   UNL     1      -9.249   5.434  69.499  1.00  0.00    -0.152 C  
BRANCH  22  23
HETATM   23  C   UNL     1     -10.065   5.461  70.785  1.00  0.00    -0.220 C  
HETATM   24  C   UNL     1     -10.100   4.226  71.650  1.00  0.00    -0.216 C  
HETATM   25  C   UNL     1     -10.696   4.655  72.992  1.00  0.00    -0.233 C  
HETATM   26  O   UNL     1      -9.743   5.418  73.736  1.00  0.00    -0.144 OA 
HETATM   27  C   UNL     1     -12.008   5.415  72.832  1.00  0.00    -0.064 C  
HETATM   28  C   UNL     1     -12.058   6.353  71.647  1.00  0.00    -0.262 C  
HETATM   29  H   UNL     1     -10.112   5.684  74.570  1.00  0.00     0.000 HD 
HETATM   30  O   UNL     1     -12.755   7.361  71.633  1.00  0.00    -0.338 OA 
HETATM   31  O   UNL     1     -11.400   5.918  70.538  1.00  0.00    -0.291 OA 
ENDBRANCH  22  23
ENDBRANCH  21  22
ENDBRANCH  12  21
TORSDOF 7
ENDMDL
MODEL      137
REMARK 921   NORMALIZED FREE ENERGY PREDICTED BY IDOCK:   -4.68 KCAL/MOL
REMARK 922        TOTAL FREE ENERGY PREDICTED BY IDOCK:   -8.09 KCAL/MOL
REMARK 923 INTER-LIGAND FREE ENERGY PREDICTED BY IDOCK:   -6.41 KCAL/MOL
REMARK 924 INTRA-LIGAND FREE ENERGY PREDICTED BY IDOCK:   -1.67 KCAL/MOL
REMARK 927      BINDING AFFINITY PREDICTED BY RF-SCORE:    0.00 PKD
ROOT
HETATM    1  C   UNL     1     -10.285  15.423  66.755  1.00  0.00    -0.273 C  
HETATM    2  C   UNL     1      -9.067  15.989  67.582  1.00  0.00    -0.199 C  
HETATM    3  C   UNL     1      -8.621  17.446  67.354  1.00  0.00    -0.221 C  
HETATM    4  C   UNL     1     -11.333  13.555  65.220  1.00  0.00    -0.304 C  
HETATM    5  C   UNL     1      -9.681  18.412  66.851  1.00  0.00    -0.324 C  
HETATM    6  C   UNL     1     -11.623  14.662  64.252  1.00  0.00    -0.227 C  
HETATM    7  C   UNL     1     -12.723  13.177  65.764  1.00  0.00    -0.202 C  
HETATM    8  C   UNL     1     -11.399  15.952  64.502  1.00  0.00    -0.316 C  
HETATM    9  C   UNL     1     -10.518  17.757  65.793  1.00  0.00    -0.199 C  
HETATM   10  C   UNL     1      -8.953  19.638  66.267  1.00  0.00    -0.420 C  
HETATM   11  C   UNL     1     -10.733  16.432  65.692  1.00  0.00    -0.280 C  
HETATM   12  C   UNL     1     -10.166  13.932  66.218  1.00  0.00    -0.299 C  
ENDROOT
BRANCH   2  13
HETATM   13  O   UNL     1      -7.883  15.172  67.572  1.00  0.00    -0.149 OA 
BRANCH  13  14
HETATM   14  C   UNL     1      -7.227  14.953  68.743  1.00  0.00    -0.123 C  
HETATM   15  O   UNL     1      -7.745  14.902  69.859  1.00  0.00    -0.098 OA 
BRANCH  14  16
HETATM   16  C   UNL     1      -5.718  14.817  68.534  1.00  0.00    -0.099 C  
HETATM   17  C   UNL     1      -5.142  15.941  67.656  1.00  0.00    -0.116 C  
HETATM   18  C   UNL     1      -5.126  14.872  69.950  1.00  0.00    -0.094 C  
BRANCH  16  19
HETATM   19  C   UNL     1      -5.452  13.443  67.865  1.00  0.00    -0.113 C  
HETATM   20  C   UNL     1      -6.369  12.327  68.353  1.00  0.00    -0.054 C  
ENDBRANCH  16  19
ENDBRANCH  14  16
ENDBRANCH  13  14
ENDBRANCH   2  13
BRANCH  12  21
HETATM   21  C   UNL     1      -9.847  12.818  67.304  1.00  0.00    -0.207 C  
BRANCH  21  22
HETATM   22  C   UNL     1      -9.774  11.412  66.727  1.00  0.00    -0.221 C  
BRANCH  22  23
HETATM   23  C   UNL     1      -8.967  10.993  65.506  1.00  0.00    -0.194 C  
HETATM   24  C   UNL     1      -9.690  10.390  64.327  1.00  0.00    -0.389 C  
HETATM   25  C   UNL     1      -8.697  10.389  63.164  1.00  0.00    -0.203 C  
HETATM   26  O   UNL     1      -8.523  11.716  62.660  1.00  0.00    -0.636 OA 
HETATM   27  C   UNL     1      -7.359   9.760  63.539  1.00  0.00    -0.123 C  
HETATM   28  C   UNL     1      -6.883  10.069  64.940  1.00  0.00    -0.133 C  
HETATM   29  H   UNL     1      -7.906  11.716  61.938  1.00  0.00     0.000 HD 
HETATM   30  O   UNL     1      -5.696  10.099  65.242  1.00  0.00    -0.074 OA 
HETATM   31  O   UNL     1      -7.866  10.155  65.879  1.00  0.00    -0.120 OA 
ENDBRANCH  22  23
ENDBRANCH  21  22
ENDBRANCH  12  21
TORSDOF 7
ENDMDL
MODEL      138
REMARK 921   NORMALIZED FREE ENERGY PREDICTED BY IDOCK:   -4.67 KCAL/MOL
REMARK 922        TOTAL FREE ENERGY PREDICTED BY IDOCK:   -8.08 KCAL/MOL
REMARK 923 INTER-LIGAND FREE ENERGY PREDICTED BY IDOCK:   -6.70 KCAL/MOL
REMARK 924 INTRA-LIGAND FREE ENERGY PREDICTED BY IDOCK:   -1.38 KCAL/MOL
REMARK 927      BINDING AFFINITY PREDICTED BY RF-SCORE:    0.00 PKD
ROOT
HETATM    1  C   UNL     1      -9.978   9.652  66.294  1.00  0.00    -0.335 C  
HETATM    2  C   UNL     1     -10.494  10.825  67.215  1.00  0.00    -0.237 C  
HETATM    3  C   UNL     1     -10.974  12.134  66.559  1.00  0.00    -0.325 C  
HETATM    4  C   UNL     1      -8.146   7.856  65.694  1.00  0.00    -0.130 C  
HETATM    5  C   UNL     1     -11.498  12.031  65.137  1.00  0.00    -0.344 C  
HETATM    6  C   UNL     1      -8.129   8.483  64.333  1.00  0.00    -0.163 C  
HETATM    7  C   UNL     1      -8.831   6.497  65.457  1.00  0.00    -0.009 C  
HETATM    8  C   UNL     1      -8.955   9.456  63.946  1.00  0.00    -0.166 C  
HETATM    9  C   UNL     1     -10.626  11.118  64.328  1.00  0.00    -0.425 C  
HETATM   10  C   UNL     1     -11.483  13.449  64.532  1.00  0.00    -0.402 C  
HETATM   11  C   UNL     1      -9.889  10.110  64.834  1.00  0.00    -0.390 C  
HETATM   12  C   UNL     1      -8.704   8.845  66.794  1.00  0.00    -0.130 C  
ENDROOT
BRANCH   2  13
HETATM   13  O   UNL     1      -9.622  11.184  68.301  1.00  0.00    -0.171 OA 
BRANCH  13  14
HETATM   14  C   UNL     1      -9.069  12.426  68.315  1.00  0.00    -0.183 C  
HETATM   15  O   UNL     1      -9.691  13.489  68.336  1.00  0.00    -0.221 OA 
BRANCH  14  16
HETATM   16  C   UNL     1      -7.542  12.372  68.255  1.00  0.00    -0.131 C  
HETATM   17  C   UNL     1      -6.955  11.285  69.172  1.00  0.00    -0.114 C  
HETATM   18  C   UNL     1      -7.225  12.074  66.783  1.00  0.00     0.036 C  
BRANCH  16  19
HETATM   19  C   UNL     1      -6.999  13.762  68.678  1.00  0.00    -0.102 C  
HETATM   20  C   UNL     1      -6.191  13.746  69.970  1.00  0.00    -0.120 C  
ENDBRANCH  16  19
ENDBRANCH  14  16
ENDBRANCH  13  14
ENDBRANCH   2  13
BRANCH  12  21
HETATM   21  C   UNL     1      -8.796   8.220  68.251  1.00  0.00    -0.140 C  
BRANCH  21  22
HETATM   22  C   UNL     1     -10.186   7.714  68.607  1.00  0.00    -0.214 C  
BRANCH  22  23
HETATM   23  C   UNL     1     -11.021   8.172  69.795  1.00  0.00    -0.132 C  
HETATM   24  C   UNL     1     -10.386   9.067  70.829  1.00  0.00    -0.305 C  
HETATM   25  C   UNL     1     -11.528   9.618  71.684  1.00  0.00    -0.305 C  
HETATM   26  O   UNL     1     -12.261  10.607  70.956  1.00  0.00    -0.338 OA 
HETATM   27  C   UNL     1     -12.450   8.521  72.205  1.00  0.00    -0.437 C  
HETATM   28  C   UNL     1     -12.710   7.395  71.230  1.00  0.00    -0.331 C  
HETATM   29  H   UNL     1     -12.970  10.950  71.487  1.00  0.00     0.000 HD 
HETATM   30  O   UNL     1     -13.742   6.736  71.244  1.00  0.00    -0.132 OA 
HETATM   31  O   UNL     1     -11.653   7.059  70.440  1.00  0.00    -0.309 OA 
ENDBRANCH  22  23
ENDBRANCH  21  22
ENDBRANCH  12  21
TORSDOF 7
ENDMDL
MODEL      139
REMARK 921   NORMALIZED FREE ENERGY PREDICTED BY IDOCK:   -4.67 KCAL/MOL
REMARK 922        TOTAL FREE ENERGY PREDICTED BY IDOCK:   -8.08 KCAL/MOL
REMARK 923 INTER-LIGAND FREE ENERGY PREDICTED BY IDOCK:   -7.19 KCAL/MOL
REMARK 924 INTRA-LIGAND FREE ENERGY PREDICTED BY IDOCK:   -0.89 KCAL/MOL
REMARK 927      BINDING AFFINITY PREDICTED BY RF-SCORE:    0.00 PKD
ROOT
HETATM    1  C   UNL     1     -10.504  16.229  67.501  1.00  0.00    -0.302 C  
HETATM    2  C   UNL     1      -9.577  16.868  68.606  1.00  0.00    -0.265 C  
HETATM    3  C   UNL     1      -9.056  18.304  68.406  1.00  0.00    -0.331 C  
HETATM    4  C   UNL     1     -11.082  14.236  65.877  1.00  0.00    -0.310 C  
HETATM    5  C   UNL     1      -9.900  19.219  67.535  1.00  0.00    -0.429 C  
HETATM    6  C   UNL     1     -11.050  15.260  64.782  1.00  0.00    -0.407 C  
HETATM    7  C   UNL     1     -12.578  13.896  66.010  1.00  0.00    -0.467 C  
HETATM    8  C   UNL     1     -10.887  16.567  64.984  1.00  0.00    -0.245 C  
HETATM    9  C   UNL     1     -10.397  18.476  66.331  1.00  0.00    -0.456 C  
HETATM   10  C   UNL     1      -9.009  20.398  67.099  1.00  0.00    -0.453 C  
HETATM   11  C   UNL     1     -10.596  17.146  66.276  1.00  0.00    -0.185 C  
HETATM   12  C   UNL     1     -10.258  14.700  67.144  1.00  0.00    -0.256 C  
ENDROOT
BRANCH   2  13
HETATM   13  O   UNL     1      -8.459  16.060  69.014  1.00  0.00    -0.218 OA 
BRANCH  13  14
HETATM   14  C   UNL     1      -7.403  15.924  68.168  1.00  0.00    -0.127 C  
HETATM   15  O   UNL     1      -7.441  16.060  66.945  1.00  0.00    -0.216 OA 
BRANCH  14  16
HETATM   16  C   UNL     1      -6.126  15.526  68.909  1.00  0.00    -0.099 C  
HETATM   17  C   UNL     1      -5.186  14.670  68.043  1.00  0.00    -0.108 C  
HETATM   18  C   UNL     1      -5.463  16.861  69.279  1.00  0.00    -0.143 C  
BRANCH  16  19
HETATM   19  C   UNL     1      -6.538  14.731  70.176  1.00  0.00    -0.145 C  
HETATM   20  C   UNL     1      -5.635  13.543  70.484  1.00  0.00    -0.159 C  
ENDBRANCH  16  19
ENDBRANCH  14  16
ENDBRANCH  13  14
ENDBRANCH   2  13
BRANCH  12  21
HETATM   21  C   UNL     1     -10.297  13.680  68.360  1.00  0.00    -0.248 C  
BRANCH  21  22
HETATM   22  C   UNL     1      -9.446  12.438  68.138  1.00  0.00    -0.214 C  
BRANCH  22  23
HETATM   23  C   UNL     1      -9.601  11.112  68.869  1.00  0.00    -0.142 C  
HETATM   24  C   UNL     1     -10.884  10.836  69.612  1.00  0.00    -0.294 C  
HETATM   25  C   UNL     1     -10.880   9.343  69.943  1.00  0.00    -0.236 C  
HETATM   26  O   UNL     1     -11.136   8.573  68.765  1.00  0.00    -0.431 OA 
HETATM   27  C   UNL     1      -9.589   8.898  70.622  1.00  0.00    -0.262 C  
HETATM   28  C   UNL     1      -8.335   9.561  70.098  1.00  0.00    -0.192 C  
HETATM   29  H   UNL     1     -11.134   7.645  68.970  1.00  0.00     0.000 HD 
HETATM   30  O   UNL     1      -7.238   9.018  70.134  1.00  0.00    -0.050 OA 
HETATM   31  O   UNL     1      -8.482  10.864  69.729  1.00  0.00     0.202 OA 
ENDBRANCH  22  23
ENDBRANCH  21  22
ENDBRANCH  12  21
TORSDOF 7
ENDMDL
MODEL      140
REMARK 921   NORMALIZED FREE ENERGY PREDICTED BY IDOCK:   -4.65 KCAL/MOL
REMARK 922        TOTAL FREE ENERGY PREDICTED BY IDOCK:   -8.04 KCAL/MOL
REMARK 923 INTER-LIGAND FREE ENERGY PREDICTED BY IDOCK:   -7.08 KCAL/MOL
REMARK 924 INTRA-LIGAND FREE ENERGY PREDICTED BY IDOCK:   -0.97 KCAL/MOL
REMARK 927      BINDING AFFINITY PREDICTED BY RF-SCORE:    0.00 PKD
ROOT
HETATM    1  C   UNL     1     -11.026   7.443  70.044  1.00  0.00    -0.264 C  
HETATM    2  C   UNL     1     -10.033   6.599  69.154  1.00  0.00    -0.157 C  
HETATM    3  C   UNL     1      -9.434   5.301  69.728  1.00  0.00    -0.207 C  
HETATM    4  C   UNL     1     -11.764   9.749  71.084  1.00  0.00    -0.465 C  
HETATM    5  C   UNL     1     -10.244   4.592  70.800  1.00  0.00    -0.214 C  
HETATM    6  C   UNL     1     -11.700   9.051  72.409  1.00  0.00    -0.171 C  
HETATM    7  C   UNL     1     -13.273   9.946  70.851  1.00  0.00    -0.309 C  
HETATM    8  C   UNL     1     -11.453   7.749  72.558  1.00  0.00    -0.428 C  
HETATM    9  C   UNL     1     -10.815   5.590  71.763  1.00  0.00    -0.277 C  
HETATM   10  C   UNL     1      -9.296   3.628  71.539  1.00  0.00    -0.207 C  
HETATM   11  C   UNL     1     -11.095   6.873  71.465  1.00  0.00    -0.276 C  
HETATM   12  C   UNL     1     -10.881   9.025  69.990  1.00  0.00    -0.247 C  
ENDROOT
BRANCH   2  13
HETATM   13  O   UNL     1      -8.955   7.342  68.559  1.00  0.00    -0.129 OA 
BRANCH  13  14
HETATM   14  C   UNL     1      -8.078   6.692  67.749  1.00  0.00    -0.116 C  
HETATM   15  O   UNL     1      -7.134   5.997  68.124  1.00  0.00    -0.073 OA 
BRANCH  14  16
HETATM   16  C   UNL     1      -8.364   6.958  66.270  1.00  0.00    -0.126 C  
HETATM   17  C   UNL     1      -9.432   8.045  66.063  1.00  0.00    -0.123 C  
HETATM   18  C   UNL     1      -7.013   7.402  65.690  1.00  0.00    -0.060 C  
BRANCH  16  19
HETATM   19  C   UNL     1      -8.840   5.627  65.630  1.00  0.00    -0.150 C  
HETATM   20  C   UNL     1     -10.264   5.233  66.007  1.00  0.00    -0.167 C  
ENDBRANCH  16  19
ENDBRANCH  14  16
ENDBRANCH  13  14
ENDBRANCH   2  13
BRANCH  12  21
HETATM   21  C   UNL     1     -10.948   9.688  68.549  1.00  0.00    -0.153 C  
BRANCH  21  22
HETATM   22  C   UNL     1     -10.235  11.029  68.464  1.00  0.00    -0.203 C  
BRANCH  22  23
HETATM   23  C   UNL     1     -10.757  12.270  67.753  1.00  0.00    -0.217 C  
HETATM   24  C   UNL     1     -11.864  13.066  68.398  1.00  0.00    -0.370 C  
HETATM   25  C   UNL     1     -11.934  14.396  67.646  1.00  0.00    -0.343 C  
HETATM   26  O   UNL     1     -10.827  15.228  68.004  1.00  0.00    -0.270 OA 
HETATM   27  C   UNL     1     -12.018  14.209  66.134  1.00  0.00    -0.437 C  
HETATM   28  C   UNL     1     -11.182  13.074  65.588  1.00  0.00    -0.283 C  
HETATM   29  H   UNL     1     -10.871  16.054  67.537  1.00  0.00     0.000 HD 
HETATM   30  O   UNL     1     -10.731  13.077  64.449  1.00  0.00    -0.350 OA 
HETATM   31  O   UNL     1     -11.099  11.979  66.393  1.00  0.00    -0.288 OA 
ENDBRANCH  22  23
ENDBRANCH  21  22
ENDBRANCH  12  21
TORSDOF 7
ENDMDL
MODEL      141
REMARK 921   NORMALIZED FREE ENERGY PREDICTED BY IDOCK:   -4.61 KCAL/MOL
REMARK 922        TOTAL FREE ENERGY PREDICTED BY IDOCK:   -7.99 KCAL/MOL
REMARK 923 INTER-LIGAND FREE ENERGY PREDICTED BY IDOCK:   -6.67 KCAL/MOL
REMARK 924 INTRA-LIGAND FREE ENERGY PREDICTED BY IDOCK:   -1.32 KCAL/MOL
REMARK 927      BINDING AFFINITY PREDICTED BY RF-SCORE:    0.00 PKD
ROOT
HETATM    1  C   UNL     1     -10.854   8.232  68.411  1.00  0.00     0.036 C  
HETATM    2  C   UNL     1     -10.435   7.495  67.081  1.00  0.00    -0.336 C  
HETATM    3  C   UNL     1      -9.872   6.063  67.167  1.00  0.00    -0.165 C  
HETATM    4  C   UNL     1     -10.753  10.347  69.980  1.00  0.00    -0.321 C  
HETATM    5  C   UNL     1     -10.302   5.232  68.364  1.00  0.00    -0.178 C  
HETATM    6  C   UNL     1     -10.289   9.402  71.047  1.00  0.00    -0.382 C  
HETATM    7  C   UNL     1     -12.182  10.716  70.421  1.00  0.00    -0.432 C  
HETATM    8  C   UNL     1     -10.213   8.080  70.894  1.00  0.00    -0.213 C  
HETATM    9  C   UNL     1     -10.286   6.070  69.608  1.00  0.00    -0.294 C  
HETATM   10  C   UNL     1      -9.306   4.064  68.501  1.00  0.00    -0.221 C  
HETATM   11  C   UNL     1     -10.453   7.405  69.638  1.00  0.00    -0.237 C  
HETATM   12  C   UNL     1     -10.494   9.776  68.529  1.00  0.00    -0.239 C  
ENDROOT
BRANCH   2  13
HETATM   13  O   UNL     1      -9.571   8.243  66.208  1.00  0.00    -0.220 OA 
BRANCH  13  14
HETATM   14  C   UNL     1      -8.226   8.088  66.325  1.00  0.00    -0.116 C  
HETATM   15  O   UNL     1      -7.631   7.707  67.334  1.00  0.00    -0.103 OA 
BRANCH  14  16
HETATM   16  C   UNL     1      -7.492   8.494  65.046  1.00  0.00    -0.089 C  
HETATM   17  C   UNL     1      -7.113   7.283  64.176  1.00  0.00    -0.067 C  
HETATM   18  C   UNL     1      -8.479   9.410  64.309  1.00  0.00    -0.198 C  
BRANCH  16  19
HETATM   19  C   UNL     1      -6.209   9.264  65.457  1.00  0.00    -0.064 C  
HETATM   20  C   UNL     1      -6.477  10.630  66.077  1.00  0.00    -0.129 C  
ENDBRANCH  16  19
ENDBRANCH  14  16
ENDBRANCH  13  14
ENDBRANCH   2  13
BRANCH  12  21
HETATM   21  C   UNL     1     -11.013  10.710  67.354  1.00  0.00    -0.361 C  
BRANCH  21  22
HETATM   22  C   UNL     1     -10.001  11.762  66.924  1.00  0.00    -0.220 C  
BRANCH  22  23
HETATM   23  C   UNL     1     -10.166  13.268  67.073  1.00  0.00    -0.244 C  
HETATM   24  C   UNL     1      -9.122  14.177  66.474  1.00  0.00    -0.198 C  
HETATM   25  C   UNL     1      -9.717  15.586  66.487  1.00  0.00    -0.270 C  
HETATM   26  O   UNL     1     -10.722  15.709  65.477  1.00  0.00    -0.350 OA 
HETATM   27  C   UNL     1     -10.260  15.979  67.857  1.00  0.00    -0.258 C  
HETATM   28  C   UNL     1     -10.944  14.861  68.613  1.00  0.00    -0.257 C  
HETATM   29  H   UNL     1     -11.092  16.584  65.485  1.00  0.00     0.000 HD 
HETATM   30  O   UNL     1     -11.833  15.066  69.429  1.00  0.00    -0.303 OA 
HETATM   31  O   UNL     1     -10.394  13.627  68.441  1.00  0.00    -0.238 OA 
ENDBRANCH  22  23
ENDBRANCH  21  22
ENDBRANCH  12  21
TORSDOF 7
ENDMDL
MODEL      142
REMARK 921   NORMALIZED FREE ENERGY PREDICTED BY IDOCK:   -4.61 KCAL/MOL
REMARK 922        TOTAL FREE ENERGY PREDICTED BY IDOCK:   -7.99 KCAL/MOL
REMARK 923 INTER-LIGAND FREE ENERGY PREDICTED BY IDOCK:   -6.58 KCAL/MOL
REMARK 924 INTRA-LIGAND FREE ENERGY PREDICTED BY IDOCK:   -1.40 KCAL/MOL
REMARK 927      BINDING AFFINITY PREDICTED BY RF-SCORE:    0.00 PKD
ROOT
HETATM    1  C   UNL     1      -9.398  10.800  66.535  1.00  0.00    -0.192 C  
HETATM    2  C   UNL     1      -8.584   9.492  66.197  1.00  0.00    -0.131 C  
HETATM    3  C   UNL     1      -8.569   8.974  64.747  1.00  0.00    -0.201 C  
HETATM    4  C   UNL     1     -11.166  12.071  68.019  1.00  0.00    -0.316 C  
HETATM    5  C   UNL     1      -8.791  10.005  63.653  1.00  0.00    -0.249 C  
HETATM    6  C   UNL     1     -11.880  12.361  66.734  1.00  0.00    -0.385 C  
HETATM    7  C   UNL     1     -10.589  13.439  68.429  1.00  0.00    -0.259 C  
HETATM    8  C   UNL     1     -11.410  12.039  65.528  1.00  0.00    -0.381 C  
HETATM    9  C   UNL     1      -9.880  10.956  64.050  1.00  0.00    -0.377 C  
HETATM   10  C   UNL     1      -9.192   9.246  62.373  1.00  0.00     0.003 C  
HETATM   11  C   UNL     1     -10.211  11.260  65.319  1.00  0.00    -0.328 C  
HETATM   12  C   UNL     1     -10.215  10.813  67.898  1.00  0.00    -0.203 C  
ENDROOT
BRANCH   2  13
HETATM   13  O   UNL     1      -8.846   8.365  67.052  1.00  0.00    -0.129 OA 
BRANCH  13  14
HETATM   14  C   UNL     1      -8.250   7.175  66.772  1.00  0.00    -0.114 C  
HETATM   15  O   UNL     1      -7.041   6.996  66.618  1.00  0.00    -0.073 OA 
BRANCH  14  16
HETATM   16  C   UNL     1      -9.271   6.048  66.616  1.00  0.00    -0.151 C  
HETATM   17  C   UNL     1     -10.697   6.489  66.990  1.00  0.00    -0.434 C  
HETATM   18  C   UNL     1      -9.193   5.659  65.132  1.00  0.00     0.154 C  
BRANCH  16  19
HETATM   19  C   UNL     1      -8.830   4.875  67.530  1.00  0.00    -0.105 C  
HETATM   20  C   UNL     1      -8.792   5.224  69.013  1.00  0.00    -0.111 C  
ENDBRANCH  16  19
ENDBRANCH  14  16
ENDBRANCH  13  14
ENDBRANCH   2  13
BRANCH  12  21
HETATM   21  C   UNL     1      -9.390  10.486  69.215  1.00  0.00    -0.177 C  
BRANCH  21  22
HETATM   22  C   UNL     1      -9.907   9.270  69.969  1.00  0.00    -0.232 C  
BRANCH  22  23
HETATM   23  C   UNL     1     -11.305   9.114  70.553  1.00  0.00    -0.257 C  
HETATM   24  C   UNL     1     -11.962  10.310  71.196  1.00  0.00    -0.472 C  
HETATM   25  C   UNL     1     -13.437   9.950  71.374  1.00  0.00    -0.302 C  
HETATM   26  O   UNL     1     -14.111   9.979  70.113  1.00  0.00     0.097 OA 
HETATM   27  C   UNL     1     -13.631   8.607  72.071  1.00  0.00    -0.451 C  
HETATM   28  C   UNL     1     -12.632   7.540  71.682  1.00  0.00    -0.348 C  
HETATM   29  H   UNL     1     -15.028   9.756  70.223  1.00  0.00     0.000 HD 
HETATM   30  O   UNL     1     -12.896   6.345  71.720  1.00  0.00    -0.210 OA 
HETATM   31  O   UNL     1     -11.370   7.991  71.440  1.00  0.00    -0.247 OA 
ENDBRANCH  22  23
ENDBRANCH  21  22
ENDBRANCH  12  21
TORSDOF 7
ENDMDL
MODEL      143
REMARK 921   NORMALIZED FREE ENERGY PREDICTED BY IDOCK:   -4.61 KCAL/MOL
REMARK 922        TOTAL FREE ENERGY PREDICTED BY IDOCK:   -7.98 KCAL/MOL
REMARK 923 INTER-LIGAND FREE ENERGY PREDICTED BY IDOCK:   -7.10 KCAL/MOL
REMARK 924 INTRA-LIGAND FREE ENERGY PREDICTED BY IDOCK:   -0.88 KCAL/MOL
REMARK 927      BINDING AFFINITY PREDICTED BY RF-SCORE:    0.00 PKD
ROOT
HETATM    1  C   UNL     1      -8.409  12.695  68.522  1.00  0.00    -0.060 C  
HETATM    2  C   UNL     1      -9.650  11.779  68.193  1.00  0.00    -0.193 C  
HETATM    3  C   UNL     1      -9.444  10.257  68.070  1.00  0.00    -0.156 C  
HETATM    4  C   UNL     1      -6.921  14.804  67.991  1.00  0.00    -0.149 C  
HETATM    5  C   UNL     1      -8.276   9.663  68.838  1.00  0.00    -0.110 C  
HETATM    6  C   UNL     1      -5.771  13.844  67.926  1.00  0.00    -0.116 C  
HETATM    7  C   UNL     1      -6.668  15.583  69.295  1.00  0.00    -0.154 C  
HETATM    8  C   UNL     1      -5.864  12.545  68.212  1.00  0.00    -0.062 C  
HETATM    9  C   UNL     1      -7.072  10.549  68.716  1.00  0.00    -0.073 C  
HETATM   10  C   UNL     1      -7.977   8.278  68.233  1.00  0.00    -0.119 C  
HETATM   11  C   UNL     1      -7.112  11.877  68.501  1.00  0.00    -0.089 C  
HETATM   12  C   UNL     1      -8.308  14.083  67.755  1.00  0.00    -0.176 C  
ENDROOT
BRANCH   2  13
HETATM   13  O   UNL     1     -10.442  12.196  67.068  1.00  0.00    -0.217 OA 
BRANCH  13  14
HETATM   14  C   UNL     1     -10.044  11.842  65.817  1.00  0.00    -0.241 C  
HETATM   15  O   UNL     1      -9.094  11.106  65.547  1.00  0.00    -0.206 OA 
BRANCH  14  16
HETATM   16  C   UNL     1     -10.897  12.509  64.736  1.00  0.00    -0.332 C  
HETATM   17  C   UNL     1     -10.470  13.961  64.463  1.00  0.00    -0.334 C  
HETATM   18  C   UNL     1     -10.691  11.636  63.490  1.00  0.00    -0.495 C  
BRANCH  16  19
HETATM   19  C   UNL     1     -12.374  12.477  65.208  1.00  0.00    -0.469 C  
HETATM   20  C   UNL     1     -12.849  13.777  65.848  1.00  0.00    -0.369 C  
ENDBRANCH  16  19
ENDBRANCH  14  16
ENDBRANCH  13  14
ENDBRANCH   2  13
BRANCH  12  21
HETATM   21  C   UNL     1      -9.571  15.039  67.864  1.00  0.00    -0.203 C  
BRANCH  21  22
HETATM   22  C   UNL     1      -9.616  16.110  66.784  1.00  0.00    -0.256 C  
BRANCH  22  23
HETATM   23  C   UNL     1      -9.414  17.603  67.004  1.00  0.00    -0.266 C  
HETATM   24  C   UNL     1      -8.334  18.313  66.225  1.00  0.00    -0.230 C  
HETATM   25  C   UNL     1      -8.590  19.811  66.397  1.00  0.00    -0.360 C  
HETATM   26  O   UNL     1      -9.722  20.212  65.621  1.00  0.00    -0.502 OA 
HETATM   27  C   UNL     1      -8.754  20.211  67.859  1.00  0.00    -0.274 C  
HETATM   28  C   UNL     1      -9.503  19.212  68.711  1.00  0.00    -0.399 C  
HETATM   29  H   UNL     1      -9.881  21.143  65.727  1.00  0.00     0.000 HD 
HETATM   30  O   UNL     1     -10.148  19.541  69.700  1.00  0.00    -0.218 OA 
HETATM   31  O   UNL     1      -9.283  17.906  68.398  1.00  0.00    -0.274 OA 
ENDBRANCH  22  23
ENDBRANCH  21  22
ENDBRANCH  12  21
TORSDOF 7
ENDMDL
MODEL      144
REMARK 921   NORMALIZED FREE ENERGY PREDICTED BY IDOCK:   -4.60 KCAL/MOL
REMARK 922        TOTAL FREE ENERGY PREDICTED BY IDOCK:   -7.98 KCAL/MOL
REMARK 923 INTER-LIGAND FREE ENERGY PREDICTED BY IDOCK:   -6.60 KCAL/MOL
REMARK 924 INTRA-LIGAND FREE ENERGY PREDICTED BY IDOCK:   -1.38 KCAL/MOL
REMARK 927      BINDING AFFINITY PREDICTED BY RF-SCORE:    0.00 PKD
ROOT
HETATM    1  C   UNL     1     -10.952   7.978  69.230  1.00  0.00     0.023 C  
HETATM    2  C   UNL     1     -10.071   7.633  67.968  1.00  0.00    -0.187 C  
HETATM    3  C   UNL     1      -9.325   6.286  67.923  1.00  0.00    -0.114 C  
HETATM    4  C   UNL     1     -11.631   9.644  71.156  1.00  0.00    -0.456 C  
HETATM    5  C   UNL     1      -9.922   5.149  68.736  1.00  0.00    -0.237 C  
HETATM    6  C   UNL     1     -11.326   8.516  72.095  1.00  0.00    -0.442 C  
HETATM    7  C   UNL     1     -13.166   9.753  71.209  1.00  0.00    -0.452 C  
HETATM    8  C   UNL     1     -10.995   7.285  71.703  1.00  0.00    -0.253 C  
HETATM    9  C   UNL     1     -10.384   5.654  70.071  1.00  0.00    -0.345 C  
HETATM   10  C   UNL     1      -8.824   4.085  68.925  1.00  0.00    -0.149 C  
HETATM   11  C   UNL     1     -10.770   6.919  70.323  1.00  0.00    -0.274 C  
HETATM   12  C   UNL     1     -10.896   9.473  69.767  1.00  0.00    -0.264 C  
ENDROOT
BRANCH   2  13
HETATM   13  O   UNL     1      -9.137   8.652  67.571  1.00  0.00    -0.133 OA 
BRANCH  13  14
HETATM   14  C   UNL     1      -7.834   8.313  67.386  1.00  0.00    -0.106 C  
HETATM   15  O   UNL     1      -7.388   7.665  66.438  1.00  0.00    -0.076 OA 
BRANCH  14  16
HETATM   16  C   UNL     1      -6.949   8.795  68.536  1.00  0.00    -0.065 C  
HETATM   17  C   UNL     1      -5.468   8.905  68.133  1.00  0.00    -0.035 C  
HETATM   18  C   UNL     1      -7.517  10.172  68.908  1.00  0.00    -0.086 C  
BRANCH  16  19
HETATM   19  C   UNL     1      -7.099   7.788  69.707  1.00  0.00    -0.066 C  
HETATM   20  C   UNL     1      -7.563   8.422  71.013  1.00  0.00    -0.084 C  
ENDBRANCH  16  19
ENDBRANCH  14  16
ENDBRANCH  13  14
ENDBRANCH   2  13
BRANCH  12  21
HETATM   21  C   UNL     1     -11.221  10.612  68.709  1.00  0.00    -0.337 C  
BRANCH  21  22
HETATM   22  C   UNL     1     -11.578  11.947  69.345  1.00  0.00    -0.388 C  
BRANCH  22  23
HETATM   23  C   UNL     1     -11.044  13.307  68.916  1.00  0.00    -0.261 C  
HETATM   24  C   UNL     1     -11.948  14.510  69.023  1.00  0.00    -0.334 C  
HETATM   25  C   UNL     1     -11.055  15.739  68.852  1.00  0.00    -0.298 C  
HETATM   26  O   UNL     1     -10.269  15.948  70.029  1.00  0.00    -0.279 OA 
HETATM   27  C   UNL     1     -10.175  15.654  67.609  1.00  0.00    -0.261 C  
HETATM   28  C   UNL     1      -9.631  14.275  67.310  1.00  0.00    -0.232 C  
HETATM   29  H   UNL     1      -9.714  16.712  69.923  1.00  0.00     0.000 HD 
HETATM   30  O   UNL     1      -8.575  14.098  66.716  1.00  0.00    -0.181 OA 
HETATM   31  O   UNL     1     -10.473  13.246  67.604  1.00  0.00    -0.225 OA 
ENDBRANCH  22  23
ENDBRANCH  21  22
ENDBRANCH  12  21
TORSDOF 7
ENDMDL
MODEL      145
REMARK 921   NORMALIZED FREE ENERGY PREDICTED BY IDOCK:   -4.58 KCAL/MOL
REMARK 922        TOTAL FREE ENERGY PREDICTED BY IDOCK:   -7.94 KCAL/MOL
REMARK 923 INTER-LIGAND FREE ENERGY PREDICTED BY IDOCK:   -6.68 KCAL/MOL
REMARK 924 INTRA-LIGAND FREE ENERGY PREDICTED BY IDOCK:   -1.26 KCAL/MOL
REMARK 927      BINDING AFFINITY PREDICTED BY RF-SCORE:    0.00 PKD
ROOT
HETATM    1  C   UNL     1      -8.812   5.723  68.357  1.00  0.00    -0.109 C  
HETATM    2  C   UNL     1      -8.975   6.203  69.851  1.00  0.00    -0.139 C  
HETATM    3  C   UNL     1      -9.285   5.160  70.941  1.00  0.00    -0.188 C  
HETATM    4  C   UNL     1      -9.420   5.955  65.804  1.00  0.00     0.034 C  
HETATM    5  C   UNL     1      -8.827   3.737  70.672  1.00  0.00    -0.135 C  
HETATM    6  C   UNL     1      -9.807   4.508  65.874  1.00  0.00    -0.236 C  
HETATM    7  C   UNL     1      -8.123   5.942  64.974  1.00  0.00    -0.132 C  
HETATM    8  C   UNL     1      -9.637   3.739  66.950  1.00  0.00    -0.207 C  
HETATM    9  C   UNL     1      -9.100   3.365  69.245  1.00  0.00    -0.199 C  
HETATM   10  C   UNL     1      -9.612   2.808  71.620  1.00  0.00    -0.222 C  
HETATM   11  C   UNL     1      -9.171   4.239  68.223  1.00  0.00    -0.190 C  
HETATM   12  C   UNL     1      -9.445   6.644  67.226  1.00  0.00    -0.151 C  
ENDROOT
BRANCH   2  13
HETATM   13  O   UNL     1      -9.874   7.309  70.047  1.00  0.00    -0.175 OA 
BRANCH  13  14
HETATM   14  C   UNL     1     -11.189   7.053  70.281  1.00  0.00    -0.298 C  
HETATM   15  O   UNL     1     -11.902   6.298  69.618  1.00  0.00    -0.290 OA 
BRANCH  14  16
HETATM   16  C   UNL     1     -11.726   7.859  71.463  1.00  0.00    -0.317 C  
HETATM   17  C   UNL     1     -11.275   9.329  71.426  1.00  0.00    -0.433 C  
HETATM   18  C   UNL     1     -13.253   7.753  71.339  1.00  0.00    -0.310 C  
BRANCH  16  19
HETATM   19  C   UNL     1     -11.219   7.189  72.767  1.00  0.00    -0.314 C  
HETATM   20  C   UNL     1      -9.928   7.788  73.311  1.00  0.00    -0.370 C  
ENDBRANCH  16  19
ENDBRANCH  14  16
ENDBRANCH  13  14
ENDBRANCH   2  13
BRANCH  12  21
HETATM   21  C   UNL     1      -8.993   8.166  67.225  1.00  0.00    -0.149 C  
BRANCH  21  22
HETATM   22  C   UNL     1     -10.146   9.140  67.031  1.00  0.00    -0.316 C  
BRANCH  22  23
HETATM   23  C   UNL     1     -10.194  10.574  67.541  1.00  0.00    -0.206 C  
HETATM   24  C   UNL     1     -11.319  11.470  67.089  1.00  0.00    -0.354 C  
HETATM   25  C   UNL     1     -11.292  12.695  68.004  1.00  0.00    -0.290 C  
HETATM   26  O   UNL     1     -11.788  12.356  69.301  1.00  0.00    -0.303 OA 
HETATM   27  C   UNL     1      -9.907  13.329  68.090  1.00  0.00    -0.231 C  
HETATM   28  C   UNL     1      -8.759  12.345  68.108  1.00  0.00    -0.190 C  
HETATM   29  H   UNL     1     -11.771  13.117  69.870  1.00  0.00     0.000 HD 
HETATM   30  O   UNL     1      -7.690  12.589  68.653  1.00  0.00    -0.120 OA 
HETATM   31  O   UNL     1      -8.938  11.234  67.340  1.00  0.00    -0.142 OA 
ENDBRANCH  22  23
ENDBRANCH  21  22
ENDBRANCH  12  21
TORSDOF 7
ENDMDL
MODEL      146
REMARK 921   NORMALIZED FREE ENERGY PREDICTED BY IDOCK:   -4.56 KCAL/MOL
REMARK 922        TOTAL FREE ENERGY PREDICTED BY IDOCK:   -7.92 KCAL/MOL
REMARK 923 INTER-LIGAND FREE ENERGY PREDICTED BY IDOCK:   -6.51 KCAL/MOL
REMARK 924 INTRA-LIGAND FREE ENERGY PREDICTED BY IDOCK:   -1.40 KCAL/MOL
REMARK 927      BINDING AFFINITY PREDICTED BY RF-SCORE:    0.00 PKD
ROOT
HETATM    1  C   UNL     1     -10.715  15.399  67.641  1.00  0.00    -0.292 C  
HETATM    2  C   UNL     1      -9.879  15.623  68.961  1.00  0.00    -0.236 C  
HETATM    3  C   UNL     1      -9.379  17.040  69.297  1.00  0.00     0.018 C  
HETATM    4  C   UNL     1     -11.136  14.079  65.400  1.00  0.00    -0.318 C  
HETATM    5  C   UNL     1     -10.182  18.199  68.731  1.00  0.00    -0.353 C  
HETATM    6  C   UNL     1     -11.053  15.414  64.723  1.00  0.00    -0.416 C  
HETATM    7  C   UNL     1     -12.630  13.717  65.302  1.00  0.00    -0.512 C  
HETATM    8  C   UNL     1     -10.933  16.574  65.368  1.00  0.00    -0.137 C  
HETATM    9  C   UNL     1     -10.579  17.910  67.314  1.00  0.00    -0.341 C  
HETATM   10  C   UNL     1      -9.290  19.454  68.786  1.00  0.00    -0.444 C  
HETATM   11  C   UNL     1     -10.744  16.679  66.797  1.00  0.00    -0.133 C  
HETATM   12  C   UNL     1     -10.411  14.082  66.805  1.00  0.00    -0.277 C  
ENDROOT
BRANCH   2  13
HETATM   13  O   UNL     1      -8.774  14.722  69.149  1.00  0.00    -0.161 OA 
BRANCH  13  14
HETATM   14  C   UNL     1      -7.515  15.231  69.211  1.00  0.00    -0.200 C  
HETATM   15  O   UNL     1      -7.032  15.839  70.168  1.00  0.00     0.003 OA 
BRANCH  14  16
HETATM   16  C   UNL     1      -6.744  15.007  67.910  1.00  0.00    -0.172 C  
HETATM   17  C   UNL     1      -7.256  15.895  66.762  1.00  0.00    -0.082 C  
HETATM   18  C   UNL     1      -5.289  15.352  68.260  1.00  0.00    -0.113 C  
BRANCH  16  19
HETATM   19  C   UNL     1      -6.891  13.513  67.520  1.00  0.00    -0.156 C  
HETATM   20  C   UNL     1      -5.572  12.749  67.486  1.00  0.00    -0.104 C  
ENDBRANCH  16  19
ENDBRANCH  14  16
ENDBRANCH  13  14
ENDBRANCH   2  13
BRANCH  12  21
HETATM   21  C   UNL     1     -10.510  12.709  67.597  1.00  0.00    -0.226 C  
BRANCH  21  22
HETATM   22  C   UNL     1      -9.884  11.536  66.857  1.00  0.00    -0.220 C  
BRANCH  22  23
HETATM   23  C   UNL     1      -9.875  10.089  67.330  1.00  0.00    -0.181 C  
HETATM   24  C   UNL     1     -10.261   9.003  66.356  1.00  0.00    -0.297 C  
HETATM   25  C   UNL     1      -9.840   7.680  66.996  1.00  0.00    -0.215 C  
HETATM   26  O   UNL     1      -8.419   7.531  66.941  1.00  0.00    -0.118 OA 
HETATM   27  C   UNL     1     -10.355   7.531  68.424  1.00  0.00    -0.226 C  
HETATM   28  C   UNL     1     -10.341   8.804  69.239  1.00  0.00    -0.214 C  
HETATM   29  H   UNL     1      -8.158   6.709  67.338  1.00  0.00     0.000 HD 
HETATM   30  O   UNL     1     -10.227   8.805  70.459  1.00  0.00    -0.189 OA 
HETATM   31  O   UNL     1     -10.623   9.940  68.543  1.00  0.00    -0.199 OA 
ENDBRANCH  22  23
ENDBRANCH  21  22
ENDBRANCH  12  21
TORSDOF 7
ENDMDL
MODEL      147
REMARK 921   NORMALIZED FREE ENERGY PREDICTED BY IDOCK:   -4.55 KCAL/MOL
REMARK 922        TOTAL FREE ENERGY PREDICTED BY IDOCK:   -7.91 KCAL/MOL
REMARK 923 INTER-LIGAND FREE ENERGY PREDICTED BY IDOCK:   -6.76 KCAL/MOL
REMARK 924 INTRA-LIGAND FREE ENERGY PREDICTED BY IDOCK:   -1.14 KCAL/MOL
REMARK 927      BINDING AFFINITY PREDICTED BY RF-SCORE:    0.00 PKD
ROOT
HETATM    1  C   UNL     1     -11.254  11.541  69.391  1.00  0.00    -0.324 C  
HETATM    2  C   UNL     1     -10.792  10.062  69.685  1.00  0.00    -0.260 C  
HETATM    3  C   UNL     1     -11.524   9.253  70.772  1.00  0.00    -0.351 C  
HETATM    4  C   UNL     1     -10.679  14.092  69.067  1.00  0.00    -0.249 C  
HETATM    5  C   UNL     1     -12.964   9.644  71.060  1.00  0.00    -0.325 C  
HETATM    6  C   UNL     1     -11.689  14.347  70.146  1.00  0.00    -0.361 C  
HETATM    7  C   UNL     1     -11.374  14.608  67.793  1.00  0.00    -0.338 C  
HETATM    8  C   UNL     1     -12.449  13.401  70.698  1.00  0.00    -0.385 C  
HETATM    9  C   UNL     1     -13.100  11.137  71.082  1.00  0.00    -0.284 C  
HETATM   10  C   UNL     1     -13.339   9.058  72.435  1.00  0.00    -0.516 C  
HETATM   11  C   UNL     1     -12.306  11.992  70.411  1.00  0.00    -0.317 C  
HETATM   12  C   UNL     1     -10.115  12.616  69.121  1.00  0.00     0.306 C  
ENDROOT
BRANCH   2  13
HETATM   13  O   UNL     1      -9.381   9.889  69.899  1.00  0.00    -0.220 OA 
BRANCH  13  14
HETATM   14  C   UNL     1      -8.737   8.880  69.252  1.00  0.00    -0.138 C  
HETATM   15  O   UNL     1      -9.027   8.441  68.138  1.00  0.00    -0.138 OA 
BRANCH  14  16
HETATM   16  C   UNL     1      -7.605   8.293  70.094  1.00  0.00    -0.075 C  
HETATM   17  C   UNL     1      -6.403   9.247  70.212  1.00  0.00    -0.051 C  
HETATM   18  C   UNL     1      -8.238   8.042  71.471  1.00  0.00    -0.135 C  
BRANCH  16  19
HETATM   19  C   UNL     1      -7.155   6.965  69.430  1.00  0.00    -0.079 C  
HETATM   20  C   UNL     1      -5.827   7.061  68.689  1.00  0.00    -0.019 C  
ENDBRANCH  16  19
ENDBRANCH  14  16
ENDBRANCH  13  14
ENDBRANCH   2  13
BRANCH  12  21
HETATM   21  C   UNL     1      -9.079  12.268  67.970  1.00  0.00    -0.191 C  
BRANCH  21  22
HETATM   22  C   UNL     1      -9.689  11.473  66.825  1.00  0.00    -0.220 C  
BRANCH  22  23
HETATM   23  C   UNL     1     -10.595  12.034  65.738  1.00  0.00    -0.263 C  
HETATM   24  C   UNL     1     -11.128  11.098  64.681  1.00  0.00    -0.154 C  
HETATM   25  C   UNL     1     -12.242  11.854  63.956  1.00  0.00    -0.339 C  
HETATM   26  O   UNL     1     -13.406  11.935  64.784  1.00  0.00    -0.055 OA 
HETATM   27  C   UNL     1     -11.802  13.236  63.486  1.00  0.00    -0.477 C  
HETATM   28  C   UNL     1     -10.887  13.969  64.441  1.00  0.00    -0.249 C  
HETATM   29  H   UNL     1     -14.098  12.404  64.334  1.00  0.00     0.000 HD 
HETATM   30  O   UNL     1     -10.840  15.192  64.500  1.00  0.00    -0.312 OA 
HETATM   31  O   UNL     1     -10.005  13.181  65.116  1.00  0.00    -0.244 OA 
ENDBRANCH  22  23
ENDBRANCH  21  22
ENDBRANCH  12  21
TORSDOF 7
ENDMDL
MODEL      148
REMARK 921   NORMALIZED FREE ENERGY PREDICTED BY IDOCK:   -4.53 KCAL/MOL
REMARK 922        TOTAL FREE ENERGY PREDICTED BY IDOCK:   -7.88 KCAL/MOL
REMARK 923 INTER-LIGAND FREE ENERGY PREDICTED BY IDOCK:   -6.32 KCAL/MOL
REMARK 924 INTRA-LIGAND FREE ENERGY PREDICTED BY IDOCK:   -1.56 KCAL/MOL
REMARK 927      BINDING AFFINITY PREDICTED BY RF-SCORE:    0.00 PKD
ROOT
HETATM    1  C   UNL     1      -9.440  14.318  68.749  1.00  0.00    -0.131 C  
HETATM    2  C   UNL     1      -8.103  13.874  68.040  1.00  0.00    -0.154 C  
HETATM    3  C   UNL     1      -7.318  14.908  67.211  1.00  0.00    -0.174 C  
HETATM    4  C   UNL     1     -11.995  13.925  69.260  1.00  0.00    -0.402 C  
HETATM    5  C   UNL     1      -7.496  16.367  67.595  1.00  0.00    -0.153 C  
HETATM    6  C   UNL     1     -12.205  15.314  68.738  1.00  0.00    -0.084 C  
HETATM    7  C   UNL     1     -12.234  14.068  70.775  1.00  0.00    -0.438 C  
HETATM    8  C   UNL     1     -11.218  16.135  68.377  1.00  0.00    -0.358 C  
HETATM    9  C   UNL     1      -8.938  16.652  67.892  1.00  0.00    -0.217 C  
HETATM   10  C   UNL     1      -7.023  17.224  66.405  1.00  0.00    -0.310 C  
HETATM   11  C   UNL     1      -9.828  15.741  68.330  1.00  0.00    -0.206 C  
HETATM   12  C   UNL     1     -10.650  13.288  68.726  1.00  0.00    -0.224 C  
ENDROOT
BRANCH   2  13
HETATM   13  O   UNL     1      -8.193  12.674  67.253  1.00  0.00    -0.176 OA 
BRANCH  13  14
HETATM   14  C   UNL     1      -7.505  11.572  67.655  1.00  0.00    -0.110 C  
HETATM   15  O   UNL     1      -6.784  11.499  68.651  1.00  0.00    -0.062 OA 
BRANCH  14  16
HETATM   16  C   UNL     1      -7.685  10.402  66.688  1.00  0.00    -0.117 C  
HETATM   17  C   UNL     1      -6.351   9.916  66.097  1.00  0.00    -0.077 C  
HETATM   18  C   UNL     1      -8.341   9.300  67.534  1.00  0.00    -0.119 C  
BRANCH  16  19
HETATM   19  C   UNL     1      -8.625  10.868  65.545  1.00  0.00    -0.149 C  
HETATM   20  C   UNL     1      -9.965  10.144  65.509  1.00  0.00    -0.363 C  
ENDBRANCH  16  19
ENDBRANCH  14  16
ENDBRANCH  13  14
ENDBRANCH   2  13
BRANCH  12  21
HETATM   21  C   UNL     1     -10.345  11.834  69.287  1.00  0.00     0.084 C  
BRANCH  21  22
HETATM   22  C   UNL     1     -11.555  10.912  69.273  1.00  0.00    -0.388 C  
BRANCH  22  23
HETATM   23  C   UNL     1     -11.778   9.724  70.198  1.00  0.00    -0.130 C  
HETATM   24  C   UNL     1     -11.277   8.366  69.772  1.00  0.00     0.027 C  
HETATM   25  C   UNL     1     -11.338   7.473  71.012  1.00  0.00    -0.273 C  
HETATM   26  O   UNL     1     -10.293   7.819  71.925  1.00  0.00    -0.197 OA 
HETATM   27  C   UNL     1     -12.702   7.515  71.695  1.00  0.00    -0.385 C  
HETATM   28  C   UNL     1     -13.365   8.874  71.706  1.00  0.00    -0.386 C  
HETATM   29  H   UNL     1     -10.331   7.264  72.695  1.00  0.00     0.000 HD 
HETATM   30  O   UNL     1     -14.151   9.216  72.581  1.00  0.00    -0.512 OA 
HETATM   31  O   UNL     1     -13.152   9.630  70.594  1.00  0.00    -0.132 OA 
ENDBRANCH  22  23
ENDBRANCH  21  22
ENDBRANCH  12  21
TORSDOF 7
ENDMDL
MODEL      149
REMARK 921   NORMALIZED FREE ENERGY PREDICTED BY IDOCK:   -4.53 KCAL/MOL
REMARK 922        TOTAL FREE ENERGY PREDICTED BY IDOCK:   -7.87 KCAL/MOL
REMARK 923 INTER-LIGAND FREE ENERGY PREDICTED BY IDOCK:   -6.31 KCAL/MOL
REMARK 924 INTRA-LIGAND FREE ENERGY PREDICTED BY IDOCK:   -1.56 KCAL/MOL
REMARK 927      BINDING AFFINITY PREDICTED BY RF-SCORE:    0.00 PKD
ROOT
HETATM    1  C   UNL     1     -10.376   9.970  70.054  1.00  0.00    -0.323 C  
HETATM    2  C   UNL     1      -9.661  10.596  68.795  1.00  0.00    -0.189 C  
HETATM    3  C   UNL     1     -10.245  11.873  68.161  1.00  0.00    -0.203 C  
HETATM    4  C   UNL     1     -11.413   7.888  71.292  1.00  0.00    -0.293 C  
HETATM    5  C   UNL     1     -11.050  12.781  69.076  1.00  0.00    -0.285 C  
HETATM    6  C   UNL     1     -12.658   8.715  71.414  1.00  0.00    -0.325 C  
HETATM    7  C   UNL     1     -10.871   7.838  72.733  1.00  0.00    -0.438 C  
HETATM    8  C   UNL     1     -12.751   9.989  71.033  1.00  0.00    -0.455 C  
HETATM    9  C   UNL     1     -11.942  11.963  69.963  1.00  0.00    -0.409 C  
HETATM   10  C   UNL     1     -11.898  13.707  68.183  1.00  0.00    -0.407 C  
HETATM   11  C   UNL     1     -11.696  10.695  70.342  1.00  0.00    -0.446 C  
HETATM   12  C   UNL     1     -10.486   8.386  70.113  1.00  0.00    -0.230 C  
ENDROOT
BRANCH   2  13
HETATM   13  O   UNL     1      -9.382   9.676  67.725  1.00  0.00    -0.128 OA 
BRANCH  13  14
HETATM   14  C   UNL     1      -8.209   9.795  67.047  1.00  0.00    -0.117 C  
HETATM   15  O   UNL     1      -7.183  10.327  67.473  1.00  0.00    -0.086 OA 
BRANCH  14  16
HETATM   16  C   UNL     1      -8.307   9.221  65.633  1.00  0.00    -0.128 C  
HETATM   17  C   UNL     1      -9.386   9.919  64.788  1.00  0.00    -0.339 C  
HETATM   18  C   UNL     1      -6.912   9.442  65.030  1.00  0.00    -0.096 C  
BRANCH  16  19
HETATM   19  C   UNL     1      -8.635   7.709  65.754  1.00  0.00    -0.156 C  
HETATM   20  C   UNL     1      -7.785   6.816  64.858  1.00  0.00    -0.110 C  
ENDBRANCH  16  19
ENDBRANCH  14  16
ENDBRANCH  13  14
ENDBRANCH   2  13
BRANCH  12  21
HETATM   21  C   UNL     1      -9.124   7.582  69.966  1.00  0.00    -0.148 C  
BRANCH  21  22
HETATM   22  C   UNL     1      -9.317   6.077  69.853  1.00  0.00    -0.165 C  
BRANCH  22  23
HETATM   23  C   UNL     1      -8.932   5.049  70.908  1.00  0.00    -0.134 C  
HETATM   24  C   UNL     1      -9.997   4.131  71.452  1.00  0.00    -0.223 C  
HETATM   25  C   UNL     1      -9.266   3.023  72.212  1.00  0.00    -0.101 C  
HETATM   26  O   UNL     1      -8.644   2.120  71.294  1.00  0.00    -0.056 OA 
HETATM   27  C   UNL     1      -8.257   3.570  73.216  1.00  0.00    -0.075 C  
HETATM   28  C   UNL     1      -7.503   4.796  72.754  1.00  0.00    -0.086 C  
HETATM   29  H   UNL     1      -8.190   1.431  71.765  1.00  0.00     0.000 HD 
HETATM   30  O   UNL     1      -6.375   5.065  73.150  1.00  0.00    -0.046 OA 
HETATM   31  O   UNL     1      -8.223   5.664  71.990  1.00  0.00    -0.113 OA 
ENDBRANCH  22  23
ENDBRANCH  21  22
ENDBRANCH  12  21
TORSDOF 7
ENDMDL
MODEL      150
REMARK 921   NORMALIZED FREE ENERGY PREDICTED BY IDOCK:   -4.49 KCAL/MOL
REMARK 922        TOTAL FREE ENERGY PREDICTED BY IDOCK:   -7.82 KCAL/MOL
REMARK 923 INTER-LIGAND FREE ENERGY PREDICTED BY IDOCK:   -6.59 KCAL/MOL
REMARK 924 INTRA-LIGAND FREE ENERGY PREDICTED BY IDOCK:   -1.24 KCAL/MOL
REMARK 927      BINDING AFFINITY PREDICTED BY RF-SCORE:    0.00 PKD
ROOT
HETATM    1  C   UNL     1      -8.764   6.517  68.638  1.00  0.00    -0.123 C  
HETATM    2  C   UNL     1      -8.192   6.168  70.067  1.00  0.00    -0.124 C  
HETATM    3  C   UNL     1      -8.083   4.691  70.488  1.00  0.00    -0.068 C  
HETATM    4  C   UNL     1     -10.425   7.879  67.112  1.00  0.00    -0.414 C  
HETATM    5  C   UNL     1      -7.937   3.672  69.369  1.00  0.00    -0.060 C  
HETATM    6  C   UNL     1     -10.881   6.546  66.601  1.00  0.00    -0.222 C  
HETATM    7  C   UNL     1      -9.645   8.474  65.925  1.00  0.00    -0.164 C  
HETATM    8  C   UNL     1     -10.324   5.383  66.942  1.00  0.00    -0.310 C  
HETATM    9  C   UNL     1      -8.856   4.015  68.234  1.00  0.00    -0.138 C  
HETATM   10  C   UNL     1      -8.303   2.291  69.947  1.00  0.00    -0.076 C  
HETATM   11  C   UNL     1      -9.290   5.255  67.944  1.00  0.00    -0.131 C  
HETATM   12  C   UNL     1      -9.741   7.766  68.533  1.00  0.00    -0.165 C  
ENDROOT
BRANCH   2  13
HETATM   13  O   UNL     1      -8.793   6.882  71.161  1.00  0.00    -0.141 OA 
BRANCH  13  14
HETATM   14  C   UNL     1      -9.996   6.463  71.637  1.00  0.00    -0.175 C  
HETATM   15  O   UNL     1     -10.731   5.633  71.101  1.00  0.00    -0.251 OA 
BRANCH  14  16
HETATM   16  C   UNL     1     -10.381   7.185  72.929  1.00  0.00    -0.284 C  
HETATM   17  C   UNL     1     -10.203   6.299  74.174  1.00  0.00    -0.338 C  
HETATM   18  C   UNL     1      -9.444   8.400  72.986  1.00  0.00    -0.237 C  
BRANCH  16  19
HETATM   19  C   UNL     1     -11.865   7.623  72.806  1.00  0.00    -0.205 C  
HETATM   20  C   UNL     1     -12.058   8.980  72.141  1.00  0.00    -0.412 C  
ENDBRANCH  16  19
ENDBRANCH  14  16
ENDBRANCH  13  14
ENDBRANCH   2  13
BRANCH  12  21
HETATM   21  C   UNL     1      -9.189   9.140  69.107  1.00  0.00    -0.144 C  
BRANCH  21  22
HETATM   22  C   UNL     1     -10.286  10.092  69.560  1.00  0.00    -0.256 C  
BRANCH  22  23
HETATM   23  C   UNL     1     -10.823  11.273  68.764  1.00  0.00    -0.208 C  
HETATM   24  C   UNL     1     -10.142  11.649  67.472  1.00  0.00    -0.209 C  
HETATM   25  C   UNL     1     -11.082  12.619  66.754  1.00  0.00    -0.277 C  
HETATM   26  O   UNL     1     -12.204  11.914  66.215  1.00  0.00    -0.471 OA 
HETATM   27  C   UNL     1     -11.531  13.769  67.650  1.00  0.00    -0.354 C  
HETATM   28  C   UNL     1     -11.792  13.387  69.089  1.00  0.00    -0.336 C  
HETATM   29  H   UNL     1     -12.788  12.517  65.769  1.00  0.00     0.000 HD 
HETATM   30  O   UNL     1     -12.593  13.988  69.795  1.00  0.00    -0.276 OA 
HETATM   31  O   UNL     1     -10.962  12.433  69.594  1.00  0.00    -0.022 OA 
ENDBRANCH  22  23
ENDBRANCH  21  22
ENDBRANCH  12  21
TORSDOF 7
ENDMDL
MODEL      151
REMARK 921   NORMALIZED FREE ENERGY PREDICTED BY IDOCK:   -4.48 KCAL/MOL
REMARK 922        TOTAL FREE ENERGY PREDICTED BY IDOCK:   -7.81 KCAL/MOL
REMARK 923 INTER-LIGAND FREE ENERGY PREDICTED BY IDOCK:   -6.63 KCAL/MOL
REMARK 924 INTRA-LIGAND FREE ENERGY PREDICTED BY IDOCK:   -1.17 KCAL/MOL
REMARK 927      BINDING AFFINITY PREDICTED BY RF-SCORE:    0.00 PKD
ROOT
HETATM    1  C   UNL     1      -9.730  12.485  67.603  1.00  0.00    -0.196 C  
HETATM    2  C   UNL     1      -9.043  13.579  68.508  1.00  0.00    -0.092 C  
HETATM    3  C   UNL     1      -9.898  14.735  69.062  1.00  0.00    -0.206 C  
HETATM    4  C   UNL     1      -9.780  11.052  65.392  1.00  0.00    -0.279 C  
HETATM    5  C   UNL     1     -11.382  14.462  69.237  1.00  0.00    -0.319 C  
HETATM    6  C   UNL     1     -11.160  11.602  65.193  1.00  0.00    -0.300 C  
HETATM    7  C   UNL     1     -10.028   9.576  65.754  1.00  0.00    -0.316 C  
HETATM    8  C   UNL     1     -11.792  12.375  66.077  1.00  0.00    -0.459 C  
HETATM    9  C   UNL     1     -11.910  13.696  68.061  1.00  0.00    -0.397 C  
HETATM   10  C   UNL     1     -12.096  15.823  69.346  1.00  0.00    -0.245 C  
HETATM   11  C   UNL     1     -11.177  12.878  67.283  1.00  0.00    -0.329 C  
HETATM   12  C   UNL     1      -8.910  11.967  66.344  1.00  0.00    -0.152 C  
ENDROOT
BRANCH   2  13
HETATM   13  O   UNL     1      -7.839  14.155  67.972  1.00  0.00    -0.121 OA 
BRANCH  13  14
HETATM   14  C   UNL     1      -7.935  15.245  67.166  1.00  0.00    -0.218 C  
HETATM   15  O   UNL     1      -8.745  15.392  66.249  1.00  0.00    -0.300 OA 
BRANCH  14  16
HETATM   16  C   UNL     1      -6.869  16.292  67.492  1.00  0.00    -0.189 C  
HETATM   17  C   UNL     1      -7.278  17.204  68.661  1.00  0.00    -0.229 C  
HETATM   18  C   UNL     1      -5.621  15.472  67.849  1.00  0.00    -0.151 C  
BRANCH  16  19
HETATM   19  C   UNL     1      -6.636  17.147  66.219  1.00  0.00    -0.190 C  
HETATM   20  C   UNL     1      -7.211  18.556  66.304  1.00  0.00    -0.288 C  
ENDBRANCH  16  19
ENDBRANCH  14  16
ENDBRANCH  13  14
ENDBRANCH   2  13
BRANCH  12  21
HETATM   21  C   UNL     1      -7.452  11.409  66.636  1.00  0.00    -0.110 C  
BRANCH  21  22
HETATM   22  C   UNL     1      -7.326  10.720  67.987  1.00  0.00    -0.088 C  
BRANCH  22  23
HETATM   23  C   UNL     1      -8.227   9.607  68.505  1.00  0.00    -0.105 C  
HETATM   24  C   UNL     1      -8.827   9.738  69.883  1.00  0.00    -0.248 C  
HETATM   25  C   UNL     1      -9.919   8.673  69.983  1.00  0.00    -0.185 C  
HETATM   26  O   UNL     1     -11.059   9.056  69.210  1.00  0.00    -0.427 OA 
HETATM   27  C   UNL     1      -9.422   7.287  69.584  1.00  0.00    -0.155 C  
HETATM   28  C   UNL     1      -8.452   7.271  68.423  1.00  0.00    -0.125 C  
HETATM   29  H   UNL     1     -11.737   8.394  69.272  1.00  0.00     0.000 HD 
HETATM   30  O   UNL     1      -8.345   6.313  67.667  1.00  0.00    -0.116 OA 
HETATM   31  O   UNL     1      -7.596   8.328  68.371  1.00  0.00    -0.097 OA 
ENDBRANCH  22  23
ENDBRANCH  21  22
ENDBRANCH  12  21
TORSDOF 7
ENDMDL
MODEL      152
REMARK 921   NORMALIZED FREE ENERGY PREDICTED BY IDOCK:   -4.47 KCAL/MOL
REMARK 922        TOTAL FREE ENERGY PREDICTED BY IDOCK:   -7.79 KCAL/MOL
REMARK 923 INTER-LIGAND FREE ENERGY PREDICTED BY IDOCK:   -6.69 KCAL/MOL
REMARK 924 INTRA-LIGAND FREE ENERGY PREDICTED BY IDOCK:   -1.10 KCAL/MOL
REMARK 927      BINDING AFFINITY PREDICTED BY RF-SCORE:    0.00 PKD
ROOT
HETATM    1  C   UNL     1      -7.543  14.878  67.388  1.00  0.00    -0.232 C  
HETATM    2  C   UNL     1      -8.703  15.185  66.364  1.00  0.00    -0.184 C  
HETATM    3  C   UNL     1      -9.048  16.651  66.043  1.00  0.00    -0.259 C  
HETATM    4  C   UNL     1      -6.658  13.620  69.527  1.00  0.00    -0.069 C  
HETATM    5  C   UNL     1      -7.932  17.668  66.215  1.00  0.00    -0.292 C  
HETATM    6  C   UNL     1      -6.307  14.980  70.052  1.00  0.00    -0.163 C  
HETATM    7  C   UNL     1      -5.288  12.991  69.211  1.00  0.00    -0.075 C  
HETATM    8  C   UNL     1      -6.435  16.107  69.352  1.00  0.00    -0.185 C  
HETATM    9  C   UNL     1      -7.162  17.384  67.471  1.00  0.00    -0.184 C  
HETATM   10  C   UNL     1      -8.581  19.063  66.297  1.00  0.00    -0.281 C  
HETATM   11  C   UNL     1      -7.044  16.171  68.043  1.00  0.00    -0.141 C  
HETATM   12  C   UNL     1      -7.777  13.686  68.413  1.00  0.00    -0.138 C  
ENDROOT
BRANCH   2  13
HETATM   13  O   UNL     1      -9.942  14.498  66.613  1.00  0.00    -0.255 OA 
BRANCH  13  14
HETATM   14  C   UNL     1     -10.771  14.240  65.567  1.00  0.00    -0.331 C  
HETATM   15  O   UNL     1     -11.047  15.025  64.659  1.00  0.00    -0.372 OA 
BRANCH  14  16
HETATM   16  C   UNL     1     -11.387  12.844  65.658  1.00  0.00    -0.344 C  
HETATM   17  C   UNL     1     -10.475  11.758  65.061  1.00  0.00    -0.332 C  
HETATM   18  C   UNL     1     -11.599  12.613  67.161  1.00  0.00    -0.434 C  
BRANCH  16  19
HETATM   19  C   UNL     1     -12.738  12.868  64.896  1.00  0.00    -0.474 C  
HETATM   20  C   UNL     1     -12.715  12.122  63.567  1.00  0.00    -0.553 C  
ENDBRANCH  16  19
ENDBRANCH  14  16
ENDBRANCH  13  14
ENDBRANCH   2  13
BRANCH  12  21
HETATM   21  C   UNL     1      -8.155  12.280  67.779  1.00  0.00    -0.155 C  
BRANCH  21  22
HETATM   22  C   UNL     1      -7.139  11.780  66.763  1.00  0.00    -0.047 C  
BRANCH  22  23
HETATM   23  C   UNL     1      -7.289  10.539  65.893  1.00  0.00    -0.142 C  
HETATM   24  C   UNL     1      -7.495   9.202  66.562  1.00  0.00    -0.093 C  
HETATM   25  C   UNL     1      -7.939   8.234  65.466  1.00  0.00    -0.120 C  
HETATM   26  O   UNL     1      -9.292   8.501  65.086  1.00  0.00    -0.421 OA 
HETATM   27  C   UNL     1      -7.012   8.256  64.255  1.00  0.00    -0.073 C  
HETATM   28  C   UNL     1      -6.480   9.623  63.888  1.00  0.00    -0.111 C  
HETATM   29  H   UNL     1      -9.569   7.899  64.405  1.00  0.00     0.000 HD 
HETATM   30  O   UNL     1      -6.169   9.923  62.742  1.00  0.00    -0.106 OA 
HETATM   31  O   UNL     1      -6.221  10.444  64.942  1.00  0.00    -0.128 OA 
ENDBRANCH  22  23
ENDBRANCH  21  22
ENDBRANCH  12  21
TORSDOF 7
ENDMDL
MODEL      153
REMARK 921   NORMALIZED FREE ENERGY PREDICTED BY IDOCK:   -4.44 KCAL/MOL
REMARK 922        TOTAL FREE ENERGY PREDICTED BY IDOCK:   -7.75 KCAL/MOL
REMARK 923 INTER-LIGAND FREE ENERGY PREDICTED BY IDOCK:   -7.36 KCAL/MOL
REMARK 924 INTRA-LIGAND FREE ENERGY PREDICTED BY IDOCK:   -0.39 KCAL/MOL
REMARK 927      BINDING AFFINITY PREDICTED BY RF-SCORE:    0.00 PKD
ROOT
HETATM    1  C   UNL     1      -9.535  14.868  67.575  1.00  0.00    -0.200 C  
HETATM    2  C   UNL     1     -11.045  15.312  67.690  1.00  0.00    -0.323 C  
HETATM    3  C   UNL     1     -11.393  16.809  67.591  1.00  0.00     0.164 C  
HETATM    4  C   UNL     1      -7.475  13.513  68.504  1.00  0.00    -0.122 C  
HETATM    5  C   UNL     1     -10.427  17.683  66.809  1.00  0.00    -0.289 C  
HETATM    6  C   UNL     1      -6.743  14.821  68.487  1.00  0.00    -0.097 C  
HETATM    7  C   UNL     1      -6.830  12.723  67.351  1.00  0.00    -0.137 C  
HETATM    8  C   UNL     1      -7.248  15.956  68.003  1.00  0.00    -0.142 C  
HETATM    9  C   UNL     1      -9.012  17.309  67.133  1.00  0.00    -0.236 C  
HETATM   10  C   UNL     1     -10.694  19.146  67.212  1.00  0.00    -0.585 C  
HETATM   11  C   UNL     1      -8.613  16.092  67.545  1.00  0.00    -0.190 C  
HETATM   12  C   UNL     1      -9.043  13.713  68.549  1.00  0.00    -0.112 C  
ENDROOT
BRANCH   2  13
HETATM   13  O   UNL     1     -11.759  14.779  68.819  1.00  0.00    -0.302 OA 
BRANCH  13  14
HETATM   14  C   UNL     1     -11.535  15.315  70.049  1.00  0.00    -0.292 C  
HETATM   15  O   UNL     1     -10.704  16.184  70.314  1.00  0.00    -0.301 OA 
BRANCH  14  16
HETATM   16  C   UNL     1     -12.420  14.674  71.119  1.00  0.00    -0.402 C  
HETATM   17  C   UNL     1     -13.857  15.224  71.102  1.00  0.00    -0.498 C  
HETATM   18  C   UNL     1     -12.405  13.175  70.785  1.00  0.00    -0.404 C  
BRANCH  16  19
HETATM   19  C   UNL     1     -11.771  14.950  72.501  1.00  0.00    -0.297 C  
HETATM   20  C   UNL     1     -12.137  16.303  73.099  1.00  0.00    -0.608 C  
ENDBRANCH  16  19
ENDBRANCH  14  16
ENDBRANCH  13  14
ENDBRANCH   2  13
BRANCH  12  21
HETATM   21  C   UNL     1      -9.877  12.362  68.516  1.00  0.00    -0.156 C  
BRANCH  21  22
HETATM   22  C   UNL     1      -9.810  11.641  67.178  1.00  0.00    -0.205 C  
BRANCH  22  23
HETATM   23  C   UNL     1      -9.664  10.138  66.985  1.00  0.00    -0.180 C  
HETATM   24  C   UNL     1      -9.612   9.249  68.203  1.00  0.00    -0.159 C  
HETATM   25  C   UNL     1      -9.803   7.817  67.703  1.00  0.00    -0.163 C  
HETATM   26  O   UNL     1     -11.166   7.600  67.329  1.00  0.00    -0.495 OA 
HETATM   27  C   UNL     1      -8.855   7.466  66.560  1.00  0.00    -0.165 C  
HETATM   28  C   UNL     1      -8.607   8.586  65.574  1.00  0.00    -0.180 C  
HETATM   29  H   UNL     1     -11.285   6.710  67.019  1.00  0.00     0.000 HD 
HETATM   30  O   UNL     1      -8.323   8.380  64.401  1.00  0.00    -0.159 OA 
HETATM   31  O   UNL     1      -8.565   9.834  66.117  1.00  0.00    -0.125 OA 
ENDBRANCH  22  23
ENDBRANCH  21  22
ENDBRANCH  12  21
TORSDOF 7
ENDMDL
MODEL      154
REMARK 921   NORMALIZED FREE ENERGY PREDICTED BY IDOCK:   -4.43 KCAL/MOL
REMARK 922        TOTAL FREE ENERGY PREDICTED BY IDOCK:   -7.74 KCAL/MOL
REMARK 923 INTER-LIGAND FREE ENERGY PREDICTED BY IDOCK:   -6.28 KCAL/MOL
REMARK 924 INTRA-LIGAND FREE ENERGY PREDICTED BY IDOCK:   -1.46 KCAL/MOL
REMARK 927      BINDING AFFINITY PREDICTED BY RF-SCORE:    0.00 PKD
ROOT
HETATM    1  C   UNL     1      -8.853   8.041  68.453  1.00  0.00    -0.134 C  
HETATM    2  C   UNL     1      -8.621   6.619  67.811  1.00  0.00    -0.121 C  
HETATM    3  C   UNL     1      -7.712   5.610  68.538  1.00  0.00    -0.089 C  
HETATM    4  C   UNL     1      -8.887  10.667  68.237  1.00  0.00    -0.139 C  
HETATM    5  C   UNL     1      -7.590   5.765  70.045  1.00  0.00    -0.083 C  
HETATM    6  C   UNL     1      -7.938  10.668  69.397  1.00  0.00    -0.118 C  
HETATM    7  C   UNL     1     -10.198  11.205  68.841  1.00  0.00    -0.209 C  
HETATM    8  C   UNL     1      -7.572   9.575  70.066  1.00  0.00    -0.134 C  
HETATM    9  C   UNL     1      -7.465   7.215  70.408  1.00  0.00    -0.084 C  
HETATM   10  C   UNL     1      -6.331   4.997  70.491  1.00  0.00    -0.026 C  
HETATM   11  C   UNL     1      -7.951   8.236  69.677  1.00  0.00    -0.111 C  
HETATM   12  C   UNL     1      -8.878   9.287  67.466  1.00  0.00    -0.123 C  
ENDROOT
BRANCH   2  13
HETATM   13  O   UNL     1      -8.233   6.624  66.426  1.00  0.00    -0.109 OA 
BRANCH  13  14
HETATM   14  C   UNL     1      -8.597   5.578  65.638  1.00  0.00    -0.148 C  
HETATM   15  O   UNL     1      -9.715   5.062  65.600  1.00  0.00    -0.160 OA 
BRANCH  14  16
HETATM   16  C   UNL     1      -7.426   5.056  64.805  1.00  0.00    -0.075 C  
HETATM   17  C   UNL     1      -6.165   5.925  64.953  1.00  0.00    -0.030 C  
HETATM   18  C   UNL     1      -7.176   3.637  65.336  1.00  0.00    -0.067 C  
BRANCH  16  19
HETATM   19  C   UNL     1      -7.871   5.031  63.319  1.00  0.00    -0.079 C  
HETATM   20  C   UNL     1      -7.934   6.407  62.667  1.00  0.00    -0.101 C  
ENDBRANCH  16  19
ENDBRANCH  14  16
ENDBRANCH  13  14
ENDBRANCH   2  13
BRANCH  12  21
HETATM   21  C   UNL     1      -9.903   9.204  66.256  1.00  0.00    -0.359 C  
BRANCH  21  22
HETATM   22  C   UNL     1      -9.659  10.254  65.182  1.00  0.00    -0.337 C  
BRANCH  22  23
HETATM   23  C   UNL     1     -10.600  11.396  64.825  1.00  0.00    -0.316 C  
HETATM   24  C   UNL     1     -10.569  11.953  63.423  1.00  0.00    -0.485 C  
HETATM   25  C   UNL     1     -11.818  12.822  63.275  1.00  0.00    -0.419 C  
HETATM   26  O   UNL     1     -12.983  12.001  63.160  1.00  0.00    -0.752 OA 
HETATM   27  C   UNL     1     -11.965  13.832  64.409  1.00  0.00    -0.480 C  
HETATM   28  C   UNL     1     -11.555  13.321  65.771  1.00  0.00    -0.337 C  
HETATM   29  H   UNL     1     -13.760  12.541  63.068  1.00  0.00     0.000 HD 
HETATM   30  O   UNL     1     -12.042  13.750  66.810  1.00  0.00    -0.411 OA 
HETATM   31  O   UNL     1     -10.497  12.465  65.773  1.00  0.00    -0.248 OA 
ENDBRANCH  22  23
ENDBRANCH  21  22
ENDBRANCH  12  21
TORSDOF 7
ENDMDL
MODEL      155
REMARK 921   NORMALIZED FREE ENERGY PREDICTED BY IDOCK:   -4.41 KCAL/MOL
REMARK 922        TOTAL FREE ENERGY PREDICTED BY IDOCK:   -7.71 KCAL/MOL
REMARK 923 INTER-LIGAND FREE ENERGY PREDICTED BY IDOCK:   -7.15 KCAL/MOL
REMARK 924 INTRA-LIGAND FREE ENERGY PREDICTED BY IDOCK:   -0.56 KCAL/MOL
REMARK 927      BINDING AFFINITY PREDICTED BY RF-SCORE:    0.00 PKD
ROOT
HETATM    1  C   UNL     1     -10.080  15.645  68.226  1.00  0.00    -0.218 C  
HETATM    2  C   UNL     1     -11.540  15.145  67.899  1.00  0.00    -0.311 C  
HETATM    3  C   UNL     1     -12.378  14.502  69.020  1.00  0.00    -0.122 C  
HETATM    4  C   UNL     1      -7.508  15.714  67.657  1.00  0.00    -0.186 C  
HETATM    5  C   UNL     1     -12.044  14.915  70.444  1.00  0.00    -0.386 C  
HETATM    6  C   UNL     1      -7.294  15.226  69.058  1.00  0.00    -0.157 C  
HETATM    7  C   UNL     1      -7.021  17.174  67.705  1.00  0.00    -0.161 C  
HETATM    8  C   UNL     1      -8.269  15.068  69.953  1.00  0.00     0.208 C  
HETATM    9  C   UNL     1     -10.557  14.985  70.627  1.00  0.00     0.016 C  
HETATM   10  C   UNL     1     -12.645  13.857  71.389  1.00  0.00    -0.444 C  
HETATM   11  C   UNL     1      -9.672  15.231  69.644  1.00  0.00    -0.208 C  
HETATM   12  C   UNL     1      -8.961  15.380  67.129  1.00  0.00    -0.236 C  
ENDROOT
BRANCH   2  13
HETATM   13  O   UNL     1     -11.658  14.303  66.739  1.00  0.00    -0.356 OA 
BRANCH  13  14
HETATM   14  C   UNL     1     -11.587  12.955  66.897  1.00  0.00    -0.368 C  
HETATM   15  O   UNL     1     -12.166  12.302  67.766  1.00  0.00    -0.425 OA 
BRANCH  14  16
HETATM   16  C   UNL     1     -10.646  12.309  65.879  1.00  0.00    -0.290 C  
HETATM   17  C   UNL     1     -11.031  10.854  65.562  1.00  0.00    -0.024 C  
HETATM   18  C   UNL     1     -10.769  13.191  64.628  1.00  0.00    -0.398 C  
BRANCH  16  19
HETATM   19  C   UNL     1      -9.209  12.355  66.462  1.00  0.00    -0.215 C  
HETATM   20  C   UNL     1      -9.074  11.702  67.832  1.00  0.00    -0.171 C  
ENDBRANCH  16  19
ENDBRANCH  14  16
ENDBRANCH  13  14
ENDBRANCH   2  13
BRANCH  12  21
HETATM   21  C   UNL     1      -9.267  15.920  65.668  1.00  0.00    -0.104 C  
BRANCH  21  22
HETATM   22  C   UNL     1     -10.098  17.194  65.654  1.00  0.00    -0.101 C  
BRANCH  22  23
HETATM   23  C   UNL     1      -9.871  18.413  66.537  1.00  0.00    -0.359 C  
HETATM   24  C   UNL     1     -11.070  19.168  67.058  1.00  0.00    -0.186 C  
HETATM   25  C   UNL     1     -10.552  20.099  68.154  1.00  0.00    -0.115 C  
HETATM   26  O   UNL     1     -10.234  19.351  69.331  1.00  0.00    -0.591 OA 
HETATM   27  C   UNL     1      -9.363  20.937  67.696  1.00  0.00    -0.234 C  
HETATM   28  C   UNL     1      -8.388  20.216  66.793  1.00  0.00    -0.301 C  
HETATM   29  H   UNL     1      -9.913  19.929  70.013  1.00  0.00     0.000 HD 
HETATM   30  O   UNL     1      -7.200  20.508  66.738  1.00  0.00    -0.273 OA 
HETATM   31  O   UNL     1      -8.951  19.327  65.928  1.00  0.00    -0.434 OA 
ENDBRANCH  22  23
ENDBRANCH  21  22
ENDBRANCH  12  21
TORSDOF 7
ENDMDL
MODEL      156
REMARK 921   NORMALIZED FREE ENERGY PREDICTED BY IDOCK:   -4.39 KCAL/MOL
REMARK 922        TOTAL FREE ENERGY PREDICTED BY IDOCK:   -7.68 KCAL/MOL
REMARK 923 INTER-LIGAND FREE ENERGY PREDICTED BY IDOCK:   -6.48 KCAL/MOL
REMARK 924 INTRA-LIGAND FREE ENERGY PREDICTED BY IDOCK:   -1.20 KCAL/MOL
REMARK 927      BINDING AFFINITY PREDICTED BY RF-SCORE:    0.00 PKD
ROOT
HETATM    1  C   UNL     1      -9.916  11.563  68.280  1.00  0.00    -0.205 C  
HETATM    2  C   UNL     1      -9.271  10.513  69.265  1.00  0.00    -0.148 C  
HETATM    3  C   UNL     1      -7.848   9.997  68.979  1.00  0.00    -0.101 C  
HETATM    4  C   UNL     1     -11.931  12.341  66.771  1.00  0.00    -0.230 C  
HETATM    5  C   UNL     1      -6.936  10.918  68.185  1.00  0.00    -0.069 C  
HETATM    6  C   UNL     1     -10.930  12.413  65.657  1.00  0.00    -0.321 C  
HETATM    7  C   UNL     1     -12.244  13.818  67.072  1.00  0.00    -0.381 C  
HETATM    8  C   UNL     1      -9.622  12.210  65.812  1.00  0.00    -0.209 C  
HETATM    9  C   UNL     1      -7.695  11.551  67.057  1.00  0.00    -0.158 C  
HETATM   10  C   UNL     1      -5.780  10.062  67.630  1.00  0.00    -0.042 C  
HETATM   11  C   UNL     1      -9.022  11.774  67.053  1.00  0.00    -0.186 C  
HETATM   12  C   UNL     1     -11.456  11.379  67.932  1.00  0.00    -0.361 C  
ENDROOT
BRANCH   2  13
HETATM   13  O   UNL     1     -10.088   9.369  69.568  1.00  0.00    -0.186 OA 
BRANCH  13  14
HETATM   14  C   UNL     1      -9.979   8.260  68.789  1.00  0.00    -0.183 C  
HETATM   15  O   UNL     1      -9.890   8.250  67.561  1.00  0.00    -0.156 OA 
BRANCH  14  16
HETATM   16  C   UNL     1     -10.027   6.975  69.617  1.00  0.00    -0.177 C  
HETATM   17  C   UNL     1      -9.295   7.115  70.963  1.00  0.00    -0.158 C  
HETATM   18  C   UNL     1     -11.524   6.712  69.834  1.00  0.00    -0.414 C  
BRANCH  16  19
HETATM   19  C   UNL     1      -9.372   5.844  68.780  1.00  0.00    -0.133 C  
HETATM   20  C   UNL     1     -10.099   4.508  68.868  1.00  0.00    -0.048 C  
ENDBRANCH  16  19
ENDBRANCH  14  16
ENDBRANCH  13  14
ENDBRANCH   2  13
BRANCH  12  21
HETATM   21  C   UNL     1     -12.451  11.301  69.167  1.00  0.00     0.084 C  
BRANCH  21  22
HETATM   22  C   UNL     1     -11.936  12.016  70.407  1.00  0.00    -0.379 C  
BRANCH  22  23
HETATM   23  C   UNL     1     -12.231  13.460  70.787  1.00  0.00    -0.328 C  
HETATM   24  C   UNL     1     -11.235  14.529  70.411  1.00  0.00    -0.118 C  
HETATM   25  C   UNL     1     -11.943  15.870  70.613  1.00  0.00    -0.348 C  
HETATM   26  O   UNL     1     -12.902  16.086  69.574  1.00  0.00    -0.462 OA 
HETATM   27  C   UNL     1     -12.586  15.990  71.991  1.00  0.00    -0.463 C  
HETATM   28  C   UNL     1     -13.213  14.716  72.511  1.00  0.00    -0.428 C  
HETATM   29  H   UNL     1     -13.342  16.919  69.700  1.00  0.00     0.000 HD 
HETATM   30  O   UNL     1     -14.157  14.718  73.292  1.00  0.00    -0.021 OA 
HETATM   31  O   UNL     1     -12.557  13.571  72.178  1.00  0.00    -0.154 OA 
ENDBRANCH  22  23
ENDBRANCH  21  22
ENDBRANCH  12  21
TORSDOF 7
ENDMDL
MODEL      157
REMARK 921   NORMALIZED FREE ENERGY PREDICTED BY IDOCK:   -4.39 KCAL/MOL
REMARK 922        TOTAL FREE ENERGY PREDICTED BY IDOCK:   -7.68 KCAL/MOL
REMARK 923 INTER-LIGAND FREE ENERGY PREDICTED BY IDOCK:   -6.24 KCAL/MOL
REMARK 924 INTRA-LIGAND FREE ENERGY PREDICTED BY IDOCK:   -1.44 KCAL/MOL
REMARK 927      BINDING AFFINITY PREDICTED BY RF-SCORE:    0.00 PKD
ROOT
HETATM    1  C   UNL     1     -11.284  12.101  67.680  1.00  0.00    -0.345 C  
HETATM    2  C   UNL     1     -11.579  10.674  68.284  1.00  0.00    -0.167 C  
HETATM    3  C   UNL     1     -12.113  10.569  69.725  1.00  0.00    -0.285 C  
HETATM    4  C   UNL     1      -9.664  13.763  66.433  1.00  0.00    -0.304 C  
HETATM    5  C   UNL     1     -12.885  11.765  70.255  1.00  0.00     0.141 C  
HETATM    6  C   UNL     1      -9.863  14.671  67.609  1.00  0.00    -0.218 C  
HETATM    7  C   UNL     1     -10.436  14.464  65.300  1.00  0.00    -0.410 C  
HETATM    8  C   UNL     1     -10.704  14.422  68.613  1.00  0.00    -0.258 C  
HETATM    9  C   UNL     1     -12.209  13.040  69.846  1.00  0.00    -0.271 C  
HETATM   10  C   UNL     1     -12.919  11.654  71.792  1.00  0.00    -0.483 C  
HETATM   11  C   UNL     1     -11.437  13.185  68.753  1.00  0.00    -0.348 C  
HETATM   12  C   UNL     1      -9.976  12.255  66.790  1.00  0.00    -0.217 C  
ENDROOT
BRANCH   2  13
HETATM   13  O   UNL     1     -10.514   9.716  68.151  1.00  0.00    -0.199 OA 
BRANCH  13  14
HETATM   14  C   UNL     1      -9.574   9.640  69.130  1.00  0.00    -0.174 C  
HETATM   15  O   UNL     1      -8.896  10.579  69.550  1.00  0.00    -0.134 OA 
BRANCH  14  16
HETATM   16  C   UNL     1      -9.402   8.211  69.646  1.00  0.00    -0.159 C  
HETATM   17  C   UNL     1     -10.570   7.295  69.242  1.00  0.00    -0.230 C  
HETATM   18  C   UNL     1      -8.087   7.729  69.016  1.00  0.00    -0.125 C  
BRANCH  16  19
HETATM   19  C   UNL     1      -9.296   8.272  71.193  1.00  0.00    -0.205 C  
HETATM   20  C   UNL     1     -10.629   8.498  71.897  1.00  0.00    -0.392 C  
ENDBRANCH  16  19
ENDBRANCH  14  16
ENDBRANCH  13  14
ENDBRANCH   2  13
BRANCH  12  21
HETATM   21  C   UNL     1      -9.834  11.249  65.570  1.00  0.00    -0.274 C  
BRANCH  21  22
HETATM   22  C   UNL     1      -8.486  10.544  65.519  1.00  0.00    -0.177 C  
BRANCH  22  23
HETATM   23  C   UNL     1      -8.160   9.309  64.690  1.00  0.00    -0.136 C  
HETATM   24  C   UNL     1      -8.619   9.254  63.254  1.00  0.00    -0.207 C  
HETATM   25  C   UNL     1      -7.874   8.087  62.606  1.00  0.00    -0.139 C  
HETATM   26  O   UNL     1      -6.504   8.434  62.387  1.00  0.00    -0.088 OA 
HETATM   27  C   UNL     1      -7.994   6.797  63.411  1.00  0.00    -0.070 C  
HETATM   28  C   UNL     1      -7.956   6.980  64.911  1.00  0.00    -0.127 C  
HETATM   29  H   UNL     1      -6.041   7.710  61.983  1.00  0.00     0.000 HD 
HETATM   30  O   UNL     1      -7.545   6.111  65.671  1.00  0.00    -0.080 OA 
HETATM   31  O   UNL     1      -8.557   8.112  65.371  1.00  0.00    -0.160 OA 
ENDBRANCH  22  23
ENDBRANCH  21  22
ENDBRANCH  12  21
TORSDOF 7
ENDMDL
MODEL      158
REMARK 921   NORMALIZED FREE ENERGY PREDICTED BY IDOCK:   -4.37 KCAL/MOL
REMARK 922        TOTAL FREE ENERGY PREDICTED BY IDOCK:   -7.66 KCAL/MOL
REMARK 923 INTER-LIGAND FREE ENERGY PREDICTED BY IDOCK:   -6.29 KCAL/MOL
REMARK 924 INTRA-LIGAND FREE ENERGY PREDICTED BY IDOCK:   -1.37 KCAL/MOL
REMARK 927      BINDING AFFINITY PREDICTED BY RF-SCORE:    0.00 PKD
ROOT
HETATM    1  C   UNL     1      -8.177   9.044  69.124  1.00  0.00    -0.121 C  
HETATM    2  C   UNL     1      -8.571   7.520  69.220  1.00  0.00    -0.136 C  
HETATM    3  C   UNL     1      -7.701   6.576  70.072  1.00  0.00    -0.102 C  
HETATM    4  C   UNL     1      -7.690  11.191  67.675  1.00  0.00    -0.113 C  
HETATM    5  C   UNL     1      -6.928   7.210  71.217  1.00  0.00    -0.060 C  
HETATM    6  C   UNL     1      -6.371  11.240  68.384  1.00  0.00    -0.046 C  
HETATM    7  C   UNL     1      -8.463  12.384  68.266  1.00  0.00    -0.170 C  
HETATM    8  C   UNL     1      -6.022  10.419  69.374  1.00  0.00    -0.038 C  
HETATM    9  C   UNL     1      -6.331   8.514  70.779  1.00  0.00    -0.039 C  
HETATM   10  C   UNL     1      -5.813   6.227  71.624  1.00  0.00    -0.032 C  
HETATM   11  C   UNL     1      -6.827   9.299  69.805  1.00  0.00    -0.053 C  
HETATM   12  C   UNL     1      -8.324   9.742  67.703  1.00  0.00    -0.114 C  
ENDROOT
BRANCH   2  13
HETATM   13  O   UNL     1      -8.809   6.864  67.963  1.00  0.00    -0.125 OA 
BRANCH  13  14
HETATM   14  C   UNL     1      -9.696   5.835  67.916  1.00  0.00    -0.120 C  
HETATM   15  O   UNL     1     -10.802   5.816  68.457  1.00  0.00    -0.247 OA 
BRANCH  14  16
HETATM   16  C   UNL     1      -9.146   4.643  67.133  1.00  0.00    -0.129 C  
HETATM   17  C   UNL     1     -10.138   4.125  66.076  1.00  0.00    -0.159 C  
HETATM   18  C   UNL     1      -7.868   5.174  66.468  1.00  0.00    -0.103 C  
BRANCH  16  19
HETATM   19  C   UNL     1      -8.826   3.514  68.147  1.00  0.00    -0.153 C  
HETATM   20  C   UNL     1      -9.373   2.148  67.749  1.00  0.00    -0.197 C  
ENDBRANCH  16  19
ENDBRANCH  14  16
ENDBRANCH  13  14
ENDBRANCH   2  13
BRANCH  12  21
HETATM   21  C   UNL     1      -9.750   9.637  67.013  1.00  0.00    -0.232 C  
BRANCH  21  22
HETATM   22  C   UNL     1      -9.752  10.077  65.556  1.00  0.00    -0.355 C  
BRANCH  22  23
HETATM   23  C   UNL     1     -10.653  11.146  64.952  1.00  0.00    -0.289 C  
HETATM   24  C   UNL     1     -10.414  11.579  63.527  1.00  0.00    -0.486 C  
HETATM   25  C   UNL     1     -11.644  12.383  63.106  1.00  0.00    -0.212 C  
HETATM   26  O   UNL     1     -12.756  11.510  62.888  1.00  0.00    -0.947 OA 
HETATM   27  C   UNL     1     -11.994  13.482  64.105  1.00  0.00    -0.498 C  
HETATM   28  C   UNL     1     -11.793  13.108  65.556  1.00  0.00    -0.380 C  
HETATM   29  H   UNL     1     -13.521  12.009  62.626  1.00  0.00     0.000 HD 
HETATM   30  O   UNL     1     -12.448  13.608  66.462  1.00  0.00    -0.381 OA 
HETATM   31  O   UNL     1     -10.727  12.297  65.802  1.00  0.00    -0.249 OA 
ENDBRANCH  22  23
ENDBRANCH  21  22
ENDBRANCH  12  21
TORSDOF 7
ENDMDL
MODEL      159
REMARK 921   NORMALIZED FREE ENERGY PREDICTED BY IDOCK:   -4.37 KCAL/MOL
REMARK 922        TOTAL FREE ENERGY PREDICTED BY IDOCK:   -7.65 KCAL/MOL
REMARK 923 INTER-LIGAND FREE ENERGY PREDICTED BY IDOCK:   -6.94 KCAL/MOL
REMARK 924 INTRA-LIGAND FREE ENERGY PREDICTED BY IDOCK:   -0.71 KCAL/MOL
REMARK 927      BINDING AFFINITY PREDICTED BY RF-SCORE:    0.00 PKD
ROOT
HETATM    1  C   UNL     1      -8.059  13.038  67.286  1.00  0.00    -0.164 C  
HETATM    2  C   UNL     1      -9.376  13.712  66.737  1.00  0.00    -0.261 C  
HETATM    3  C   UNL     1      -9.439  15.247  66.627  1.00  0.00    -0.281 C  
HETATM    4  C   UNL     1      -6.868  11.356  68.927  1.00  0.00    -0.089 C  
HETATM    5  C   UNL     1      -8.115  15.974  66.457  1.00  0.00    -0.304 C  
HETATM    6  C   UNL     1      -6.048  12.531  69.367  1.00  0.00    -0.108 C  
HETATM    7  C   UNL     1      -5.868  10.497  68.130  1.00  0.00    -0.043 C  
HETATM    8  C   UNL     1      -6.116  13.741  68.810  1.00  0.00    -0.086 C  
HETATM    9  C   UNL     1      -7.076  15.374  67.358  1.00  0.00    -0.229 C  
HETATM   10  C   UNL     1      -8.344  17.452  66.826  1.00  0.00    -0.276 C  
HETATM   11  C   UNL     1      -7.078  14.100  67.794  1.00  0.00    -0.185 C  
HETATM   12  C   UNL     1      -8.234  11.800  68.267  1.00  0.00    -0.157 C  
ENDROOT
BRANCH   2  13
HETATM   13  O   UNL     1     -10.596  13.277  67.360  1.00  0.00    -0.244 OA 
BRANCH  13  14
HETATM   14  C   UNL     1     -11.502  14.211  67.754  1.00  0.00    -0.325 C  
HETATM   15  O   UNL     1     -12.164  14.931  67.006  1.00  0.00    -0.148 OA 
BRANCH  14  16
HETATM   16  C   UNL     1     -11.588  14.316  69.277  1.00  0.00    -0.350 C  
HETATM   17  C   UNL     1     -11.972  12.981  69.938  1.00  0.00    -0.381 C  
HETATM   18  C   UNL     1     -10.182  14.756  69.713  1.00  0.00     0.012 C  
BRANCH  16  19
HETATM   19  C   UNL     1     -12.648  15.394  69.623  1.00  0.00    -0.071 C  
HETATM   20  C   UNL     1     -13.058  15.414  71.090  1.00  0.00    -0.565 C  
ENDBRANCH  16  19
ENDBRANCH  14  16
ENDBRANCH  13  14
ENDBRANCH   2  13
BRANCH  12  21
HETATM   21  C   UNL     1      -9.125  10.599  67.732  1.00  0.00    -0.144 C  
BRANCH  21  22
HETATM   22  C   UNL     1     -10.439  10.438  68.482  1.00  0.00    -0.210 C  
BRANCH  22  23
HETATM   23  C   UNL     1     -10.717   9.420  69.579  1.00  0.00    -0.222 C  
HETATM   24  C   UNL     1     -10.115   9.638  70.944  1.00  0.00    -0.257 C  
HETATM   25  C   UNL     1     -10.827   8.671  71.891  1.00  0.00    -0.348 C  
HETATM   26  O   UNL     1     -12.155   9.127  72.160  1.00  0.00    -0.362 OA 
HETATM   27  C   UNL     1     -10.831   7.238  71.368  1.00  0.00    -0.251 C  
HETATM   28  C   UNL     1     -11.018   7.109  69.873  1.00  0.00    -0.253 C  
HETATM   29  H   UNL     1     -12.597   8.527  72.749  1.00  0.00     0.000 HD 
HETATM   30  O   UNL     1     -11.532   6.125  69.355  1.00  0.00    -0.423 OA 
HETATM   31  O   UNL     1     -10.431   8.089  69.131  1.00  0.00    -0.219 OA 
ENDBRANCH  22  23
ENDBRANCH  21  22
ENDBRANCH  12  21
TORSDOF 7
ENDMDL
MODEL      160
REMARK 921   NORMALIZED FREE ENERGY PREDICTED BY IDOCK:   -4.31 KCAL/MOL
REMARK 922        TOTAL FREE ENERGY PREDICTED BY IDOCK:   -7.57 KCAL/MOL
REMARK 923 INTER-LIGAND FREE ENERGY PREDICTED BY IDOCK:   -6.27 KCAL/MOL
REMARK 924 INTRA-LIGAND FREE ENERGY PREDICTED BY IDOCK:   -1.30 KCAL/MOL
REMARK 927      BINDING AFFINITY PREDICTED BY RF-SCORE:    0.00 PKD
ROOT
HETATM    1  C   UNL     1      -8.496   7.414  68.468  1.00  0.00    -0.125 C  
HETATM    2  C   UNL     1      -7.457   8.473  69.004  1.00  0.00    -0.089 C  
HETATM    3  C   UNL     1      -7.448   8.818  70.505  1.00  0.00    -0.075 C  
HETATM    4  C   UNL     1     -10.368   6.717  66.750  1.00  0.00    -0.286 C  
HETATM    5  C   UNL     1      -7.962   7.747  71.453  1.00  0.00    -0.097 C  
HETATM    6  C   UNL     1     -11.224   6.451  67.951  1.00  0.00    -0.262 C  
HETATM    7  C   UNL     1     -10.057   5.309  66.209  1.00  0.00    -0.239 C  
HETATM    8  C   UNL     1     -10.792   6.535  69.210  1.00  0.00    -0.361 C  
HETATM    9  C   UNL     1      -9.190   7.100  70.887  1.00  0.00    -0.152 C  
HETATM   10  C   UNL     1      -8.295   8.433  72.793  1.00  0.00    -0.203 C  
HETATM   11  C   UNL     1      -9.478   7.012  69.575  1.00  0.00    -0.147 C  
HETATM   12  C   UNL     1      -9.191   7.721  67.072  1.00  0.00    -0.176 C  
ENDROOT
BRANCH   2  13
HETATM   13  O   UNL     1      -7.414   9.715  68.279  1.00  0.00    -0.077 OA 
BRANCH  13  14
HETATM   14  C   UNL     1      -8.122  10.775  68.750  1.00  0.00    -0.143 C  
HETATM   15  O   UNL     1      -9.221  10.717  69.305  1.00  0.00    -0.178 OA 
BRANCH  14  16
HETATM   16  C   UNL     1      -7.415  12.102  68.473  1.00  0.00    -0.117 C  
HETATM   17  C   UNL     1      -6.546  12.052  67.205  1.00  0.00    -0.145 C  
HETATM   18  C   UNL     1      -8.554  13.120  68.315  1.00  0.00    -0.166 C  
BRANCH  16  19
HETATM   19  C   UNL     1      -6.529  12.436  69.702  1.00  0.00    -0.063 C  
HETATM   20  C   UNL     1      -5.768  13.751  69.579  1.00  0.00    -0.095 C  
ENDBRANCH  16  19
ENDBRANCH  14  16
ENDBRANCH  13  14
ENDBRANCH   2  13
BRANCH  12  21
HETATM   21  C   UNL     1      -8.216   8.003  65.850  1.00  0.00    -0.127 C  
BRANCH  21  22
HETATM   22  C   UNL     1      -8.915   8.618  64.646  1.00  0.00     0.109 C  
BRANCH  22  23
HETATM   23  C   UNL     1      -9.763   9.882  64.660  1.00  0.00    -0.195 C  
HETATM   24  C   UNL     1      -9.425  10.995  63.699  1.00  0.00    -0.298 C  
HETATM   25  C   UNL     1     -10.617  11.953  63.710  1.00  0.00    -0.422 C  
HETATM   26  O   UNL     1     -11.721  11.379  63.005  1.00  0.00    -0.887 OA 
HETATM   27  C   UNL     1     -11.020  12.368  65.121  1.00  0.00    -0.339 C  
HETATM   28  C   UNL     1     -10.919  11.272  66.158  1.00  0.00    -0.191 C  
HETATM   29  H   UNL     1     -12.462  11.974  63.011  1.00  0.00     0.000 HD 
HETATM   30  O   UNL     1     -11.628  11.243  67.157  1.00  0.00    -0.513 OA 
HETATM   31  O   UNL     1      -9.880  10.409  65.987  1.00  0.00    -0.208 OA 
ENDBRANCH  22  23
ENDBRANCH  21  22
ENDBRANCH  12  21
TORSDOF 7
ENDMDL
MODEL      161
REMARK 921   NORMALIZED FREE ENERGY PREDICTED BY IDOCK:   -4.30 KCAL/MOL
REMARK 922        TOTAL FREE ENERGY PREDICTED BY IDOCK:   -7.56 KCAL/MOL
REMARK 923 INTER-LIGAND FREE ENERGY PREDICTED BY IDOCK:   -7.07 KCAL/MOL
REMARK 924 INTRA-LIGAND FREE ENERGY PREDICTED BY IDOCK:   -0.49 KCAL/MOL
REMARK 927      BINDING AFFINITY PREDICTED BY RF-SCORE:    0.00 PKD
ROOT
HETATM    1  C   UNL     1     -11.413  11.052  69.883  1.00  0.00    -0.400 C  
HETATM    2  C   UNL     1     -11.058  11.695  68.487  1.00  0.00    -0.235 C  
HETATM    3  C   UNL     1     -11.402  13.176  68.237  1.00  0.00    -0.333 C  
HETATM    4  C   UNL     1     -12.514   9.118  71.294  1.00  0.00    -0.366 C  
HETATM    5  C   UNL     1     -11.481  14.073  69.461  1.00  0.00    -0.331 C  
HETATM    6  C   UNL     1     -13.297  10.202  71.971  1.00  0.00    -0.492 C  
HETATM    7  C   UNL     1     -11.522   8.657  72.378  1.00  0.00    -0.369 C  
HETATM    8  C   UNL     1     -13.119  11.504  71.749  1.00  0.00    -0.503 C  
HETATM    9  C   UNL     1     -12.188  13.364  70.578  1.00  0.00    -0.425 C  
HETATM   10  C   UNL     1     -12.262  15.339  69.060  1.00  0.00    -0.158 C  
HETATM   11  C   UNL     1     -12.231  12.028  70.736  1.00  0.00    -0.382 C  
HETATM   12  C   UNL     1     -11.985   9.569  69.874  1.00  0.00     0.227 C  
ENDROOT
BRANCH   2  13
HETATM   13  O   UNL     1     -11.500  10.953  67.337  1.00  0.00    -0.479 OA 
BRANCH  13  14
HETATM   14  C   UNL     1     -11.072  11.336  66.105  1.00  0.00    -0.143 C  
HETATM   15  O   UNL     1     -11.613  12.178  65.387  1.00  0.00    -0.350 OA 
BRANCH  14  16
HETATM   16  C   UNL     1      -9.834  10.556  65.662  1.00  0.00    -0.311 C  
HETATM   17  C   UNL     1      -9.881   9.081  66.096  1.00  0.00    -0.349 C  
HETATM   18  C   UNL     1      -9.830  10.674  64.131  1.00  0.00    -0.396 C  
BRANCH  16  19
HETATM   19  C   UNL     1      -8.590  11.244  66.283  1.00  0.00    -0.172 C  
HETATM   20  C   UNL     1      -7.472  10.280  66.661  1.00  0.00    -0.110 C  
ENDBRANCH  16  19
ENDBRANCH  14  16
ENDBRANCH  13  14
ENDBRANCH   2  13
BRANCH  12  21
HETATM   21  C   UNL     1     -11.102   8.481  69.127  1.00  0.00     0.174 C  
BRANCH  21  22
HETATM   22  C   UNL     1     -11.101   7.124  69.817  1.00  0.00    -0.239 C  
BRANCH  22  23
HETATM   23  C   UNL     1      -9.869   6.282  70.118  1.00  0.00    -0.170 C  
HETATM   24  C   UNL     1      -9.653   5.788  71.527  1.00  0.00    -0.181 C  
HETATM   25  C   UNL     1      -8.558   4.722  71.449  1.00  0.00    -0.116 C  
HETATM   26  O   UNL     1      -9.076   3.521  70.871  1.00  0.00    -0.092 OA 
HETATM   27  C   UNL     1      -7.323   5.208  70.698  1.00  0.00    -0.069 C  
HETATM   28  C   UNL     1      -7.612   6.085  69.501  1.00  0.00    -0.093 C  
HETATM   29  H   UNL     1      -8.397   2.859  70.823  1.00  0.00     0.000 HD 
HETATM   30  O   UNL     1      -6.863   6.149  68.534  1.00  0.00    -0.068 OA 
HETATM   31  O   UNL     1      -8.679   6.920  69.641  1.00  0.00    -0.139 OA 
ENDBRANCH  22  23
ENDBRANCH  21  22
ENDBRANCH  12  21
TORSDOF 7
ENDMDL
MODEL      162
REMARK 921   NORMALIZED FREE ENERGY PREDICTED BY IDOCK:   -4.28 KCAL/MOL
REMARK 922        TOTAL FREE ENERGY PREDICTED BY IDOCK:   -7.53 KCAL/MOL
REMARK 923 INTER-LIGAND FREE ENERGY PREDICTED BY IDOCK:   -5.85 KCAL/MOL
REMARK 924 INTRA-LIGAND FREE ENERGY PREDICTED BY IDOCK:   -1.68 KCAL/MOL
REMARK 927      BINDING AFFINITY PREDICTED BY RF-SCORE:    0.00 PKD
ROOT
HETATM    1  C   UNL     1     -10.911   7.474  69.988  1.00  0.00    -0.252 C  
HETATM    2  C   UNL     1     -11.083   6.002  70.529  1.00  0.00    -0.314 C  
HETATM    3  C   UNL     1     -10.779   5.711  72.011  1.00  0.00    -0.291 C  
HETATM    4  C   UNL     1      -9.940   9.152  68.204  1.00  0.00    -0.206 C  
HETATM    5  C   UNL     1     -10.930   6.872  72.979  1.00  0.00    -0.308 C  
HETATM    6  C   UNL     1      -9.323   9.867  69.368  1.00  0.00    -0.226 C  
HETATM    7  C   UNL     1     -11.060  10.106  67.748  1.00  0.00    -0.293 C  
HETATM    8  C   UNL     1      -9.530   9.537  70.643  1.00  0.00    -0.277 C  
HETATM    9  C   UNL     1     -10.365   8.124  72.377  1.00  0.00    -0.382 C  
HETATM   10  C   UNL     1     -10.161   6.510  74.264  1.00  0.00    -0.373 C  
HETATM   11  C   UNL     1     -10.280   8.373  71.057  1.00  0.00    -0.245 C  
HETATM   12  C   UNL     1     -10.272   7.644  68.543  1.00  0.00    -0.220 C  
ENDROOT
BRANCH   2  13
HETATM   13  O   UNL     1     -10.438   4.980  69.751  1.00  0.00    -0.263 OA 
BRANCH  13  14
HETATM   14  C   UNL     1      -9.150   4.651  70.037  1.00  0.00    -0.106 C  
HETATM   15  O   UNL     1      -8.258   5.443  70.346  1.00  0.00    -0.101 OA 
BRANCH  14  16
HETATM   16  C   UNL     1      -8.897   3.151  69.888  1.00  0.00    -0.151 C  
HETATM   17  C   UNL     1      -9.299   2.621  68.500  1.00  0.00    -0.251 C  
HETATM   18  C   UNL     1      -7.387   2.990  70.116  1.00  0.00    -0.040 C  
BRANCH  16  19
HETATM   19  C   UNL     1      -9.714   2.418  70.984  1.00  0.00    -0.155 C  
HETATM   20  C   UNL     1      -9.048   2.414  72.355  1.00  0.00    -0.120 C  
ENDBRANCH  16  19
ENDBRANCH  14  16
ENDBRANCH  13  14
ENDBRANCH   2  13
BRANCH  12  21
HETATM   21  C   UNL     1     -10.977   6.847  67.364  1.00  0.00    -0.374 C  
BRANCH  21  22
HETATM   22  C   UNL     1     -10.027   5.951  66.584  1.00  0.00    -0.214 C  
BRANCH  22  23
HETATM   23  C   UNL     1      -8.743   6.399  65.900  1.00  0.00    -0.145 C  
HETATM   24  C   UNL     1      -7.447   6.331  66.669  1.00  0.00    -0.090 C  
HETATM   25  C   UNL     1      -6.326   6.514  65.644  1.00  0.00    -0.038 C  
HETATM   26  O   UNL     1      -6.177   5.330  64.856  1.00  0.00    -0.031 OA 
HETATM   27  C   UNL     1      -6.533   7.741  64.763  1.00  0.00    -0.044 C  
HETATM   28  C   UNL     1      -7.969   8.004  64.369  1.00  0.00    -0.145 C  
HETATM   29  H   UNL     1      -5.481   5.443  64.220  1.00  0.00     0.000 HD 
HETATM   30  O   UNL     1      -8.274   8.577  63.331  1.00  0.00    -0.169 OA 
HETATM   31  O   UNL     1      -8.894   7.701  65.322  1.00  0.00    -0.023 OA 
ENDBRANCH  22  23
ENDBRANCH  21  22
ENDBRANCH  12  21
TORSDOF 7
ENDMDL
MODEL      163
REMARK 921   NORMALIZED FREE ENERGY PREDICTED BY IDOCK:   -4.27 KCAL/MOL
REMARK 922        TOTAL FREE ENERGY PREDICTED BY IDOCK:   -7.51 KCAL/MOL
REMARK 923 INTER-LIGAND FREE ENERGY PREDICTED BY IDOCK:   -6.73 KCAL/MOL
REMARK 924 INTRA-LIGAND FREE ENERGY PREDICTED BY IDOCK:   -0.78 KCAL/MOL
REMARK 927      BINDING AFFINITY PREDICTED BY RF-SCORE:    0.00 PKD
ROOT
HETATM    1  C   UNL     1     -10.643   6.876  69.907  1.00  0.00    -0.256 C  
HETATM    2  C   UNL     1      -9.549   6.798  68.773  1.00  0.00    -0.132 C  
HETATM    3  C   UNL     1      -8.630   5.564  68.705  1.00  0.00    -0.103 C  
HETATM    4  C   UNL     1     -11.813   8.195  71.865  1.00  0.00    -0.366 C  
HETATM    5  C   UNL     1      -9.179   4.272  69.287  1.00  0.00    -0.210 C  
HETATM    6  C   UNL     1     -11.497   7.001  72.716  1.00  0.00    -0.207 C  
HETATM    7  C   UNL     1     -13.340   8.116  71.684  1.00  0.00    -0.358 C  
HETATM    8  C   UNL     1     -10.950   5.877  72.254  1.00  0.00    -0.313 C  
HETATM    9  C   UNL     1      -9.893   4.547  70.576  1.00  0.00    -0.297 C  
HETATM   10  C   UNL     1      -7.985   3.329  69.534  1.00  0.00    -0.058 C  
HETATM   11  C   UNL     1     -10.479   5.716  70.897  1.00  0.00    -0.323 C  
HETATM   12  C   UNL     1     -10.868   8.288  70.601  1.00  0.00    -0.254 C  
ENDROOT
BRANCH   2  13
HETATM   13  O   UNL     1      -8.715   7.961  68.641  1.00  0.00    -0.128 OA 
BRANCH  13  14
HETATM   14  C   UNL     1      -7.658   8.111  69.483  1.00  0.00    -0.100 C  
HETATM   15  O   UNL     1      -7.489   7.500  70.539  1.00  0.00    -0.077 OA 
BRANCH  14  16
HETATM   16  C   UNL     1      -6.686   9.185  68.994  1.00  0.00    -0.055 C  
HETATM   17  C   UNL     1      -6.902  10.537  69.695  1.00  0.00    -0.117 C  
HETATM   18  C   UNL     1      -5.294   8.621  69.315  1.00  0.00    -0.035 C  
BRANCH  16  19
HETATM   19  C   UNL     1      -6.888   9.350  67.465  1.00  0.00    -0.076 C  
HETATM   20  C   UNL     1      -7.428  10.715  67.054  1.00  0.00    -0.106 C  
ENDBRANCH  16  19
ENDBRANCH  14  16
ENDBRANCH  13  14
ENDBRANCH   2  13
BRANCH  12  21
HETATM   21  C   UNL     1     -11.187   9.504  69.632  1.00  0.00    -0.138 C  
BRANCH  21  22
HETATM   22  C   UNL     1     -11.775  10.712  70.347  1.00  0.00    -0.446 C  
BRANCH  22  23
HETATM   23  C   UNL     1     -11.893  12.115  69.770  1.00  0.00    -0.327 C  
HETATM   24  C   UNL     1     -10.813  12.614  68.843  1.00  0.00    -0.238 C  
HETATM   25  C   UNL     1     -11.362  13.878  68.179  1.00  0.00    -0.295 C  
HETATM   26  O   UNL     1     -12.350  13.536  67.203  1.00  0.00    -0.315 OA 
HETATM   27  C   UNL     1     -11.909  14.879  69.191  1.00  0.00    -0.340 C  
HETATM   28  C   UNL     1     -12.638  14.262  70.364  1.00  0.00    -0.343 C  
HETATM   29  H   UNL     1     -12.691  14.321  66.791  1.00  0.00     0.000 HD 
HETATM   30  O   UNL     1     -13.530  14.846  70.967  1.00  0.00    -0.387 OA 
HETATM   31  O   UNL     1     -12.126  13.079  70.804  1.00  0.00    -0.332 OA 
ENDBRANCH  22  23
ENDBRANCH  21  22
ENDBRANCH  12  21
TORSDOF 7
ENDMDL
MODEL      164
REMARK 921   NORMALIZED FREE ENERGY PREDICTED BY IDOCK:   -4.27 KCAL/MOL
REMARK 922        TOTAL FREE ENERGY PREDICTED BY IDOCK:   -7.51 KCAL/MOL
REMARK 923 INTER-LIGAND FREE ENERGY PREDICTED BY IDOCK:   -5.97 KCAL/MOL
REMARK 924 INTRA-LIGAND FREE ENERGY PREDICTED BY IDOCK:   -1.54 KCAL/MOL
REMARK 927      BINDING AFFINITY PREDICTED BY RF-SCORE:    0.00 PKD
ROOT
HETATM    1  C   UNL     1      -9.780  12.521  67.382  1.00  0.00    -0.194 C  
HETATM    2  C   UNL     1      -9.158  13.649  68.293  1.00  0.00    -0.193 C  
HETATM    3  C   UNL     1     -10.086  14.721  68.894  1.00  0.00    -0.237 C  
HETATM    4  C   UNL     1      -9.777  11.134  65.142  1.00  0.00    -0.296 C  
HETATM    5  C   UNL     1     -11.539  14.327  69.102  1.00  0.00    -0.346 C  
HETATM    6  C   UNL     1     -11.202  11.575  64.991  1.00  0.00    -0.226 C  
HETATM    7  C   UNL     1      -9.897   9.635  65.478  1.00  0.00    -0.352 C  
HETATM    8  C   UNL     1     -11.869  12.276  65.908  1.00  0.00    -0.420 C  
HETATM    9  C   UNL     1     -12.037  13.545  67.923  1.00  0.00    -0.304 C  
HETATM   10  C   UNL     1     -12.355  15.624  69.259  1.00  0.00    -0.063 C  
HETATM   11  C   UNL     1     -11.262  12.804  67.109  1.00  0.00    -0.336 C  
HETATM   12  C   UNL     1      -8.957  12.096  66.091  1.00  0.00    -0.043 C  
ENDROOT
BRANCH   2  13
HETATM   13  O   UNL     1      -8.019  14.330  67.738  1.00  0.00    -0.139 OA 
BRANCH  13  14
HETATM   14  C   UNL     1      -8.222  15.451  66.995  1.00  0.00    -0.236 C  
HETATM   15  O   UNL     1      -8.924  15.526  65.986  1.00  0.00    -0.324 OA 
BRANCH  14  16
HETATM   16  C   UNL     1      -7.425  16.641  67.530  1.00  0.00    -0.176 C  
HETATM   17  C   UNL     1      -6.335  16.219  68.530  1.00  0.00    -0.121 C  
HETATM   18  C   UNL     1      -6.801  17.280  66.280  1.00  0.00    -0.283 C  
BRANCH  16  19
HETATM   19  C   UNL     1      -8.421  17.610  68.220  1.00  0.00    -0.271 C  
HETATM   20  C   UNL     1      -8.716  18.872  67.418  1.00  0.00    -0.293 C  
ENDBRANCH  16  19
ENDBRANCH  14  16
ENDBRANCH  13  14
ENDBRANCH   2  13
BRANCH  12  21
HETATM   21  C   UNL     1      -7.452  11.651  66.333  1.00  0.00     0.112 C  
BRANCH  21  22
HETATM   22  C   UNL     1      -7.289  10.658  67.474  1.00  0.00    -0.091 C  
BRANCH  22  23
HETATM   23  C   UNL     1      -6.688  10.964  68.839  1.00  0.00    -0.067 C  
HETATM   24  C   UNL     1      -5.463  11.842  68.915  1.00  0.00    -0.050 C  
HETATM   25  C   UNL     1      -5.303  12.235  70.384  1.00  0.00    -0.131 C  
HETATM   26  O   UNL     1      -6.291  13.202  70.749  1.00  0.00    -0.486 OA 
HETATM   27  C   UNL     1      -5.338  11.030  71.318  1.00  0.00    -0.035 C  
HETATM   28  C   UNL     1      -6.322   9.952  70.926  1.00  0.00    -0.056 C  
HETATM   29  H   UNL     1      -6.191  13.447  71.662  1.00  0.00     0.000 HD 
HETATM   30  O   UNL     1      -6.845   9.206  71.746  1.00  0.00    -0.273 OA 
HETATM   31  O   UNL     1      -6.467   9.761  69.586  1.00  0.00    -0.043 OA 
ENDBRANCH  22  23
ENDBRANCH  21  22
ENDBRANCH  12  21
TORSDOF 7
ENDMDL
MODEL      165
REMARK 921   NORMALIZED FREE ENERGY PREDICTED BY IDOCK:   -4.26 KCAL/MOL
REMARK 922        TOTAL FREE ENERGY PREDICTED BY IDOCK:   -7.50 KCAL/MOL
REMARK 923 INTER-LIGAND FREE ENERGY PREDICTED BY IDOCK:   -6.06 KCAL/MOL
REMARK 924 INTRA-LIGAND FREE ENERGY PREDICTED BY IDOCK:   -1.44 KCAL/MOL
REMARK 927      BINDING AFFINITY PREDICTED BY RF-SCORE:    0.00 PKD
ROOT
HETATM    1  C   UNL     1      -9.546  10.269  69.830  1.00  0.00    -0.146 C  
HETATM    2  C   UNL     1      -8.971  10.894  68.500  1.00  0.00    -0.157 C  
HETATM    3  C   UNL     1      -9.853  11.858  67.685  1.00  0.00    -0.192 C  
HETATM    4  C   UNL     1     -10.027   8.167  71.344  1.00  0.00    -0.230 C  
HETATM    5  C   UNL     1     -10.921  12.619  68.453  1.00  0.00    -0.284 C  
HETATM    6  C   UNL     1     -11.456   8.620  71.335  1.00  0.00    -0.352 C  
HETATM    7  C   UNL     1      -9.563   8.466  72.782  1.00  0.00    -0.308 C  
HETATM    8  C   UNL     1     -11.878   9.754  70.775  1.00  0.00    -0.400 C  
HETATM    9  C   UNL     1     -11.594  11.712  69.439  1.00  0.00    -0.392 C  
HETATM   10  C   UNL     1     -11.947  13.141  67.429  1.00  0.00    -0.379 C  
HETATM   11  C   UNL     1     -11.027  10.627  69.999  1.00  0.00    -0.325 C  
HETATM   12  C   UNL     1      -9.216   8.740  70.114  1.00  0.00    -0.179 C  
ENDROOT
BRANCH   2  13
HETATM   13  O   UNL     1      -8.396   9.953  67.576  1.00  0.00    -0.114 OA 
BRANCH  13  14
HETATM   14  C   UNL     1      -7.937  10.406  66.379  1.00  0.00    -0.130 C  
HETATM   15  O   UNL     1      -7.129  11.322  66.220  1.00  0.00    -0.095 OA 
BRANCH  14  16
HETATM   16  C   UNL     1      -8.580   9.667  65.205  1.00  0.00    -0.169 C  
HETATM   17  C   UNL     1      -7.566   9.322  64.100  1.00  0.00    -0.113 C  
HETATM   18  C   UNL     1      -9.166   8.391  65.826  1.00  0.00    -0.175 C  
BRANCH  16  19
HETATM   19  C   UNL     1      -9.697  10.575  64.625  1.00  0.00    -0.369 C  
HETATM   20  C   UNL     1      -9.594  10.801  63.121  1.00  0.00    -0.385 C  
ENDBRANCH  16  19
ENDBRANCH  14  16
ENDBRANCH  13  14
ENDBRANCH   2  13
BRANCH  12  21
HETATM   21  C   UNL     1      -7.681   8.338  70.097  1.00  0.00    -0.084 C  
BRANCH  21  22
HETATM   22  C   UNL     1      -7.382   7.122  69.232  1.00  0.00    -0.091 C  
BRANCH  22  23
HETATM   23  C   UNL     1      -8.205   5.842  69.184  1.00  0.00    -0.101 C  
HETATM   24  C   UNL     1      -8.131   4.885  70.348  1.00  0.00    -0.084 C  
HETATM   25  C   UNL     1      -9.286   3.898  70.171  1.00  0.00    -0.147 C  
HETATM   26  O   UNL     1     -10.530   4.530  70.484  1.00  0.00    -0.065 OA 
HETATM   27  C   UNL     1      -9.317   3.278  68.778  1.00  0.00    -0.235 C  
HETATM   28  C   UNL     1      -8.948   4.221  67.655  1.00  0.00    -0.118 C  
HETATM   29  H   UNL     1     -11.248   3.917  70.375  1.00  0.00     0.000 HD 
HETATM   30  O   UNL     1      -9.378   4.089  66.516  1.00  0.00    -0.155 OA 
HETATM   31  O   UNL     1      -7.983   5.132  67.960  1.00  0.00    -0.090 OA 
ENDBRANCH  22  23
ENDBRANCH  21  22
ENDBRANCH  12  21
TORSDOF 7
ENDMDL
MODEL      166
REMARK 921   NORMALIZED FREE ENERGY PREDICTED BY IDOCK:   -4.26 KCAL/MOL
REMARK 922        TOTAL FREE ENERGY PREDICTED BY IDOCK:   -7.50 KCAL/MOL
REMARK 923 INTER-LIGAND FREE ENERGY PREDICTED BY IDOCK:   -6.66 KCAL/MOL
REMARK 924 INTRA-LIGAND FREE ENERGY PREDICTED BY IDOCK:   -0.83 KCAL/MOL
REMARK 927      BINDING AFFINITY PREDICTED BY RF-SCORE:    0.00 PKD
ROOT
HETATM    1  C   UNL     1      -7.158  15.315  67.554  1.00  0.00    -0.224 C  
HETATM    2  C   UNL     1      -8.240  15.763  66.498  1.00  0.00    -0.243 C  
HETATM    3  C   UNL     1      -8.270  17.233  66.038  1.00  0.00    -0.175 C  
HETATM    4  C   UNL     1      -6.530  14.104  69.809  1.00  0.00    -0.130 C  
HETATM    5  C   UNL     1      -6.961  18.000  66.119  1.00  0.00    -0.324 C  
HETATM    6  C   UNL     1      -5.891  15.401  70.204  1.00  0.00    -0.143 C  
HETATM    7  C   UNL     1      -5.330  13.171  69.563  1.00  0.00    -0.079 C  
HETATM    8  C   UNL     1      -5.786  16.459  69.400  1.00  0.00    -0.157 C  
HETATM    9  C   UNL     1      -6.252  17.678  67.401  1.00  0.00    -0.166 C  
HETATM   10  C   UNL     1      -7.298  19.502  66.064  1.00  0.00    -0.308 C  
HETATM   11  C   UNL     1      -6.386  16.528  68.086  1.00  0.00    -0.138 C  
HETATM   12  C   UNL     1      -7.625  14.301  68.686  1.00  0.00    -0.126 C  
ENDROOT
BRANCH   2  13
HETATM   13  O   UNL     1      -9.593  15.382  66.804  1.00  0.00    -0.224 OA 
BRANCH  13  14
HETATM   14  C   UNL     1     -10.491  15.279  65.788  1.00  0.00    -0.349 C  
HETATM   15  O   UNL     1     -10.654  16.102  64.887  1.00  0.00    -0.622 OA 
BRANCH  14  16
HETATM   16  C   UNL     1     -11.343  14.015  65.906  1.00  0.00    -0.317 C  
HETATM   17  C   UNL     1     -10.537  12.734  65.629  1.00  0.00    -0.297 C  
HETATM   18  C   UNL     1     -11.861  14.032  67.351  1.00  0.00    -0.445 C  
BRANCH  16  19
HETATM   19  C   UNL     1     -12.509  14.129  64.889  1.00  0.00    -0.419 C  
HETATM   20  C   UNL     1     -12.274  13.369  63.588  1.00  0.00    -0.480 C  
ENDBRANCH  16  19
ENDBRANCH  14  16
ENDBRANCH  13  14
ENDBRANCH   2  13
BRANCH  12  21
HETATM   21  C   UNL     1      -8.302  12.955  68.187  1.00  0.00    -0.168 C  
BRANCH  21  22
HETATM   22  C   UNL     1      -7.358  12.056  67.401  1.00  0.00    -0.150 C  
BRANCH  22  23
HETATM   23  C   UNL     1      -7.708  10.695  66.816  1.00  0.00    -0.127 C  
HETATM   24  C   UNL     1      -7.649  10.509  65.320  1.00  0.00    -0.074 C  
HETATM   25  C   UNL     1      -7.715   9.002  65.068  1.00  0.00    -0.109 C  
HETATM   26  O   UNL     1      -6.472   8.386  65.416  1.00  0.00    -0.054 OA 
HETATM   27  C   UNL     1      -8.882   8.340  65.793  1.00  0.00    -0.194 C  
HETATM   28  C   UNL     1      -9.167   8.890  67.172  1.00  0.00    -0.139 C  
HETATM   29  H   UNL     1      -6.513   7.450  65.259  1.00  0.00     0.000 HD 
HETATM   30  O   UNL     1      -9.675   8.215  68.059  1.00  0.00    -0.153 OA 
HETATM   31  O   UNL     1      -8.969  10.230  67.311  1.00  0.00    -0.132 OA 
ENDBRANCH  22  23
ENDBRANCH  21  22
ENDBRANCH  12  21
TORSDOF 7
ENDMDL
MODEL      167
REMARK 921   NORMALIZED FREE ENERGY PREDICTED BY IDOCK:   -4.24 KCAL/MOL
REMARK 922        TOTAL FREE ENERGY PREDICTED BY IDOCK:   -7.46 KCAL/MOL
REMARK 923 INTER-LIGAND FREE ENERGY PREDICTED BY IDOCK:   -6.93 KCAL/MOL
REMARK 924 INTRA-LIGAND FREE ENERGY PREDICTED BY IDOCK:   -0.53 KCAL/MOL
REMARK 927      BINDING AFFINITY PREDICTED BY RF-SCORE:    0.00 PKD
ROOT
HETATM    1  C   UNL     1     -10.602  10.743  66.418  1.00  0.00    -0.266 C  
HETATM    2  C   UNL     1     -11.447  11.797  67.234  1.00  0.00    -0.303 C  
HETATM    3  C   UNL     1     -12.034  13.015  66.498  1.00  0.00    -0.457 C  
HETATM    4  C   UNL     1      -8.420   9.294  66.131  1.00  0.00    -0.135 C  
HETATM    5  C   UNL     1     -12.305  12.848  65.012  1.00  0.00    -0.541 C  
HETATM    6  C   UNL     1      -8.299   9.937  64.782  1.00  0.00    -0.163 C  
HETATM    7  C   UNL     1      -8.819   7.843  65.805  1.00  0.00    -0.155 C  
HETATM    8  C   UNL     1      -9.208  10.761  64.261  1.00  0.00    -0.246 C  
HETATM    9  C   UNL     1     -11.176  12.109  64.359  1.00  0.00    -0.400 C  
HETATM   10  C   UNL     1     -12.438  14.257  64.402  1.00  0.00    -0.328 C  
HETATM   11  C   UNL     1     -10.367  11.233  64.984  1.00  0.00    -0.359 C  
HETATM   12  C   UNL     1      -9.303  10.156  67.120  1.00  0.00    -0.176 C  
ENDROOT
BRANCH   2  13
HETATM   13  O   UNL     1     -10.828  12.281  68.439  1.00  0.00    -0.210 OA 
BRANCH  13  14
HETATM   14  C   UNL     1     -10.843  13.617  68.693  1.00  0.00    -0.263 C  
HETATM   15  O   UNL     1     -11.796  14.252  69.146  1.00  0.00    -0.293 OA 
BRANCH  14  16
HETATM   16  C   UNL     1      -9.525  14.287  68.302  1.00  0.00    -0.209 C  
HETATM   17  C   UNL     1      -8.452  13.270  67.876  1.00  0.00    -0.177 C  
HETATM   18  C   UNL     1      -9.894  15.212  67.133  1.00  0.00    -0.228 C  
BRANCH  16  19
HETATM   19  C   UNL     1      -9.021  15.098  69.525  1.00  0.00    -0.129 C  
HETATM   20  C   UNL     1      -7.969  16.146  69.183  1.00  0.00    -0.233 C  
ENDBRANCH  16  19
ENDBRANCH  14  16
ENDBRANCH  13  14
ENDBRANCH   2  13
BRANCH  12  21
HETATM   21  C   UNL     1      -9.513   9.501  68.551  1.00  0.00    -0.146 C  
BRANCH  21  22
HETATM   22  C   UNL     1     -10.471   8.319  68.542  1.00  0.00    -0.199 C  
BRANCH  22  23
HETATM   23  C   UNL     1     -10.116   6.885  68.911  1.00  0.00    -0.170 C  
HETATM   24  C   UNL     1     -10.815   5.756  68.196  1.00  0.00    -0.249 C  
HETATM   25  C   UNL     1     -10.031   4.484  68.524  1.00  0.00    -0.035 C  
HETATM   26  O   UNL     1      -8.793   4.467  67.808  1.00  0.00    -0.103 OA 
HETATM   27  C   UNL     1      -9.805   4.308  70.022  1.00  0.00    -0.275 C  
HETATM   28  C   UNL     1      -9.523   5.588  70.777  1.00  0.00    -0.166 C  
HETATM   29  H   UNL     1      -8.306   3.677  68.012  1.00  0.00     0.000 HD 
HETATM   30  O   UNL     1      -8.853   5.614  71.802  1.00  0.00    -0.135 OA 
HETATM   31  O   UNL     1     -10.195   6.683  70.328  1.00  0.00    -0.184 OA 
ENDBRANCH  22  23
ENDBRANCH  21  22
ENDBRANCH  12  21
TORSDOF 7
ENDMDL
MODEL      168
REMARK 921   NORMALIZED FREE ENERGY PREDICTED BY IDOCK:   -4.22 KCAL/MOL
REMARK 922        TOTAL FREE ENERGY PREDICTED BY IDOCK:   -7.44 KCAL/MOL
REMARK 923 INTER-LIGAND FREE ENERGY PREDICTED BY IDOCK:   -5.98 KCAL/MOL
REMARK 924 INTRA-LIGAND FREE ENERGY PREDICTED BY IDOCK:   -1.46 KCAL/MOL
REMARK 927      BINDING AFFINITY PREDICTED BY RF-SCORE:    0.00 PKD
ROOT
HETATM    1  C   UNL     1     -10.130  12.108  67.248  1.00  0.00    -0.214 C  
HETATM    2  C   UNL     1      -8.631  11.627  67.340  1.00  0.00    -0.149 C  
HETATM    3  C   UNL     1      -8.236  10.617  68.435  1.00  0.00    -0.125 C  
HETATM    4  C   UNL     1     -11.900  14.054  67.090  1.00  0.00    -0.444 C  
HETATM    5  C   UNL     1      -9.335   9.700  68.944  1.00  0.00    -0.151 C  
HETATM    6  C   UNL     1     -12.521  13.445  68.311  1.00  0.00     0.347 C  
HETATM    7  C   UNL     1     -12.907  13.729  65.971  1.00  0.00    -0.294 C  
HETATM    8  C   UNL     1     -12.114  12.305  68.868  1.00  0.00    -0.177 C  
HETATM    9  C   UNL     1     -10.610  10.469  69.123  1.00  0.00    -0.258 C  
HETATM   10  C   UNL     1      -8.870   9.124  70.296  1.00  0.00    -0.238 C  
HETATM   11  C   UNL     1     -10.942  11.577  68.435  1.00  0.00    -0.267 C  
HETATM   12  C   UNL     1     -10.381  13.645  66.932  1.00  0.00    -0.262 C  
ENDROOT
BRANCH   2  13
HETATM   13  O   UNL     1      -7.647  12.676  67.350  1.00  0.00    -0.144 OA 
BRANCH  13  14
HETATM   14  C   UNL     1      -7.394  13.328  68.516  1.00  0.00    -0.115 C  
HETATM   15  O   UNL     1      -8.213  13.976  69.169  1.00  0.00     0.046 OA 
BRANCH  14  16
HETATM   16  C   UNL     1      -5.927  13.211  68.929  1.00  0.00    -0.079 C  
HETATM   17  C   UNL     1      -5.723  12.251  70.114  1.00  0.00    -0.153 C  
HETATM   18  C   UNL     1      -5.214  12.687  67.673  1.00  0.00    -0.110 C  
BRANCH  16  19
HETATM   19  C   UNL     1      -5.424  14.628  69.312  1.00  0.00    -0.088 C  
HETATM   20  C   UNL     1      -5.246  14.839  70.811  1.00  0.00    -0.129 C  
ENDBRANCH  16  19
ENDBRANCH  14  16
ENDBRANCH  13  14
ENDBRANCH   2  13
BRANCH  12  21
HETATM   21  C   UNL     1      -9.680  14.217  65.628  1.00  0.00    -0.238 C  
BRANCH  21  22
HETATM   22  C   UNL     1      -9.805  15.727  65.484  1.00  0.00    -0.300 C  
BRANCH  22  23
HETATM   23  C   UNL     1      -9.171  16.763  66.402  1.00  0.00    -0.279 C  
HETATM   24  C   UNL     1      -9.777  16.997  67.763  1.00  0.00    -0.258 C  
HETATM   25  C   UNL     1      -8.756  17.814  68.556  1.00  0.00    -0.283 C  
HETATM   26  O   UNL     1      -7.653  16.989  68.944  1.00  0.00    -0.236 OA 
HETATM   27  C   UNL     1      -8.281  19.050  67.799  1.00  0.00    -0.305 C  
HETATM   28  C   UNL     1      -8.100  18.851  66.311  1.00  0.00    -0.269 C  
HETATM   29  H   UNL     1      -7.019  17.497  69.437  1.00  0.00     0.000 HD 
HETATM   30  O   UNL     1      -7.297  19.500  65.652  1.00  0.00    -0.336 OA 
HETATM   31  O   UNL     1      -9.002  18.015  65.726  1.00  0.00    -0.476 OA 
ENDBRANCH  22  23
ENDBRANCH  21  22
ENDBRANCH  12  21
TORSDOF 7
ENDMDL
MODEL      169
REMARK 921   NORMALIZED FREE ENERGY PREDICTED BY IDOCK:   -4.22 KCAL/MOL
REMARK 922        TOTAL FREE ENERGY PREDICTED BY IDOCK:   -7.43 KCAL/MOL
REMARK 923 INTER-LIGAND FREE ENERGY PREDICTED BY IDOCK:   -8.02 KCAL/MOL
REMARK 924 INTRA-LIGAND FREE ENERGY PREDICTED BY IDOCK:    0.59 KCAL/MOL
REMARK 927      BINDING AFFINITY PREDICTED BY RF-SCORE:    0.00 PKD
ROOT
HETATM    1  C   UNL     1      -9.601  14.422  67.298  1.00  0.00    -0.227 C  
HETATM    2  C   UNL     1      -8.302  14.490  68.190  1.00  0.00    -0.147 C  
HETATM    3  C   UNL     1      -7.190  15.488  67.816  1.00  0.00    -0.177 C  
HETATM    4  C   UNL     1     -11.356  13.019  65.920  1.00  0.00    -0.344 C  
HETATM    5  C   UNL     1      -7.617  16.725  67.044  1.00  0.00    -0.235 C  
HETATM    6  C   UNL     1     -11.021  13.925  64.774  1.00  0.00    -0.407 C  
HETATM    7  C   UNL     1     -12.777  13.456  66.323  1.00  0.00    -0.059 C  
HETATM    8  C   UNL     1     -10.206  14.976  64.864  1.00  0.00    -0.260 C  
HETATM    9  C   UNL     1      -8.616  16.357  65.988  1.00  0.00    -0.246 C  
HETATM   10  C   UNL     1      -6.356  17.325  66.392  1.00  0.00    -0.258 C  
HETATM   11  C   UNL     1      -9.447  15.300  66.050  1.00  0.00    -0.372 C  
HETATM   12  C   UNL     1     -10.202  12.981  67.001  1.00  0.00    -0.245 C  
ENDROOT
BRANCH   2  13
HETATM   13  O   UNL     1      -7.670  13.225  68.455  1.00  0.00    -0.131 OA 
BRANCH  13  14
HETATM   14  C   UNL     1      -6.558  12.886  67.751  1.00  0.00    -0.140 C  
HETATM   15  O   UNL     1      -5.653  13.655  67.425  1.00  0.00    -0.354 OA 
BRANCH  14  16
HETATM   16  C   UNL     1      -6.563  11.411  67.350  1.00  0.00    -0.090 C  
HETATM   17  C   UNL     1      -7.867  10.997  66.646  1.00  0.00    -0.153 C  
HETATM   18  C   UNL     1      -5.362  11.264  66.405  1.00  0.00    -0.136 C  
BRANCH  16  19
HETATM   19  C   UNL     1      -6.373  10.566  68.638  1.00  0.00    -0.047 C  
HETATM   20  C   UNL     1      -6.763   9.101  68.482  1.00  0.00    -0.059 C  
ENDBRANCH  16  19
ENDBRANCH  14  16
ENDBRANCH  13  14
ENDBRANCH   2  13
BRANCH  12  21
HETATM   21  C   UNL     1     -10.520  12.078  68.267  1.00  0.00    -0.218 C  
BRANCH  21  22
HETATM   22  C   UNL     1     -11.910  12.307  68.842  1.00  0.00    -0.355 C  
BRANCH  22  23
HETATM   23  C   UNL     1     -12.284  13.367  69.869  1.00  0.00    -0.271 C  
HETATM   24  C   UNL     1     -11.363  14.545  70.067  1.00  0.00    -0.274 C  
HETATM   25  C   UNL     1     -12.145  15.574  70.884  1.00  0.00    -0.385 C  
HETATM   26  O   UNL     1     -13.137  16.204  70.068  1.00  0.00    -0.497 OA 
HETATM   27  C   UNL     1     -12.765  14.973  72.141  1.00  0.00    -0.406 C  
HETATM   28  C   UNL     1     -13.304  13.570  71.975  1.00  0.00    -0.475 C  
HETATM   29  H   UNL     1     -13.623  16.844  70.575  1.00  0.00     0.000 HD 
HETATM   30  O   UNL     1     -14.230  13.135  72.649  1.00  0.00    -0.677 OA 
HETATM   31  O   UNL     1     -12.587  12.772  71.137  1.00  0.00    -0.371 OA 
ENDBRANCH  22  23
ENDBRANCH  21  22
ENDBRANCH  12  21
TORSDOF 7
ENDMDL
MODEL      170
REMARK 921   NORMALIZED FREE ENERGY PREDICTED BY IDOCK:   -4.21 KCAL/MOL
REMARK 922        TOTAL FREE ENERGY PREDICTED BY IDOCK:   -7.42 KCAL/MOL
REMARK 923 INTER-LIGAND FREE ENERGY PREDICTED BY IDOCK:   -6.43 KCAL/MOL
REMARK 924 INTRA-LIGAND FREE ENERGY PREDICTED BY IDOCK:   -0.99 KCAL/MOL
REMARK 927      BINDING AFFINITY PREDICTED BY RF-SCORE:    0.00 PKD
ROOT
HETATM    1  C   UNL     1     -10.845  11.386  68.928  1.00  0.00    -0.259 C  
HETATM    2  C   UNL     1     -10.473   9.984  69.546  1.00  0.00    -0.240 C  
HETATM    3  C   UNL     1     -11.284   9.457  70.745  1.00  0.00    -0.367 C  
HETATM    4  C   UNL     1     -10.124  13.783  68.102  1.00  0.00    -0.245 C  
HETATM    5  C   UNL     1     -12.709   9.965  70.880  1.00  0.00    -0.376 C  
HETATM    6  C   UNL     1     -11.155  14.305  69.057  1.00  0.00    -0.284 C  
HETATM    7  C   UNL     1     -10.746  14.047  66.718  1.00  0.00    -0.285 C  
HETATM    8  C   UNL     1     -11.983  13.533  69.761  1.00  0.00    -0.405 C  
HETATM    9  C   UNL     1     -12.766  11.433  70.582  1.00  0.00    -0.282 C  
HETATM   10  C   UNL     1     -13.162   9.701  72.329  1.00  0.00    -0.492 C  
HETATM   11  C   UNL     1     -11.905  12.090  69.783  1.00  0.00    -0.401 C  
HETATM   12  C   UNL     1      -9.642  12.328  68.490  1.00  0.00    -0.128 C  
ENDROOT
BRANCH   2  13
HETATM   13  O   UNL     1      -9.081   9.796  69.855  1.00  0.00    -0.208 OA 
BRANCH  13  14
HETATM   14  C   UNL     1      -8.488   8.617  69.527  1.00  0.00    -0.129 C  
HETATM   15  O   UNL     1      -8.733   7.945  68.524  1.00  0.00    -0.131 OA 
BRANCH  14  16
HETATM   16  C   UNL     1      -7.483   8.169  70.588  1.00  0.00    -0.064 C  
HETATM   17  C   UNL     1      -6.216   9.042  70.604  1.00  0.00    -0.043 C  
HETATM   18  C   UNL     1      -8.245   8.289  71.916  1.00  0.00    -0.195 C  
BRANCH  16  19
HETATM   19  C   UNL     1      -7.100   6.696  70.290  1.00  0.00    -0.072 C  
HETATM   20  C   UNL     1      -8.267   5.720  70.381  1.00  0.00    -0.107 C  
ENDBRANCH  16  19
ENDBRANCH  14  16
ENDBRANCH  13  14
ENDBRANCH   2  13
BRANCH  12  21
HETATM   21  C   UNL     1      -8.587  11.697  67.485  1.00  0.00    -0.149 C  
BRANCH  21  22
HETATM   22  C   UNL     1      -9.224  10.890  66.364  1.00  0.00    -0.193 C  
BRANCH  22  23
HETATM   23  C   UNL     1      -8.475  10.092  65.305  1.00  0.00    -0.158 C  
HETATM   24  C   UNL     1      -8.781   8.623  65.149  1.00  0.00    -0.179 C  
HETATM   25  C   UNL     1      -8.146   8.187  63.828  1.00  0.00    -0.112 C  
HETATM   26  O   UNL     1      -8.905   8.689  62.724  1.00  0.00    -0.430 OA 
HETATM   27  C   UNL     1      -6.680   8.595  63.721  1.00  0.00    -0.087 C  
HETATM   28  C   UNL     1      -6.355   9.951  64.306  1.00  0.00    -0.125 C  
HETATM   29  H   UNL     1      -8.511   8.418  61.903  1.00  0.00     0.000 HD 
HETATM   30  O   UNL     1      -5.428  10.640  63.897  1.00  0.00    -0.155 OA 
HETATM   31  O   UNL     1      -7.060  10.282  65.423  1.00  0.00    -0.134 OA 
ENDBRANCH  22  23
ENDBRANCH  21  22
ENDBRANCH  12  21
TORSDOF 7
ENDMDL
MODEL      171
REMARK 921   NORMALIZED FREE ENERGY PREDICTED BY IDOCK:   -4.19 KCAL/MOL
REMARK 922        TOTAL FREE ENERGY PREDICTED BY IDOCK:   -7.39 KCAL/MOL
REMARK 923 INTER-LIGAND FREE ENERGY PREDICTED BY IDOCK:   -6.31 KCAL/MOL
REMARK 924 INTRA-LIGAND FREE ENERGY PREDICTED BY IDOCK:   -1.08 KCAL/MOL
REMARK 927      BINDING AFFINITY PREDICTED BY RF-SCORE:    0.00 PKD
ROOT
HETATM    1  C   UNL     1      -9.822   9.141  67.672  1.00  0.00    -0.217 C  
HETATM    2  C   UNL     1     -10.221   7.812  66.921  1.00  0.00    -0.303 C  
HETATM    3  C   UNL     1     -10.440   6.527  67.741  1.00  0.00    -0.279 C  
HETATM    4  C   UNL     1      -8.249  11.240  67.922  1.00  0.00    -0.123 C  
HETATM    5  C   UNL     1     -10.860   6.706  69.190  1.00  0.00    -0.329 C  
HETATM    6  C   UNL     1      -8.029  10.774  69.330  1.00  0.00    -0.110 C  
HETATM    7  C   UNL     1      -9.116  12.502  68.091  1.00  0.00    -0.204 C  
HETATM    8  C   UNL     1      -8.662   9.740  69.883  1.00  0.00    -0.238 C  
HETATM    9  C   UNL     1     -10.079   7.820  69.821  1.00  0.00    -0.194 C  
HETATM   10  C   UNL     1     -10.578   5.381  69.923  1.00  0.00    -0.351 C  
HETATM   11  C   UNL     1      -9.550   8.863  69.155  1.00  0.00    -0.162 C  
HETATM   12  C   UNL     1      -8.732  10.067  66.979  1.00  0.00    -0.137 C  
ENDROOT
BRANCH   2  13
HETATM   13  O   UNL     1      -9.392   7.468  65.797  1.00  0.00     0.001 OA 
BRANCH  13  14
HETATM   14  C   UNL     1      -8.273   6.726  66.010  1.00  0.00    -0.129 C  
HETATM   15  O   UNL     1      -7.851   6.361  67.108  1.00  0.00    -0.105 OA 
BRANCH  14  16
HETATM   16  C   UNL     1      -7.536   6.417  64.706  1.00  0.00    -0.098 C  
HETATM   17  C   UNL     1      -7.559   4.918  64.359  1.00  0.00    -0.073 C  
HETATM   18  C   UNL     1      -8.280   7.235  63.640  1.00  0.00     0.086 C  
BRANCH  16  19
HETATM   19  C   UNL     1      -6.069   6.896  64.862  1.00  0.00    -0.036 C  
HETATM   20  C   UNL     1      -5.920   8.408  64.986  1.00  0.00    -0.049 C  
ENDBRANCH  16  19
ENDBRANCH  14  16
ENDBRANCH  13  14
ENDBRANCH   2  13
BRANCH  12  21
HETATM   21  C   UNL     1      -9.034  10.509  65.484  1.00  0.00    -0.203 C  
BRANCH  21  22
HETATM   22  C   UNL     1     -10.474  10.944  65.260  1.00  0.00    -0.299 C  
BRANCH  22  23
HETATM   23  C   UNL     1     -10.962  12.383  65.155  1.00  0.00    -0.302 C  
HETATM   24  C   UNL     1     -12.126  12.692  64.247  1.00  0.00    -0.502 C  
HETATM   25  C   UNL     1     -12.589  14.106  64.603  1.00  0.00    -0.258 C  
HETATM   26  O   UNL     1     -13.281  14.101  65.854  1.00  0.00    -0.563 OA 
HETATM   27  C   UNL     1     -11.442  15.112  64.610  1.00  0.00    -0.363 C  
HETATM   28  C   UNL     1     -10.137  14.581  65.159  1.00  0.00    -0.327 C  
HETATM   29  H   UNL     1     -13.568  14.979  66.075  1.00  0.00     0.000 HD 
HETATM   30  O   UNL     1      -9.306  15.303  65.696  1.00  0.00    -0.282 OA 
HETATM   31  O   UNL     1      -9.878  13.275  64.873  1.00  0.00    -0.162 OA 
ENDBRANCH  22  23
ENDBRANCH  21  22
ENDBRANCH  12  21
TORSDOF 7
ENDMDL
MODEL      172
REMARK 921   NORMALIZED FREE ENERGY PREDICTED BY IDOCK:   -4.13 KCAL/MOL
REMARK 922        TOTAL FREE ENERGY PREDICTED BY IDOCK:   -7.31 KCAL/MOL
REMARK 923 INTER-LIGAND FREE ENERGY PREDICTED BY IDOCK:   -6.86 KCAL/MOL
REMARK 924 INTRA-LIGAND FREE ENERGY PREDICTED BY IDOCK:   -0.45 KCAL/MOL
REMARK 927      BINDING AFFINITY PREDICTED BY RF-SCORE:    0.00 PKD
ROOT
HETATM    1  C   UNL     1      -8.535  16.124  68.137  1.00  0.00    -0.175 C  
HETATM    2  C   UNL     1      -9.857  16.114  67.277  1.00  0.00    -0.241 C  
HETATM    3  C   UNL     1     -11.140  15.515  67.885  1.00  0.00    -0.321 C  
HETATM    4  C   UNL     1      -5.964  15.602  68.379  1.00  0.00    -0.105 C  
HETATM    5  C   UNL     1     -11.248  15.535  69.401  1.00  0.00    -0.302 C  
HETATM    6  C   UNL     1      -6.348  14.809  69.592  1.00  0.00    -0.142 C  
HETATM    7  C   UNL     1      -5.252  16.836  68.965  1.00  0.00    -0.128 C  
HETATM    8  C   UNL     1      -7.584  14.750  70.087  1.00  0.00     0.377 C  
HETATM    9  C   UNL     1      -9.935  15.161  70.019  1.00  0.00    -0.052 C  
HETATM   10  C   UNL     1     -12.332  14.516  69.803  1.00  0.00    -0.317 C  
HETATM   11  C   UNL     1      -8.732  15.345  69.442  1.00  0.00    -0.252 C  
HETATM   12  C   UNL     1      -7.177  15.785  67.383  1.00  0.00    -0.235 C  
ENDROOT
BRANCH   2  13
HETATM   13  O   UNL     1      -9.724  15.579  65.948  1.00  0.00    -0.310 OA 
BRANCH  13  14
HETATM   14  C   UNL     1     -10.797  15.617  65.114  1.00  0.00    -0.431 C  
HETATM   15  O   UNL     1     -11.246  16.625  64.567  1.00  0.00    -0.909 OA 
BRANCH  14  16
HETATM   16  C   UNL     1     -11.442  14.241  64.951  1.00  0.00    -0.378 C  
HETATM   17  C   UNL     1     -12.402  13.901  66.105  1.00  0.00    -0.504 C  
HETATM   18  C   UNL     1     -12.199  14.325  63.618  1.00  0.00     0.043 C  
BRANCH  16  19
HETATM   19  C   UNL     1     -10.306  13.186  64.888  1.00  0.00    -0.352 C  
HETATM   20  C   UNL     1     -10.274  12.237  66.080  1.00  0.00    -0.263 C  
ENDBRANCH  16  19
ENDBRANCH  14  16
ENDBRANCH  13  14
ENDBRANCH   2  13
BRANCH  12  21
HETATM   21  C   UNL     1      -6.847  16.663  66.102  1.00  0.00     0.383 C  
BRANCH  21  22
HETATM   22  C   UNL     1      -6.961  18.161  66.347  1.00  0.00    -0.270 C  
BRANCH  22  23
HETATM   23  C   UNL     1      -8.250  18.918  66.636  1.00  0.00    -0.286 C  
HETATM   24  C   UNL     1      -8.633  20.070  65.741  1.00  0.00     0.005 C  
HETATM   25  C   UNL     1     -10.092  20.400  66.062  1.00  0.00    -0.145 C  
HETATM   26  O   UNL     1     -10.957  19.400  65.518  1.00  0.00    -0.411 OA 
HETATM   27  C   UNL     1     -10.334  20.586  67.556  1.00  0.00    -0.223 C  
HETATM   28  C   UNL     1      -9.558  19.643  68.447  1.00  0.00    -0.379 C  
HETATM   29  H   UNL     1     -11.864  19.605  65.716  1.00  0.00     0.000 HD 
HETATM   30  O   UNL     1      -9.961  19.297  69.551  1.00  0.00    -0.241 OA 
HETATM   31  O   UNL     1      -8.307  19.331  68.007  1.00  0.00    -0.295 OA 
ENDBRANCH  22  23
ENDBRANCH  21  22
ENDBRANCH  12  21
TORSDOF 7
ENDMDL
MODEL      173
REMARK 921   NORMALIZED FREE ENERGY PREDICTED BY IDOCK:   -4.11 KCAL/MOL
REMARK 922        TOTAL FREE ENERGY PREDICTED BY IDOCK:   -7.29 KCAL/MOL
REMARK 923 INTER-LIGAND FREE ENERGY PREDICTED BY IDOCK:   -5.81 KCAL/MOL
REMARK 924 INTRA-LIGAND FREE ENERGY PREDICTED BY IDOCK:   -1.48 KCAL/MOL
REMARK 927      BINDING AFFINITY PREDICTED BY RF-SCORE:    0.00 PKD
ROOT
HETATM    1  C   UNL     1      -9.446  11.634  68.389  1.00  0.00    -0.193 C  
HETATM    2  C   UNL     1      -8.156  11.462  67.497  1.00  0.00    -0.127 C  
HETATM    3  C   UNL     1      -7.345  12.712  67.108  1.00  0.00    -0.043 C  
HETATM    4  C   UNL     1     -12.001  11.160  68.826  1.00  0.00    -0.337 C  
HETATM    5  C   UNL     1      -7.436  13.903  68.047  1.00  0.00    -0.135 C  
HETATM    6  C   UNL     1     -12.154  12.649  68.908  1.00  0.00    -0.164 C  
HETATM    7  C   UNL     1     -12.185  10.697  70.284  1.00  0.00    -0.417 C  
HETATM    8  C   UNL     1     -11.138  13.510  68.854  1.00  0.00    -0.305 C  
HETATM    9  C   UNL     1      -8.851  14.097  68.503  1.00  0.00    -0.173 C  
HETATM   10  C   UNL     1      -6.955  15.145  67.271  1.00  0.00    -0.123 C  
HETATM   11  C   UNL     1      -9.773  13.119  68.587  1.00  0.00    -0.062 C  
HETATM   12  C   UNL     1     -10.708  10.741  68.019  1.00  0.00    -0.270 C  
ENDROOT
BRANCH   2  13
HETATM   13  O   UNL     1      -8.333  10.678  66.305  1.00  0.00    -0.143 OA 
BRANCH  13  14
HETATM   14  C   UNL     1      -7.358   9.800  65.946  1.00  0.00    -0.103 C  
HETATM   15  O   UNL     1      -6.358   9.526  66.611  1.00  0.00    -0.064 OA 
BRANCH  14  16
HETATM   16  C   UNL     1      -7.612   9.198  64.564  1.00  0.00    -0.107 C  
HETATM   17  C   UNL     1      -7.236   7.708  64.493  1.00  0.00    -0.076 C  
HETATM   18  C   UNL     1      -9.118   9.392  64.330  1.00  0.00    -0.159 C  
BRANCH  16  19
HETATM   19  C   UNL     1      -6.774   9.999  63.533  1.00  0.00    -0.135 C  
HETATM   20  C   UNL     1      -7.607  10.695  62.464  1.00  0.00    -0.136 C  
ENDBRANCH  16  19
ENDBRANCH  14  16
ENDBRANCH  13  14
ENDBRANCH   2  13
BRANCH  12  21
HETATM   21  C   UNL     1     -10.461   9.174  67.943  1.00  0.00    -0.293 C  
BRANCH  21  22
HETATM   22  C   UNL     1      -9.619   8.636  69.090  1.00  0.00    -0.163 C  
BRANCH  22  23
HETATM   23  C   UNL     1     -10.151   7.914  70.320  1.00  0.00    -0.196 C  
HETATM   24  C   UNL     1      -9.235   6.974  71.065  1.00  0.00    -0.155 C  
HETATM   25  C   UNL     1      -9.916   6.675  72.401  1.00  0.00    -0.166 C  
HETATM   26  O   UNL     1      -9.824   7.808  73.269  1.00  0.00    -0.269 OA 
HETATM   27  C   UNL     1     -11.364   6.226  72.232  1.00  0.00    -0.337 C  
HETATM   28  C   UNL     1     -12.125   6.939  71.137  1.00  0.00    -0.381 C  
HETATM   29  H   UNL     1     -10.246   7.622  74.100  1.00  0.00     0.000 HD 
HETATM   30  O   UNL     1     -13.339   7.094  71.172  1.00  0.00    -0.331 OA 
HETATM   31  O   UNL     1     -11.391   7.255  70.035  1.00  0.00    -0.247 OA 
ENDBRANCH  22  23
ENDBRANCH  21  22
ENDBRANCH  12  21
TORSDOF 7
ENDMDL
MODEL      174
REMARK 921   NORMALIZED FREE ENERGY PREDICTED BY IDOCK:   -4.10 KCAL/MOL
REMARK 922        TOTAL FREE ENERGY PREDICTED BY IDOCK:   -7.27 KCAL/MOL
REMARK 923 INTER-LIGAND FREE ENERGY PREDICTED BY IDOCK:   -6.15 KCAL/MOL
REMARK 924 INTRA-LIGAND FREE ENERGY PREDICTED BY IDOCK:   -1.12 KCAL/MOL
REMARK 927      BINDING AFFINITY PREDICTED BY RF-SCORE:    0.00 PKD
ROOT
HETATM    1  C   UNL     1      -9.564  10.954  69.042  1.00  0.00    -0.170 C  
HETATM    2  C   UNL     1      -8.340  11.051  68.051  1.00  0.00    -0.125 C  
HETATM    3  C   UNL     1      -8.164  12.325  67.203  1.00  0.00    -0.179 C  
HETATM    4  C   UNL     1     -11.646   9.640  69.979  1.00  0.00    -0.137 C  
HETATM    5  C   UNL     1      -8.755  13.606  67.767  1.00  0.00    -0.184 C  
HETATM    6  C   UNL     1     -12.436  10.873  69.656  1.00  0.00    -0.198 C  
HETATM    7  C   UNL     1     -11.591   9.640  71.518  1.00  0.00    -0.451 C  
HETATM    8  C   UNL     1     -11.900  12.007  69.205  1.00  0.00    -0.377 C  
HETATM    9  C   UNL     1     -10.107  13.335  68.359  1.00  0.00    -0.237 C  
HETATM   10  C   UNL     1      -8.878  14.612  66.607  1.00  0.00    -0.240 C  
HETATM   11  C   UNL     1     -10.505  12.150  68.857  1.00  0.00    -0.142 C  
HETATM   12  C   UNL     1     -10.311   9.555  69.138  1.00  0.00    -0.218 C  
ENDROOT
BRANCH   2  13
HETATM   13  O   UNL     1      -8.169   9.925  67.172  1.00  0.00    -0.119 OA 
BRANCH  13  14
HETATM   14  C   UNL     1      -7.670  10.135  65.925  1.00  0.00    -0.127 C  
HETATM   15  O   UNL     1      -6.615  10.712  65.662  1.00  0.00    -0.123 OA 
BRANCH  14  16
HETATM   16  C   UNL     1      -8.607   9.605  64.839  1.00  0.00    -0.188 C  
HETATM   17  C   UNL     1      -8.284  10.182  63.450  1.00  0.00    -0.164 C  
HETATM   18  C   UNL     1      -8.399   8.083  64.859  1.00  0.00    -0.108 C  
BRANCH  16  19
HETATM   19  C   UNL     1     -10.059   9.980  65.236  1.00  0.00    -0.299 C  
HETATM   20  C   UNL     1     -10.507  11.346  64.731  1.00  0.00    -0.366 C  
ENDBRANCH  16  19
ENDBRANCH  14  16
ENDBRANCH  13  14
ENDBRANCH   2  13
BRANCH  12  21
HETATM   21  C   UNL     1      -9.403   8.296  69.474  1.00  0.00    -0.158 C  
BRANCH  21  22
HETATM   22  C   UNL     1     -10.190   7.001  69.612  1.00  0.00    -0.212 C  
BRANCH  22  23
HETATM   23  C   UNL     1     -10.020   5.972  70.721  1.00  0.00    -0.191 C  
HETATM   24  C   UNL     1     -10.015   4.507  70.359  1.00  0.00    -0.284 C  
HETATM   25  C   UNL     1      -9.501   3.759  71.590  1.00  0.00    -0.143 C  
HETATM   26  O   UNL     1      -8.092   3.955  71.737  1.00  0.00    -0.075 OA 
HETATM   27  C   UNL     1     -10.247   4.146  72.863  1.00  0.00    -0.228 C  
HETATM   28  C   UNL     1     -10.613   5.610  72.964  1.00  0.00    -0.242 C  
HETATM   29  H   UNL     1      -7.772   3.490  72.501  1.00  0.00     0.000 HD 
HETATM   30  O   UNL     1     -10.737   6.186  74.038  1.00  0.00    -0.222 OA 
HETATM   31  O   UNL     1     -10.949   6.204  71.786  1.00  0.00    -0.244 OA 
ENDBRANCH  22  23
ENDBRANCH  21  22
ENDBRANCH  12  21
TORSDOF 7
ENDMDL
MODEL      175
REMARK 921   NORMALIZED FREE ENERGY PREDICTED BY IDOCK:   -4.09 KCAL/MOL
REMARK 922        TOTAL FREE ENERGY PREDICTED BY IDOCK:   -7.25 KCAL/MOL
REMARK 923 INTER-LIGAND FREE ENERGY PREDICTED BY IDOCK:   -6.14 KCAL/MOL
REMARK 924 INTRA-LIGAND FREE ENERGY PREDICTED BY IDOCK:   -1.11 KCAL/MOL
REMARK 927      BINDING AFFINITY PREDICTED BY RF-SCORE:    0.00 PKD
ROOT
HETATM    1  C   UNL     1     -11.118  13.957  69.625  1.00  0.00    -0.126 C  
HETATM    2  C   UNL     1     -10.216  13.707  68.356  1.00  0.00    -0.245 C  
HETATM    3  C   UNL     1      -9.967  14.868  67.375  1.00  0.00    -0.223 C  
HETATM    4  C   UNL     1     -13.132  13.252  71.172  1.00  0.00    -0.224 C  
HETATM    5  C   UNL     1     -10.060  16.273  67.945  1.00  0.00    -0.247 C  
HETATM    6  C   UNL     1     -13.656  14.637  70.940  1.00  0.00    -0.234 C  
HETATM    7  C   UNL     1     -12.672  13.281  72.641  1.00  0.00     0.155 C  
HETATM    8  C   UNL     1     -13.001  15.582  70.266  1.00  0.00    -0.141 C  
HETATM    9  C   UNL     1     -11.230  16.378  68.877  1.00  0.00    -0.304 C  
HETATM   10  C   UNL     1     -10.238  17.244  66.761  1.00  0.00    -0.318 C  
HETATM   11  C   UNL     1     -11.757  15.350  69.568  1.00  0.00    -0.364 C  
HETATM   12  C   UNL     1     -12.129  12.801  70.036  1.00  0.00    -0.355 C  
ENDROOT
BRANCH   2  13
HETATM   13  O   UNL     1     -10.561  12.551  67.573  1.00  0.00    -0.216 OA 
BRANCH  13  14
HETATM   14  C   UNL     1      -9.789  12.228  66.502  1.00  0.00    -0.229 C  
HETATM   15  O   UNL     1      -8.558  12.245  66.473  1.00  0.00    -0.149 OA 
BRANCH  14  16
HETATM   16  C   UNL     1     -10.632  11.873  65.277  1.00  0.00    -0.320 C  
HETATM   17  C   UNL     1     -10.626  10.365  64.976  1.00  0.00    -0.006 C  
HETATM   18  C   UNL     1     -12.047  12.354  65.630  1.00  0.00    -0.396 C  
BRANCH  16  19
HETATM   19  C   UNL     1     -10.059  12.651  64.062  1.00  0.00    -0.280 C  
HETATM   20  C   UNL     1      -9.428  11.761  62.998  1.00  0.00    -0.134 C  
ENDBRANCH  16  19
ENDBRANCH  14  16
ENDBRANCH  13  14
ENDBRANCH   2  13
BRANCH  12  21
HETATM   21  C   UNL     1     -11.497  11.361  70.253  1.00  0.00    -0.244 C  
BRANCH  21  22
HETATM   22  C   UNL     1     -11.689  10.429  69.065  1.00  0.00    -0.167 C  
BRANCH  22  23
HETATM   23  C   UNL     1     -10.871   9.178  68.775  1.00  0.00    -0.060 C  
HETATM   24  C   UNL     1     -10.797   8.098  69.826  1.00  0.00    -0.190 C  
HETATM   25  C   UNL     1     -10.211   6.864  69.137  1.00  0.00    -0.187 C  
HETATM   26  O   UNL     1     -11.184   6.268  68.275  1.00  0.00    -0.430 OA 
HETATM   27  C   UNL     1      -8.922   7.174  68.383  1.00  0.00    -0.125 C  
HETATM   28  C   UNL     1      -8.902   8.513  67.682  1.00  0.00    -0.136 C  
HETATM   29  H   UNL     1     -10.820   5.502  67.848  1.00  0.00     0.000 HD 
HETATM   30  O   UNL     1      -8.236   8.721  66.676  1.00  0.00    -0.105 OA 
HETATM   31  O   UNL     1      -9.551   9.517  68.336  1.00  0.00    -0.140 OA 
ENDBRANCH  22  23
ENDBRANCH  21  22
ENDBRANCH  12  21
TORSDOF 7
ENDMDL
MODEL      176
REMARK 921   NORMALIZED FREE ENERGY PREDICTED BY IDOCK:   -4.06 KCAL/MOL
REMARK 922        TOTAL FREE ENERGY PREDICTED BY IDOCK:   -7.22 KCAL/MOL
REMARK 923 INTER-LIGAND FREE ENERGY PREDICTED BY IDOCK:   -5.54 KCAL/MOL
REMARK 924 INTRA-LIGAND FREE ENERGY PREDICTED BY IDOCK:   -1.68 KCAL/MOL
REMARK 927      BINDING AFFINITY PREDICTED BY RF-SCORE:    0.00 PKD
ROOT
HETATM    1  C   UNL     1      -8.969   7.107  67.703  1.00  0.00    -0.125 C  
HETATM    2  C   UNL     1      -8.709   8.362  68.623  1.00  0.00    -0.133 C  
HETATM    3  C   UNL     1      -8.661   9.761  67.981  1.00  0.00    -0.118 C  
HETATM    4  C   UNL     1      -8.303   4.688  66.898  1.00  0.00    -0.106 C  
HETATM    5  C   UNL     1      -9.439   9.945  66.688  1.00  0.00    -0.220 C  
HETATM    6  C   UNL     1      -8.267   5.272  65.518  1.00  0.00    -0.124 C  
HETATM    7  C   UNL     1      -9.560   3.799  66.881  1.00  0.00    -0.207 C  
HETATM    8  C   UNL     1      -8.621   6.524  65.226  1.00  0.00    -0.036 C  
HETATM    9  C   UNL     1      -9.249   8.755  65.796  1.00  0.00    -0.269 C  
HETATM   10  C   UNL     1      -8.901  11.214  65.999  1.00  0.00    -0.196 C  
HETATM   11  C   UNL     1      -8.967   7.510  66.224  1.00  0.00    -0.199 C  
HETATM   12  C   UNL     1      -8.129   5.794  68.014  1.00  0.00    -0.104 C  
ENDROOT
BRANCH   2  13
HETATM   13  O   UNL     1      -7.578   8.256  69.504  1.00  0.00    -0.090 OA 
BRANCH  13  14
HETATM   14  C   UNL     1      -7.411   9.194  70.474  1.00  0.00    -0.116 C  
HETATM   15  O   UNL     1      -8.266   9.546  71.288  1.00  0.00    -0.276 OA 
BRANCH  14  16
HETATM   16  C   UNL     1      -6.019   9.824  70.425  1.00  0.00    -0.069 C  
HETATM   17  C   UNL     1      -5.315   9.804  71.793  1.00  0.00    -0.065 C  
HETATM   18  C   UNL     1      -5.248   8.977  69.402  1.00  0.00    -0.035 C  
BRANCH  16  19
HETATM   19  C   UNL     1      -6.176  11.289  69.939  1.00  0.00    -0.137 C  
HETATM   20  C   UNL     1      -5.327  12.293  70.711  1.00  0.00    -0.161 C  
ENDBRANCH  16  19
ENDBRANCH  14  16
ENDBRANCH  13  14
ENDBRANCH   2  13
BRANCH  12  21
HETATM   21  C   UNL     1      -8.211   5.243  69.501  1.00  0.00    -0.095 C  
BRANCH  21  22
HETATM   22  C   UNL     1      -9.635   5.044  69.996  1.00  0.00    -0.258 C  
BRANCH  22  23
HETATM   23  C   UNL     1     -10.340   5.895  71.044  1.00  0.00    -0.223 C  
HETATM   24  C   UNL     1     -11.452   6.816  70.606  1.00  0.00    -0.403 C  
HETATM   25  C   UNL     1     -12.169   7.265  71.879  1.00  0.00    -0.313 C  
HETATM   26  O   UNL     1     -12.961   6.197  72.405  1.00  0.00    -0.497 OA 
HETATM   27  C   UNL     1     -11.207   7.808  72.931  1.00  0.00    -0.434 C  
HETATM   28  C   UNL     1      -9.888   7.074  73.023  1.00  0.00    -0.187 C  
HETATM   29  H   UNL     1     -13.407   6.476  73.196  1.00  0.00     0.000 HD 
HETATM   30  O   UNL     1      -9.238   7.014  74.060  1.00  0.00    -0.190 OA 
HETATM   31  O   UNL     1      -9.394   6.622  71.838  1.00  0.00    -0.148 OA 
ENDBRANCH  22  23
ENDBRANCH  21  22
ENDBRANCH  12  21
TORSDOF 7
ENDMDL
MODEL      177
REMARK 921   NORMALIZED FREE ENERGY PREDICTED BY IDOCK:   -4.04 KCAL/MOL
REMARK 922        TOTAL FREE ENERGY PREDICTED BY IDOCK:   -7.18 KCAL/MOL
REMARK 923 INTER-LIGAND FREE ENERGY PREDICTED BY IDOCK:   -5.44 KCAL/MOL
REMARK 924 INTRA-LIGAND FREE ENERGY PREDICTED BY IDOCK:   -1.74 KCAL/MOL
REMARK 927      BINDING AFFINITY PREDICTED BY RF-SCORE:    0.00 PKD
ROOT
HETATM    1  C   UNL     1      -8.361   9.223  67.789  1.00  0.00    -0.116 C  
HETATM    2  C   UNL     1      -8.854   9.358  69.282  1.00  0.00    -0.150 C  
HETATM    3  C   UNL     1      -7.840   9.753  70.371  1.00  0.00    -0.144 C  
HETATM    4  C   UNL     1      -8.213   7.846  65.548  1.00  0.00    -0.140 C  
HETATM    5  C   UNL     1      -6.635  10.561  69.920  1.00  0.00    -0.130 C  
HETATM    6  C   UNL     1      -6.728   8.006  65.671  1.00  0.00    -0.048 C  
HETATM    7  C   UNL     1      -8.579   8.765  64.367  1.00  0.00    -0.110 C  
HETATM    8  C   UNL     1      -6.130   8.735  66.615  1.00  0.00    -0.057 C  
HETATM    9  C   UNL     1      -6.104  10.019  68.626  1.00  0.00    -0.044 C  
HETATM   10  C   UNL     1      -5.562  10.450  71.020  1.00  0.00    -0.075 C  
HETATM   11  C   UNL     1      -6.836   9.360  67.710  1.00  0.00    -0.079 C  
HETATM   12  C   UNL     1      -8.945   8.014  66.939  1.00  0.00    -0.160 C  
ENDROOT
BRANCH   2  13
HETATM   13  O   UNL     1      -9.609   8.241  69.784  1.00  0.00    -0.169 OA 
BRANCH  13  14
HETATM   14  C   UNL     1     -10.814   8.473  70.369  1.00  0.00    -0.234 C  
HETATM   15  O   UNL     1     -11.559   9.424  70.128  1.00  0.00    -0.199 OA 
BRANCH  14  16
HETATM   16  C   UNL     1     -11.145   7.422  71.429  1.00  0.00    -0.263 C  
HETATM   17  C   UNL     1     -10.410   7.673  72.757  1.00  0.00    -0.351 C  
HETATM   18  C   UNL     1     -12.666   7.530  71.618  1.00  0.00    -0.385 C  
BRANCH  16  19
HETATM   19  C   UNL     1     -10.746   6.033  70.865  1.00  0.00    -0.329 C  
HETATM   20  C   UNL     1      -9.772   5.262  71.748  1.00  0.00    -0.206 C  
ENDBRANCH  16  19
ENDBRANCH  14  16
ENDBRANCH  13  14
ENDBRANCH   2  13
BRANCH  12  21
HETATM   21  C   UNL     1     -10.527   7.906  66.865  1.00  0.00    -0.388 C  
BRANCH  21  22
HETATM   22  C   UNL     1     -11.055   6.510  67.159  1.00  0.00    -0.434 C  
BRANCH  22  23
HETATM   23  C   UNL     1     -10.263   5.215  67.031  1.00  0.00    -0.223 C  
HETATM   24  C   UNL     1      -9.051   5.015  67.905  1.00  0.00    -0.126 C  
HETATM   25  C   UNL     1      -8.681   3.535  67.800  1.00  0.00    -0.108 C  
HETATM   26  O   UNL     1      -9.615   2.737  68.532  1.00  0.00    -0.172 OA 
HETATM   27  C   UNL     1      -8.566   3.063  66.354  1.00  0.00    -0.118 C  
HETATM   28  C   UNL     1      -9.586   3.658  65.410  1.00  0.00    -0.156 C  
HETATM   29  H   UNL     1      -9.386   1.817  68.467  1.00  0.00     0.000 HD 
HETATM   30  O   UNL     1      -9.975   3.073  64.406  1.00  0.00    -0.151 OA 
HETATM   31  O   UNL     1      -9.924   4.952  65.664  1.00  0.00    -0.171 OA 
ENDBRANCH  22  23
ENDBRANCH  21  22
ENDBRANCH  12  21
TORSDOF 7
ENDMDL
MODEL      178
REMARK 921   NORMALIZED FREE ENERGY PREDICTED BY IDOCK:   -4.03 KCAL/MOL
REMARK 922        TOTAL FREE ENERGY PREDICTED BY IDOCK:   -7.18 KCAL/MOL
REMARK 923 INTER-LIGAND FREE ENERGY PREDICTED BY IDOCK:   -6.10 KCAL/MOL
REMARK 924 INTRA-LIGAND FREE ENERGY PREDICTED BY IDOCK:   -1.07 KCAL/MOL
REMARK 927      BINDING AFFINITY PREDICTED BY RF-SCORE:    0.00 PKD
ROOT
HETATM    1  C   UNL     1      -9.813  12.674  67.967  1.00  0.00    -0.218 C  
HETATM    2  C   UNL     1      -9.134  13.796  68.844  1.00  0.00     0.144 C  
HETATM    3  C   UNL     1     -10.006  14.933  69.410  1.00  0.00    -0.145 C  
HETATM    4  C   UNL     1      -9.880  11.219  65.772  1.00  0.00    -0.273 C  
HETATM    5  C   UNL     1     -11.477  14.619  69.627  1.00  0.00    -0.329 C  
HETATM    6  C   UNL     1     -11.280  11.728  65.604  1.00  0.00    -0.324 C  
HETATM    7  C   UNL     1     -10.076   9.740  66.154  1.00  0.00    -0.315 C  
HETATM    8  C   UNL     1     -11.911  12.490  66.498  1.00  0.00    -0.434 C  
HETATM    9  C   UNL     1     -12.014  13.828  68.472  1.00  0.00    -0.402 C  
HETATM   10  C   UNL     1     -12.226  15.961  69.743  1.00  0.00    -0.157 C  
HETATM   11  C   UNL     1     -11.278  13.023  67.683  1.00  0.00    -0.315 C  
HETATM   12  C   UNL     1      -9.012  12.167  66.692  1.00  0.00    -0.198 C  
ENDROOT
BRANCH   2  13
HETATM   13  O   UNL     1      -7.961  14.400  68.271  1.00  0.00    -0.124 OA 
BRANCH  13  14
HETATM   14  C   UNL     1      -8.102  15.527  67.523  1.00  0.00    -0.165 C  
HETATM   15  O   UNL     1      -8.740  15.617  66.473  1.00  0.00    -0.260 OA 
BRANCH  14  16
HETATM   16  C   UNL     1      -7.324  16.704  68.112  1.00  0.00    -0.172 C  
HETATM   17  C   UNL     1      -6.601  16.336  69.419  1.00  0.00    -0.202 C  
HETATM   18  C   UNL     1      -6.314  17.084  67.018  1.00  0.00    -0.231 C  
BRANCH  16  19
HETATM   19  C   UNL     1      -8.329  17.856  68.376  1.00  0.00    -0.307 C  
HETATM   20  C   UNL     1      -8.137  19.066  67.469  1.00  0.00    -0.292 C  
ENDBRANCH  16  19
ENDBRANCH  14  16
ENDBRANCH  13  14
ENDBRANCH   2  13
BRANCH  12  21
HETATM   21  C   UNL     1      -7.532  11.653  66.950  1.00  0.00    -0.131 C  
BRANCH  21  22
HETATM   22  C   UNL     1      -7.265  11.276  68.400  1.00  0.00    -0.085 C  
BRANCH  22  23
HETATM   23  C   UNL     1      -7.636   9.953  69.056  1.00  0.00    -0.086 C  
HETATM   24  C   UNL     1      -7.460   8.677  68.272  1.00  0.00    -0.095 C  
HETATM   25  C   UNL     1      -7.585   7.531  69.277  1.00  0.00    -0.100 C  
HETATM   26  O   UNL     1      -6.412   7.454  70.091  1.00  0.00    -0.034 OA 
HETATM   27  C   UNL     1      -8.844   7.638  70.132  1.00  0.00    -0.146 C  
HETATM   28  C   UNL     1      -9.216   9.046  70.539  1.00  0.00    -0.220 C  
HETATM   29  H   UNL     1      -6.489   6.742  70.715  1.00  0.00     0.000 HD 
HETATM   30  O   UNL     1      -9.832   9.294  71.568  1.00  0.00    -0.288 OA 
HETATM   31  O   UNL     1      -8.958  10.004  69.606  1.00  0.00    -0.198 OA 
ENDBRANCH  22  23
ENDBRANCH  21  22
ENDBRANCH  12  21
TORSDOF 7
ENDMDL
MODEL      179
REMARK 921   NORMALIZED FREE ENERGY PREDICTED BY IDOCK:   -4.03 KCAL/MOL
REMARK 922        TOTAL FREE ENERGY PREDICTED BY IDOCK:   -7.17 KCAL/MOL
REMARK 923 INTER-LIGAND FREE ENERGY PREDICTED BY IDOCK:   -6.04 KCAL/MOL
REMARK 924 INTRA-LIGAND FREE ENERGY PREDICTED BY IDOCK:   -1.13 KCAL/MOL
REMARK 927      BINDING AFFINITY PREDICTED BY RF-SCORE:    0.00 PKD
ROOT
HETATM    1  C   UNL     1     -10.869   8.011  70.060  1.00  0.00    -0.235 C  
HETATM    2  C   UNL     1      -9.465   7.739  69.395  1.00  0.00    -0.156 C  
HETATM    3  C   UNL     1      -8.700   6.454  69.762  1.00  0.00    -0.138 C  
HETATM    4  C   UNL     1     -12.510   9.612  71.359  1.00  0.00    -0.465 C  
HETATM    5  C   UNL     1      -9.536   5.272  70.223  1.00  0.00    -0.241 C  
HETATM    6  C   UNL     1     -12.621   8.508  72.366  1.00  0.00    -0.409 C  
HETATM    7  C   UNL     1     -13.882   9.603  70.659  1.00  0.00     0.345 C  
HETATM    8  C   UNL     1     -12.058   7.308  72.226  1.00  0.00    -0.229 C  
HETATM    9  C   UNL     1     -10.621   5.734  71.150  1.00  0.00    -0.315 C  
HETATM   10  C   UNL     1      -8.596   4.295  70.956  1.00  0.00    -0.115 C  
HETATM   11  C   UNL     1     -11.167   6.965  71.141  1.00  0.00    -0.314 C  
HETATM   12  C   UNL     1     -11.184   9.504  70.505  1.00  0.00    -0.345 C  
ENDROOT
BRANCH   2  13
HETATM   13  O   UNL     1      -8.530   8.829  69.464  1.00  0.00    -0.123 OA 
BRANCH  13  14
HETATM   14  C   UNL     1      -7.559   8.922  68.517  1.00  0.00    -0.097 C  
HETATM   15  O   UNL     1      -7.705   8.701  67.314  1.00  0.00    -0.095 OA 
BRANCH  14  16
HETATM   16  C   UNL     1      -6.206   9.300  69.121  1.00  0.00    -0.042 C  
HETATM   17  C   UNL     1      -5.443   8.080  69.666  1.00  0.00    -0.023 C  
HETATM   18  C   UNL     1      -5.436   9.954  67.964  1.00  0.00    -0.039 C  
BRANCH  16  19
HETATM   19  C   UNL     1      -6.463  10.312  70.269  1.00  0.00    -0.137 C  
HETATM   20  C   UNL     1      -5.194  10.919  70.856  1.00  0.00    -0.106 C  
ENDBRANCH  16  19
ENDBRANCH  14  16
ENDBRANCH  13  14
ENDBRANCH   2  13
BRANCH  12  21
HETATM   21  C   UNL     1     -11.033  10.618  69.384  1.00  0.00    -0.304 C  
BRANCH  21  22
HETATM   22  C   UNL     1     -11.019  10.056  67.969  1.00  0.00    -0.296 C  
BRANCH  22  23
HETATM   23  C   UNL     1     -10.750  10.852  66.700  1.00  0.00    -0.230 C  
HETATM   24  C   UNL     1     -11.780  11.852  66.236  1.00  0.00    -0.223 C  
HETATM   25  C   UNL     1     -11.100  12.709  65.167  1.00  0.00    -0.294 C  
HETATM   26  O   UNL     1     -10.172  13.613  65.773  1.00  0.00    -0.293 OA 
HETATM   27  C   UNL     1     -10.427  11.870  64.086  1.00  0.00    -0.393 C  
HETATM   28  C   UNL     1      -9.757  10.610  64.586  1.00  0.00    -0.302 C  
HETATM   29  H   UNL     1      -9.750  14.146  65.109  1.00  0.00     0.000 HD 
HETATM   30  O   UNL     1      -8.795  10.107  64.019  1.00  0.00    -0.189 OA 
HETATM   31  O   UNL     1     -10.393   9.986  65.615  1.00  0.00    -0.233 OA 
ENDBRANCH  22  23
ENDBRANCH  21  22
ENDBRANCH  12  21
TORSDOF 7
ENDMDL
MODEL      180
REMARK 921   NORMALIZED FREE ENERGY PREDICTED BY IDOCK:   -4.03 KCAL/MOL
REMARK 922        TOTAL FREE ENERGY PREDICTED BY IDOCK:   -7.17 KCAL/MOL
REMARK 923 INTER-LIGAND FREE ENERGY PREDICTED BY IDOCK:   -5.34 KCAL/MOL
REMARK 924 INTRA-LIGAND FREE ENERGY PREDICTED BY IDOCK:   -1.82 KCAL/MOL
REMARK 927      BINDING AFFINITY PREDICTED BY RF-SCORE:    0.00 PKD
ROOT
HETATM    1  C   UNL     1     -10.656   6.474  70.220  1.00  0.00    -0.278 C  
HETATM    2  C   UNL     1     -10.164   5.302  69.286  1.00  0.00    -0.231 C  
HETATM    3  C   UNL     1      -9.546   4.045  69.927  1.00  0.00    -0.281 C  
HETATM    4  C   UNL     1     -10.692   9.033  70.847  1.00  0.00    -0.319 C  
HETATM    5  C   UNL     1      -9.979   3.721  71.347  1.00  0.00    -0.178 C  
HETATM    6  C   UNL     1     -10.223   8.598  72.203  1.00  0.00    -0.394 C  
HETATM    7  C   UNL     1     -12.148   9.471  71.091  1.00  0.00    -0.429 C  
HETATM    8  C   UNL     1     -10.089   7.325  72.576  1.00  0.00    -0.224 C  
HETATM    9  C   UNL     1     -10.038   4.974  72.169  1.00  0.00    -0.252 C  
HETATM   10  C   UNL     1      -8.941   2.748  71.939  1.00  0.00    -0.131 C  
HETATM   11  C   UNL     1     -10.260   6.207  71.677  1.00  0.00    -0.235 C  
HETATM   12  C   UNL     1     -10.363   7.959  69.735  1.00  0.00    -0.219 C  
ENDROOT
BRANCH   2  13
HETATM   13  O   UNL     1      -9.305   5.697  68.202  1.00  0.00    -0.110 OA 
BRANCH  13  14
HETATM   14  C   UNL     1      -9.545   5.201  66.959  1.00  0.00    -0.147 C  
HETATM   15  O   UNL     1     -10.656   4.984  66.475  1.00  0.00    -0.291 OA 
BRANCH  14  16
HETATM   16  C   UNL     1      -8.250   4.884  66.211  1.00  0.00    -0.108 C  
HETATM   17  C   UNL     1      -8.369   5.130  64.697  1.00  0.00    -0.140 C  
HETATM   18  C   UNL     1      -7.205   5.821  66.836  1.00  0.00    -0.075 C  
BRANCH  16  19
HETATM   19  C   UNL     1      -7.899   3.396  66.473  1.00  0.00    -0.081 C  
HETATM   20  C   UNL     1      -6.815   3.189  67.523  1.00  0.00    -0.046 C  
ENDBRANCH  16  19
ENDBRANCH  14  16
ENDBRANCH  13  14
ENDBRANCH   2  13
BRANCH  12  21
HETATM   21  C   UNL     1     -10.882   8.339  68.283  1.00  0.00     0.025 C  
BRANCH  21  22
HETATM   22  C   UNL     1     -10.368   9.682  67.787  1.00  0.00    -0.286 C  
BRANCH  22  23
HETATM   23  C   UNL     1      -8.941   9.980  67.348  1.00  0.00    -0.131 C  
HETATM   24  C   UNL     1      -8.063  10.817  68.245  1.00  0.00    -0.121 C  
HETATM   25  C   UNL     1      -6.635  10.662  67.721  1.00  0.00    -0.060 C  
HETATM   26  O   UNL     1      -6.122   9.369  68.055  1.00  0.00    -0.051 OA 
HETATM   27  C   UNL     1      -6.530  10.928  66.223  1.00  0.00    -0.129 C  
HETATM   28  C   UNL     1      -7.696  10.419  65.406  1.00  0.00    -0.136 C  
HETATM   29  H   UNL     1      -5.235   9.273  67.730  1.00  0.00     0.000 HD 
HETATM   30  O   UNL     1      -7.584  10.088  64.232  1.00  0.00    -0.136 OA 
HETATM   31  O   UNL     1      -8.911  10.505  66.015  1.00  0.00    -0.155 OA 
ENDBRANCH  22  23
ENDBRANCH  21  22
ENDBRANCH  12  21
TORSDOF 7
ENDMDL
MODEL      181
REMARK 921   NORMALIZED FREE ENERGY PREDICTED BY IDOCK:   -4.03 KCAL/MOL
REMARK 922        TOTAL FREE ENERGY PREDICTED BY IDOCK:   -7.17 KCAL/MOL
REMARK 923 INTER-LIGAND FREE ENERGY PREDICTED BY IDOCK:   -5.58 KCAL/MOL
REMARK 924 INTRA-LIGAND FREE ENERGY PREDICTED BY IDOCK:   -1.58 KCAL/MOL
REMARK 927      BINDING AFFINITY PREDICTED BY RF-SCORE:    0.00 PKD
ROOT
HETATM    1  C   UNL     1      -6.732  13.078  68.763  1.00  0.00    -0.100 C  
HETATM    2  C   UNL     1      -7.664  14.109  68.016  1.00  0.00    -0.147 C  
HETATM    3  C   UNL     1      -7.333  15.611  68.098  1.00  0.00    -0.123 C  
HETATM    4  C   UNL     1      -6.436  11.036  70.402  1.00  0.00     0.005 C  
HETATM    5  C   UNL     1      -5.878  15.976  68.338  1.00  0.00    -0.105 C  
HETATM    6  C   UNL     1      -5.505  11.925  71.171  1.00  0.00    -0.017 C  
HETATM    7  C   UNL     1      -5.496  10.003  69.753  1.00  0.00    -0.037 C  
HETATM    8  C   UNL     1      -5.140  13.145  70.777  1.00  0.00    -0.128 C  
HETATM    9  C   UNL     1      -5.279  15.067  69.368  1.00  0.00    -0.091 C  
HETATM   10  C   UNL     1      -5.840  17.435  68.833  1.00  0.00    -0.175 C  
HETATM   11  C   UNL     1      -5.694  13.811  69.621  1.00  0.00    -0.100 C  
HETATM   12  C   UNL     1      -7.441  11.865  69.506  1.00  0.00     0.376 C  
ENDROOT
BRANCH   2  13
HETATM   13  O   UNL     1      -9.071  13.965  68.275  1.00  0.00    -0.184 OA 
BRANCH  13  14
HETATM   14  C   UNL     1      -9.937  13.974  67.226  1.00  0.00    -0.242 C  
HETATM   15  O   UNL     1      -9.731  13.469  66.122  1.00  0.00    -0.284 OA 
BRANCH  14  16
HETATM   16  C   UNL     1     -11.219  14.741  67.550  1.00  0.00    -0.339 C  
HETATM   17  C   UNL     1     -10.954  16.223  67.866  1.00  0.00    -0.310 C  
HETATM   18  C   UNL     1     -12.083  14.598  66.289  1.00  0.00    -0.213 C  
BRANCH  16  19
HETATM   19  C   UNL     1     -11.888  14.058  68.772  1.00  0.00    -0.396 C  
HETATM   20  C   UNL     1     -11.902  14.915  70.031  1.00  0.00    -0.353 C  
ENDBRANCH  16  19
ENDBRANCH  14  16
ENDBRANCH  13  14
ENDBRANCH   2  13
BRANCH  12  21
HETATM   21  C   UNL     1      -8.419  10.978  68.625  1.00  0.00    -0.157 C  
BRANCH  21  22
HETATM   22  C   UNL     1      -9.814  10.843  69.218  1.00  0.00    -0.113 C  
BRANCH  22  23
HETATM   23  C   UNL     1     -10.286   9.721  70.133  1.00  0.00    -0.282 C  
HETATM   24  C   UNL     1     -11.728   9.702  70.576  1.00  0.00    -0.312 C  
HETATM   25  C   UNL     1     -11.977   8.321  71.183  1.00  0.00    -0.265 C  
HETATM   26  O   UNL     1     -12.050   7.332  70.152  1.00  0.00    -0.540 OA 
HETATM   27  C   UNL     1     -10.934   7.947  72.232  1.00  0.00    -0.359 C  
HETATM   28  C   UNL     1      -9.525   8.392  71.913  1.00  0.00    -0.253 C  
HETATM   29  H   UNL     1     -12.204   6.474  70.528  1.00  0.00     0.000 HD 
HETATM   30  O   UNL     1      -8.537   7.795  72.323  1.00  0.00    -0.116 OA 
HETATM   31  O   UNL     1      -9.428   9.590  71.272  1.00  0.00    -0.219 OA 
ENDBRANCH  22  23
ENDBRANCH  21  22
ENDBRANCH  12  21
TORSDOF 7
ENDMDL
MODEL      182
REMARK 921   NORMALIZED FREE ENERGY PREDICTED BY IDOCK:   -4.02 KCAL/MOL
REMARK 922        TOTAL FREE ENERGY PREDICTED BY IDOCK:   -7.16 KCAL/MOL
REMARK 923 INTER-LIGAND FREE ENERGY PREDICTED BY IDOCK:   -5.58 KCAL/MOL
REMARK 924 INTRA-LIGAND FREE ENERGY PREDICTED BY IDOCK:   -1.58 KCAL/MOL
REMARK 927      BINDING AFFINITY PREDICTED BY RF-SCORE:    0.00 PKD
ROOT
HETATM    1  C   UNL     1      -8.643   8.994  68.463  1.00  0.00    -0.129 C  
HETATM    2  C   UNL     1      -8.753   8.434  69.934  1.00  0.00    -0.136 C  
HETATM    3  C   UNL     1      -7.578   8.649  70.906  1.00  0.00    -0.093 C  
HETATM    4  C   UNL     1      -8.838   8.632  65.861  1.00  0.00    -0.221 C  
HETATM    5  C   UNL     1      -6.686   9.851  70.642  1.00  0.00    -0.097 C  
HETATM    6  C   UNL     1      -7.421   9.117  65.794  1.00  0.00    -0.090 C  
HETATM    7  C   UNL     1      -9.646   9.792  65.250  1.00  0.00    -0.368 C  
HETATM    8  C   UNL     1      -6.737   9.574  66.843  1.00  0.00    -0.072 C  
HETATM    9  C   UNL     1      -6.418   9.984  69.172  1.00  0.00    -0.048 C  
HETATM   10  C   UNL     1      -5.365   9.626  71.402  1.00  0.00    -0.070 C  
HETATM   11  C   UNL     1      -7.236   9.544  68.198  1.00  0.00    -0.080 C  
HETATM   12  C   UNL     1      -9.207   8.077  67.294  1.00  0.00    -0.164 C  
ENDROOT
BRANCH   2  13
HETATM   13  O   UNL     1      -9.151   7.056  70.040  1.00  0.00    -0.145 OA 
BRANCH  13  14
HETATM   14  C   UNL     1      -9.277   6.503  71.276  1.00  0.00    -0.155 C  
HETATM   15  O   UNL     1      -8.370   5.981  71.925  1.00  0.00    -0.114 OA 
BRANCH  14  16
HETATM   16  C   UNL     1     -10.720   6.553  71.778  1.00  0.00    -0.262 C  
HETATM   17  C   UNL     1     -11.744   6.555  70.630  1.00  0.00    -0.436 C  
HETATM   18  C   UNL     1     -10.872   5.292  72.642  1.00  0.00    -0.307 C  
BRANCH  16  19
HETATM   19  C   UNL     1     -10.885   7.840  72.628  1.00  0.00    -0.413 C  
HETATM   20  C   UNL     1     -11.837   8.865  72.022  1.00  0.00    -0.438 C  
ENDBRANCH  16  19
ENDBRANCH  14  16
ENDBRANCH  13  14
ENDBRANCH   2  13
BRANCH  12  21
HETATM   21  C   UNL     1     -10.713   7.596  67.444  1.00  0.00    -0.318 C  
BRANCH  21  22
HETATM   22  C   UNL     1     -10.972   6.221  66.845  1.00  0.00    -0.404 C  
BRANCH  22  23
HETATM   23  C   UNL     1      -9.957   5.092  66.739  1.00  0.00    -0.217 C  
HETATM   24  C   UNL     1     -10.044   4.142  65.570  1.00  0.00    -0.198 C  
HETATM   25  C   UNL     1      -8.733   3.355  65.553  1.00  0.00    -0.121 C  
HETATM   26  O   UNL     1      -7.664   4.183  65.086  1.00  0.00    -0.083 OA 
HETATM   27  C   UNL     1      -8.403   2.740  66.909  1.00  0.00    -0.094 C  
HETATM   28  C   UNL     1      -8.752   3.604  68.099  1.00  0.00    -0.105 C  
HETATM   29  H   UNL     1      -6.849   3.694  65.075  1.00  0.00     0.000 HD 
HETATM   30  O   UNL     1      -8.147   3.537  69.162  1.00  0.00    -0.057 OA 
HETATM   31  O   UNL     1      -9.884   4.348  67.961  1.00  0.00    -0.142 OA 
ENDBRANCH  22  23
ENDBRANCH  21  22
ENDBRANCH  12  21
TORSDOF 7
ENDMDL
MODEL      183
REMARK 921   NORMALIZED FREE ENERGY PREDICTED BY IDOCK:   -4.02 KCAL/MOL
REMARK 922        TOTAL FREE ENERGY PREDICTED BY IDOCK:   -7.16 KCAL/MOL
REMARK 923 INTER-LIGAND FREE ENERGY PREDICTED BY IDOCK:   -5.37 KCAL/MOL
REMARK 924 INTRA-LIGAND FREE ENERGY PREDICTED BY IDOCK:   -1.79 KCAL/MOL
REMARK 927      BINDING AFFINITY PREDICTED BY RF-SCORE:    0.00 PKD
ROOT
HETATM    1  C   UNL     1     -10.860   6.241  70.613  1.00  0.00    -0.339 C  
HETATM    2  C   UNL     1     -10.168   5.174  69.679  1.00  0.00    -0.267 C  
HETATM    3  C   UNL     1      -9.586   3.895  70.309  1.00  0.00    -0.271 C  
HETATM    4  C   UNL     1     -11.134   8.733  71.423  1.00  0.00    -0.361 C  
HETATM    5  C   UNL     1     -10.212   3.433  71.615  1.00  0.00     0.015 C  
HETATM    6  C   UNL     1     -10.854   8.205  72.798  1.00  0.00    -0.390 C  
HETATM    7  C   UNL     1     -12.632   9.086  71.469  1.00  0.00    -0.400 C  
HETATM    8  C   UNL     1     -10.707   6.912  73.087  1.00  0.00    -0.338 C  
HETATM    9  C   UNL     1     -10.464   4.608  72.512  1.00  0.00    -0.257 C  
HETATM   10  C   UNL     1      -9.224   2.458  72.285  1.00  0.00    -0.139 C  
HETATM   11  C   UNL     1     -10.677   5.868  72.088  1.00  0.00    -0.278 C  
HETATM   12  C   UNL     1     -10.580   7.773  70.296  1.00  0.00    -0.231 C  
ENDROOT
BRANCH   2  13
HETATM   13  O   UNL     1      -9.176   5.697  68.777  1.00  0.00    -0.116 OA 
BRANCH  13  14
HETATM   14  C   UNL     1      -7.952   5.107  68.734  1.00  0.00    -0.082 C  
HETATM   15  O   UNL     1      -7.716   3.973  68.314  1.00  0.00    -0.066 OA 
BRANCH  14  16
HETATM   16  C   UNL     1      -6.864   6.005  69.323  1.00  0.00    -0.062 C  
HETATM   17  C   UNL     1      -5.459   5.638  68.814  1.00  0.00    -0.010 C  
HETATM   18  C   UNL     1      -7.253   7.423  68.878  1.00  0.00    -0.089 C  
BRANCH  16  19
HETATM   19  C   UNL     1      -6.914   5.866  70.867  1.00  0.00    -0.067 C  
HETATM   20  C   UNL     1      -7.258   7.159  71.596  1.00  0.00    -0.073 C  
ENDBRANCH  16  19
ENDBRANCH  14  16
ENDBRANCH  13  14
ENDBRANCH   2  13
BRANCH  12  21
HETATM   21  C   UNL     1     -10.891   8.252  68.815  1.00  0.00     0.019 C  
BRANCH  21  22
HETATM   22  C   UNL     1     -10.949   9.766  68.666  1.00  0.00    -0.189 C  
BRANCH  22  23
HETATM   23  C   UNL     1      -9.863  10.641  68.056  1.00  0.00    -0.160 C  
HETATM   24  C   UNL     1      -8.596  10.880  68.839  1.00  0.00    -0.143 C  
HETATM   25  C   UNL     1      -7.591  11.490  67.860  1.00  0.00    -0.113 C  
HETATM   26  O   UNL     1      -7.109  10.491  66.957  1.00  0.00    -0.087 OA 
HETATM   27  C   UNL     1      -8.163  12.685  67.105  1.00  0.00    -0.159 C  
HETATM   28  C   UNL     1      -9.618  12.551  66.713  1.00  0.00    -0.231 C  
HETATM   29  H   UNL     1      -6.485  10.869  66.350  1.00  0.00     0.000 HD 
HETATM   30  O   UNL     1     -10.090  13.114  65.733  1.00  0.00    -0.286 OA 
HETATM   31  O   UNL     1     -10.400  11.893  67.611  1.00  0.00    -0.196 OA 
ENDBRANCH  22  23
ENDBRANCH  21  22
ENDBRANCH  12  21
TORSDOF 7
ENDMDL
MODEL      184
REMARK 921   NORMALIZED FREE ENERGY PREDICTED BY IDOCK:   -3.99 KCAL/MOL
REMARK 922        TOTAL FREE ENERGY PREDICTED BY IDOCK:   -7.12 KCAL/MOL
REMARK 923 INTER-LIGAND FREE ENERGY PREDICTED BY IDOCK:   -6.29 KCAL/MOL
REMARK 924 INTRA-LIGAND FREE ENERGY PREDICTED BY IDOCK:   -0.83 KCAL/MOL
REMARK 927      BINDING AFFINITY PREDICTED BY RF-SCORE:    0.00 PKD
ROOT
HETATM    1  C   UNL     1     -11.466  12.210  68.474  1.00  0.00    -0.349 C  
HETATM    2  C   UNL     1     -12.031  10.978  69.281  1.00  0.00    -0.339 C  
HETATM    3  C   UNL     1     -12.657  11.217  70.668  1.00  0.00    -0.408 C  
HETATM    4  C   UNL     1      -9.520  13.350  67.111  1.00  0.00    -0.244 C  
HETATM    5  C   UNL     1     -13.247  12.594  70.921  1.00  0.00     0.214 C  
HETATM    6  C   UNL     1      -9.631  14.474  68.096  1.00  0.00    -0.212 C  
HETATM    7  C   UNL     1     -10.097  13.948  65.814  1.00  0.00    -0.336 C  
HETATM    8  C   UNL     1     -10.558  14.542  69.052  1.00  0.00    -0.250 C  
HETATM    9  C   UNL     1     -12.344  13.654  70.365  1.00  0.00    -0.415 C  
HETATM   10  C   UNL     1     -13.387  12.767  72.446  1.00  0.00    -0.479 C  
HETATM   11  C   UNL     1     -11.497  13.479  69.333  1.00  0.00    -0.340 C  
HETATM   12  C   UNL     1     -10.101  11.997  67.687  1.00  0.00    -0.205 C  
ENDROOT
BRANCH   2  13
HETATM   13  O   UNL     1     -11.136   9.859  69.402  1.00  0.00    -0.232 OA 
BRANCH  13  14
HETATM   14  C   UNL     1     -11.052   9.211  70.595  1.00  0.00    -0.265 C  
HETATM   15  O   UNL     1     -10.864   9.743  71.689  1.00  0.00    -0.191 OA 
BRANCH  14  16
HETATM   16  C   UNL     1     -11.174   7.696  70.431  1.00  0.00    -0.258 C  
HETATM   17  C   UNL     1     -12.568   7.172  70.815  1.00  0.00    -0.182 C  
HETATM   18  C   UNL     1     -10.886   7.444  68.944  1.00  0.00    -0.088 C  
BRANCH  16  19
HETATM   19  C   UNL     1     -10.100   7.031  71.332  1.00  0.00    -0.197 C  
HETATM   20  C   UNL     1     -10.674   6.147  72.433  1.00  0.00    -0.267 C  
ENDBRANCH  16  19
ENDBRANCH  14  16
ENDBRANCH  13  14
ENDBRANCH   2  13
BRANCH  12  21
HETATM   21  C   UNL     1     -10.060  10.779  66.669  1.00  0.00    -0.265 C  
BRANCH  21  22
HETATM   22  C   UNL     1      -8.664  10.211  66.460  1.00  0.00    -0.139 C  
BRANCH  22  23
HETATM   23  C   UNL     1      -7.861   9.426  67.488  1.00  0.00    -0.099 C  
HETATM   24  C   UNL     1      -7.668   7.944  67.284  1.00  0.00    -0.105 C  
HETATM   25  C   UNL     1      -6.571   7.512  68.258  1.00  0.00    -0.050 C  
HETATM   26  O   UNL     1      -5.295   7.966  67.801  1.00  0.00    -0.030 OA 
HETATM   27  C   UNL     1      -6.843   7.975  69.686  1.00  0.00    -0.042 C  
HETATM   28  C   UNL     1      -7.458   9.352  69.801  1.00  0.00    -0.087 C  
HETATM   29  H   UNL     1      -4.613   7.697  68.406  1.00  0.00     0.000 HD 
HETATM   30  O   UNL     1      -7.289  10.070  70.778  1.00  0.00    -0.323 OA 
HETATM   31  O   UNL     1      -8.341   9.673  68.815  1.00  0.00    -0.106 OA 
ENDBRANCH  22  23
ENDBRANCH  21  22
ENDBRANCH  12  21
TORSDOF 7
ENDMDL
MODEL      185
REMARK 921   NORMALIZED FREE ENERGY PREDICTED BY IDOCK:   -3.98 KCAL/MOL
REMARK 922        TOTAL FREE ENERGY PREDICTED BY IDOCK:   -7.11 KCAL/MOL
REMARK 923 INTER-LIGAND FREE ENERGY PREDICTED BY IDOCK:   -5.82 KCAL/MOL
REMARK 924 INTRA-LIGAND FREE ENERGY PREDICTED BY IDOCK:   -1.29 KCAL/MOL
REMARK 927      BINDING AFFINITY PREDICTED BY RF-SCORE:    0.00 PKD
ROOT
HETATM    1  C   UNL     1      -9.629  11.302  68.701  1.00  0.00    -0.195 C  
HETATM    2  C   UNL     1      -8.626  11.688  67.546  1.00  0.00    -0.149 C  
HETATM    3  C   UNL     1      -8.899  12.954  66.712  1.00  0.00    -0.152 C  
HETATM    4  C   UNL     1     -11.158   9.522  69.899  1.00  0.00    -0.244 C  
HETATM    5  C   UNL     1      -9.703  14.054  67.385  1.00  0.00    -0.233 C  
HETATM    6  C   UNL     1     -12.268  10.513  69.722  1.00  0.00    -0.252 C  
HETATM    7  C   UNL     1     -10.880   9.557  71.414  1.00  0.00    -0.382 C  
HETATM    8  C   UNL     1     -12.105  11.739  69.226  1.00  0.00    -0.292 C  
HETATM    9  C   UNL     1     -10.843  13.462  68.159  1.00  0.00    -0.273 C  
HETATM   10  C   UNL     1     -10.240  14.981  66.278  1.00  0.00    -0.306 C  
HETATM   11  C   UNL     1     -10.855  12.222  68.682  1.00  0.00    -0.268 C  
HETATM   12  C   UNL     1      -9.980   9.762  68.872  1.00  0.00    -0.183 C  
ENDROOT
BRANCH   2  13
HETATM   13  O   UNL     1      -8.310  10.629  66.626  1.00  0.00    -0.128 OA 
BRANCH  13  14
HETATM   14  C   UNL     1      -9.135  10.410  65.567  1.00  0.00    -0.177 C  
HETATM   15  O   UNL     1     -10.312  10.765  65.489  1.00  0.00    -0.265 OA 
BRANCH  14  16
HETATM   16  C   UNL     1      -8.445   9.611  64.462  1.00  0.00    -0.186 C  
HETATM   17  C   UNL     1      -9.137   9.774  63.098  1.00  0.00    -0.270 C  
HETATM   18  C   UNL     1      -7.014  10.168  64.418  1.00  0.00    -0.106 C  
BRANCH  16  19
HETATM   19  C   UNL     1      -8.455   8.116  64.877  1.00  0.00    -0.094 C  
HETATM   20  C   UNL     1      -7.096   7.586  65.320  1.00  0.00    -0.063 C  
ENDBRANCH  16  19
ENDBRANCH  14  16
ENDBRANCH  13  14
ENDBRANCH   2  13
BRANCH  12  21
HETATM   21  C   UNL     1      -8.749   8.775  69.043  1.00  0.00    -0.133 C  
BRANCH  21  22
HETATM   22  C   UNL     1      -9.031   7.362  68.556  1.00  0.00    -0.128 C  
BRANCH  22  23
HETATM   23  C   UNL     1      -9.164   6.127  69.437  1.00  0.00    -0.133 C  
HETATM   24  C   UNL     1      -9.809   4.890  68.864  1.00  0.00    -0.241 C  
HETATM   25  C   UNL     1      -9.500   3.751  69.836  1.00  0.00    -0.197 C  
HETATM   26  O   UNL     1      -8.129   3.358  69.720  1.00  0.00    -0.049 OA 
HETATM   27  C   UNL     1      -9.853   4.100  71.278  1.00  0.00    -0.249 C  
HETATM   28  C   UNL     1      -9.565   5.531  71.673  1.00  0.00    -0.152 C  
HETATM   29  H   UNL     1      -7.937   2.650  70.323  1.00  0.00     0.000 HD 
HETATM   30  O   UNL     1      -9.305   5.858  72.824  1.00  0.00    -0.146 OA 
HETATM   31  O   UNL     1      -9.772   6.453  70.693  1.00  0.00    -0.177 OA 
ENDBRANCH  22  23
ENDBRANCH  21  22
ENDBRANCH  12  21
TORSDOF 7
ENDMDL
MODEL      186
REMARK 921   NORMALIZED FREE ENERGY PREDICTED BY IDOCK:   -3.97 KCAL/MOL
REMARK 922        TOTAL FREE ENERGY PREDICTED BY IDOCK:   -7.09 KCAL/MOL
REMARK 923 INTER-LIGAND FREE ENERGY PREDICTED BY IDOCK:   -5.90 KCAL/MOL
REMARK 924 INTRA-LIGAND FREE ENERGY PREDICTED BY IDOCK:   -1.19 KCAL/MOL
REMARK 927      BINDING AFFINITY PREDICTED BY RF-SCORE:    0.00 PKD
ROOT
HETATM    1  C   UNL     1     -10.019  12.409  66.843  1.00  0.00    -0.223 C  
HETATM    2  C   UNL     1      -9.500  12.971  68.223  1.00  0.00    -0.208 C  
HETATM    3  C   UNL     1     -10.165  14.227  68.816  1.00  0.00    -0.226 C  
HETATM    4  C   UNL     1      -9.537  11.563  64.394  1.00  0.00    -0.171 C  
HETATM    5  C   UNL     1     -11.605  14.492  68.410  1.00  0.00    -0.356 C  
HETATM    6  C   UNL     1     -10.514  12.611  63.954  1.00  0.00    -0.441 C  
HETATM    7  C   UNL     1     -10.294  10.242  64.160  1.00  0.00     0.222 C  
HETATM    8  C   UNL     1     -11.223  13.372  64.788  1.00  0.00    -0.360 C  
HETATM    9  C   UNL     1     -11.787  14.224  66.945  1.00  0.00    -0.458 C  
HETATM   10  C   UNL     1     -11.911  15.971  68.719  1.00  0.00    -0.210 C  
HETATM   11  C   UNL     1     -11.046  13.364  66.223  1.00  0.00    -0.305 C  
HETATM   12  C   UNL     1      -8.925  11.884  65.816  1.00  0.00     0.044 C  
ENDROOT
BRANCH   2  13
HETATM   13  O   UNL     1      -8.076  13.155  68.316  1.00  0.00    -0.142 OA 
BRANCH  13  14
HETATM   14  C   UNL     1      -7.542  14.347  67.939  1.00  0.00    -0.151 C  
HETATM   15  O   UNL     1      -7.828  14.971  66.916  1.00  0.00    -0.179 OA 
BRANCH  14  16
HETATM   16  C   UNL     1      -6.480  14.834  68.925  1.00  0.00    -0.089 C  
HETATM   17  C   UNL     1      -6.107  13.763  69.965  1.00  0.00    -0.142 C  
HETATM   18  C   UNL     1      -5.270  15.185  68.046  1.00  0.00    -0.127 C  
BRANCH  16  19
HETATM   19  C   UNL     1      -7.036  16.090  69.645  1.00  0.00    -0.105 C  
HETATM   20  C   UNL     1      -6.269  17.371  69.339  1.00  0.00    -0.250 C  
ENDBRANCH  16  19
ENDBRANCH  14  16
ENDBRANCH  13  14
ENDBRANCH   2  13
BRANCH  12  21
HETATM   21  C   UNL     1      -7.921  10.782  66.362  1.00  0.00    -0.151 C  
BRANCH  21  22
HETATM   22  C   UNL     1      -8.543   9.852  67.393  1.00  0.00    -0.125 C  
BRANCH  22  23
HETATM   23  C   UNL     1      -9.051   8.442  67.126  1.00  0.00    -0.138 C  
HETATM   24  C   UNL     1      -9.550   7.617  68.287  1.00  0.00    -0.160 C  
HETATM   25  C   UNL     1     -10.287   6.421  67.682  1.00  0.00    -0.197 C  
HETATM   26  O   UNL     1     -11.547   6.834  67.147  1.00  0.00    -0.725 OA 
HETATM   27  C   UNL     1      -9.455   5.691  66.633  1.00  0.00    -0.158 C  
HETATM   28  C   UNL     1      -8.617   6.589  65.751  1.00  0.00    -0.144 C  
HETATM   29  H   UNL     1     -12.006   6.091  66.772  1.00  0.00     0.000 HD 
HETATM   30  O   UNL     1      -8.306   6.284  64.606  1.00  0.00    -0.116 OA 
HETATM   31  O   UNL     1      -8.098   7.686  66.369  1.00  0.00    -0.106 OA 
ENDBRANCH  22  23
ENDBRANCH  21  22
ENDBRANCH  12  21
TORSDOF 7
ENDMDL
MODEL      187
REMARK 921   NORMALIZED FREE ENERGY PREDICTED BY IDOCK:   -3.96 KCAL/MOL
REMARK 922        TOTAL FREE ENERGY PREDICTED BY IDOCK:   -7.07 KCAL/MOL
REMARK 923 INTER-LIGAND FREE ENERGY PREDICTED BY IDOCK:   -5.43 KCAL/MOL
REMARK 924 INTRA-LIGAND FREE ENERGY PREDICTED BY IDOCK:   -1.65 KCAL/MOL
REMARK 927      BINDING AFFINITY PREDICTED BY RF-SCORE:    0.00 PKD
ROOT
HETATM    1  C   UNL     1      -9.387  12.124  68.225  1.00  0.00    -0.198 C  
HETATM    2  C   UNL     1      -8.096  11.932  67.339  1.00  0.00    -0.165 C  
HETATM    3  C   UNL     1      -7.174  13.140  67.089  1.00  0.00     0.077 C  
HETATM    4  C   UNL     1     -11.981  11.829  68.577  1.00  0.00    -0.279 C  
HETATM    5  C   UNL     1      -7.186  14.236  68.141  1.00  0.00    -0.127 C  
HETATM    6  C   UNL     1     -12.012  13.310  68.805  1.00  0.00    -0.335 C  
HETATM    7  C   UNL     1     -12.236  11.243  69.978  1.00  0.00    -0.389 C  
HETATM    8  C   UNL     1     -10.926  14.083  68.853  1.00  0.00    -0.283 C  
HETATM    9  C   UNL     1      -8.590  14.504  68.594  1.00  0.00    -0.168 C  
HETATM   10  C   UNL     1      -6.586  15.503  67.501  1.00  0.00    -0.206 C  
HETATM   11  C   UNL     1      -9.592  13.605  68.567  1.00  0.00    -0.165 C  
HETATM   12  C   UNL     1     -10.710  11.383  67.750  1.00  0.00    -0.254 C  
ENDROOT
BRANCH   2  13
HETATM   13  O   UNL     1      -8.310  11.287  66.071  1.00  0.00    -0.153 OA 
BRANCH  13  14
HETATM   14  C   UNL     1      -7.494  10.261  65.710  1.00  0.00    -0.144 C  
HETATM   15  O   UNL     1      -6.425   9.971  66.248  1.00  0.00    -0.073 OA 
BRANCH  14  16
HETATM   16  C   UNL     1      -8.032   9.503  64.496  1.00  0.00    -0.133 C  
HETATM   17  C   UNL     1      -7.050   9.515  63.312  1.00  0.00    -0.103 C  
HETATM   18  C   UNL     1      -8.258   8.072  65.004  1.00  0.00    -0.144 C  
BRANCH  16  19
HETATM   19  C   UNL     1      -9.369  10.168  64.074  1.00  0.00    -0.339 C  
HETATM   20  C   UNL     1      -9.506  10.386  62.571  1.00  0.00    -0.292 C  
ENDBRANCH  16  19
ENDBRANCH  14  16
ENDBRANCH  13  14
ENDBRANCH   2  13
BRANCH  12  21
HETATM   21  C   UNL     1     -10.594   9.817  67.520  1.00  0.00    -0.335 C  
BRANCH  21  22
HETATM   22  C   UNL     1     -10.635   9.010  68.810  1.00  0.00    -0.196 C  
BRANCH  22  23
HETATM   23  C   UNL     1      -9.423   8.509  69.584  1.00  0.00    -0.165 C  
HETATM   24  C   UNL     1      -9.176   9.043  70.974  1.00  0.00    -0.331 C  
HETATM   25  C   UNL     1      -8.122   8.133  71.606  1.00  0.00    -0.124 C  
HETATM   26  O   UNL     1      -8.700   6.871  71.953  1.00  0.00    -0.126 OA 
HETATM   27  C   UNL     1      -6.897   7.952  70.716  1.00  0.00    -0.041 C  
HETATM   28  C   UNL     1      -7.196   7.851  69.237  1.00  0.00    -0.080 C  
HETATM   29  H   UNL     1      -8.046   6.306  72.346  1.00  0.00     0.000 HD 
HETATM   30  O   UNL     1      -6.478   7.234  68.460  1.00  0.00    -0.038 OA 
HETATM   31  O   UNL     1      -8.228   8.625  68.802  1.00  0.00    -0.117 OA 
ENDBRANCH  22  23
ENDBRANCH  21  22
ENDBRANCH  12  21
TORSDOF 7
ENDMDL
MODEL      188
REMARK 921   NORMALIZED FREE ENERGY PREDICTED BY IDOCK:   -3.96 KCAL/MOL
REMARK 922        TOTAL FREE ENERGY PREDICTED BY IDOCK:   -7.07 KCAL/MOL
REMARK 923 INTER-LIGAND FREE ENERGY PREDICTED BY IDOCK:   -5.92 KCAL/MOL
REMARK 924 INTRA-LIGAND FREE ENERGY PREDICTED BY IDOCK:   -1.15 KCAL/MOL
REMARK 927      BINDING AFFINITY PREDICTED BY RF-SCORE:    0.00 PKD
ROOT
HETATM    1  C   UNL     1     -11.559  15.309  68.744  1.00  0.00    -0.379 C  
HETATM    2  C   UNL     1     -11.793  13.752  68.841  1.00  0.00    -0.360 C  
HETATM    3  C   UNL     1     -12.319  13.156  70.161  1.00  0.00    -0.284 C  
HETATM    4  C   UNL     1     -10.013  17.353  68.134  1.00  0.00    -0.308 C  
HETATM    5  C   UNL     1     -13.140  14.079  71.046  1.00  0.00    -0.342 C  
HETATM    6  C   UNL     1     -10.248  17.814  69.541  1.00  0.00     0.127 C  
HETATM    7  C   UNL     1     -10.817  18.357  67.286  1.00  0.00    -0.296 C  
HETATM    8  C   UNL     1     -11.075  17.214  70.397  1.00  0.00     0.766 C  
HETATM    9  C   UNL     1     -12.519  15.443  71.088  1.00  0.00    -0.463 C  
HETATM   10  C   UNL     1     -13.165  13.466  72.460  1.00  0.00    -0.517 C  
HETATM   11  C   UNL     1     -11.756  15.971  70.113  1.00  0.00    -0.290 C  
HETATM   12  C   UNL     1     -10.261  15.800  67.971  1.00  0.00    -0.229 C  
ENDROOT
BRANCH   2  13
HETATM   13  O   UNL     1     -10.689  12.936  68.413  1.00  0.00    -0.240 OA 
BRANCH  13  14
HETATM   14  C   UNL     1     -10.939  11.681  67.953  1.00  0.00    -0.225 C  
HETATM   15  O   UNL     1     -11.842  11.368  67.176  1.00  0.00    -0.566 OA 
BRANCH  14  16
HETATM   16  C   UNL     1      -9.981  10.651  68.553  1.00  0.00    -0.176 C  
HETATM   17  C   UNL     1     -10.206   9.239  67.987  1.00  0.00    -0.255 C  
HETATM   18  C   UNL     1      -8.582  11.169  68.189  1.00  0.00    -0.140 C  
BRANCH  16  19
HETATM   19  C   UNL     1     -10.195  10.639  70.090  1.00  0.00     0.222 C  
HETATM   20  C   UNL     1     -11.185   9.585  70.570  1.00  0.00    -0.345 C  
ENDBRANCH  16  19
ENDBRANCH  14  16
ENDBRANCH  13  14
ENDBRANCH   2  13
BRANCH  12  21
HETATM   21  C   UNL     1     -10.079  15.260  66.489  1.00  0.00    -0.280 C  
BRANCH  21  22
HETATM   22  C   UNL     1      -8.725  15.596  65.883  1.00  0.00     0.092 C  
BRANCH  22  23
HETATM   23  C   UNL     1      -7.604  16.358  66.577  1.00  0.00    -0.223 C  
HETATM   24  C   UNL     1      -6.957  17.515  65.858  1.00  0.00    -0.216 C  
HETATM   25  C   UNL     1      -6.135  18.270  66.903  1.00  0.00    -0.156 C  
HETATM   26  O   UNL     1      -6.998  19.006  67.775  1.00  0.00    -0.213 OA 
HETATM   27  C   UNL     1      -5.208  17.351  67.692  1.00  0.00    -0.129 C  
HETATM   28  C   UNL     1      -5.788  15.993  68.019  1.00  0.00    -0.124 C  
HETATM   29  H   UNL     1      -6.487  19.475  68.425  1.00  0.00     0.000 HD 
HETATM   30  O   UNL     1      -5.447  15.352  69.006  1.00  0.00    -0.097 OA 
HETATM   31  O   UNL     1      -6.595  15.463  67.060  1.00  0.00    -0.268 OA 
ENDBRANCH  22  23
ENDBRANCH  21  22
ENDBRANCH  12  21
TORSDOF 7
ENDMDL
MODEL      189
REMARK 921   NORMALIZED FREE ENERGY PREDICTED BY IDOCK:   -3.94 KCAL/MOL
REMARK 922        TOTAL FREE ENERGY PREDICTED BY IDOCK:   -7.04 KCAL/MOL
REMARK 923 INTER-LIGAND FREE ENERGY PREDICTED BY IDOCK:   -6.38 KCAL/MOL
REMARK 924 INTRA-LIGAND FREE ENERGY PREDICTED BY IDOCK:   -0.67 KCAL/MOL
REMARK 927      BINDING AFFINITY PREDICTED BY RF-SCORE:    0.00 PKD
ROOT
HETATM    1  C   UNL     1     -11.910  10.614  69.863  1.00  0.00    -0.392 C  
HETATM    2  C   UNL     1     -11.123   9.293  69.511  1.00  0.00    -0.080 C  
HETATM    3  C   UNL     1     -11.466   7.995  70.265  1.00  0.00    -0.078 C  
HETATM    4  C   UNL     1     -11.913  13.170  70.500  1.00  0.00    -0.303 C  
HETATM    5  C   UNL     1     -12.874   7.884  70.825  1.00  0.00     0.209 C  
HETATM    6  C   UNL     1     -12.732  12.764  71.688  1.00  0.00    -0.293 C  
HETATM    7  C   UNL     1     -12.921  13.912  69.603  1.00  0.00     0.660 C  
HETATM    8  C   UNL     1     -13.176  11.526  71.903  1.00  0.00    -0.479 C  
HETATM    9  C   UNL     1     -13.291   9.187  71.440  1.00  0.00    -0.362 C  
HETATM   10  C   UNL     1     -12.864   6.774  71.895  1.00  0.00    -0.264 C  
HETATM   11  C   UNL     1     -12.819  10.394  71.078  1.00  0.00    -0.494 C  
HETATM   12  C   UNL     1     -11.073  11.964  69.920  1.00  0.00     0.081 C  
ENDROOT
BRANCH   2  13
HETATM   13  O   UNL     1      -9.690   9.415  69.498  1.00  0.00    -0.167 OA 
BRANCH  13  14
HETATM   14  C   UNL     1      -9.006   9.013  68.394  1.00  0.00    -0.133 C  
HETATM   15  O   UNL     1      -9.500   8.765  67.294  1.00  0.00    -0.149 OA 
BRANCH  14  16
HETATM   16  C   UNL     1      -7.512   8.848  68.676  1.00  0.00    -0.088 C  
HETATM   17  C   UNL     1      -7.022   9.768  69.807  1.00  0.00    -0.087 C  
HETATM   18  C   UNL     1      -7.354   7.371  69.067  1.00  0.00    -0.091 C  
BRANCH  16  19
HETATM   19  C   UNL     1      -6.741   9.170  67.369  1.00  0.00    -0.069 C  
HETATM   20  C   UNL     1      -6.124   7.950  66.696  1.00  0.00    -0.049 C  
ENDBRANCH  16  19
ENDBRANCH  14  16
ENDBRANCH  13  14
ENDBRANCH   2  13
BRANCH  12  21
HETATM   21  C   UNL     1     -10.223  12.318  68.626  1.00  0.00    -0.177 C  
BRANCH  21  22
HETATM   22  C   UNL     1     -10.351  13.772  68.196  1.00  0.00    -0.252 C  
BRANCH  22  23
HETATM   23  C   UNL     1     -10.997  14.265  66.908  1.00  0.00    -0.304 C  
HETATM   24  C   UNL     1     -11.545  13.251  65.935  1.00  0.00    -0.380 C  
HETATM   25  C   UNL     1     -12.406  14.029  64.939  1.00  0.00    -0.427 C  
HETATM   26  O   UNL     1     -13.633  14.432  65.553  1.00  0.00    -0.576 OA 
HETATM   27  C   UNL     1     -11.671  15.224  64.339  1.00  0.00    -0.289 C  
HETATM   28  C   UNL     1     -10.772  15.964  65.303  1.00  0.00    -0.424 C  
HETATM   29  H   UNL     1     -14.169  14.915  64.934  1.00  0.00     0.000 HD 
HETATM   30  O   UNL     1     -10.518  17.157  65.184  1.00  0.00    -0.666 OA 
HETATM   31  O   UNL     1     -10.138  15.182  66.220  1.00  0.00    -0.257 OA 
ENDBRANCH  22  23
ENDBRANCH  21  22
ENDBRANCH  12  21
TORSDOF 7
ENDMDL
MODEL      190
REMARK 921   NORMALIZED FREE ENERGY PREDICTED BY IDOCK:   -3.90 KCAL/MOL
REMARK 922        TOTAL FREE ENERGY PREDICTED BY IDOCK:   -6.98 KCAL/MOL
REMARK 923 INTER-LIGAND FREE ENERGY PREDICTED BY IDOCK:   -5.03 KCAL/MOL
REMARK 924 INTRA-LIGAND FREE ENERGY PREDICTED BY IDOCK:   -1.96 KCAL/MOL
REMARK 927      BINDING AFFINITY PREDICTED BY RF-SCORE:    0.00 PKD
ROOT
HETATM    1  C   UNL     1     -10.387   7.543  69.416  1.00  0.00    -0.213 C  
HETATM    2  C   UNL     1     -10.724   6.352  70.393  1.00  0.00    -0.262 C  
HETATM    3  C   UNL     1     -10.335   6.471  71.879  1.00  0.00    -0.223 C  
HETATM    4  C   UNL     1      -9.344   8.423  67.162  1.00  0.00    -0.192 C  
HETATM    5  C   UNL     1     -10.226   7.878  72.444  1.00  0.00    -0.327 C  
HETATM    6  C   UNL     1      -8.526   9.340  68.022  1.00  0.00    -0.120 C  
HETATM    7  C   UNL     1     -10.348   9.370  66.478  1.00  0.00    -0.268 C  
HETATM    8  C   UNL     1      -8.665   9.447  69.343  1.00  0.00    -0.157 C  
HETATM    9  C   UNL     1      -9.539   8.779  71.461  1.00  0.00    -0.354 C  
HETATM   10  C   UNL     1      -9.407   7.793  73.747  1.00  0.00    -0.286 C  
HETATM   11  C   UNL     1      -9.537   8.602  70.127  1.00  0.00    -0.181 C  
HETATM   12  C   UNL     1      -9.862   7.164  67.964  1.00  0.00    -0.158 C  
ENDROOT
BRANCH   2  13
HETATM   13  O   UNL     1     -10.308   5.051  69.944  1.00  0.00    -0.279 OA 
BRANCH  13  14
HETATM   14  C   UNL     1      -9.059   4.615  70.260  1.00  0.00    -0.109 C  
HETATM   15  O   UNL     1      -8.030   5.290  70.210  1.00  0.00    -0.081 OA 
BRANCH  14  16
HETATM   16  C   UNL     1      -9.052   3.138  70.653  1.00  0.00    -0.191 C  
HETATM   17  C   UNL     1      -9.486   2.219  69.498  1.00  0.00    -0.117 C  
HETATM   18  C   UNL     1      -7.599   2.854  71.060  1.00  0.00    -0.036 C  
BRANCH  16  19
HETATM   19  C   UNL     1     -10.018   2.960  71.854  1.00  0.00    -0.213 C  
HETATM   20  C   UNL     1      -9.365   3.184  73.213  1.00  0.00    -0.109 C  
ENDBRANCH  16  19
ENDBRANCH  14  16
ENDBRANCH  13  14
ENDBRANCH   2  13
BRANCH  12  21
HETATM   21  C   UNL     1     -10.779   6.180  67.120  1.00  0.00    -0.422 C  
BRANCH  21  22
HETATM   22  C   UNL     1     -10.026   4.987  66.551  1.00  0.00    -0.249 C  
BRANCH  22  23
HETATM   23  C   UNL     1      -8.519   4.897  66.358  1.00  0.00    -0.111 C  
HETATM   24  C   UNL     1      -7.922   5.372  65.056  1.00  0.00    -0.110 C  
HETATM   25  C   UNL     1      -6.413   5.474  65.283  1.00  0.00    -0.039 C  
HETATM   26  O   UNL     1      -6.109   6.612  66.094  1.00  0.00    -0.031 OA 
HETATM   27  C   UNL     1      -5.825   4.198  65.879  1.00  0.00    -0.023 C  
HETATM   28  C   UNL     1      -6.701   3.515  66.904  1.00  0.00    -0.049 C  
HETATM   29  H   UNL     1      -5.171   6.675  66.235  1.00  0.00     0.000 HD 
HETATM   30  O   UNL     1      -6.243   2.830  67.810  1.00  0.00    -0.030 OA 
HETATM   31  O   UNL     1      -8.039   3.581  66.658  1.00  0.00    -0.090 OA 
ENDBRANCH  22  23
ENDBRANCH  21  22
ENDBRANCH  12  21
TORSDOF 7
ENDMDL
MODEL      191
REMARK 921   NORMALIZED FREE ENERGY PREDICTED BY IDOCK:   -3.88 KCAL/MOL
REMARK 922        TOTAL FREE ENERGY PREDICTED BY IDOCK:   -6.96 KCAL/MOL
REMARK 923 INTER-LIGAND FREE ENERGY PREDICTED BY IDOCK:   -5.63 KCAL/MOL
REMARK 924 INTRA-LIGAND FREE ENERGY PREDICTED BY IDOCK:   -1.33 KCAL/MOL
REMARK 927      BINDING AFFINITY PREDICTED BY RF-SCORE:    0.00 PKD
ROOT
HETATM    1  C   UNL     1      -8.740  12.448  67.343  1.00  0.00    -0.183 C  
HETATM    2  C   UNL     1      -9.977  13.239  66.768  1.00  0.00    -0.263 C  
HETATM    3  C   UNL     1      -9.872  14.766  66.593  1.00  0.00    -0.270 C  
HETATM    4  C   UNL     1      -7.731  10.716  69.054  1.00  0.00    -0.130 C  
HETATM    5  C   UNL     1      -8.478  15.334  66.391  1.00  0.00    -0.106 C  
HETATM    6  C   UNL     1      -6.785  11.812  69.442  1.00  0.00    -0.098 C  
HETATM    7  C   UNL     1      -6.836   9.720  68.293  1.00  0.00    -0.068 C  
HETATM    8  C   UNL     1      -6.723  12.997  68.835  1.00  0.00    -0.096 C  
HETATM    9  C   UNL     1      -7.506  14.663  67.315  1.00  0.00    -0.148 C  
HETATM   10  C   UNL     1      -8.541  16.844  66.696  1.00  0.00    -0.281 C  
HETATM   11  C   UNL     1      -7.645  13.417  67.805  1.00  0.00    -0.157 C  
HETATM   12  C   UNL     1      -9.044  11.279  68.377  1.00  0.00    -0.170 C  
ENDROOT
BRANCH   2  13
HETATM   13  O   UNL     1     -11.235  12.967  67.410  1.00  0.00    -0.265 OA 
BRANCH  13  14
HETATM   14  C   UNL     1     -11.925  13.998  67.967  1.00  0.00    -0.350 C  
HETATM   15  O   UNL     1     -12.492  14.900  67.349  1.00  0.00     0.144 OA 
BRANCH  14  16
HETATM   16  C   UNL     1     -11.886  13.952  69.495  1.00  0.00    -0.383 C  
HETATM   17  C   UNL     1     -13.029  14.757  70.137  1.00  0.00    -0.084 C  
HETATM   18  C   UNL     1     -12.009  12.460  69.838  1.00  0.00    -0.369 C  
BRANCH  16  19
HETATM   19  C   UNL     1     -10.520  14.525  69.955  1.00  0.00     0.216 C  
HETATM   20  C   UNL     1     -10.394  16.035  69.792  1.00  0.00    -0.265 C  
ENDBRANCH  16  19
ENDBRANCH  14  16
ENDBRANCH  13  14
ENDBRANCH   2  13
BRANCH  12  21
HETATM   21  C   UNL     1     -10.064  10.162  67.895  1.00  0.00    -0.207 C  
BRANCH  21  22
HETATM   22  C   UNL     1      -9.639   9.467  66.609  1.00  0.00    -0.243 C  
BRANCH  22  23
HETATM   23  C   UNL     1      -9.604   7.962  66.382  1.00  0.00    -0.181 C  
HETATM   24  C   UNL     1     -10.092   7.050  67.480  1.00  0.00    -0.236 C  
HETATM   25  C   UNL     1     -10.251   5.664  66.852  1.00  0.00    -0.227 C  
HETATM   26  O   UNL     1     -11.405   5.632  66.007  1.00  0.00    -0.712 OA 
HETATM   27  C   UNL     1      -9.002   5.218  66.097  1.00  0.00    -0.139 C  
HETATM   28  C   UNL     1      -8.293   6.317  65.338  1.00  0.00    -0.148 C  
HETATM   29  H   UNL     1     -11.503   4.771  65.617  1.00  0.00     0.000 HD 
HETATM   30  O   UNL     1      -7.631   6.101  64.331  1.00  0.00    -0.084 OA 
HETATM   31  O   UNL     1      -8.309   7.538  65.941  1.00  0.00    -0.125 OA 
ENDBRANCH  22  23
ENDBRANCH  21  22
ENDBRANCH  12  21
TORSDOF 7
ENDMDL
MODEL      192
REMARK 921   NORMALIZED FREE ENERGY PREDICTED BY IDOCK:   -3.87 KCAL/MOL
REMARK 922        TOTAL FREE ENERGY PREDICTED BY IDOCK:   -6.94 KCAL/MOL
REMARK 923 INTER-LIGAND FREE ENERGY PREDICTED BY IDOCK:   -5.83 KCAL/MOL
REMARK 924 INTRA-LIGAND FREE ENERGY PREDICTED BY IDOCK:   -1.11 KCAL/MOL
REMARK 927      BINDING AFFINITY PREDICTED BY RF-SCORE:    0.00 PKD
ROOT
HETATM    1  C   UNL     1      -7.136  11.787  67.635  1.00  0.00    -0.107 C  
HETATM    2  C   UNL     1      -7.767  13.031  66.900  1.00  0.00     0.213 C  
HETATM    3  C   UNL     1      -7.648  14.423  67.550  1.00  0.00    -0.212 C  
HETATM    4  C   UNL     1      -7.355   9.331  68.566  1.00  0.00    -0.076 C  
HETATM    5  C   UNL     1      -6.468  14.640  68.483  1.00  0.00    -0.089 C  
HETATM    6  C   UNL     1      -6.921   9.905  69.881  1.00  0.00    -0.105 C  
HETATM    7  C   UNL     1      -6.135   8.509  68.110  1.00  0.00    -0.051 C  
HETATM    8  C   UNL     1      -6.545  11.172  70.058  1.00  0.00    -0.105 C  
HETATM    9  C   UNL     1      -6.269  13.436  69.355  1.00  0.00    -0.109 C  
HETATM   10  C   UNL     1      -6.782  15.875  69.350  1.00  0.00    -0.189 C  
HETATM   11  C   UNL     1      -6.627  12.181  69.026  1.00  0.00    -0.100 C  
HETATM   12  C   UNL     1      -7.970  10.433  67.614  1.00  0.00    -0.106 C  
ENDROOT
BRANCH   2  13
HETATM   13  O   UNL     1      -9.133  12.871  66.479  1.00  0.00    -0.213 OA 
BRANCH  13  14
HETATM   14  C   UNL     1     -10.129  13.161  67.358  1.00  0.00    -0.229 C  
HETATM   15  O   UNL     1     -10.313  12.609  68.443  1.00  0.00    -0.228 OA 
BRANCH  14  16
HETATM   16  C   UNL     1     -11.061  14.251  66.825  1.00  0.00    -0.316 C  
HETATM   17  C   UNL     1     -12.376  13.679  66.268  1.00  0.00    -0.464 C  
HETATM   18  C   UNL     1     -11.329  15.155  68.037  1.00  0.00    -0.346 C  
BRANCH  16  19
HETATM   19  C   UNL     1     -10.308  15.017  65.706  1.00  0.00    -0.354 C  
HETATM   20  C   UNL     1     -10.298  16.530  65.888  1.00  0.00    -0.365 C  
ENDBRANCH  16  19
ENDBRANCH  14  16
ENDBRANCH  13  14
ENDBRANCH   2  13
BRANCH  12  21
HETATM   21  C   UNL     1      -8.401   9.896  66.183  1.00  0.00    -0.123 C  
BRANCH  21  22
HETATM   22  C   UNL     1      -9.632   9.002  66.216  1.00  0.00    -0.327 C  
BRANCH  22  23
HETATM   23  C   UNL     1      -9.630   7.483  66.120  1.00  0.00     0.014 C  
HETATM   24  C   UNL     1     -10.321   6.685  67.198  1.00  0.00    -0.319 C  
HETATM   25  C   UNL     1     -10.443   5.256  66.667  1.00  0.00    -0.290 C  
HETATM   26  O   UNL     1     -11.455   5.187  65.659  1.00  0.00    -0.787 OA 
HETATM   27  C   UNL     1      -9.116   4.707  66.155  1.00  0.00    -0.128 C  
HETATM   28  C   UNL     1      -8.250   5.712  65.430  1.00  0.00    -0.132 C  
HETATM   29  H   UNL     1     -11.532   4.299  65.329  1.00  0.00     0.000 HD 
HETATM   30  O   UNL     1      -7.453   5.389  64.559  1.00  0.00    -0.061 OA 
HETATM   31  O   UNL     1      -8.303   6.981  65.922  1.00  0.00    -0.128 OA 
ENDBRANCH  22  23
ENDBRANCH  21  22
ENDBRANCH  12  21
TORSDOF 7
ENDMDL
MODEL      193
REMARK 921   NORMALIZED FREE ENERGY PREDICTED BY IDOCK:   -3.87 KCAL/MOL
REMARK 922        TOTAL FREE ENERGY PREDICTED BY IDOCK:   -6.94 KCAL/MOL
REMARK 923 INTER-LIGAND FREE ENERGY PREDICTED BY IDOCK:   -5.55 KCAL/MOL
REMARK 924 INTRA-LIGAND FREE ENERGY PREDICTED BY IDOCK:   -1.39 KCAL/MOL
REMARK 927      BINDING AFFINITY PREDICTED BY RF-SCORE:    0.00 PKD
ROOT
HETATM    1  C   UNL     1     -10.223   7.484  69.519  1.00  0.00    -0.207 C  
HETATM    2  C   UNL     1     -10.516   6.354  70.581  1.00  0.00    -0.219 C  
HETATM    3  C   UNL     1     -10.016   6.539  72.026  1.00  0.00    -0.183 C  
HETATM    4  C   UNL     1      -9.327   8.217  67.152  1.00  0.00    -0.183 C  
HETATM    5  C   UNL     1      -9.832   7.969  72.505  1.00  0.00    -0.330 C  
HETATM    6  C   UNL     1      -8.427   9.153  67.900  1.00  0.00    -0.117 C  
HETATM    7  C   UNL     1     -10.355   9.154  66.492  1.00  0.00    -0.269 C  
HETATM    8  C   UNL     1      -8.465   9.333  69.221  1.00  0.00    -0.137 C  
HETATM    9  C   UNL     1      -9.197   8.799  71.429  1.00  0.00    -0.325 C  
HETATM   10  C   UNL     1      -8.922   7.930  73.749  1.00  0.00    -0.324 C  
HETATM   11  C   UNL     1      -9.298   8.554  70.109  1.00  0.00    -0.164 C  
HETATM   12  C   UNL     1      -9.815   7.015  68.056  1.00  0.00    -0.156 C  
ENDROOT
BRANCH   2  13
HETATM   13  O   UNL     1     -10.165   5.020  70.173  1.00  0.00    -0.251 OA 
BRANCH  13  14
HETATM   14  C   UNL     1      -8.923   4.550  70.464  1.00  0.00    -0.105 C  
HETATM   15  O   UNL     1      -7.862   5.126  70.219  1.00  0.00    -0.075 OA 
BRANCH  14  16
HETATM   16  C   UNL     1      -8.973   3.164  71.107  1.00  0.00    -0.164 C  
HETATM   17  C   UNL     1     -10.227   2.963  71.974  1.00  0.00    -0.110 C  
HETATM   18  C   UNL     1      -8.966   2.189  69.921  1.00  0.00    -0.150 C  
BRANCH  16  19
HETATM   19  C   UNL     1      -7.701   2.998  71.980  1.00  0.00    -0.054 C  
HETATM   20  C   UNL     1      -7.952   3.149  73.476  1.00  0.00    -0.069 C  
ENDBRANCH  16  19
ENDBRANCH  14  16
ENDBRANCH  13  14
ENDBRANCH   2  13
BRANCH  12  21
HETATM   21  C   UNL     1     -10.815   6.015  67.334  1.00  0.00    -0.394 C  
BRANCH  21  22
HETATM   22  C   UNL     1     -10.175   4.689  66.952  1.00  0.00    -0.200 C  
BRANCH  22  23
HETATM   23  C   UNL     1      -9.804   4.255  65.541  1.00  0.00    -0.215 C  
HETATM   24  C   UNL     1      -8.750   5.033  64.794  1.00  0.00    -0.149 C  
HETATM   25  C   UNL     1      -8.362   4.184  63.583  1.00  0.00    -0.097 C  
HETATM   26  O   UNL     1      -7.564   3.070  63.993  1.00  0.00    -0.069 OA 
HETATM   27  C   UNL     1      -9.573   3.727  62.776  1.00  0.00    -0.119 C  
HETATM   28  C   UNL     1     -10.784   3.358  63.604  1.00  0.00    -0.255 C  
HETATM   29  H   UNL     1      -7.323   2.542  63.241  1.00  0.00     0.000 HD 
HETATM   30  O   UNL     1     -11.614   2.539  63.228  1.00  0.00    -0.204 OA 
HETATM   31  O   UNL     1     -10.971   4.112  64.722  1.00  0.00    -0.255 OA 
ENDBRANCH  22  23
ENDBRANCH  21  22
ENDBRANCH  12  21
TORSDOF 7
ENDMDL
MODEL      194
REMARK 921   NORMALIZED FREE ENERGY PREDICTED BY IDOCK:   -3.86 KCAL/MOL
REMARK 922        TOTAL FREE ENERGY PREDICTED BY IDOCK:   -6.93 KCAL/MOL
REMARK 923 INTER-LIGAND FREE ENERGY PREDICTED BY IDOCK:   -6.57 KCAL/MOL
REMARK 924 INTRA-LIGAND FREE ENERGY PREDICTED BY IDOCK:   -0.36 KCAL/MOL
REMARK 927      BINDING AFFINITY PREDICTED BY RF-SCORE:    0.00 PKD
ROOT
HETATM    1  C   UNL     1      -7.238  15.419  67.402  1.00  0.00    -0.242 C  
HETATM    2  C   UNL     1      -7.958  16.440  66.438  1.00  0.00    -0.294 C  
HETATM    3  C   UNL     1      -7.200  17.702  65.985  1.00  0.00    -0.316 C  
HETATM    4  C   UNL     1      -7.239  13.959  69.595  1.00  0.00     0.233 C  
HETATM    5  C   UNL     1      -5.683  17.615  65.964  1.00  0.00    -0.222 C  
HETATM    6  C   UNL     1      -5.965  14.669  69.941  1.00  0.00    -0.132 C  
HETATM    7  C   UNL     1      -6.775  12.532  69.250  1.00  0.00    -0.060 C  
HETATM    8  C   UNL     1      -5.345  15.530  69.134  1.00  0.00    -0.096 C  
HETATM    9  C   UNL     1      -5.188  16.897  67.183  1.00  0.00    -0.181 C  
HETATM   10  C   UNL     1      -5.135  19.056  65.940  1.00  0.00    -0.164 C  
HETATM   11  C   UNL     1      -5.891  15.980  67.874  1.00  0.00    -0.150 C  
HETATM   12  C   UNL     1      -8.113  14.780  68.565  1.00  0.00    -0.146 C  
ENDROOT
BRANCH   2  13
HETATM   13  O   UNL     1      -9.272  16.853  66.850  1.00  0.00    -0.223 OA 
BRANCH  13  14
HETATM   14  C   UNL     1      -9.391  17.737  67.876  1.00  0.00    -0.266 C  
HETATM   15  O   UNL     1      -9.177  17.492  69.064  1.00  0.00    -0.201 OA 
BRANCH  14  16
HETATM   16  C   UNL     1      -9.879  19.105  67.398  1.00  0.00    -0.404 C  
HETATM   17  C   UNL     1      -8.731  20.118  67.242  1.00  0.00    -0.429 C  
HETATM   18  C   UNL     1     -10.547  18.824  66.044  1.00  0.00    -0.442 C  
BRANCH  16  19
HETATM   19  C   UNL     1     -10.905  19.634  68.433  1.00  0.00     0.186 C  
HETATM   20  C   UNL     1     -10.343  20.684  69.384  1.00  0.00     0.413 C  
ENDBRANCH  16  19
ENDBRANCH  14  16
ENDBRANCH  13  14
ENDBRANCH   2  13
BRANCH  12  21
HETATM   21  C   UNL     1      -9.452  14.054  68.117  1.00  0.00    -0.215 C  
BRANCH  21  22
HETATM   22  C   UNL     1      -9.392  13.485  66.708  1.00  0.00    -0.262 C  
BRANCH  22  23
HETATM   23  C   UNL     1     -10.519  13.524  65.684  1.00  0.00    -0.293 C  
HETATM   24  C   UNL     1     -11.842  14.131  66.082  1.00  0.00    -0.420 C  
HETATM   25  C   UNL     1     -12.632  14.332  64.788  1.00  0.00    -0.291 C  
HETATM   26  O   UNL     1     -12.098  15.433  64.047  1.00  0.00    -0.909 OA 
HETATM   27  C   UNL     1     -12.688  13.069  63.935  1.00  0.00    -0.173 C  
HETATM   28  C   UNL     1     -11.416  12.252  63.926  1.00  0.00    -0.435 C  
HETATM   29  H   UNL     1     -12.589  15.558  63.244  1.00  0.00     0.000 HD 
HETATM   30  O   UNL     1     -11.093  11.545  62.980  1.00  0.00    -0.165 OA 
HETATM   31  O   UNL     1     -10.734  12.232  65.105  1.00  0.00    -0.275 OA 
ENDBRANCH  22  23
ENDBRANCH  21  22
ENDBRANCH  12  21
TORSDOF 7
ENDMDL
MODEL      195
REMARK 921   NORMALIZED FREE ENERGY PREDICTED BY IDOCK:   -3.84 KCAL/MOL
REMARK 922        TOTAL FREE ENERGY PREDICTED BY IDOCK:   -6.90 KCAL/MOL
REMARK 923 INTER-LIGAND FREE ENERGY PREDICTED BY IDOCK:   -5.76 KCAL/MOL
REMARK 924 INTRA-LIGAND FREE ENERGY PREDICTED BY IDOCK:   -1.14 KCAL/MOL
REMARK 927      BINDING AFFINITY PREDICTED BY RF-SCORE:    0.00 PKD
ROOT
HETATM    1  C   UNL     1      -7.341  14.681  67.411  1.00  0.00    -0.195 C  
HETATM    2  C   UNL     1      -8.575  15.641  67.197  1.00  0.00    -0.210 C  
HETATM    3  C   UNL     1      -8.511  17.075  67.754  1.00  0.00    -0.199 C  
HETATM    4  C   UNL     1      -6.358  12.361  68.181  1.00  0.00    -0.065 C  
HETATM    5  C   UNL     1      -7.127  17.682  67.916  1.00  0.00    -0.190 C  
HETATM    6  C   UNL     1      -5.467  13.158  69.084  1.00  0.00    -0.071 C  
HETATM    7  C   UNL     1      -5.398  11.836  67.097  1.00  0.00    -0.113 C  
HETATM    8  C   UNL     1      -5.415  14.490  69.098  1.00  0.00    -0.084 C  
HETATM    9  C   UNL     1      -6.179  16.665  68.478  1.00  0.00    -0.135 C  
HETATM   10  C   UNL     1      -7.253  18.878  68.880  1.00  0.00    -0.349 C  
HETATM   11  C   UNL     1      -6.301  15.333  68.328  1.00  0.00    -0.118 C  
HETATM   12  C   UNL     1      -7.656  13.165  67.769  1.00  0.00    -0.155 C  
ENDROOT
BRANCH   2  13
HETATM   13  O   UNL     1      -9.852  15.094  67.569  1.00  0.00    -0.219 OA 
BRANCH  13  14
HETATM   14  C   UNL     1     -10.201  15.075  68.884  1.00  0.00    -0.235 C  
HETATM   15  O   UNL     1      -9.455  15.337  69.828  1.00  0.00    -0.218 OA 
BRANCH  14  16
HETATM   16  C   UNL     1     -11.651  14.635  69.083  1.00  0.00    -0.331 C  
HETATM   17  C   UNL     1     -12.371  14.360  67.751  1.00  0.00    -0.022 C  
HETATM   18  C   UNL     1     -11.554  13.354  69.925  1.00  0.00    -0.270 C  
BRANCH  16  19
HETATM   19  C   UNL     1     -12.390  15.761  69.854  1.00  0.00    -0.204 C  
HETATM   20  C   UNL     1     -13.245  15.261  71.012  1.00  0.00    -0.546 C  
ENDBRANCH  16  19
ENDBRANCH  14  16
ENDBRANCH  13  14
ENDBRANCH   2  13
BRANCH  12  21
HETATM   21  C   UNL     1      -8.616  12.391  66.768  1.00  0.00    -0.129 C  
BRANCH  21  22
HETATM   22  C   UNL     1      -9.748  11.650  67.465  1.00  0.00    -0.185 C  
BRANCH  22  23
HETATM   23  C   UNL     1      -9.743  10.177  67.848  1.00  0.00    -0.146 C  
HETATM   24  C   UNL     1     -10.405   9.183  66.928  1.00  0.00    -0.321 C  
HETATM   25  C   UNL     1      -9.954   7.797  67.390  1.00  0.00    -0.195 C  
HETATM   26  O   UNL     1      -8.592   7.569  67.018  1.00  0.00    -0.119 OA 
HETATM   27  C   UNL     1     -10.160   7.585  68.887  1.00  0.00    -0.195 C  
HETATM   28  C   UNL     1      -9.879   8.798  69.744  1.00  0.00    -0.186 C  
HETATM   29  H   UNL     1      -8.311   6.708  67.305  1.00  0.00     0.000 HD 
HETATM   30  O   UNL     1      -9.506   8.711  70.908  1.00  0.00    -0.166 OA 
HETATM   31  O   UNL     1     -10.222   9.992  69.186  1.00  0.00    -0.186 OA 
ENDBRANCH  22  23
ENDBRANCH  21  22
ENDBRANCH  12  21
TORSDOF 7
ENDMDL
MODEL      196
REMARK 921   NORMALIZED FREE ENERGY PREDICTED BY IDOCK:   -3.82 KCAL/MOL
REMARK 922        TOTAL FREE ENERGY PREDICTED BY IDOCK:   -6.88 KCAL/MOL
REMARK 923 INTER-LIGAND FREE ENERGY PREDICTED BY IDOCK:   -6.16 KCAL/MOL
REMARK 924 INTRA-LIGAND FREE ENERGY PREDICTED BY IDOCK:   -0.71 KCAL/MOL
REMARK 927      BINDING AFFINITY PREDICTED BY RF-SCORE:    0.00 PKD
ROOT
HETATM    1  C   UNL     1      -8.140   9.961  68.451  1.00  0.00    -0.101 C  
HETATM    2  C   UNL     1      -8.340  11.063  67.340  1.00  0.00    -0.126 C  
HETATM    3  C   UNL     1      -7.289  12.180  67.198  1.00  0.00    -0.124 C  
HETATM    4  C   UNL     1      -9.079   8.563  70.477  1.00  0.00    -0.174 C  
HETATM    5  C   UNL     1      -5.880  11.854  67.664  1.00  0.00    -0.083 C  
HETATM    6  C   UNL     1      -7.891   9.068  71.239  1.00  0.00    -0.128 C  
HETATM    7  C   UNL     1      -8.757   7.073  70.253  1.00  0.00    -0.144 C  
HETATM    8  C   UNL     1      -6.917   9.805  70.704  1.00  0.00    -0.102 C  
HETATM    9  C   UNL     1      -5.926  11.090  68.954  1.00  0.00    -0.040 C  
HETATM   10  C   UNL     1      -5.136  13.189  67.866  1.00  0.00    -0.103 C  
HETATM   11  C   UNL     1      -6.948  10.310  69.350  1.00  0.00    -0.083 C  
HETATM   12  C   UNL     1      -9.433   9.491  69.247  1.00  0.00    -0.171 C  
ENDROOT
BRANCH   2  13
HETATM   13  O   UNL     1      -9.635  11.688  67.319  1.00  0.00    -0.173 OA 
BRANCH  13  14
HETATM   14  C   UNL     1      -9.818  12.844  68.011  1.00  0.00    -0.223 C  
HETATM   15  O   UNL     1      -8.924  13.595  68.404  1.00  0.00    -0.187 OA 
BRANCH  14  16
HETATM   16  C   UNL     1     -11.296  13.107  68.303  1.00  0.00    -0.333 C  
HETATM   17  C   UNL     1     -11.806  12.313  69.518  1.00  0.00    -0.380 C  
HETATM   18  C   UNL     1     -11.374  14.618  68.567  1.00  0.00    -0.305 C  
BRANCH  16  19
HETATM   19  C   UNL     1     -12.109  12.712  67.042  1.00  0.00    -0.202 C  
HETATM   20  C   UNL     1     -11.965  13.689  65.881  1.00  0.00    -0.438 C  
ENDBRANCH  16  19
ENDBRANCH  14  16
ENDBRANCH  13  14
ENDBRANCH   2  13
BRANCH  12  21
HETATM   21  C   UNL     1     -10.651   8.978  68.368  1.00  0.00    -0.200 C  
BRANCH  21  22
HETATM   22  C   UNL     1     -10.242   8.508  66.980  1.00  0.00    -0.371 C  
BRANCH  22  23
HETATM   23  C   UNL     1      -9.897   7.076  66.593  1.00  0.00    -0.156 C  
HETATM   24  C   UNL     1     -10.632   5.943  67.265  1.00  0.00    -0.365 C  
HETATM   25  C   UNL     1     -10.324   4.685  66.452  1.00  0.00    -0.226 C  
HETATM   26  O   UNL     1     -11.038   4.708  65.213  1.00  0.00    -0.830 OA 
HETATM   27  C   UNL     1      -8.829   4.489  66.222  1.00  0.00    -0.113 C  
HETATM   28  C   UNL     1      -8.053   5.762  65.971  1.00  0.00    -0.110 C  
HETATM   29  H   UNL     1     -10.847   3.926  64.708  1.00  0.00     0.000 HD 
HETATM   30  O   UNL     1      -7.026   5.787  65.303  1.00  0.00    -0.060 OA 
HETATM   31  O   UNL     1      -8.484   6.849  66.668  1.00  0.00    -0.114 OA 
ENDBRANCH  22  23
ENDBRANCH  21  22
ENDBRANCH  12  21
TORSDOF 7
ENDMDL
MODEL      197
REMARK 921   NORMALIZED FREE ENERGY PREDICTED BY IDOCK:   -3.78 KCAL/MOL
REMARK 922        TOTAL FREE ENERGY PREDICTED BY IDOCK:   -6.82 KCAL/MOL
REMARK 923 INTER-LIGAND FREE ENERGY PREDICTED BY IDOCK:   -5.00 KCAL/MOL
REMARK 924 INTRA-LIGAND FREE ENERGY PREDICTED BY IDOCK:   -1.81 KCAL/MOL
REMARK 927      BINDING AFFINITY PREDICTED BY RF-SCORE:    0.00 PKD
ROOT
HETATM    1  C   UNL     1      -9.085   5.808  68.245  1.00  0.00    -0.117 C  
HETATM    2  C   UNL     1      -8.956   7.251  68.870  1.00  0.00    -0.133 C  
HETATM    3  C   UNL     1      -9.047   8.478  67.944  1.00  0.00    -0.145 C  
HETATM    4  C   UNL     1      -8.176   3.351  67.962  1.00  0.00    -0.087 C  
HETATM    5  C   UNL     1      -9.835   8.303  66.657  1.00  0.00    -0.337 C  
HETATM    6  C   UNL     1      -8.196   3.627  66.489  1.00  0.00    -0.100 C  
HETATM    7  C   UNL     1      -9.338   2.359  68.159  1.00  0.00    -0.263 C  
HETATM    8  C   UNL     1      -8.673   4.746  65.943  1.00  0.00    -0.124 C  
HETATM    9  C   UNL     1      -9.524   6.974  66.036  1.00  0.00     0.031 C  
HETATM   10  C   UNL     1      -9.425   9.442  65.702  1.00  0.00    -0.328 C  
HETATM   11  C   UNL     1      -9.119   5.884  66.714  1.00  0.00    -0.130 C  
HETATM   12  C   UNL     1      -8.118   4.682  68.813  1.00  0.00    -0.082 C  
ENDROOT
BRANCH   2  13
HETATM   13  O   UNL     1      -7.822   7.448  69.733  1.00  0.00    -0.110 OA 
BRANCH  13  14
HETATM   14  C   UNL     1      -7.745   8.591  70.466  1.00  0.00    -0.084 C  
HETATM   15  O   UNL     1      -8.665   9.091  71.115  1.00  0.00    -0.202 OA 
BRANCH  14  16
HETATM   16  C   UNL     1      -6.367   9.244  70.363  1.00  0.00    -0.060 C  
HETATM   17  C   UNL     1      -5.496   8.610  69.265  1.00  0.00    -0.035 C  
HETATM   18  C   UNL     1      -6.660  10.717  70.044  1.00  0.00    -0.159 C  
BRANCH  16  19
HETATM   19  C   UNL     1      -5.665   9.095  71.738  1.00  0.00    -0.073 C  
HETATM   20  C   UNL     1      -5.740   7.690  72.324  1.00  0.00    -0.036 C  
ENDBRANCH  16  19
ENDBRANCH  14  16
ENDBRANCH  13  14
ENDBRANCH   2  13
BRANCH  12  21
HETATM   21  C   UNL     1      -8.148   4.458  70.384  1.00  0.00    -0.066 C  
BRANCH  21  22
HETATM   22  C   UNL     1      -9.541   4.572  70.987  1.00  0.00    -0.248 C  
BRANCH  22  23
HETATM   23  C   UNL     1     -10.105   5.795  71.696  1.00  0.00    -0.194 C  
HETATM   24  C   UNL     1     -10.335   5.731  73.186  1.00  0.00    -0.227 C  
HETATM   25  C   UNL     1     -10.573   7.168  73.649  1.00  0.00    -0.333 C  
HETATM   26  O   UNL     1      -9.344   7.900  73.647  1.00  0.00    -0.278 OA 
HETATM   27  C   UNL     1     -11.641   7.879  72.824  1.00  0.00    -0.387 C  
HETATM   28  C   UNL     1     -11.623   7.553  71.347  1.00  0.00    -0.275 C  
HETATM   29  H   UNL     1      -9.492   8.793  73.935  1.00  0.00     0.000 HD 
HETATM   30  O   UNL     1     -12.016   8.339  70.494  1.00  0.00    -0.113 OA 
HETATM   31  O   UNL     1     -11.290   6.268  71.044  1.00  0.00    -0.305 OA 
ENDBRANCH  22  23
ENDBRANCH  21  22
ENDBRANCH  12  21
TORSDOF 7
ENDMDL
MODEL      198
REMARK 921   NORMALIZED FREE ENERGY PREDICTED BY IDOCK:   -3.75 KCAL/MOL
REMARK 922        TOTAL FREE ENERGY PREDICTED BY IDOCK:   -6.77 KCAL/MOL
REMARK 923 INTER-LIGAND FREE ENERGY PREDICTED BY IDOCK:   -5.69 KCAL/MOL
REMARK 924 INTRA-LIGAND FREE ENERGY PREDICTED BY IDOCK:   -1.08 KCAL/MOL
REMARK 927      BINDING AFFINITY PREDICTED BY RF-SCORE:    0.00 PKD
ROOT
HETATM    1  C   UNL     1      -8.136  10.188  66.667  1.00  0.00    -0.120 C  
HETATM    2  C   UNL     1      -7.434   9.626  67.963  1.00  0.00    -0.082 C  
HETATM    3  C   UNL     1      -6.636   8.312  67.870  1.00  0.00    -0.061 C  
HETATM    4  C   UNL     1     -10.278  11.133  65.456  1.00  0.00    -0.319 C  
HETATM    5  C   UNL     1      -6.059   7.960  66.509  1.00  0.00    -0.045 C  
HETATM    6  C   UNL     1     -10.069  10.033  64.459  1.00  0.00     0.002 C  
HETATM    7  C   UNL     1      -9.895  12.404  64.676  1.00  0.00    -0.101 C  
HETATM    8  C   UNL     1      -9.026   9.203  64.468  1.00  0.00    -0.129 C  
HETATM    9  C   UNL     1      -7.058   8.255  65.430  1.00  0.00    -0.067 C  
HETATM   10  C   UNL     1      -5.722   6.456  66.522  1.00  0.00    -0.014 C  
HETATM   11  C   UNL     1      -8.029   9.183  65.514  1.00  0.00    -0.104 C  
HETATM   12  C   UNL     1      -9.586  10.815  66.842  1.00  0.00    -0.198 C  
ENDROOT
BRANCH   2  13
HETATM   13  O   UNL     1      -8.272   9.537  69.128  1.00  0.00    -0.102 OA 
BRANCH  13  14
HETATM   14  C   UNL     1      -7.695   9.299  70.336  1.00  0.00    -0.143 C  
HETATM   15  O   UNL     1      -6.593   9.711  70.699  1.00  0.00    -0.092 OA 
BRANCH  14  16
HETATM   16  C   UNL     1      -8.562   8.396  71.214  1.00  0.00    -0.198 C  
HETATM   17  C   UNL     1      -9.863   9.084  71.661  1.00  0.00    -0.366 C  
HETATM   18  C   UNL     1      -8.864   7.175  70.333  1.00  0.00    -0.151 C  
BRANCH  16  19
HETATM   19  C   UNL     1      -7.726   7.998  72.459  1.00  0.00    -0.155 C  
HETATM   20  C   UNL     1      -7.008   6.661  72.323  1.00  0.00    -0.068 C  
ENDBRANCH  16  19
ENDBRANCH  14  16
ENDBRANCH  13  14
ENDBRANCH   2  13
BRANCH  12  21
HETATM   21  C   UNL     1      -9.727  11.968  67.924  1.00  0.00    -0.194 C  
BRANCH  21  22
HETATM   22  C   UNL     1     -11.166  12.240  68.337  1.00  0.00    -0.311 C  
BRANCH  22  23
HETATM   23  C   UNL     1     -11.630  13.359  69.260  1.00  0.00    -0.310 C  
HETATM   24  C   UNL     1     -10.747  14.569  69.437  1.00  0.00    -0.213 C  
HETATM   25  C   UNL     1     -11.604  15.633  70.125  1.00  0.00    -0.354 C  
HETATM   26  O   UNL     1     -12.548  16.182  69.202  1.00  0.00    -0.313 OA 
HETATM   27  C   UNL     1     -12.298  15.105  71.376  1.00  0.00    -0.411 C  
HETATM   28  C   UNL     1     -12.798  13.681  71.272  1.00  0.00    -0.344 C  
HETATM   29  H   UNL     1     -13.080  16.843  69.628  1.00  0.00     0.000 HD 
HETATM   30  O   UNL     1     -13.760  13.272  71.910  1.00  0.00    -0.407 OA 
HETATM   31  O   UNL     1     -12.009  12.845  70.542  1.00  0.00    -0.319 OA 
ENDBRANCH  22  23
ENDBRANCH  21  22
ENDBRANCH  12  21
TORSDOF 7
ENDMDL
MODEL      199
REMARK 921   NORMALIZED FREE ENERGY PREDICTED BY IDOCK:   -3.72 KCAL/MOL
REMARK 922        TOTAL FREE ENERGY PREDICTED BY IDOCK:   -6.73 KCAL/MOL
REMARK 923 INTER-LIGAND FREE ENERGY PREDICTED BY IDOCK:   -5.37 KCAL/MOL
REMARK 924 INTRA-LIGAND FREE ENERGY PREDICTED BY IDOCK:   -1.36 KCAL/MOL
REMARK 927      BINDING AFFINITY PREDICTED BY RF-SCORE:    0.00 PKD
ROOT
HETATM    1  C   UNL     1     -10.582   7.117  68.918  1.00  0.00    -0.218 C  
HETATM    2  C   UNL     1     -11.473   6.508  70.069  1.00  0.00    -0.412 C  
HETATM    3  C   UNL     1     -12.027   7.444  71.160  1.00  0.00    -0.351 C  
HETATM    4  C   UNL     1      -8.382   7.076  67.469  1.00  0.00    -0.119 C  
HETATM    5  C   UNL     1     -12.218   8.902  70.775  1.00  0.00    -0.084 C  
HETATM    6  C   UNL     1      -8.192   8.496  67.910  1.00  0.00    -0.119 C  
HETATM    7  C   UNL     1      -8.756   7.207  65.981  1.00  0.00    -0.162 C  
HETATM    8  C   UNL     1      -9.076   9.179  68.638  1.00  0.00    -0.136 C  
HETATM    9  C   UNL     1     -11.052   9.380  69.962  1.00  0.00    -0.248 C  
HETATM   10  C   UNL     1     -12.324   9.717  72.079  1.00  0.00    -0.376 C  
HETATM   11  C   UNL     1     -10.273   8.593  69.197  1.00  0.00    -0.215 C  
HETATM   12  C   UNL     1      -9.319   6.271  68.455  1.00  0.00    -0.113 C  
ENDROOT
BRANCH   2  13
HETATM   13  O   UNL     1     -10.922   5.357  70.731  1.00  0.00    -0.184 OA 
BRANCH  13  14
HETATM   14  C   UNL     1     -10.675   5.423  72.066  1.00  0.00    -0.220 C  
HETATM   15  O   UNL     1     -11.525   5.535  72.950  1.00  0.00    -0.304 OA 
BRANCH  14  16
HETATM   16  C   UNL     1      -9.177   5.389  72.371  1.00  0.00    -0.152 C  
HETATM   17  C   UNL     1      -8.885   5.107  73.855  1.00  0.00    -0.117 C  
HETATM   18  C   UNL     1      -8.628   4.262  71.483  1.00  0.00    -0.129 C  
BRANCH  16  19
HETATM   19  C   UNL     1      -8.577   6.763  71.972  1.00  0.00    -0.122 C  
HETATM   20  C   UNL     1      -9.049   7.922  72.842  1.00  0.00    -0.281 C  
ENDBRANCH  16  19
ENDBRANCH  14  16
ENDBRANCH  13  14
ENDBRANCH   2  13
BRANCH  12  21
HETATM   21  C   UNL     1      -9.602   4.772  68.013  1.00  0.00    -0.199 C  
BRANCH  21  22
HETATM   22  C   UNL     1      -8.488   4.168  67.170  1.00  0.00    -0.100 C  
BRANCH  22  23
HETATM   23  C   UNL     1      -8.612   3.726  65.719  1.00  0.00    -0.112 C  
HETATM   24  C   UNL     1      -7.454   3.970  64.783  1.00  0.00    -0.073 C  
HETATM   25  C   UNL     1      -7.729   3.139  63.528  1.00  0.00    -0.068 C  
HETATM   26  O   UNL     1      -7.509   1.751  63.795  1.00  0.00    -0.054 OA 
HETATM   27  C   UNL     1      -9.126   3.377  62.964  1.00  0.00    -0.093 C  
HETATM   28  C   UNL     1     -10.208   3.559  64.004  1.00  0.00    -0.223 C  
HETATM   29  H   UNL     1      -7.679   1.235  63.016  1.00  0.00     0.000 HD 
HETATM   30  O   UNL     1     -11.379   3.265  63.796  1.00  0.00    -0.198 OA 
HETATM   31  O   UNL     1      -9.821   4.219  65.131  1.00  0.00    -0.182 OA 
ENDBRANCH  22  23
ENDBRANCH  21  22
ENDBRANCH  12  21
TORSDOF 7
ENDMDL
MODEL      200
REMARK 921   NORMALIZED FREE ENERGY PREDICTED BY IDOCK:   -3.69 KCAL/MOL
REMARK 922        TOTAL FREE ENERGY PREDICTED BY IDOCK:   -6.69 KCAL/MOL
REMARK 923 INTER-LIGAND FREE ENERGY PREDICTED BY IDOCK:   -6.72 KCAL/MOL
REMARK 924 INTRA-LIGAND FREE ENERGY PREDICTED BY IDOCK:    0.03 KCAL/MOL
REMARK 927      BINDING AFFINITY PREDICTED BY RF-SCORE:    0.00 PKD
ROOT
HETATM    1  C   UNL     1      -9.516  16.232  68.436  1.00  0.00    -0.216 C  
HETATM    2  C   UNL     1     -10.914  15.929  67.771  1.00  0.00    -0.315 C  
HETATM    3  C   UNL     1     -11.986  15.185  68.591  1.00  0.00    -0.270 C  
HETATM    4  C   UNL     1      -6.884  16.162  68.351  1.00  0.00    -0.128 C  
HETATM    5  C   UNL     1     -11.904  15.321  70.102  1.00  0.00    -0.356 C  
HETATM    6  C   UNL     1      -6.967  15.427  69.655  1.00  0.00    -0.184 C  
HETATM    7  C   UNL     1      -6.330  17.543  68.750  1.00  0.00    -0.197 C  
HETATM    8  C   UNL     1      -8.102  15.210  70.320  1.00  0.00     0.726 C  
HETATM    9  C   UNL     1     -10.478  15.223  70.554  1.00  0.00    -0.109 C  
HETATM   10  C   UNL     1     -12.734  14.177  70.717  1.00  0.00    -0.414 C  
HETATM   11  C   UNL     1      -9.409  15.550  69.804  1.00  0.00    -0.136 C  
HETATM   12  C   UNL     1      -8.227  16.055  67.524  1.00  0.00    -0.171 C  
ENDROOT
BRANCH   2  13
HETATM   13  O   UNL     1     -10.858  15.308  66.475  1.00  0.00    -0.310 OA 
BRANCH  13  14
HETATM   14  C   UNL     1     -11.731  14.305  66.189  1.00  0.00    -0.390 C  
HETATM   15  O   UNL     1     -12.936  14.440  65.977  1.00  0.00    -0.227 OA 
BRANCH  14  16
HETATM   16  C   UNL     1     -11.050  12.936  66.203  1.00  0.00    -0.314 C  
HETATM   17  C   UNL     1      -9.521  13.040  66.337  1.00  0.00    -0.228 C  
HETATM   18  C   UNL     1     -11.658  12.215  67.415  1.00  0.00    -0.410 C  
BRANCH  16  19
HETATM   19  C   UNL     1     -11.411  12.211  64.879  1.00  0.00    -0.378 C  
HETATM   20  C   UNL     1     -10.324  12.290  63.813  1.00  0.00    -0.464 C  
ENDBRANCH  16  19
ENDBRANCH  14  16
ENDBRANCH  13  14
ENDBRANCH   2  13
BRANCH  12  21
HETATM   21  C   UNL     1      -8.219  16.858  66.154  1.00  0.00    -0.295 C  
BRANCH  21  22
HETATM   22  C   UNL     1      -6.837  17.345  65.745  1.00  0.00     0.029 C  
BRANCH  22  23
HETATM   23  C   UNL     1      -6.441  18.795  65.503  1.00  0.00    -0.282 C  
HETATM   24  C   UNL     1      -5.785  19.162  64.194  1.00  0.00    -0.317 C  
HETATM   25  C   UNL     1      -5.817  20.688  64.107  1.00  0.00    -0.276 C  
HETATM   26  O   UNL     1      -7.144  21.141  63.824  1.00  0.00    -0.302 OA 
HETATM   27  C   UNL     1      -5.261  21.357  65.360  1.00  0.00    -0.132 C  
HETATM   28  C   UNL     1      -5.614  20.665  66.658  1.00  0.00    -0.183 C  
HETATM   29  H   UNL     1      -7.164  22.089  63.769  1.00  0.00     0.000 HD 
HETATM   30  O   UNL     1      -5.707  21.266  67.721  1.00  0.00    -0.309 OA 
HETATM   31  O   UNL     1      -5.664  19.306  66.593  1.00  0.00    -0.162 OA 
ENDBRANCH  22  23
ENDBRANCH  21  22
ENDBRANCH  12  21
TORSDOF 7
ENDMDL
MODEL      201
REMARK 921   NORMALIZED FREE ENERGY PREDICTED BY IDOCK:   -3.66 KCAL/MOL
REMARK 922        TOTAL FREE ENERGY PREDICTED BY IDOCK:   -6.65 KCAL/MOL
REMARK 923 INTER-LIGAND FREE ENERGY PREDICTED BY IDOCK:   -5.01 KCAL/MOL
REMARK 924 INTRA-LIGAND FREE ENERGY PREDICTED BY IDOCK:   -1.64 KCAL/MOL
REMARK 927      BINDING AFFINITY PREDICTED BY RF-SCORE:    0.00 PKD
ROOT
HETATM    1  C   UNL     1      -9.534  10.862  69.316  1.00  0.00    -0.048 C  
HETATM    2  C   UNL     1      -8.249  11.079  68.427  1.00  0.00    -0.137 C  
HETATM    3  C   UNL     1      -8.210  12.266  67.447  1.00  0.00    -0.178 C  
HETATM    4  C   UNL     1     -11.441   9.290  70.230  1.00  0.00    -0.198 C  
HETATM    5  C   UNL     1      -9.074  13.467  67.796  1.00  0.00    -0.202 C  
HETATM    6  C   UNL     1     -12.396  10.312  69.691  1.00  0.00     0.043 C  
HETATM    7  C   UNL     1     -11.549   9.464  71.756  1.00  0.00    -0.433 C  
HETATM    8  C   UNL     1     -12.023  11.472  69.151  1.00  0.00    -0.386 C  
HETATM    9  C   UNL     1     -10.411  13.014  68.300  1.00  0.00    -0.258 C  
HETATM   10  C   UNL     1      -9.248  14.304  66.514  1.00  0.00    -0.259 C  
HETATM   11  C   UNL     1     -10.646  11.835  68.906  1.00  0.00    -0.211 C  
HETATM   12  C   UNL     1     -10.030   9.366  69.521  1.00  0.00    -0.200 C  
ENDROOT
BRANCH   2  13
HETATM   13  O   UNL     1      -7.792   9.918  67.712  1.00  0.00    -0.094 OA 
BRANCH  13  14
HETATM   14  C   UNL     1      -7.659   9.989  66.361  1.00  0.00    -0.104 C  
HETATM   15  O   UNL     1      -6.776  10.600  65.757  1.00  0.00    -0.127 OA 
BRANCH  14  16
HETATM   16  C   UNL     1      -8.781   9.245  65.637  1.00  0.00    -0.193 C  
HETATM   17  C   UNL     1     -10.115  10.012  65.674  1.00  0.00    -0.321 C  
HETATM   18  C   UNL     1      -8.278   9.097  64.193  1.00  0.00    -0.162 C  
BRANCH  16  19
HETATM   19  C   UNL     1      -8.954   7.862  66.318  1.00  0.00    -0.207 C  
HETATM   20  C   UNL     1     -10.393   7.531  66.694  1.00  0.00    -0.252 C  
ENDBRANCH  16  19
ENDBRANCH  14  16
ENDBRANCH  13  14
ENDBRANCH   2  13
BRANCH  12  21
HETATM   21  C   UNL     1      -8.956   8.341  70.085  1.00  0.00    -0.142 C  
BRANCH  21  22
HETATM   22  C   UNL     1      -9.552   7.003  70.496  1.00  0.00    -0.169 C  
BRANCH  22  23
HETATM   23  C   UNL     1      -9.020   5.633  70.098  1.00  0.00    -0.138 C  
HETATM   24  C   UNL     1      -8.192   4.858  71.093  1.00  0.00    -0.109 C  
HETATM   25  C   UNL     1      -8.094   3.430  70.555  1.00  0.00    -0.052 C  
HETATM   26  O   UNL     1      -9.340   2.749  70.727  1.00  0.00    -0.127 OA 
HETATM   27  C   UNL     1      -7.636   3.383  69.101  1.00  0.00    -0.051 C  
HETATM   28  C   UNL     1      -8.188   4.485  68.226  1.00  0.00    -0.090 C  
HETATM   29  H   UNL     1      -9.280   1.861  70.394  1.00  0.00     0.000 HD 
HETATM   30  O   UNL     1      -8.355   4.348  67.021  1.00  0.00    -0.101 OA 
HETATM   31  O   UNL     1      -8.336   5.691  68.841  1.00  0.00    -0.102 OA 
ENDBRANCH  22  23
ENDBRANCH  21  22
ENDBRANCH  12  21
TORSDOF 7
ENDMDL
MODEL      202
REMARK 921   NORMALIZED FREE ENERGY PREDICTED BY IDOCK:   -3.63 KCAL/MOL
REMARK 922        TOTAL FREE ENERGY PREDICTED BY IDOCK:   -6.60 KCAL/MOL
REMARK 923 INTER-LIGAND FREE ENERGY PREDICTED BY IDOCK:   -6.47 KCAL/MOL
REMARK 924 INTRA-LIGAND FREE ENERGY PREDICTED BY IDOCK:   -0.14 KCAL/MOL
REMARK 927      BINDING AFFINITY PREDICTED BY RF-SCORE:    0.00 PKD
ROOT
HETATM    1  C   UNL     1      -7.463  15.827  67.300  1.00  0.00    -0.252 C  
HETATM    2  C   UNL     1      -8.193  17.139  66.817  1.00  0.00    -0.240 C  
HETATM    3  C   UNL     1      -7.345  18.334  66.341  1.00  0.00    -0.283 C  
HETATM    4  C   UNL     1      -7.127  13.929  69.097  1.00  0.00    -0.069 C  
HETATM    5  C   UNL     1      -5.967  18.013  65.788  1.00  0.00    -0.248 C  
HETATM    6  C   UNL     1      -5.682  14.331  69.095  1.00  0.00    -0.092 C  
HETATM    7  C   UNL     1      -7.122  12.561  68.390  1.00  0.00    -0.107 C  
HETATM    8  C   UNL     1      -5.160  15.241  68.274  1.00  0.00    -0.108 C  
HETATM    9  C   UNL     1      -5.300  16.969  66.632  1.00  0.00    -0.158 C  
HETATM   10  C   UNL     1      -5.143  19.316  65.809  1.00  0.00    -0.170 C  
HETATM   11  C   UNL     1      -5.947  16.044  67.366  1.00  0.00    -0.160 C  
HETATM   12  C   UNL     1      -8.064  15.090  68.574  1.00  0.00    -0.148 C  
ENDROOT
BRANCH   2  13
HETATM   13  O   UNL     1      -9.192  17.654  67.715  1.00  0.00    -0.246 OA 
BRANCH  13  14
HETATM   14  C   UNL     1      -8.968  18.843  68.334  1.00  0.00    -0.340 C  
HETATM   15  O   UNL     1      -8.019  19.100  69.076  1.00  0.00    -0.328 OA 
BRANCH  14  16
HETATM   16  C   UNL     1     -10.077  19.855  68.044  1.00  0.00    -0.572 C  
HETATM   17  C   UNL     1     -10.755  20.370  69.325  1.00  0.00     0.586 C  
HETATM   18  C   UNL     1      -9.370  21.000  67.303  1.00  0.00    -0.210 C  
BRANCH  16  19
HETATM   19  C   UNL     1     -11.129  19.163  67.138  1.00  0.00    -0.219 C  
HETATM   20  C   UNL     1     -10.964  19.466  65.653  1.00  0.00    -0.184 C  
ENDBRANCH  16  19
ENDBRANCH  14  16
ENDBRANCH  13  14
ENDBRANCH   2  13
BRANCH  12  21
HETATM   21  C   UNL     1      -9.603  14.707  68.502  1.00  0.00    -0.221 C  
BRANCH  21  22
HETATM   22  C   UNL     1      -9.849  13.231  68.228  1.00  0.00    -0.231 C  
BRANCH  22  23
HETATM   23  C   UNL     1     -10.300  12.636  66.900  1.00  0.00    -0.233 C  
HETATM   24  C   UNL     1      -9.262  12.334  65.849  1.00  0.00    -0.031 C  
HETATM   25  C   UNL     1      -9.950  11.460  64.800  1.00  0.00    -0.267 C  
HETATM   26  O   UNL     1     -10.142  10.136  65.307  1.00  0.00    -0.319 OA 
HETATM   27  C   UNL     1     -11.264  12.059  64.310  1.00  0.00    -0.421 C  
HETATM   28  C   UNL     1     -12.084  12.748  65.378  1.00  0.00    -0.462 C  
HETATM   29  H   UNL     1     -10.569   9.592  64.655  1.00  0.00     0.000 HD 
HETATM   30  O   UNL     1     -13.305  12.831  65.320  1.00  0.00    -0.440 OA 
HETATM   31  O   UNL     1     -11.362  13.407  66.325  1.00  0.00    -0.295 OA 
ENDBRANCH  22  23
ENDBRANCH  21  22
ENDBRANCH  12  21
TORSDOF 7
ENDMDL
MODEL      203
REMARK 921   NORMALIZED FREE ENERGY PREDICTED BY IDOCK:   -3.58 KCAL/MOL
REMARK 922        TOTAL FREE ENERGY PREDICTED BY IDOCK:   -6.54 KCAL/MOL
REMARK 923 INTER-LIGAND FREE ENERGY PREDICTED BY IDOCK:   -5.79 KCAL/MOL
REMARK 924 INTRA-LIGAND FREE ENERGY PREDICTED BY IDOCK:   -0.75 KCAL/MOL
REMARK 927      BINDING AFFINITY PREDICTED BY RF-SCORE:    0.00 PKD
ROOT
HETATM    1  C   UNL     1      -7.595  15.483  67.158  1.00  0.00    -0.253 C  
HETATM    2  C   UNL     1      -8.785  16.409  66.695  1.00  0.00    -0.256 C  
HETATM    3  C   UNL     1      -8.707  17.922  66.973  1.00  0.00    -0.254 C  
HETATM    4  C   UNL     1      -6.726  13.333  68.409  1.00  0.00    -0.096 C  
HETATM    5  C   UNL     1      -7.316  18.521  67.098  1.00  0.00    -0.219 C  
HETATM    6  C   UNL     1      -5.860  14.270  69.196  1.00  0.00    -0.090 C  
HETATM    7  C   UNL     1      -5.725  12.593  67.502  1.00  0.00    -0.131 C  
HETATM    8  C   UNL     1      -5.768  15.579  68.960  1.00  0.00    -0.103 C  
HETATM    9  C   UNL     1      -6.431  17.611  67.897  1.00  0.00    -0.182 C  
HETATM   10  C   UNL     1      -7.457  19.881  67.810  1.00  0.00    -0.326 C  
HETATM   11  C   UNL     1      -6.586  16.278  67.994  1.00  0.00    -0.145 C  
HETATM   12  C   UNL     1      -7.974  14.069  67.777  1.00  0.00    -0.175 C  
ENDROOT
BRANCH   2  13
HETATM   13  O   UNL     1     -10.097  15.969  67.089  1.00  0.00    -0.258 OA 
BRANCH  13  14
HETATM   14  C   UNL     1     -10.548  16.279  68.333  1.00  0.00    -0.301 C  
HETATM   15  O   UNL     1     -10.267  17.298  68.966  1.00  0.00    -0.316 OA 
BRANCH  14  16
HETATM   16  C   UNL     1     -11.434  15.175  68.911  1.00  0.00    -0.337 C  
HETATM   17  C   UNL     1     -11.814  14.116  67.861  1.00  0.00    -0.405 C  
HETATM   18  C   UNL     1     -10.591  14.552  70.034  1.00  0.00     0.123 C  
BRANCH  16  19
HETATM   19  C   UNL     1     -12.718  15.839  69.473  1.00  0.00     0.370 C  
HETATM   20  C   UNL     1     -12.881  15.696  70.982  1.00  0.00    -0.521 C  
ENDBRANCH  16  19
ENDBRANCH  14  16
ENDBRANCH  13  14
ENDBRANCH   2  13
BRANCH  12  21
HETATM   21  C   UNL     1      -8.903  13.139  66.886  1.00  0.00    -0.184 C  
BRANCH  21  22
HETATM   22  C   UNL     1      -9.070  11.734  67.447  1.00  0.00    -0.175 C  
BRANCH  22  23
HETATM   23  C   UNL     1      -9.055  10.446  66.637  1.00  0.00    -0.151 C  
HETATM   24  C   UNL     1      -8.401   9.222  67.229  1.00  0.00    -0.125 C  
HETATM   25  C   UNL     1      -8.831   8.039  66.360  1.00  0.00    -0.157 C  
HETATM   26  O   UNL     1     -10.198   7.706  66.617  1.00  0.00    -0.381 OA 
HETATM   27  C   UNL     1      -8.594   8.288  64.874  1.00  0.00    -0.075 C  
HETATM   28  C   UNL     1      -8.868   9.703  64.417  1.00  0.00    -0.230 C  
HETATM   29  H   UNL     1     -10.465   6.970  66.078  1.00  0.00     0.000 HD 
HETATM   30  O   UNL     1      -9.217   9.970  63.273  1.00  0.00    -0.262 OA 
HETATM   31  O   UNL     1      -8.548  10.674  65.316  1.00  0.00    -0.174 OA 
ENDBRANCH  22  23
ENDBRANCH  21  22
ENDBRANCH  12  21
TORSDOF 7
ENDMDL
MODEL      204
REMARK 921   NORMALIZED FREE ENERGY PREDICTED BY IDOCK:   -3.52 KCAL/MOL
REMARK 922        TOTAL FREE ENERGY PREDICTED BY IDOCK:   -6.45 KCAL/MOL
REMARK 923 INTER-LIGAND FREE ENERGY PREDICTED BY IDOCK:   -4.56 KCAL/MOL
REMARK 924 INTRA-LIGAND FREE ENERGY PREDICTED BY IDOCK:   -1.89 KCAL/MOL
REMARK 927      BINDING AFFINITY PREDICTED BY RF-SCORE:    0.00 PKD
ROOT
HETATM    1  C   UNL     1      -9.659   9.057  68.351  1.00  0.00    -0.163 C  
HETATM    2  C   UNL     1      -9.540   7.756  69.235  1.00  0.00    -0.159 C  
HETATM    3  C   UNL     1     -10.290   7.694  70.579  1.00  0.00    -0.211 C  
HETATM    4  C   UNL     1      -8.523  10.988  66.963  1.00  0.00    -0.141 C  
HETATM    5  C   UNL     1     -11.534   8.557  70.705  1.00  0.00    -0.281 C  
HETATM    6  C   UNL     1      -9.277  11.928  67.854  1.00  0.00    -0.187 C  
HETATM    7  C   UNL     1      -9.239  11.122  65.607  1.00  0.00    -0.238 C  
HETATM    8  C   UNL     1     -10.163  11.540  68.772  1.00  0.00    -0.204 C  
HETATM    9  C   UNL     1     -11.292   9.906  70.095  1.00  0.00    -0.335 C  
HETATM   10  C   UNL     1     -11.847   8.704  72.207  1.00  0.00    -0.436 C  
HETATM   11  C   UNL     1     -10.414  10.157  69.107  1.00  0.00    -0.242 C  
HETATM   12  C   UNL     1      -8.338   9.564  67.626  1.00  0.00    -0.125 C  
ENDROOT
BRANCH   2  13
HETATM   13  O   UNL     1      -8.199   7.292  69.470  1.00  0.00    -0.127 OA 
BRANCH  13  14
HETATM   14  C   UNL     1      -8.016   6.056  70.007  1.00  0.00    -0.109 C  
HETATM   15  O   UNL     1      -8.591   5.027  69.652  1.00  0.00    -0.087 OA 
BRANCH  14  16
HETATM   16  C   UNL     1      -7.023   6.080  71.169  1.00  0.00    -0.068 C  
HETATM   17  C   UNL     1      -6.537   7.502  71.499  1.00  0.00    -0.045 C  
HETATM   18  C   UNL     1      -7.799   5.480  72.351  1.00  0.00    -0.103 C  
BRANCH  16  19
HETATM   19  C   UNL     1      -5.813   5.191  70.780  1.00  0.00    -0.017 C  
HETATM   20  C   UNL     1      -5.784   3.840  71.485  1.00  0.00    -0.012 C  
ENDBRANCH  16  19
ENDBRANCH  14  16
ENDBRANCH  13  14
ENDBRANCH   2  13
BRANCH  12  21
HETATM   21  C   UNL     1      -7.591   8.506  66.708  1.00  0.00    -0.090 C  
BRANCH  21  22
HETATM   22  C   UNL     1      -8.533   7.678  65.846  1.00  0.00    -0.150 C  
BRANCH  22  23
HETATM   23  C   UNL     1      -8.652   6.160  65.866  1.00  0.00    -0.147 C  
HETATM   24  C   UNL     1      -9.917   5.536  66.400  1.00  0.00    -0.203 C  
HETATM   25  C   UNL     1      -9.882   4.064  65.987  1.00  0.00    -0.166 C  
HETATM   26  O   UNL     1     -10.146   3.936  64.587  1.00  0.00    -0.198 OA 
HETATM   27  C   UNL     1      -8.571   3.382  66.366  1.00  0.00    -0.119 C  
HETATM   28  C   UNL     1      -7.339   4.243  66.206  1.00  0.00    -0.080 C  
HETATM   29  H   UNL     1     -10.125   3.021  64.330  1.00  0.00     0.000 HD 
HETATM   30  O   UNL     1      -6.232   3.773  65.973  1.00  0.00    -0.030 OA 
HETATM   31  O   UNL     1      -7.513   5.562  66.497  1.00  0.00    -0.084 OA 
ENDBRANCH  22  23
ENDBRANCH  21  22
ENDBRANCH  12  21
TORSDOF 7
ENDMDL
MODEL      205
REMARK 921   NORMALIZED FREE ENERGY PREDICTED BY IDOCK:   -3.43 KCAL/MOL
REMARK 922        TOTAL FREE ENERGY PREDICTED BY IDOCK:   -6.33 KCAL/MOL
REMARK 923 INTER-LIGAND FREE ENERGY PREDICTED BY IDOCK:   -5.52 KCAL/MOL
REMARK 924 INTRA-LIGAND FREE ENERGY PREDICTED BY IDOCK:   -0.81 KCAL/MOL
REMARK 927      BINDING AFFINITY PREDICTED BY RF-SCORE:    0.00 PKD
ROOT
HETATM    1  C   UNL     1     -10.635  14.190  69.259  1.00  0.00    -0.127 C  
HETATM    2  C   UNL     1      -9.820  14.144  67.909  1.00  0.00    -0.224 C  
HETATM    3  C   UNL     1      -8.986  15.371  67.497  1.00  0.00    -0.191 C  
HETATM    4  C   UNL     1     -12.892  13.854  70.577  1.00  0.00    -0.250 C  
HETATM    5  C   UNL     1      -8.498  16.271  68.620  1.00  0.00    -0.221 C  
HETATM    6  C   UNL     1     -12.719  15.275  71.023  1.00  0.00    -0.487 C  
HETATM    7  C   UNL     1     -12.613  13.039  71.853  1.00  0.00    -0.089 C  
HETATM    8  C   UNL     1     -11.649  16.021  70.747  1.00  0.00    -0.431 C  
HETATM    9  C   UNL     1      -9.584  16.466  69.637  1.00  0.00     0.073 C  
HETATM   10  C   UNL     1      -8.109  17.625  67.996  1.00  0.00    -0.243 C  
HETATM   11  C   UNL     1     -10.578  15.591  69.878  1.00  0.00    -0.322 C  
HETATM   12  C   UNL     1     -12.090  13.549  69.250  1.00  0.00    -0.335 C  
ENDROOT
BRANCH   2  13
HETATM   13  O   UNL     1     -10.567  13.726  66.753  1.00  0.00    -0.271 OA 
BRANCH  13  14
HETATM   14  C   UNL     1     -11.390  14.621  66.144  1.00  0.00    -0.350 C  
HETATM   15  O   UNL     1     -11.982  15.546  66.700  1.00  0.00     0.253 OA 
BRANCH  14  16
HETATM   16  C   UNL     1     -11.549  14.326  64.652  1.00  0.00    -0.415 C  
HETATM   17  C   UNL     1     -12.843  13.554  64.340  1.00  0.00     0.033 C  
HETATM   18  C   UNL     1     -11.564  15.709  63.985  1.00  0.00     0.079 C  
BRANCH  16  19
HETATM   19  C   UNL     1     -10.321  13.494  64.196  1.00  0.00     0.023 C  
HETATM   20  C   UNL     1     -10.672  12.105  63.677  1.00  0.00    -0.518 C  
ENDBRANCH  16  19
ENDBRANCH  14  16
ENDBRANCH  13  14
ENDBRANCH   2  13
BRANCH  12  21
HETATM   21  C   UNL     1     -12.191  12.044  68.754  1.00  0.00     0.012 C  
BRANCH  21  22
HETATM   22  C   UNL     1     -11.417  11.065  69.625  1.00  0.00    -0.375 C  
BRANCH  22  23
HETATM   23  C   UNL     1     -10.472   9.983  69.123  1.00  0.00    -0.219 C  
HETATM   24  C   UNL     1      -9.044   9.979  69.611  1.00  0.00    -0.230 C  
HETATM   25  C   UNL     1      -8.456   8.624  69.216  1.00  0.00    -0.123 C  
HETATM   26  O   UNL     1      -8.979   7.591  70.056  1.00  0.00    -0.143 OA 
HETATM   27  C   UNL     1      -8.674   8.299  67.742  1.00  0.00    -0.134 C  
HETATM   28  C   UNL     1     -10.012   8.734  67.188  1.00  0.00    -0.230 C  
HETATM   29  H   UNL     1      -8.613   6.750  69.811  1.00  0.00     0.000 HD 
HETATM   30  O   UNL     1     -10.558   8.158  66.254  1.00  0.00     0.146 OA 
HETATM   31  O   UNL     1     -10.494   9.903  67.692  1.00  0.00    -0.210 OA 
ENDBRANCH  22  23
ENDBRANCH  21  22
ENDBRANCH  12  21
TORSDOF 7
ENDMDL
MODEL      206
REMARK 921   NORMALIZED FREE ENERGY PREDICTED BY IDOCK:   -3.35 KCAL/MOL
REMARK 922        TOTAL FREE ENERGY PREDICTED BY IDOCK:   -6.21 KCAL/MOL
REMARK 923 INTER-LIGAND FREE ENERGY PREDICTED BY IDOCK:   -4.99 KCAL/MOL
REMARK 924 INTRA-LIGAND FREE ENERGY PREDICTED BY IDOCK:   -1.22 KCAL/MOL
REMARK 927      BINDING AFFINITY PREDICTED BY RF-SCORE:    0.00 PKD
ROOT
HETATM    1  C   UNL     1      -8.738  13.720  66.901  1.00  0.00    -0.172 C  
HETATM    2  C   UNL     1      -9.355  12.427  66.241  1.00  0.00    -0.189 C  
HETATM    3  C   UNL     1     -10.816  12.461  65.754  1.00  0.00    -0.312 C  
HETATM    4  C   UNL     1      -7.427  14.875  68.873  1.00  0.00    -0.137 C  
HETATM    5  C   UNL     1     -11.374  13.821  65.368  1.00  0.00    -0.314 C  
HETATM    6  C   UNL     1      -8.608  15.791  68.980  1.00  0.00    -0.236 C  
HETATM    7  C   UNL     1      -6.323  15.775  68.286  1.00  0.00    -0.120 C  
HETATM    8  C   UNL     1      -9.644  15.778  68.142  1.00  0.00    -0.199 C  
HETATM    9  C   UNL     1     -10.937  14.860  66.357  1.00  0.00    -0.336 C  
HETATM   10  C   UNL     1     -12.911  13.709  65.362  1.00  0.00    -0.440 C  
HETATM   11  C   UNL     1      -9.814  14.794  67.097  1.00  0.00    -0.232 C  
HETATM   12  C   UNL     1      -7.798  13.511  68.165  1.00  0.00    -0.144 C  
ENDROOT
BRANCH   2  13
HETATM   13  O   UNL     1      -9.182  11.211  66.990  1.00  0.00    -0.160 OA 
BRANCH  13  14
HETATM   14  C   UNL     1      -9.782  10.075  66.546  1.00  0.00    -0.200 C  
HETATM   15  O   UNL     1     -10.869   9.641  66.928  1.00  0.00    -0.167 OA 
BRANCH  14  16
HETATM   16  C   UNL     1      -8.922   9.339  65.519  1.00  0.00    -0.251 C  
HETATM   17  C   UNL     1      -8.953   7.812  65.711  1.00  0.00    -0.109 C  
HETATM   18  C   UNL     1      -9.521   9.730  64.160  1.00  0.00    -0.164 C  
BRANCH  16  19
HETATM   19  C   UNL     1      -7.465   9.853  65.661  1.00  0.00    -0.116 C  
HETATM   20  C   UNL     1      -6.643   9.749  64.382  1.00  0.00    -0.118 C  
ENDBRANCH  16  19
ENDBRANCH  14  16
ENDBRANCH  13  14
ENDBRANCH   2  13
BRANCH  12  21
HETATM   21  C   UNL     1      -6.574  12.517  67.974  1.00  0.00    -0.086 C  
BRANCH  21  22
HETATM   22  C   UNL     1      -6.406  11.535  69.123  1.00  0.00    -0.078 C  
BRANCH  22  23
HETATM   23  C   UNL     1      -6.903  10.096  69.143  1.00  0.00    -0.059 C  
HETATM   24  C   UNL     1      -7.703   9.619  70.330  1.00  0.00    -0.184 C  
HETATM   25  C   UNL     1      -8.332   8.287  69.921  1.00  0.00    -0.125 C  
HETATM   26  O   UNL     1      -9.407   8.507  69.004  1.00  0.00    -0.146 OA 
HETATM   27  C   UNL     1      -7.310   7.309  69.348  1.00  0.00    -0.089 C  
HETATM   28  C   UNL     1      -6.244   7.941  68.482  1.00  0.00    -0.044 C  
HETATM   29  H   UNL     1      -9.799   7.679  68.749  1.00  0.00     0.000 HD 
HETATM   30  O   UNL     1      -5.685   7.334  67.577  1.00  0.00    -0.027 OA 
HETATM   31  O   UNL     1      -5.835   9.178  68.879  1.00  0.00    -0.040 OA 
ENDBRANCH  22  23
ENDBRANCH  21  22
ENDBRANCH  12  21
TORSDOF 7
ENDMDL
MODEL      207
REMARK 921   NORMALIZED FREE ENERGY PREDICTED BY IDOCK:   -3.30 KCAL/MOL
REMARK 922        TOTAL FREE ENERGY PREDICTED BY IDOCK:   -6.14 KCAL/MOL
REMARK 923 INTER-LIGAND FREE ENERGY PREDICTED BY IDOCK:   -4.80 KCAL/MOL
REMARK 924 INTRA-LIGAND FREE ENERGY PREDICTED BY IDOCK:   -1.34 KCAL/MOL
REMARK 927      BINDING AFFINITY PREDICTED BY RF-SCORE:    0.00 PKD
ROOT
HETATM    1  C   UNL     1      -9.280   7.661  70.214  1.00  0.00    -0.157 C  
HETATM    2  C   UNL     1      -9.434   6.755  71.496  1.00  0.00    -0.156 C  
HETATM    3  C   UNL     1      -8.474   6.970  72.682  1.00  0.00    -0.124 C  
HETATM    4  C   UNL     1      -9.060   7.901  67.599  1.00  0.00    -0.139 C  
HETATM    5  C   UNL     1      -7.874   8.359  72.830  1.00  0.00    -0.139 C  
HETATM    6  C   UNL     1      -7.805   8.671  67.882  1.00  0.00    -0.103 C  
HETATM    7  C   UNL     1     -10.043   8.979  67.107  1.00  0.00    -0.309 C  
HETATM    8  C   UNL     1      -7.386   8.995  69.106  1.00  0.00    -0.072 C  
HETATM    9  C   UNL     1      -7.467   8.893  71.489  1.00  0.00    -0.084 C  
HETATM   10  C   UNL     1      -6.642   8.238  73.748  1.00  0.00    -0.143 C  
HETATM   11  C   UNL     1      -8.027   8.538  70.318  1.00  0.00    -0.103 C  
HETATM   12  C   UNL     1      -9.457   6.954  68.801  1.00  0.00    -0.135 C  
ENDROOT
BRANCH   2  13
HETATM   13  O   UNL     1      -9.495   5.340  71.246  1.00  0.00    -0.144 OA 
BRANCH  13  14
HETATM   14  C   UNL     1     -10.276   4.566  72.046  1.00  0.00    -0.181 C  
HETATM   15  O   UNL     1     -11.257   4.952  72.683  1.00  0.00    -0.199 OA 
BRANCH  14  16
HETATM   16  C   UNL     1      -9.770   3.125  72.115  1.00  0.00    -0.230 C  
HETATM   17  C   UNL     1      -8.405   3.014  72.816  1.00  0.00    -0.075 C  
HETATM   18  C   UNL     1     -10.851   2.373  72.905  1.00  0.00    -0.169 C  
BRANCH  16  19
HETATM   19  C   UNL     1      -9.658   2.589  70.664  1.00  0.00    -0.160 C  
HETATM   20  C   UNL     1      -8.264   2.099  70.289  1.00  0.00    -0.062 C  
ENDBRANCH  16  19
ENDBRANCH  14  16
ENDBRANCH  13  14
ENDBRANCH   2  13
BRANCH  12  21
HETATM   21  C   UNL     1     -10.809   6.150  68.583  1.00  0.00    -0.403 C  
BRANCH  21  22
HETATM   22  C   UNL     1     -11.119   5.872  67.120  1.00  0.00    -0.151 C  
BRANCH  22  23
HETATM   23  C   UNL     1     -10.317   4.964  66.197  1.00  0.00    -0.292 C  
HETATM   24  C   UNL     1     -10.985   4.406  64.965  1.00  0.00    -0.041 C  
HETATM   25  C   UNL     1      -9.869   3.833  64.090  1.00  0.00    -0.183 C  
HETATM   26  O   UNL     1      -9.126   4.891  63.479  1.00  0.00    -0.305 OA 
HETATM   27  C   UNL     1      -8.951   2.887  64.858  1.00  0.00    -0.133 C  
HETATM   28  C   UNL     1      -8.659   3.304  66.282  1.00  0.00    -0.121 C  
HETATM   29  H   UNL     1      -8.433   4.535  62.935  1.00  0.00     0.000 HD 
HETATM   30  O   UNL     1      -7.622   2.998  66.858  1.00  0.00    -0.073 OA 
HETATM   31  O   UNL     1      -9.693   3.904  66.932  1.00  0.00    -0.216 OA 
ENDBRANCH  22  23
ENDBRANCH  21  22
ENDBRANCH  12  21
TORSDOF 7
ENDMDL
MODEL      208
REMARK 921   NORMALIZED FREE ENERGY PREDICTED BY IDOCK:   -3.28 KCAL/MOL
REMARK 922        TOTAL FREE ENERGY PREDICTED BY IDOCK:   -6.11 KCAL/MOL
REMARK 923 INTER-LIGAND FREE ENERGY PREDICTED BY IDOCK:   -4.54 KCAL/MOL
REMARK 924 INTRA-LIGAND FREE ENERGY PREDICTED BY IDOCK:   -1.57 KCAL/MOL
REMARK 927      BINDING AFFINITY PREDICTED BY RF-SCORE:    0.00 PKD
ROOT
HETATM    1  C   UNL     1      -7.737  10.031  66.616  1.00  0.00    -0.104 C  
HETATM    2  C   UNL     1      -7.363   8.666  65.919  1.00  0.00    -0.084 C  
HETATM    3  C   UNL     1      -7.822   8.417  64.470  1.00  0.00    -0.136 C  
HETATM    4  C   UNL     1      -8.740  11.350  68.664  1.00  0.00    -0.121 C  
HETATM    5  C   UNL     1      -8.047   9.646  63.605  1.00  0.00    -0.151 C  
HETATM    6  C   UNL     1      -9.652  11.997  67.665  1.00  0.00    -0.188 C  
HETATM    7  C   UNL     1      -7.773  12.483  69.056  1.00  0.00     0.186 C  
HETATM    8  C   UNL     1      -9.576  11.803  66.348  1.00  0.00    -0.234 C  
HETATM    9  C   UNL     1      -8.750  10.711  64.393  1.00  0.00    -0.145 C  
HETATM   10  C   UNL     1      -8.912   9.218  62.404  1.00  0.00    -0.216 C  
HETATM   11  C   UNL     1      -8.684  10.849  65.730  1.00  0.00    -0.196 C  
HETATM   12  C   UNL     1      -8.175   9.969  68.143  1.00  0.00    -0.109 C  
ENDROOT
BRANCH   2  13
HETATM   13  O   UNL     1      -7.673   7.483  66.676  1.00  0.00    -0.097 OA 
BRANCH  13  14
HETATM   14  C   UNL     1      -6.817   6.428  66.625  1.00  0.00    -0.066 C  
HETATM   15  O   UNL     1      -5.592   6.501  66.527  1.00  0.00    -0.013 OA 
BRANCH  14  16
HETATM   16  C   UNL     1      -7.558   5.090  66.656  1.00  0.00    -0.088 C  
HETATM   17  C   UNL     1      -8.167   4.723  65.292  1.00  0.00    -0.120 C  
HETATM   18  C   UNL     1      -6.489   4.068  67.070  1.00  0.00    -0.041 C  
BRANCH  16  19
HETATM   19  C   UNL     1      -8.681   5.192  67.721  1.00  0.00    -0.103 C  
HETATM   20  C   UNL     1      -9.247   3.846  68.157  1.00  0.00    -0.207 C  
ENDBRANCH  16  19
ENDBRANCH  14  16
ENDBRANCH  13  14
ENDBRANCH   2  13
BRANCH  12  21
HETATM   21  C   UNL     1      -7.160   9.259  69.136  1.00  0.00    -0.062 C  
BRANCH  21  22
HETATM   22  C   UNL     1      -7.750   8.048  69.843  1.00  0.00    -0.099 C  
BRANCH  22  23
HETATM   23  C   UNL     1      -8.749   8.089  70.992  1.00  0.00    -0.135 C  
HETATM   24  C   UNL     1      -8.898   6.872  71.870  1.00  0.00    -0.126 C  
HETATM   25  C   UNL     1      -9.692   7.318  73.098  1.00  0.00    -0.209 C  
HETATM   26  O   UNL     1      -8.870   8.111  73.959  1.00  0.00    -0.323 OA 
HETATM   27  C   UNL     1     -10.975   8.055  72.728  1.00  0.00    -0.449 C  
HETATM   28  C   UNL     1     -10.859   8.968  71.528  1.00  0.00    -0.346 C  
HETATM   29  H   UNL     1      -9.363   8.389  74.722  1.00  0.00     0.000 HD 
HETATM   30  O   UNL     1     -11.558   9.964  71.388  1.00  0.00    -0.374 OA 
HETATM   31  O   UNL     1     -10.038   8.520  70.539  1.00  0.00    -0.186 OA 
ENDBRANCH  22  23
ENDBRANCH  21  22
ENDBRANCH  12  21
TORSDOF 7
ENDMDL
MODEL      209
REMARK 921   NORMALIZED FREE ENERGY PREDICTED BY IDOCK:   -3.19 KCAL/MOL
REMARK 922        TOTAL FREE ENERGY PREDICTED BY IDOCK:   -5.99 KCAL/MOL
REMARK 923 INTER-LIGAND FREE ENERGY PREDICTED BY IDOCK:   -5.94 KCAL/MOL
REMARK 924 INTRA-LIGAND FREE ENERGY PREDICTED BY IDOCK:   -0.04 KCAL/MOL
REMARK 927      BINDING AFFINITY PREDICTED BY RF-SCORE:    0.00 PKD
ROOT
HETATM    1  C   UNL     1      -9.353  15.864  68.402  1.00  0.00    -0.201 C  
HETATM    2  C   UNL     1     -10.775  15.709  67.736  1.00  0.00    -0.297 C  
HETATM    3  C   UNL     1     -11.979  15.339  68.623  1.00  0.00    -0.263 C  
HETATM    4  C   UNL     1      -6.782  15.292  68.455  1.00  0.00    -0.112 C  
HETATM    5  C   UNL     1     -11.892  15.733  70.088  1.00  0.00    -0.369 C  
HETATM    6  C   UNL     1      -7.021  14.837  69.864  1.00  0.00    -0.128 C  
HETATM    7  C   UNL     1      -5.979  16.595  68.628  1.00  0.00    -0.134 C  
HETATM    8  C   UNL     1      -8.184  14.960  70.502  1.00  0.00     1.386 C  
HETATM    9  C   UNL     1     -10.516  15.457  70.618  1.00  0.00    -0.055 C  
HETATM   10  C   UNL     1     -12.933  14.896  70.857  1.00  0.00    -0.436 C  
HETATM   11  C   UNL     1      -9.395  15.436  69.873  1.00  0.00    -0.003 C  
HETATM   12  C   UNL     1      -8.110  15.286  67.598  1.00  0.00    -0.173 C  
ENDROOT
BRANCH   2  13
HETATM   13  O   UNL     1     -10.822  14.861  66.575  1.00  0.00    -0.310 OA 
BRANCH  13  14
HETATM   14  C   UNL     1     -11.536  13.706  66.634  1.00  0.00    -0.364 C  
HETATM   15  O   UNL     1     -12.765  13.620  66.647  1.00  0.00    -0.209 OA 
BRANCH  14  16
HETATM   16  C   UNL     1     -10.629  12.479  66.732  1.00  0.00    -0.253 C  
HETATM   17  C   UNL     1      -9.466  12.685  67.718  1.00  0.00    -0.198 C  
HETATM   18  C   UNL     1     -11.556  11.351  67.210  1.00  0.00    -0.232 C  
BRANCH  16  19
HETATM   19  C   UNL     1     -10.069  12.185  65.316  1.00  0.00    -0.291 C  
HETATM   20  C   UNL     1     -11.052  12.476  64.188  1.00  0.00    -0.426 C  
ENDBRANCH  16  19
ENDBRANCH  14  16
ENDBRANCH  13  14
ENDBRANCH   2  13
BRANCH  12  21
HETATM   21  C   UNL     1      -7.931  15.809  66.109  1.00  0.00     0.441 C  
BRANCH  21  22
HETATM   22  C   UNL     1      -7.378  17.224  66.026  1.00  0.00    -0.225 C  
BRANCH  22  23
HETATM   23  C   UNL     1      -8.145  18.499  66.344  1.00  0.00    -0.273 C  
HETATM   24  C   UNL     1      -8.035  19.088  67.728  1.00  0.00    -0.292 C  
HETATM   25  C   UNL     1      -8.619  20.499  67.646  1.00  0.00    -0.165 C  
HETATM   26  O   UNL     1      -7.715  21.371  66.962  1.00  0.00    -0.772 OA 
HETATM   27  C   UNL     1     -10.001  20.523  67.003  1.00  0.00    -0.489 C  
HETATM   28  C   UNL     1     -10.181  19.560  65.850  1.00  0.00    -0.422 C  
HETATM   29  H   UNL     1      -8.078  22.248  66.911  1.00  0.00     0.000 HD 
HETATM   30  O   UNL     1     -10.969  19.767  64.936  1.00  0.00    -0.178 OA 
HETATM   31  O   UNL     1      -9.526  18.374  65.981  1.00  0.00    -0.498 OA 
ENDBRANCH  22  23
ENDBRANCH  21  22
ENDBRANCH  12  21
TORSDOF 7
ENDMDL
MODEL      210
REMARK 921   NORMALIZED FREE ENERGY PREDICTED BY IDOCK:   -3.18 KCAL/MOL
REMARK 922        TOTAL FREE ENERGY PREDICTED BY IDOCK:   -5.97 KCAL/MOL
REMARK 923 INTER-LIGAND FREE ENERGY PREDICTED BY IDOCK:   -5.17 KCAL/MOL
REMARK 924 INTRA-LIGAND FREE ENERGY PREDICTED BY IDOCK:   -0.80 KCAL/MOL
REMARK 927      BINDING AFFINITY PREDICTED BY RF-SCORE:    0.00 PKD
ROOT
HETATM    1  C   UNL     1      -8.666   8.128  67.142  1.00  0.00    -0.130 C  
HETATM    2  C   UNL     1      -9.047   7.077  66.029  1.00  0.00    -0.069 C  
HETATM    3  C   UNL     1      -9.253   5.604  66.430  1.00  0.00    -0.160 C  
HETATM    4  C   UNL     1      -7.118  10.075  68.012  1.00  0.00    -0.081 C  
HETATM    5  C   UNL     1      -9.680   5.342  67.865  1.00  0.00    -0.165 C  
HETATM    6  C   UNL     1      -6.897   9.215  69.220  1.00  0.00    -0.049 C  
HETATM    7  C   UNL     1      -8.000  11.221  68.541  1.00  0.00    -0.145 C  
HETATM    8  C   UNL     1      -7.519   8.057  69.439  1.00  0.00    -0.096 C  
HETATM    9  C   UNL     1      -8.914   6.227  68.803  1.00  0.00    -0.125 C  
HETATM   10  C   UNL     1      -9.385   3.862  68.175  1.00  0.00    -0.223 C  
HETATM   11  C   UNL     1      -8.395   7.426  68.478  1.00  0.00    -0.126 C  
HETATM   12  C   UNL     1      -7.584   9.228  66.761  1.00  0.00    -0.090 C  
ENDROOT
BRANCH   2  13
HETATM   13  O   UNL     1      -8.210   7.089  64.859  1.00  0.00    -0.132 OA 
BRANCH  13  14
HETATM   14  C   UNL     1      -7.129   6.266  64.816  1.00  0.00    -0.057 C  
HETATM   15  O   UNL     1      -6.306   6.114  65.720  1.00  0.00    -0.036 OA 
BRANCH  14  16
HETATM   16  C   UNL     1      -7.005   5.555  63.468  1.00  0.00    -0.042 C  
HETATM   17  C   UNL     1      -8.360   5.051  62.942  1.00  0.00    -0.110 C  
HETATM   18  C   UNL     1      -6.414   6.615  62.527  1.00  0.00    -0.039 C  
BRANCH  16  19
HETATM   19  C   UNL     1      -6.035   4.358  63.648  1.00  0.00    -0.018 C  
HETATM   20  C   UNL     1      -6.728   3.043  63.983  1.00  0.00    -0.035 C  
ENDBRANCH  16  19
ENDBRANCH  14  16
ENDBRANCH  13  14
ENDBRANCH   2  13
BRANCH  12  21
HETATM   21  C   UNL     1      -7.886  10.090  65.462  1.00  0.00    -0.134 C  
BRANCH  21  22
HETATM   22  C   UNL     1      -9.360  10.120  65.083  1.00  0.00    -0.290 C  
BRANCH  22  23
HETATM   23  C   UNL     1     -10.305  11.297  65.283  1.00  0.00    -0.280 C  
HETATM   24  C   UNL     1     -10.731  12.100  64.079  1.00  0.00    -0.432 C  
HETATM   25  C   UNL     1     -11.907  12.967  64.532  1.00  0.00    -0.377 C  
HETATM   26  O   UNL     1     -13.081  12.167  64.690  1.00  0.00    -0.673 OA 
HETATM   27  C   UNL     1     -11.598  13.753  65.802  1.00  0.00    -0.342 C  
HETATM   28  C   UNL     1     -10.770  13.006  66.824  1.00  0.00    -0.262 C  
HETATM   29  H   UNL     1     -13.812  12.706  64.971  1.00  0.00     0.000 HD 
HETATM   30  O   UNL     1     -10.844  13.234  68.025  1.00  0.00    -0.232 OA 
HETATM   31  O   UNL     1      -9.823  12.177  66.306  1.00  0.00    -0.224 OA 
ENDBRANCH  22  23
ENDBRANCH  21  22
ENDBRANCH  12  21
TORSDOF 7
ENDMDL
MODEL      211
REMARK 921   NORMALIZED FREE ENERGY PREDICTED BY IDOCK:   -3.12 KCAL/MOL
REMARK 922        TOTAL FREE ENERGY PREDICTED BY IDOCK:   -5.89 KCAL/MOL
REMARK 923 INTER-LIGAND FREE ENERGY PREDICTED BY IDOCK:   -4.47 KCAL/MOL
REMARK 924 INTRA-LIGAND FREE ENERGY PREDICTED BY IDOCK:   -1.42 KCAL/MOL
REMARK 927      BINDING AFFINITY PREDICTED BY RF-SCORE:    0.00 PKD
ROOT
HETATM    1  C   UNL     1      -9.939   7.771  68.651  1.00  0.00    -0.191 C  
HETATM    2  C   UNL     1     -10.097   6.249  69.035  1.00  0.00    -0.172 C  
HETATM    3  C   UNL     1     -10.952   5.871  70.258  1.00  0.00    -0.390 C  
HETATM    4  C   UNL     1      -8.408   9.826  68.037  1.00  0.00    -0.110 C  
HETATM    5  C   UNL     1     -12.052   6.845  70.648  1.00  0.00    -0.363 C  
HETATM    6  C   UNL     1      -9.075  10.529  69.181  1.00  0.00    -0.177 C  
HETATM    7  C   UNL     1      -8.984  10.529  66.794  1.00  0.00    -0.149 C  
HETATM    8  C   UNL     1     -10.081  10.016  69.890  1.00  0.00    -0.289 C  
HETATM    9  C   UNL     1     -11.555   8.256  70.544  1.00  0.00    -0.133 C  
HETATM   10  C   UNL     1     -12.458   6.532  72.101  1.00  0.00    -0.205 C  
HETATM   11  C   UNL     1     -10.571   8.667  69.723  1.00  0.00    -0.224 C  
HETATM   12  C   UNL     1      -8.502   8.253  68.173  1.00  0.00    -0.132 C  
ENDROOT
BRANCH   2  13
HETATM   13  O   UNL     1      -8.868   5.507  69.125  1.00  0.00    -0.102 OA 
BRANCH  13  14
HETATM   14  C   UNL     1      -8.255   5.396  70.334  1.00  0.00    -0.105 C  
HETATM   15  O   UNL     1      -8.058   6.319  71.126  1.00  0.00    -0.114 OA 
BRANCH  14  16
HETATM   16  C   UNL     1      -7.776   3.970  70.603  1.00  0.00    -0.048 C  
HETATM   17  C   UNL     1      -7.602   3.154  69.310  1.00  0.00    -0.047 C  
HETATM   18  C   UNL     1      -6.431   4.144  71.324  1.00  0.00    -0.019 C  
BRANCH  16  19
HETATM   19  C   UNL     1      -8.821   3.280  71.519  1.00  0.00    -0.133 C  
HETATM   20  C   UNL     1      -8.301   2.034  72.225  1.00  0.00    -0.054 C  
ENDBRANCH  16  19
ENDBRANCH  14  16
ENDBRANCH  13  14
ENDBRANCH   2  13
BRANCH  12  21
HETATM   21  C   UNL     1      -7.858   7.451  66.964  1.00  0.00    -0.116 C  
BRANCH  21  22
HETATM   22  C   UNL     1      -8.868   7.040  65.903  1.00  0.00    -0.126 C  
BRANCH  22  23
HETATM   23  C   UNL     1      -8.931   5.684  65.213  1.00  0.00    -0.028 C  
HETATM   24  C   UNL     1      -9.887   4.642  65.740  1.00  0.00    -0.227 C  
HETATM   25  C   UNL     1      -9.969   3.550  64.673  1.00  0.00    -0.153 C  
HETATM   26  O   UNL     1     -10.735   4.007  63.555  1.00  0.00    -0.392 OA 
HETATM   27  C   UNL     1      -8.594   3.056  64.235  1.00  0.00    -0.093 C  
HETATM   28  C   UNL     1      -7.535   4.131  64.139  1.00  0.00    -0.070 C  
HETATM   29  H   UNL     1     -10.787   3.328  62.892  1.00  0.00     0.000 HD 
HETATM   30  O   UNL     1      -6.584   4.052  63.371  1.00  0.00    -0.032 OA 
HETATM   31  O   UNL     1      -7.623   5.115  65.076  1.00  0.00    -0.078 OA 
ENDBRANCH  22  23
ENDBRANCH  21  22
ENDBRANCH  12  21
TORSDOF 7
ENDMDL
MODEL      212
REMARK 921   NORMALIZED FREE ENERGY PREDICTED BY IDOCK:   -3.11 KCAL/MOL
REMARK 922        TOTAL FREE ENERGY PREDICTED BY IDOCK:   -5.87 KCAL/MOL
REMARK 923 INTER-LIGAND FREE ENERGY PREDICTED BY IDOCK:   -4.38 KCAL/MOL
REMARK 924 INTRA-LIGAND FREE ENERGY PREDICTED BY IDOCK:   -1.50 KCAL/MOL
REMARK 927      BINDING AFFINITY PREDICTED BY RF-SCORE:    0.00 PKD
ROOT
HETATM    1  C   UNL     1      -9.453   5.743  71.539  1.00  0.00    -0.171 C  
HETATM    2  C   UNL     1      -8.814   4.683  70.562  1.00  0.00    -0.103 C  
HETATM    3  C   UNL     1      -7.704   3.754  71.090  1.00  0.00    -0.058 C  
HETATM    4  C   UNL     1     -10.184   8.221  72.060  1.00  0.00    -0.339 C  
HETATM    5  C   UNL     1      -7.705   3.471  72.583  1.00  0.00    -0.063 C  
HETATM    6  C   UNL     1      -9.330   8.102  73.286  1.00  0.00    -0.308 C  
HETATM    7  C   UNL     1     -11.619   8.216  72.618  1.00  0.00    -0.441 C  
HETATM    8  C   UNL     1      -8.717   6.980  73.666  1.00  0.00    -0.172 C  
HETATM    9  C   UNL     1      -7.994   4.728  73.348  1.00  0.00    -0.100 C  
HETATM   10  C   UNL     1      -6.310   2.934  72.955  1.00  0.00    -0.013 C  
HETATM   11  C   UNL     1      -8.700   5.771  72.874  1.00  0.00    -0.124 C  
HETATM   12  C   UNL     1      -9.763   7.184  70.943  1.00  0.00    -0.170 C  
ENDROOT
BRANCH   2  13
HETATM   13  O   UNL     1      -8.372   5.200  69.295  1.00  0.00    -0.086 OA 
BRANCH  13  14
HETATM   14  C   UNL     1      -7.072   5.032  68.934  1.00  0.00    -0.053 C  
HETATM   15  O   UNL     1      -6.572   3.986  68.519  1.00  0.00    -0.043 OA 
BRANCH  14  16
HETATM   16  C   UNL     1      -6.252   6.305  69.144  1.00  0.00    -0.033 C  
HETATM   17  C   UNL     1      -5.638   6.384  70.552  1.00  0.00    -0.018 C  
HETATM   18  C   UNL     1      -5.154   6.238  68.072  1.00  0.00    -0.004 C  
BRANCH  16  19
HETATM   19  C   UNL     1      -7.190   7.520  68.913  1.00  0.00    -0.082 C  
HETATM   20  C   UNL     1      -7.157   8.068  67.492  1.00  0.00    -0.080 C  
ENDBRANCH  16  19
ENDBRANCH  14  16
ENDBRANCH  13  14
ENDBRANCH   2  13
BRANCH  12  21
HETATM   21  C   UNL     1     -10.666   7.224  69.638  1.00  0.00    -0.249 C  
BRANCH  21  22
HETATM   22  C   UNL     1     -11.276   8.591  69.365  1.00  0.00     0.197 C  
BRANCH  22  23
HETATM   23  C   UNL     1     -10.576   9.756  68.679  1.00  0.00    -0.221 C  
HETATM   24  C   UNL     1     -10.772  11.148  69.228  1.00  0.00    -0.241 C  
HETATM   25  C   UNL     1      -9.710  12.027  68.567  1.00  0.00    -0.161 C  
HETATM   26  O   UNL     1      -8.421  11.751  69.122  1.00  0.00    -0.363 OA 
HETATM   27  C   UNL     1      -9.699  11.888  67.048  1.00  0.00    -0.204 C  
HETATM   28  C   UNL     1      -9.945  10.486  66.538  1.00  0.00    -0.214 C  
HETATM   29  H   UNL     1      -7.762  12.298  68.711  1.00  0.00     0.000 HD 
HETATM   30  O   UNL     1      -9.498  10.084  65.470  1.00  0.00    -0.198 OA 
HETATM   31  O   UNL     1     -10.829   9.752  67.269  1.00  0.00    -0.265 OA 
ENDBRANCH  22  23
ENDBRANCH  21  22
ENDBRANCH  12  21
TORSDOF 7
ENDMDL
MODEL      213
REMARK 921   NORMALIZED FREE ENERGY PREDICTED BY IDOCK:   -3.09 KCAL/MOL
REMARK 922        TOTAL FREE ENERGY PREDICTED BY IDOCK:   -5.85 KCAL/MOL
REMARK 923 INTER-LIGAND FREE ENERGY PREDICTED BY IDOCK:   -4.34 KCAL/MOL
REMARK 924 INTRA-LIGAND FREE ENERGY PREDICTED BY IDOCK:   -1.51 KCAL/MOL
REMARK 927      BINDING AFFINITY PREDICTED BY RF-SCORE:    0.00 PKD
ROOT
HETATM    1  C   UNL     1     -10.068   5.370  71.742  1.00  0.00    -0.251 C  
HETATM    2  C   UNL     1      -9.688   4.126  70.850  1.00  0.00    -0.189 C  
HETATM    3  C   UNL     1      -8.940   2.944  71.496  1.00  0.00    -0.148 C  
HETATM    4  C   UNL     1     -10.089   7.975  72.141  1.00  0.00    -0.298 C  
HETATM    5  C   UNL     1      -9.142   2.744  72.989  1.00  0.00    -0.104 C  
HETATM    6  C   UNL     1      -9.407   7.674  73.441  1.00  0.00    -0.324 C  
HETATM    7  C   UNL     1     -11.505   8.407  72.567  1.00  0.00    -0.422 C  
HETATM    8  C   UNL     1      -9.177   6.443  73.899  1.00  0.00    -0.154 C  
HETATM    9  C   UNL     1      -9.114   4.066  73.697  1.00  0.00    -0.095 C  
HETATM   10  C   UNL     1      -7.996   1.848  73.497  1.00  0.00    -0.042 C  
HETATM   11  C   UNL     1      -9.448   5.244  73.139  1.00  0.00    -0.151 C  
HETATM   12  C   UNL     1      -9.900   6.809  71.089  1.00  0.00    -0.188 C  
ENDROOT
BRANCH   2  13
HETATM   13  O   UNL     1      -9.016   4.435  69.617  1.00  0.00    -0.087 OA 
BRANCH  13  14
HETATM   14  C   UNL     1      -7.867   3.775  69.311  1.00  0.00    -0.052 C  
HETATM   15  O   UNL     1      -7.774   2.572  69.063  1.00  0.00    -0.046 OA 
BRANCH  14  16
HETATM   16  C   UNL     1      -6.649   4.699  69.353  1.00  0.00    -0.040 C  
HETATM   17  C   UNL     1      -5.492   4.188  68.477  1.00  0.00    -0.013 C  
HETATM   18  C   UNL     1      -7.171   6.047  68.835  1.00  0.00    -0.083 C  
BRANCH  16  19
HETATM   19  C   UNL     1      -6.181   4.805  70.828  1.00  0.00    -0.019 C  
HETATM   20  C   UNL     1      -6.280   6.210  71.411  1.00  0.00    -0.044 C  
ENDBRANCH  16  19
ENDBRANCH  14  16
ENDBRANCH  13  14
ENDBRANCH   2  13
BRANCH  12  21
HETATM   21  C   UNL     1     -10.645   7.045  69.707  1.00  0.00    -0.253 C  
BRANCH  21  22
HETATM   22  C   UNL     1     -10.910   8.512  69.404  1.00  0.00    -0.103 C  
BRANCH  22  23
HETATM   23  C   UNL     1      -9.972   9.448  68.654  1.00  0.00    -0.173 C  
HETATM   24  C   UNL     1     -10.360   9.914  67.272  1.00  0.00    -0.303 C  
HETATM   25  C   UNL     1      -9.423  11.072  66.927  1.00  0.00    -0.177 C  
HETATM   26  O   UNL     1      -9.788  12.242  67.665  1.00  0.00    -0.190 OA 
HETATM   27  C   UNL     1      -7.955  10.720  67.142  1.00  0.00    -0.124 C  
HETATM   28  C   UNL     1      -7.679   9.860  68.355  1.00  0.00    -0.084 C  
HETATM   29  H   UNL     1      -9.206  12.962  67.450  1.00  0.00     0.000 HD 
HETATM   30  O   UNL     1      -6.614   9.892  68.958  1.00  0.00    -0.051 OA 
HETATM   31  O   UNL     1      -8.636   8.931  68.633  1.00  0.00    -0.130 OA 
ENDBRANCH  22  23
ENDBRANCH  21  22
ENDBRANCH  12  21
TORSDOF 7
ENDMDL
MODEL      214
REMARK 921   NORMALIZED FREE ENERGY PREDICTED BY IDOCK:   -3.07 KCAL/MOL
REMARK 922        TOTAL FREE ENERGY PREDICTED BY IDOCK:   -5.82 KCAL/MOL
REMARK 923 INTER-LIGAND FREE ENERGY PREDICTED BY IDOCK:   -4.86 KCAL/MOL
REMARK 924 INTRA-LIGAND FREE ENERGY PREDICTED BY IDOCK:   -0.96 KCAL/MOL
REMARK 927      BINDING AFFINITY PREDICTED BY RF-SCORE:    0.00 PKD
ROOT
HETATM    1  C   UNL     1      -9.568  12.658  66.083  1.00  0.00    -0.222 C  
HETATM    2  C   UNL     1      -8.512  11.887  66.965  1.00  0.00    -0.177 C  
HETATM    3  C   UNL     1      -8.522  10.347  66.967  1.00  0.00    -0.127 C  
HETATM    4  C   UNL     1     -11.424  14.513  65.841  1.00  0.00    -0.345 C  
HETATM    5  C   UNL     1      -9.081   9.667  65.728  1.00  0.00    -0.230 C  
HETATM    6  C   UNL     1     -12.309  13.411  65.340  1.00  0.00    -0.522 C  
HETATM    7  C   UNL     1     -11.139  15.349  64.580  1.00  0.00    -0.361 C  
HETATM    8  C   UNL     1     -11.899  12.160  65.128  1.00  0.00    -0.356 C  
HETATM    9  C   UNL     1     -10.315  10.379  65.259  1.00  0.00    -0.267 C  
HETATM   10  C   UNL     1      -9.422   8.213  66.108  1.00  0.00    -0.217 C  
HETATM   11  C   UNL     1     -10.580  11.682  65.473  1.00  0.00    -0.329 C  
HETATM   12  C   UNL     1     -10.227  13.960  66.713  1.00  0.00    -0.268 C  
ENDROOT
BRANCH   2  13
HETATM   13  O   UNL     1      -8.423  12.316  68.335  1.00  0.00    -0.170 OA 
BRANCH  13  14
HETATM   14  C   UNL     1      -7.280  12.067  69.029  1.00  0.00    -0.053 C  
HETATM   15  O   UNL     1      -7.038  11.045  69.671  1.00  0.00    -0.133 OA 
BRANCH  14  16
HETATM   16  C   UNL     1      -6.308  13.246  68.968  1.00  0.00    -0.098 C  
HETATM   17  C   UNL     1      -6.970  14.576  69.364  1.00  0.00    -0.151 C  
HETATM   18  C   UNL     1      -5.192  12.876  69.955  1.00  0.00    -0.095 C  
BRANCH  16  19
HETATM   19  C   UNL     1      -5.767  13.343  67.517  1.00  0.00     0.000 C  
HETATM   20  C   UNL     1      -5.527  14.770  67.038  1.00  0.00     1.154 C  
ENDBRANCH  16  19
ENDBRANCH  14  16
ENDBRANCH  13  14
ENDBRANCH   2  13
BRANCH  12  21
HETATM   21  C   UNL     1      -9.223  15.076  67.231  1.00  0.00    -0.210 C  
BRANCH  21  22
HETATM   22  C   UNL     1      -9.920  16.293  67.821  1.00  0.00    -0.246 C  
BRANCH  22  23
HETATM   23  C   UNL     1      -9.843  17.712  67.276  1.00  0.00    -0.303 C  
HETATM   24  C   UNL     1      -9.601  18.848  68.238  1.00  0.00    -0.401 C  
HETATM   25  C   UNL     1      -9.244  20.068  67.387  1.00  0.00    -0.365 C  
HETATM   26  O   UNL     1      -7.919  19.936  66.863  1.00  0.00    -0.282 OA 
HETATM   27  C   UNL     1     -10.255  20.319  66.274  1.00  0.00    -0.447 C  
HETATM   28  C   UNL     1     -10.801  19.071  65.617  1.00  0.00    -0.090 C  
HETATM   29  H   UNL     1      -7.697  20.693  66.334  1.00  0.00     0.000 HD 
HETATM   30  O   UNL     1     -11.190  19.053  64.456  1.00  0.00     0.501 OA 
HETATM   31  O   UNL     1     -10.977  18.010  66.452  1.00  0.00    -0.048 OA 
ENDBRANCH  22  23
ENDBRANCH  21  22
ENDBRANCH  12  21
TORSDOF 7
ENDMDL
MODEL      215
REMARK 921   NORMALIZED FREE ENERGY PREDICTED BY IDOCK:   -3.03 KCAL/MOL
REMARK 922        TOTAL FREE ENERGY PREDICTED BY IDOCK:   -5.77 KCAL/MOL
REMARK 923 INTER-LIGAND FREE ENERGY PREDICTED BY IDOCK:   -7.77 KCAL/MOL
REMARK 924 INTRA-LIGAND FREE ENERGY PREDICTED BY IDOCK:    2.00 KCAL/MOL
REMARK 927      BINDING AFFINITY PREDICTED BY RF-SCORE:    0.00 PKD
ROOT
HETATM    1  C   UNL     1      -8.599  13.478  66.894  1.00  0.00    -0.114 C  
HETATM    2  C   UNL     1      -9.826  14.204  66.218  1.00  0.00    -0.306 C  
HETATM    3  C   UNL     1      -9.836  15.743  66.146  1.00  0.00    -0.341 C  
HETATM    4  C   UNL     1      -7.649  11.721  68.612  1.00  0.00    -0.125 C  
HETATM    5  C   UNL     1      -8.482  16.434  66.149  1.00  0.00    -0.329 C  
HETATM    6  C   UNL     1      -6.855  12.860  69.176  1.00  0.00    -0.054 C  
HETATM    7  C   UNL     1      -6.587  10.853  67.910  1.00  0.00    -0.063 C  
HETATM    8  C   UNL     1      -6.827  14.085  68.651  1.00  0.00    -0.103 C  
HETATM    9  C   UNL     1      -7.570  15.782  67.145  1.00  0.00    -0.259 C  
HETATM   10  C   UNL     1      -8.714  17.909  66.531  1.00  0.00    -0.278 C  
HETATM   11  C   UNL     1      -7.656  14.498  67.541  1.00  0.00    -0.211 C  
HETATM   12  C   UNL     1      -8.918  12.221  67.813  1.00  0.00    -0.177 C  
ENDROOT
BRANCH   2  13
HETATM   13  O   UNL     1     -11.121  13.789  66.684  1.00  0.00    -0.304 OA 
BRANCH  13  14
HETATM   14  C   UNL     1     -11.776  12.804  66.014  1.00  0.00    -0.418 C  
HETATM   15  O   UNL     1     -12.230  11.774  66.514  1.00  0.00    -0.348 OA 
BRANCH  14  16
HETATM   16  C   UNL     1     -11.856  13.090  64.514  1.00  0.00    -0.431 C  
HETATM   17  C   UNL     1     -12.870  12.183  63.795  1.00  0.00    -0.451 C  
HETATM   18  C   UNL     1     -12.281  14.563  64.424  1.00  0.00    -0.480 C  
BRANCH  16  19
HETATM   19  C   UNL     1     -10.442  12.874  63.911  1.00  0.00    -0.333 C  
HETATM   20  C   UNL     1     -10.218  11.479  63.339  1.00  0.00    -0.462 C  
ENDBRANCH  16  19
ENDBRANCH  14  16
ENDBRANCH  13  14
ENDBRANCH   2  13
BRANCH  12  21
HETATM   21  C   UNL     1      -9.772  11.061  67.146  1.00  0.00    -0.198 C  
BRANCH  21  22
HETATM   22  C   UNL     1      -8.939   9.857  66.729  1.00  0.00    -0.155 C  
BRANCH  22  23
HETATM   23  C   UNL     1      -9.272   8.401  67.025  1.00  0.00    -0.151 C  
HETATM   24  C   UNL     1     -10.211   8.086  68.162  1.00  0.00    -0.251 C  
HETATM   25  C   UNL     1     -10.608   6.618  68.002  1.00  0.00    -0.245 C  
HETATM   26  O   UNL     1     -11.522   6.468  66.912  1.00  0.00    -0.762 OA 
HETATM   27  C   UNL     1      -9.401   5.701  67.839  1.00  0.00    -0.112 C  
HETATM   28  C   UNL     1      -8.274   6.276  67.011  1.00  0.00    -0.109 C  
HETATM   29  H   UNL     1     -11.770   5.556  66.812  1.00  0.00     0.000 HD 
HETATM   30  O   UNL     1      -7.501   5.573  66.372  1.00  0.00    -0.084 OA 
HETATM   31  O   UNL     1      -8.080   7.616  67.150  1.00  0.00    -0.114 OA 
ENDBRANCH  22  23
ENDBRANCH  21  22
ENDBRANCH  12  21
TORSDOF 7
ENDMDL
MODEL      216
REMARK 921   NORMALIZED FREE ENERGY PREDICTED BY IDOCK:   -3.01 KCAL/MOL
REMARK 922        TOTAL FREE ENERGY PREDICTED BY IDOCK:   -5.74 KCAL/MOL
REMARK 923 INTER-LIGAND FREE ENERGY PREDICTED BY IDOCK:   -4.78 KCAL/MOL
REMARK 924 INTRA-LIGAND FREE ENERGY PREDICTED BY IDOCK:   -0.96 KCAL/MOL
REMARK 927      BINDING AFFINITY PREDICTED BY RF-SCORE:    0.00 PKD
ROOT
HETATM    1  C   UNL     1      -7.496   6.652  67.260  1.00  0.00    -0.092 C  
HETATM    2  C   UNL     1      -7.413   7.512  68.580  1.00  0.00    -0.101 C  
HETATM    3  C   UNL     1      -7.280   6.790  69.935  1.00  0.00    -0.080 C  
HETATM    4  C   UNL     1      -8.680   6.080  64.977  1.00  0.00     0.026 C  
HETATM    5  C   UNL     1      -6.640   5.413  69.913  1.00  0.00    -0.046 C  
HETATM    6  C   UNL     1      -8.771   4.677  65.498  1.00  0.00    -0.130 C  
HETATM    7  C   UNL     1      -7.616   5.986  63.868  1.00  0.00    -0.088 C  
HETATM    8  C   UNL     1      -8.231   4.269  66.647  1.00  0.00    -0.102 C  
HETATM    9  C   UNL     1      -7.146   4.624  68.743  1.00  0.00    -0.053 C  
HETATM   10  C   UNL     1      -7.015   4.704  71.230  1.00  0.00    -0.042 C  
HETATM   11  C   UNL     1      -7.598   5.159  67.593  1.00  0.00    -0.087 C  
HETATM   12  C   UNL     1      -8.518   7.135  66.143  1.00  0.00    -0.143 C  
ENDROOT
BRANCH   2  13
HETATM   13  O   UNL     1      -8.434   8.514  68.727  1.00  0.00    -0.121 OA 
BRANCH  13  14
HETATM   14  C   UNL     1      -9.026   8.676  69.940  1.00  0.00    -0.149 C  
HETATM   15  O   UNL     1      -8.482   9.120  70.952  1.00  0.00    -0.192 OA 
BRANCH  14  16
HETATM   16  C   UNL     1     -10.476   8.191  69.936  1.00  0.00    -0.226 C  
HETATM   17  C   UNL     1     -10.768   7.216  68.783  1.00  0.00    -0.199 C  
HETATM   18  C   UNL     1     -10.655   7.498  71.295  1.00  0.00    -0.230 C  
BRANCH  16  19
HETATM   19  C   UNL     1     -11.394   9.436  69.814  1.00  0.00    -0.071 C  
HETATM   20  C   UNL     1     -10.795  10.709  70.398  1.00  0.00    -0.061 C  
ENDBRANCH  16  19
ENDBRANCH  14  16
ENDBRANCH  13  14
ENDBRANCH   2  13
BRANCH  12  21
HETATM   21  C   UNL     1      -8.365   8.637  65.652  1.00  0.00    -0.151 C  
BRANCH  21  22
HETATM   22  C   UNL     1      -9.693   9.359  65.484  1.00  0.00    -0.300 C  
BRANCH  22  23
HETATM   23  C   UNL     1     -10.047  10.718  66.073  1.00  0.00    -0.249 C  
HETATM   24  C   UNL     1     -11.095  11.557  65.386  1.00  0.00    -0.250 C  
HETATM   25  C   UNL     1     -11.468  12.671  66.365  1.00  0.00    -0.356 C  
HETATM   26  O   UNL     1     -12.266  12.149  67.430  1.00  0.00    -0.486 OA 
HETATM   27  C   UNL     1     -10.246  13.409  66.902  1.00  0.00    -0.252 C  
HETATM   28  C   UNL     1      -9.044  12.533  67.174  1.00  0.00    -0.205 C  
HETATM   29  H   UNL     1     -12.498  12.841  68.039  1.00  0.00     0.000 HD 
HETATM   30  O   UNL     1      -8.206  12.807  68.025  1.00  0.00    -0.147 OA 
HETATM   31  O   UNL     1      -8.871  11.503  66.300  1.00  0.00    -0.194 OA 
ENDBRANCH  22  23
ENDBRANCH  21  22
ENDBRANCH  12  21
TORSDOF 7
ENDMDL
MODEL      217
REMARK 921   NORMALIZED FREE ENERGY PREDICTED BY IDOCK:   -2.99 KCAL/MOL
REMARK 922        TOTAL FREE ENERGY PREDICTED BY IDOCK:   -5.70 KCAL/MOL
REMARK 923 INTER-LIGAND FREE ENERGY PREDICTED BY IDOCK:   -4.48 KCAL/MOL
REMARK 924 INTRA-LIGAND FREE ENERGY PREDICTED BY IDOCK:   -1.22 KCAL/MOL
REMARK 927      BINDING AFFINITY PREDICTED BY RF-SCORE:    0.00 PKD
ROOT
HETATM    1  C   UNL     1      -9.333   4.901  68.434  1.00  0.00    -0.172 C  
HETATM    2  C   UNL     1      -8.968   6.233  69.196  1.00  0.00    -0.127 C  
HETATM    3  C   UNL     1      -9.420   7.581  68.603  1.00  0.00    -0.146 C  
HETATM    4  C   UNL     1      -8.608   2.586  67.404  1.00  0.00    -0.122 C  
HETATM    5  C   UNL     1     -10.653   7.556  67.715  1.00  0.00    -0.274 C  
HETATM    6  C   UNL     1      -9.209   3.087  66.126  1.00  0.00    -0.118 C  
HETATM    7  C   UNL     1      -9.595   1.499  67.866  1.00  0.00    -0.100 C  
HETATM    8  C   UNL     1      -9.864   4.242  66.009  1.00  0.00    -0.232 C  
HETATM    9  C   UNL     1     -10.612   6.365  66.805  1.00  0.00    -0.328 C  
HETATM   10  C   UNL     1     -10.656   8.855  66.886  1.00  0.00    -0.254 C  
HETATM   11  C   UNL     1      -9.970   5.213  67.075  1.00  0.00    -0.222 C  
HETATM   12  C   UNL     1      -8.219   3.769  68.379  1.00  0.00    -0.087 C  
ENDROOT
BRANCH   2  13
HETATM   13  O   UNL     1      -7.586   6.371  69.568  1.00  0.00    -0.090 OA 
BRANCH  13  14
HETATM   14  C   UNL     1      -7.280   6.664  70.860  1.00  0.00    -0.074 C  
HETATM   15  O   UNL     1      -7.508   5.945  71.834  1.00  0.00    -0.091 OA 
BRANCH  14  16
HETATM   16  C   UNL     1      -6.643   8.047  70.996  1.00  0.00    -0.038 C  
HETATM   17  C   UNL     1      -5.857   8.207  72.309  1.00  0.00    -0.045 C  
HETATM   18  C   UNL     1      -5.708   8.162  69.783  1.00  0.00    -0.026 C  
BRANCH  16  19
HETATM   19  C   UNL     1      -7.778   9.104  70.934  1.00  0.00    -0.152 C  
HETATM   20  C   UNL     1      -8.924   8.840  71.903  1.00  0.00    -0.254 C  
ENDBRANCH  16  19
ENDBRANCH  14  16
ENDBRANCH  13  14
ENDBRANCH   2  13
BRANCH  12  21
HETATM   21  C   UNL     1      -7.624   3.300  69.774  1.00  0.00    -0.044 C  
BRANCH  21  22
HETATM   22  C   UNL     1      -8.684   2.812  70.751  1.00  0.00    -0.130 C  
BRANCH  22  23
HETATM   23  C   UNL     1      -9.274   3.619  71.900  1.00  0.00    -0.116 C  
HETATM   24  C   UNL     1      -9.466   2.947  73.237  1.00  0.00    -0.120 C  
HETATM   25  C   UNL     1      -9.743   4.063  74.245  1.00  0.00    -0.120 C  
HETATM   26  O   UNL     1      -8.541   4.783  74.531  1.00  0.00    -0.105 OA 
HETATM   27  C   UNL     1     -10.854   5.003  73.786  1.00  0.00    -0.366 C  
HETATM   28  C   UNL     1     -10.859   5.303  72.304  1.00  0.00    -0.207 C  
HETATM   29  H   UNL     1      -8.713   5.476  75.158  1.00  0.00     0.000 HD 
HETATM   30  O   UNL     1     -11.299   6.350  71.846  1.00  0.00    -0.263 OA 
HETATM   31  O   UNL     1     -10.489   4.266  71.504  1.00  0.00    -0.053 OA 
ENDBRANCH  22  23
ENDBRANCH  21  22
ENDBRANCH  12  21
TORSDOF 7
ENDMDL
MODEL      218
REMARK 921   NORMALIZED FREE ENERGY PREDICTED BY IDOCK:   -2.94 KCAL/MOL
REMARK 922        TOTAL FREE ENERGY PREDICTED BY IDOCK:   -5.64 KCAL/MOL
REMARK 923 INTER-LIGAND FREE ENERGY PREDICTED BY IDOCK:   -4.97 KCAL/MOL
REMARK 924 INTRA-LIGAND FREE ENERGY PREDICTED BY IDOCK:   -0.67 KCAL/MOL
REMARK 927      BINDING AFFINITY PREDICTED BY RF-SCORE:    0.00 PKD
ROOT
HETATM    1  C   UNL     1      -7.148   6.074  66.549  1.00  0.00    -0.072 C  
HETATM    2  C   UNL     1      -7.789   6.245  67.981  1.00  0.00    -0.104 C  
HETATM    3  C   UNL     1      -7.867   5.024  68.915  1.00  0.00    -0.077 C  
HETATM    4  C   UNL     1      -7.268   6.406  63.938  1.00  0.00    -0.063 C  
HETATM    5  C   UNL     1      -6.830   3.933  68.699  1.00  0.00    -0.047 C  
HETATM    6  C   UNL     1      -7.046   4.926  63.847  1.00  0.00    -0.049 C  
HETATM    7  C   UNL     1      -5.937   7.003  63.444  1.00  0.00    -0.040 C  
HETATM    8  C   UNL     1      -6.802   4.140  64.895  1.00  0.00    -0.049 C  
HETATM    9  C   UNL     1      -6.636   3.686  67.233  1.00  0.00    -0.042 C  
HETATM   10  C   UNL     1      -7.350   2.655  69.387  1.00  0.00    -0.044 C  
HETATM   11  C   UNL     1      -6.845   4.599  66.265  1.00  0.00    -0.058 C  
HETATM   12  C   UNL     1      -7.855   6.831  65.343  1.00  0.00    -0.115 C  
ENDROOT
BRANCH   2  13
HETATM   13  O   UNL     1      -9.076   6.887  68.006  1.00  0.00    -0.122 OA 
BRANCH  13  14
HETATM   14  C   UNL     1      -9.186   8.115  68.579  1.00  0.00    -0.136 C  
HETATM   15  O   UNL     1      -8.338   9.007  68.534  1.00  0.00    -0.121 OA 
BRANCH  14  16
HETATM   16  C   UNL     1     -10.496   8.269  69.353  1.00  0.00    -0.224 C  
HETATM   17  C   UNL     1     -11.346   9.445  68.843  1.00  0.00     0.216 C  
HETATM   18  C   UNL     1     -11.227   6.935  69.142  1.00  0.00    -0.163 C  
BRANCH  16  19
HETATM   19  C   UNL     1     -10.144   8.487  70.848  1.00  0.00    -0.246 C  
HETATM   20  C   UNL     1     -10.310   7.243  71.713  1.00  0.00    -0.215 C  
ENDBRANCH  16  19
ENDBRANCH  14  16
ENDBRANCH  13  14
ENDBRANCH   2  13
BRANCH  12  21
HETATM   21  C   UNL     1      -8.064   8.395  65.521  1.00  0.00    -0.129 C  
BRANCH  21  22
HETATM   22  C   UNL     1      -8.887   9.027  64.408  1.00  0.00    -0.107 C  
BRANCH  22  23
HETATM   23  C   UNL     1      -9.716  10.298  64.529  1.00  0.00    -0.329 C  
HETATM   24  C   UNL     1      -9.602  11.346  63.450  1.00  0.00    -0.344 C  
HETATM   25  C   UNL     1     -10.767  12.314  63.662  1.00  0.00    -0.467 C  
HETATM   26  O   UNL     1     -11.996  11.708  63.251  1.00  0.00    -0.824 OA 
HETATM   27  C   UNL     1     -10.853  12.819  65.098  1.00  0.00    -0.318 C  
HETATM   28  C   UNL     1     -10.524  11.788  66.154  1.00  0.00    -0.245 C  
HETATM   29  H   UNL     1     -12.720  12.310  63.383  1.00  0.00     0.000 HD 
HETATM   30  O   UNL     1     -10.997  11.827  67.283  1.00  0.00    -0.237 OA 
HETATM   31  O   UNL     1      -9.544  10.906  65.814  1.00  0.00    -0.197 OA 
ENDBRANCH  22  23
ENDBRANCH  21  22
ENDBRANCH  12  21
TORSDOF 7
ENDMDL
MODEL      219
REMARK 921   NORMALIZED FREE ENERGY PREDICTED BY IDOCK:   -2.91 KCAL/MOL
REMARK 922        TOTAL FREE ENERGY PREDICTED BY IDOCK:   -5.60 KCAL/MOL
REMARK 923 INTER-LIGAND FREE ENERGY PREDICTED BY IDOCK:   -4.66 KCAL/MOL
REMARK 924 INTRA-LIGAND FREE ENERGY PREDICTED BY IDOCK:   -0.93 KCAL/MOL
REMARK 927      BINDING AFFINITY PREDICTED BY RF-SCORE:    0.00 PKD
ROOT
HETATM    1  C   UNL     1      -8.329   6.628  69.479  1.00  0.00    -0.131 C  
HETATM    2  C   UNL     1      -6.940   7.268  69.867  1.00  0.00    -0.057 C  
HETATM    3  C   UNL     1      -6.523   7.308  71.349  1.00  0.00    -0.036 C  
HETATM    4  C   UNL     1     -10.634   6.766  68.211  1.00  0.00    -0.276 C  
HETATM    5  C   UNL     1      -7.118   6.242  72.253  1.00  0.00    -0.083 C  
HETATM    6  C   UNL     1     -11.263   6.501  69.546  1.00  0.00    -0.434 C  
HETATM    7  C   UNL     1     -10.863   5.454  67.437  1.00  0.00    -0.024 C  
HETATM    8  C   UNL     1     -10.577   6.232  70.656  1.00  0.00    -0.301 C  
HETATM    9  C   UNL     1      -8.570   6.045  71.936  1.00  0.00    -0.137 C  
HETATM   10  C   UNL     1      -6.954   6.721  73.708  1.00  0.00    -0.075 C  
HETATM   11  C   UNL     1      -9.135   6.283  70.737  1.00  0.00    -0.150 C  
HETATM   12  C   UNL     1      -9.176   7.360  68.351  1.00  0.00    -0.138 C  
ENDROOT
BRANCH   2  13
HETATM   13  O   UNL     1      -6.689   8.573  69.316  1.00  0.00    -0.048 OA 
BRANCH  13  14
HETATM   14  C   UNL     1      -7.198   9.663  69.951  1.00  0.00    -0.106 C  
HETATM   15  O   UNL     1      -7.964   9.640  70.915  1.00  0.00    -0.307 OA 
BRANCH  14  16
HETATM   16  C   UNL     1      -6.743  10.968  69.297  1.00  0.00    -0.099 C  
HETATM   17  C   UNL     1      -5.982  11.882  70.274  1.00  0.00    -0.150 C  
HETATM   18  C   UNL     1      -5.832  10.524  68.143  1.00  0.00    -0.043 C  
BRANCH  16  19
HETATM   19  C   UNL     1      -8.004  11.702  68.769  1.00  0.00    -0.086 C  
HETATM   20  C   UNL     1      -7.798  13.192  68.526  1.00  0.00    -0.105 C  
ENDBRANCH  16  19
ENDBRANCH  14  16
ENDBRANCH  13  14
ENDBRANCH   2  13
BRANCH  12  21
HETATM   21  C   UNL     1      -8.435   7.613  66.970  1.00  0.00    -0.125 C  
BRANCH  21  22
HETATM   22  C   UNL     1      -9.366   8.077  65.859  1.00  0.00    -0.093 C  
BRANCH  22  23
HETATM   23  C   UNL     1      -9.218   9.360  65.053  1.00  0.00    -0.218 C  
HETATM   24  C   UNL     1     -10.394  10.301  64.961  1.00  0.00    -0.174 C  
HETATM   25  C   UNL     1      -9.853  11.615  64.395  1.00  0.00    -0.223 C  
HETATM   26  O   UNL     1      -9.093  12.307  65.389  1.00  0.00    -0.417 OA 
HETATM   27  C   UNL     1      -9.040  11.411  63.121  1.00  0.00    -0.168 C  
HETATM   28  C   UNL     1      -8.176  10.170  63.111  1.00  0.00    -0.160 C  
HETATM   29  H   UNL     1      -8.757  13.124  65.038  1.00  0.00     0.000 HD 
HETATM   30  O   UNL     1      -7.138  10.095  62.465  1.00  0.00    -0.124 OA 
HETATM   31  O   UNL     1      -8.712   9.088  63.741  1.00  0.00    -0.175 OA 
ENDBRANCH  22  23
ENDBRANCH  21  22
ENDBRANCH  12  21
TORSDOF 7
ENDMDL
MODEL      220
REMARK 921   NORMALIZED FREE ENERGY PREDICTED BY IDOCK:   -2.88 KCAL/MOL
REMARK 922        TOTAL FREE ENERGY PREDICTED BY IDOCK:   -5.55 KCAL/MOL
REMARK 923 INTER-LIGAND FREE ENERGY PREDICTED BY IDOCK:   -4.93 KCAL/MOL
REMARK 924 INTRA-LIGAND FREE ENERGY PREDICTED BY IDOCK:   -0.62 KCAL/MOL
REMARK 927      BINDING AFFINITY PREDICTED BY RF-SCORE:    0.00 PKD
ROOT
HETATM    1  C   UNL     1      -8.255  13.768  68.542  1.00  0.00    -0.124 C  
HETATM    2  C   UNL     1      -8.662  12.254  68.721  1.00  0.00     0.140 C  
HETATM    3  C   UNL     1      -7.558  11.207  68.960  1.00  0.00    -0.119 C  
HETATM    4  C   UNL     1      -8.390  16.026  67.190  1.00  0.00    -0.228 C  
HETATM    5  C   UNL     1      -6.275  11.705  69.604  1.00  0.00    -0.127 C  
HETATM    6  C   UNL     1      -6.893  15.966  67.147  1.00  0.00    -0.199 C  
HETATM    7  C   UNL     1      -8.678  17.181  68.167  1.00  0.00    -0.232 C  
HETATM    8  C   UNL     1      -6.163  15.044  67.774  1.00  0.00    -0.168 C  
HETATM    9  C   UNL     1      -5.877  13.025  69.015  1.00  0.00    -0.079 C  
HETATM   10  C   UNL     1      -5.180  10.654  69.334  1.00  0.00    -0.038 C  
HETATM   11  C   UNL     1      -6.730  13.914  68.473  1.00  0.00    -0.100 C  
HETATM   12  C   UNL     1      -9.033  14.602  67.435  1.00  0.00    -0.202 C  
ENDROOT
BRANCH   2  13
HETATM   13  O   UNL     1      -9.538  11.729  67.709  1.00  0.00    -0.175 OA 
BRANCH  13  14
HETATM   14  C   UNL     1      -9.758  10.388  67.662  1.00  0.00    -0.168 C  
HETATM   15  O   UNL     1     -10.518   9.758  68.399  1.00  0.00    -0.199 OA 
BRANCH  14  16
HETATM   16  C   UNL     1      -8.902   9.707  66.594  1.00  0.00    -0.153 C  
HETATM   17  C   UNL     1      -8.195   8.447  67.122  1.00  0.00    -0.108 C  
HETATM   18  C   UNL     1      -9.892   9.349  65.476  1.00  0.00    -0.231 C  
BRANCH  16  19
HETATM   19  C   UNL     1      -7.845  10.732  66.104  1.00  0.00    -0.155 C  
HETATM   20  C   UNL     1      -6.598  10.098  65.500  1.00  0.00    -0.118 C  
ENDBRANCH  16  19
ENDBRANCH  14  16
ENDBRANCH  13  14
ENDBRANCH   2  13
BRANCH  12  21
HETATM   21  C   UNL     1     -10.617  14.607  67.543  1.00  0.00    -0.257 C  
BRANCH  21  22
HETATM   22  C   UNL     1     -11.315  14.863  66.215  1.00  0.00    -0.306 C  
BRANCH  22  23
HETATM   23  C   UNL     1     -11.508  13.843  65.102  1.00  0.00    -0.321 C  
HETATM   24  C   UNL     1     -12.760  13.000  65.097  1.00  0.00    -0.461 C  
HETATM   25  C   UNL     1     -12.830  12.338  63.720  1.00  0.00    -0.308 C  
HETATM   26  O   UNL     1     -13.206  13.297  62.728  1.00  0.00     0.547 OA 
HETATM   27  C   UNL     1     -11.531  11.634  63.343  1.00  0.00    -0.360 C  
HETATM   28  C   UNL     1     -10.272  12.351  63.775  1.00  0.00    -0.377 C  
HETATM   29  H   UNL     1     -13.250  12.886  61.872  1.00  0.00     0.000 HD 
HETATM   30  O   UNL     1      -9.211  12.241  63.172  1.00  0.00     0.009 OA 
HETATM   31  O   UNL     1     -10.357  13.000  64.969  1.00  0.00    -0.307 OA 
ENDBRANCH  22  23
ENDBRANCH  21  22
ENDBRANCH  12  21
TORSDOF 7
ENDMDL
MODEL      221
REMARK 921   NORMALIZED FREE ENERGY PREDICTED BY IDOCK:   -2.88 KCAL/MOL
REMARK 922        TOTAL FREE ENERGY PREDICTED BY IDOCK:   -5.55 KCAL/MOL
REMARK 923 INTER-LIGAND FREE ENERGY PREDICTED BY IDOCK:   -5.27 KCAL/MOL
REMARK 924 INTRA-LIGAND FREE ENERGY PREDICTED BY IDOCK:   -0.28 KCAL/MOL
REMARK 927      BINDING AFFINITY PREDICTED BY RF-SCORE:    0.00 PKD
ROOT
HETATM    1  C   UNL     1      -8.109  12.338  66.861  1.00  0.00    -0.090 C  
HETATM    2  C   UNL     1      -9.579  12.735  67.274  1.00  0.00    -0.208 C  
HETATM    3  C   UNL     1      -9.814  14.070  68.007  1.00  0.00    -0.228 C  
HETATM    4  C   UNL     1      -6.145  10.582  66.817  1.00  0.00    -0.068 C  
HETATM    5  C   UNL     1      -8.796  15.171  67.761  1.00  0.00    -0.171 C  
HETATM    6  C   UNL     1      -5.316  11.652  67.461  1.00  0.00    -0.068 C  
HETATM    7  C   UNL     1      -5.577  10.497  65.388  1.00  0.00    -0.132 C  
HETATM    8  C   UNL     1      -5.741  12.896  67.683  1.00  0.00    -0.130 C  
HETATM    9  C   UNL     1      -7.408  14.602  67.762  1.00  0.00    -0.188 C  
HETATM   10  C   UNL     1      -8.945  16.203  68.895  1.00  0.00    -0.247 C  
HETATM   11  C   UNL     1      -7.097  13.333  67.440  1.00  0.00    -0.111 C  
HETATM   12  C   UNL     1      -7.692  10.815  67.043  1.00  0.00    -0.121 C  
ENDROOT
BRANCH   2  13
HETATM   13  O   UNL     1     -10.315  11.722  67.981  1.00  0.00    -0.187 OA 
BRANCH  13  14
HETATM   14  C   UNL     1     -11.569  12.009  68.422  1.00  0.00    -0.311 C  
HETATM   15  O   UNL     1     -12.401  12.694  67.826  1.00  0.00    -0.250 OA 
BRANCH  14  16
HETATM   16  C   UNL     1     -11.838  11.414  69.805  1.00  0.00    -0.435 C  
HETATM   17  C   UNL     1     -12.983  10.387  69.791  1.00  0.00     0.417 C  
HETATM   18  C   UNL     1     -10.512  10.749  70.203  1.00  0.00     0.163 C  
BRANCH  16  19
HETATM   19  C   UNL     1     -12.193  12.580  70.765  1.00  0.00    -0.332 C  
HETATM   20  C   UNL     1     -13.162  12.195  71.877  1.00  0.00    -0.474 C  
ENDBRANCH  16  19
ENDBRANCH  14  16
ENDBRANCH  13  14
ENDBRANCH   2  13
BRANCH  12  21
HETATM   21  C   UNL     1      -8.626   9.742  66.339  1.00  0.00    -0.132 C  
BRANCH  21  22
HETATM   22  C   UNL     1      -9.791   9.289  67.207  1.00  0.00    -0.236 C  
BRANCH  22  23
HETATM   23  C   UNL     1     -10.117   7.848  67.576  1.00  0.00    -0.213 C  
HETATM   24  C   UNL     1      -9.636   7.310  68.901  1.00  0.00    -0.143 C  
HETATM   25  C   UNL     1     -10.383   5.996  69.131  1.00  0.00    -0.229 C  
HETATM   26  O   UNL     1     -11.747   6.254  69.479  1.00  0.00    -0.544 OA 
HETATM   27  C   UNL     1     -10.288   5.053  67.936  1.00  0.00    -0.101 C  
HETATM   28  C   UNL     1     -10.347   5.731  66.586  1.00  0.00    -0.243 C  
HETATM   29  H   UNL     1     -12.211   5.438  69.622  1.00  0.00     0.000 HD 
HETATM   30  O   UNL     1     -10.778   5.171  65.585  1.00  0.00    -0.078 OA 
HETATM   31  O   UNL     1      -9.742   6.950  66.525  1.00  0.00    -0.175 OA 
ENDBRANCH  22  23
ENDBRANCH  21  22
ENDBRANCH  12  21
TORSDOF 7
ENDMDL
MODEL      222
REMARK 921   NORMALIZED FREE ENERGY PREDICTED BY IDOCK:   -2.87 KCAL/MOL
REMARK 922        TOTAL FREE ENERGY PREDICTED BY IDOCK:   -5.53 KCAL/MOL
REMARK 923 INTER-LIGAND FREE ENERGY PREDICTED BY IDOCK:   -5.31 KCAL/MOL
REMARK 924 INTRA-LIGAND FREE ENERGY PREDICTED BY IDOCK:   -0.22 KCAL/MOL
REMARK 927      BINDING AFFINITY PREDICTED BY RF-SCORE:    0.00 PKD
ROOT
HETATM    1  C   UNL     1      -9.481  13.145  67.460  1.00  0.00    -0.212 C  
HETATM    2  C   UNL     1     -10.979  13.640  67.434  1.00  0.00    -0.276 C  
HETATM    3  C   UNL     1     -11.291  15.046  66.887  1.00  0.00    -0.302 C  
HETATM    4  C   UNL     1      -7.448  12.084  68.758  1.00  0.00    -0.086 C  
HETATM    5  C   UNL     1     -10.310  15.618  65.877  1.00  0.00    -0.368 C  
HETATM    6  C   UNL     1      -6.685  13.306  68.347  1.00  0.00    -0.096 C  
HETATM    7  C   UNL     1      -6.830  10.965  67.898  1.00  0.00    -0.068 C  
HETATM    8  C   UNL     1      -7.166  14.253  67.541  1.00  0.00    -0.197 C  
HETATM    9  C   UNL     1      -8.902  15.324  66.300  1.00  0.00    -0.262 C  
HETATM   10  C   UNL     1     -10.538  17.141  65.818  1.00  0.00    -0.201 C  
HETATM   11  C   UNL     1      -8.529  14.279  67.062  1.00  0.00    -0.190 C  
HETATM   12  C   UNL     1      -9.010  12.327  68.739  1.00  0.00     0.132 C  
ENDROOT
BRANCH   2  13
HETATM   13  O   UNL     1     -11.698  13.493  68.671  1.00  0.00    -0.308 OA 
BRANCH  13  14
HETATM   14  C   UNL     1     -12.148  14.607  69.306  1.00  0.00    -0.272 C  
HETATM   15  O   UNL     1     -12.408  15.685  68.768  1.00  0.00    -0.107 OA 
BRANCH  14  16
HETATM   16  C   UNL     1     -12.260  14.398  70.816  1.00  0.00    -0.413 C  
HETATM   17  C   UNL     1     -13.568  14.966  71.393  1.00  0.00    -0.515 C  
HETATM   18  C   UNL     1     -12.198  12.874  71.000  1.00  0.00    -0.211 C  
BRANCH  16  19
HETATM   19  C   UNL     1     -11.047  15.096  71.486  1.00  0.00    -0.218 C  
HETATM   20  C   UNL     1      -9.880  15.352  70.540  1.00  0.00     0.497 C  
ENDBRANCH  16  19
ENDBRANCH  14  16
ENDBRANCH  13  14
ENDBRANCH   2  13
BRANCH  12  21
HETATM   21  C   UNL     1      -9.877  11.051  69.115  1.00  0.00    -0.117 C  
BRANCH  21  22
HETATM   22  C   UNL     1     -10.432  10.316  67.904  1.00  0.00    -0.253 C  
BRANCH  22  23
HETATM   23  C   UNL     1      -9.677   9.301  67.056  1.00  0.00    -0.185 C  
HETATM   24  C   UNL     1      -9.605   9.510  65.564  1.00  0.00    -0.349 C  
HETATM   25  C   UNL     1      -8.531   8.553  65.045  1.00  0.00    -0.164 C  
HETATM   26  O   UNL     1      -7.229   9.030  65.398  1.00  0.00    -0.083 OA 
HETATM   27  C   UNL     1      -8.742   7.121  65.525  1.00  0.00    -0.042 C  
HETATM   28  C   UNL     1      -9.246   6.996  66.946  1.00  0.00    -0.150 C  
HETATM   29  H   UNL     1      -6.562   8.436  65.076  1.00  0.00     0.000 HD 
HETATM   30  O   UNL     1      -9.006   6.020  67.646  1.00  0.00    -0.114 OA 
HETATM   31  O   UNL     1     -10.116   7.967  67.338  1.00  0.00    -0.185 OA 
ENDBRANCH  22  23
ENDBRANCH  21  22
ENDBRANCH  12  21
TORSDOF 7
ENDMDL
MODEL      223
REMARK 921   NORMALIZED FREE ENERGY PREDICTED BY IDOCK:   -2.84 KCAL/MOL
REMARK 922        TOTAL FREE ENERGY PREDICTED BY IDOCK:   -5.49 KCAL/MOL
REMARK 923 INTER-LIGAND FREE ENERGY PREDICTED BY IDOCK:   -4.51 KCAL/MOL
REMARK 924 INTRA-LIGAND FREE ENERGY PREDICTED BY IDOCK:   -0.98 KCAL/MOL
REMARK 927      BINDING AFFINITY PREDICTED BY RF-SCORE:    0.00 PKD
ROOT
HETATM    1  C   UNL     1      -7.434   6.101  66.871  1.00  0.00    -0.087 C  
HETATM    2  C   UNL     1      -7.694   6.082  68.426  1.00  0.00    -0.099 C  
HETATM    3  C   UNL     1      -7.986   4.738  69.119  1.00  0.00    -0.071 C  
HETATM    4  C   UNL     1      -7.940   7.090  64.482  1.00  0.00    -0.104 C  
HETATM    5  C   UNL     1      -7.428   3.492  68.452  1.00  0.00    -0.053 C  
HETATM    6  C   UNL     1      -8.238   5.678  64.076  1.00  0.00    -0.102 C  
HETATM    7  C   UNL     1      -6.609   7.397  63.771  1.00  0.00    -0.052 C  
HETATM    8  C   UNL     1      -8.068   4.621  64.870  1.00  0.00    -0.102 C  
HETATM    9  C   UNL     1      -7.613   3.573  66.966  1.00  0.00    -0.079 C  
HETATM   10  C   UNL     1      -8.195   2.279  69.015  1.00  0.00    -0.071 C  
HETATM   11  C   UNL     1      -7.693   4.718  66.262  1.00  0.00    -0.091 C  
HETATM   12  C   UNL     1      -8.072   7.299  66.043  1.00  0.00    -0.121 C  
ENDROOT
BRANCH   2  13
HETATM   13  O   UNL     1      -8.668   7.028  68.899  1.00  0.00    -0.131 OA 
BRANCH  13  14
HETATM   14  C   UNL     1      -8.901   7.119  70.236  1.00  0.00    -0.148 C  
HETATM   15  O   UNL     1      -8.048   7.032  71.121  1.00  0.00    -0.103 OA 
BRANCH  14  16
HETATM   16  C   UNL     1     -10.387   7.303  70.546  1.00  0.00    -0.215 C  
HETATM   17  C   UNL     1     -10.969   8.575  69.906  1.00  0.00    -0.165 C  
HETATM   18  C   UNL     1     -11.058   6.047  69.972  1.00  0.00    -0.451 C  
BRANCH  16  19
HETATM   19  C   UNL     1     -10.547   7.373  72.087  1.00  0.00    -0.256 C  
HETATM   20  C   UNL     1     -10.764   6.017  72.750  1.00  0.00    -0.269 C  
ENDBRANCH  16  19
ENDBRANCH  14  16
ENDBRANCH  13  14
ENDBRANCH   2  13
BRANCH  12  21
HETATM   21  C   UNL     1      -7.718   8.764  66.542  1.00  0.00    -0.099 C  
BRANCH  21  22
HETATM   22  C   UNL     1      -8.720   9.817  66.091  1.00  0.00    -0.150 C  
BRANCH  22  23
HETATM   23  C   UNL     1      -8.847  11.223  66.660  1.00  0.00    -0.175 C  
HETATM   24  C   UNL     1      -9.749  12.211  65.962  1.00  0.00    -0.258 C  
HETATM   25  C   UNL     1      -9.932  13.385  66.925  1.00  0.00    -0.252 C  
HETATM   26  O   UNL     1     -10.801  13.014  68.000  1.00  0.00    -0.229 OA 
HETATM   27  C   UNL     1      -8.605  13.923  67.449  1.00  0.00    -0.206 C  
HETATM   28  C   UNL     1      -7.559  12.868  67.732  1.00  0.00    -0.141 C  
HETATM   29  H   UNL     1     -10.915  13.743  68.598  1.00  0.00     0.000 HD 
HETATM   30  O   UNL     1      -6.685  13.016  68.577  1.00  0.00    -0.078 OA 
HETATM   31  O   UNL     1      -7.558  11.811  66.873  1.00  0.00    -0.152 OA 
ENDBRANCH  22  23
ENDBRANCH  21  22
ENDBRANCH  12  21
TORSDOF 7
ENDMDL
MODEL      224
REMARK 921   NORMALIZED FREE ENERGY PREDICTED BY IDOCK:   -2.75 KCAL/MOL
REMARK 922        TOTAL FREE ENERGY PREDICTED BY IDOCK:   -5.37 KCAL/MOL
REMARK 923 INTER-LIGAND FREE ENERGY PREDICTED BY IDOCK:   -4.81 KCAL/MOL
REMARK 924 INTRA-LIGAND FREE ENERGY PREDICTED BY IDOCK:   -0.56 KCAL/MOL
REMARK 927      BINDING AFFINITY PREDICTED BY RF-SCORE:    0.00 PKD
ROOT
HETATM    1  C   UNL     1     -10.269  16.181  67.496  1.00  0.00    -0.267 C  
HETATM    2  C   UNL     1      -9.188  16.869  68.415  1.00  0.00    -0.253 C  
HETATM    3  C   UNL     1      -8.933  18.381  68.265  1.00  0.00    -0.330 C  
HETATM    4  C   UNL     1     -10.965  14.257  65.835  1.00  0.00    -0.304 C  
HETATM    5  C   UNL     1     -10.084  19.217  67.732  1.00  0.00    -0.469 C  
HETATM    6  C   UNL     1     -11.348  15.355  64.890  1.00  0.00    -0.367 C  
HETATM    7  C   UNL     1     -12.319  13.673  66.279  1.00  0.00    -0.464 C  
HETATM    8  C   UNL     1     -11.316  16.652  65.198  1.00  0.00     0.171 C  
HETATM    9  C   UNL     1     -10.763  18.502  66.602  1.00  0.00    -0.278 C  
HETATM   10  C   UNL     1      -9.498  20.553  67.236  1.00  0.00    -0.559 C  
HETATM   11  C   UNL     1     -10.790  17.166  66.442  1.00  0.00     0.058 C  
HETATM   12  C   UNL     1      -9.919  14.743  66.916  1.00  0.00    -0.246 C  
ENDROOT
BRANCH   2  13
HETATM   13  O   UNL     1      -7.906  16.220  68.450  1.00  0.00    -0.155 OA 
BRANCH  13  14
HETATM   14  C   UNL     1      -7.299  16.029  69.652  1.00  0.00    -0.039 C  
HETATM   15  O   UNL     1      -7.741  15.350  70.580  1.00  0.00     0.567 OA 
BRANCH  14  16
HETATM   16  C   UNL     1      -5.986  16.805  69.758  1.00  0.00    -0.226 C  
HETATM   17  C   UNL     1      -6.207  18.323  69.870  1.00  0.00    -0.114 C  
HETATM   18  C   UNL     1      -5.314  16.255  71.025  1.00  0.00    -0.031 C  
BRANCH  16  19
HETATM   19  C   UNL     1      -5.143  16.491  68.493  1.00  0.00    -0.105 C  
HETATM   20  C   UNL     1      -5.519  15.184  67.806  1.00  0.00    -0.087 C  
ENDBRANCH  16  19
ENDBRANCH  14  16
ENDBRANCH  13  14
ENDBRANCH   2  13
BRANCH  12  21
HETATM   21  C   UNL     1      -9.512  13.637  67.980  1.00  0.00    -0.209 C  
BRANCH  21  22
HETATM   22  C   UNL     1      -8.356  12.757  67.529  1.00  0.00    -0.179 C  
BRANCH  22  23
HETATM   23  C   UNL     1      -8.178  11.282  67.862  1.00  0.00    -0.123 C  
HETATM   24  C   UNL     1      -6.841  10.809  68.377  1.00  0.00    -0.068 C  
HETATM   25  C   UNL     1      -7.065   9.400  68.929  1.00  0.00    -0.068 C  
HETATM   26  O   UNL     1      -7.771   9.460  70.171  1.00  0.00    -0.099 OA 
HETATM   27  C   UNL     1      -7.775   8.489  67.933  1.00  0.00    -0.103 C  
HETATM   28  C   UNL     1      -8.854   9.161  67.115  1.00  0.00    -0.119 C  
HETATM   29  H   UNL     1      -7.910   8.585  70.514  1.00  0.00     0.000 HD 
HETATM   30  O   UNL     1      -9.820   8.553  66.671  1.00  0.00    -0.226 OA 
HETATM   31  O   UNL     1      -8.597  10.454  66.771  1.00  0.00    -0.123 OA 
ENDBRANCH  22  23
ENDBRANCH  21  22
ENDBRANCH  12  21
TORSDOF 7
ENDMDL
MODEL      225
REMARK 921   NORMALIZED FREE ENERGY PREDICTED BY IDOCK:   -2.67 KCAL/MOL
REMARK 922        TOTAL FREE ENERGY PREDICTED BY IDOCK:   -5.25 KCAL/MOL
REMARK 923 INTER-LIGAND FREE ENERGY PREDICTED BY IDOCK:   -3.91 KCAL/MOL
REMARK 924 INTRA-LIGAND FREE ENERGY PREDICTED BY IDOCK:   -1.35 KCAL/MOL
REMARK 927      BINDING AFFINITY PREDICTED BY RF-SCORE:    0.00 PKD
ROOT
HETATM    1  C   UNL     1      -8.298   8.478  68.768  1.00  0.00    -0.122 C  
HETATM    2  C   UNL     1      -7.347   8.189  67.543  1.00  0.00    -0.093 C  
HETATM    3  C   UNL     1      -7.800   8.607  66.131  1.00  0.00    -0.098 C  
HETATM    4  C   UNL     1      -9.550   7.650  70.934  1.00  0.00    -0.167 C  
HETATM    5  C   UNL     1      -8.778   9.767  66.045  1.00  0.00    -0.156 C  
HETATM    6  C   UNL     1     -10.799   8.155  70.276  1.00  0.00    -0.244 C  
HETATM    7  C   UNL     1      -9.308   8.659  72.072  1.00  0.00    -0.362 C  
HETATM    8  C   UNL     1     -10.820   8.811  69.116  1.00  0.00    -0.074 C  
HETATM    9  C   UNL     1      -9.825   9.642  67.111  1.00  0.00    -0.238 C  
HETATM   10  C   UNL     1      -9.434   9.719  64.651  1.00  0.00    -0.295 C  
HETATM   11  C   UNL     1      -9.653   9.011  68.288  1.00  0.00    -0.158 C  
HETATM   12  C   UNL     1      -8.407   7.351  69.883  1.00  0.00    -0.134 C  
ENDROOT
BRANCH   2  13
HETATM   13  O   UNL     1      -6.852   6.842  67.452  1.00  0.00    -0.067 OA 
BRANCH  13  14
HETATM   14  C   UNL     1      -6.661   6.293  66.223  1.00  0.00    -0.056 C  
HETATM   15  O   UNL     1      -5.910   6.731  65.350  1.00  0.00    -0.033 OA 
BRANCH  14  16
HETATM   16  C   UNL     1      -7.538   5.060  66.005  1.00  0.00    -0.087 C  
HETATM   17  C   UNL     1      -6.754   3.878  65.410  1.00  0.00    -0.052 C  
HETATM   18  C   UNL     1      -8.070   4.713  67.404  1.00  0.00    -0.101 C  
BRANCH  16  19
HETATM   19  C   UNL     1      -8.691   5.458  65.047  1.00  0.00    -0.116 C  
HETATM   20  C   UNL     1      -9.127   4.343  64.104  1.00  0.00    -0.149 C  
ENDBRANCH  16  19
ENDBRANCH  14  16
ENDBRANCH  13  14
ENDBRANCH   2  13
BRANCH  12  21
HETATM   21  C   UNL     1      -7.039   6.863  70.525  1.00  0.00    -0.067 C  
BRANCH  21  22
HETATM   22  C   UNL     1      -7.007   5.371  70.823  1.00  0.00    -0.056 C  
BRANCH  22  23
HETATM   23  C   UNL     1      -8.197   4.525  71.254  1.00  0.00    -0.095 C  
HETATM   24  C   UNL     1      -8.541   4.446  72.721  1.00  0.00    -0.109 C  
HETATM   25  C   UNL     1      -9.936   3.827  72.806  1.00  0.00    -0.153 C  
HETATM   26  O   UNL     1     -10.926   4.775  72.398  1.00  0.00    -0.157 OA 
HETATM   27  C   UNL     1     -10.050   2.532  72.007  1.00  0.00    -0.195 C  
HETATM   28  C   UNL     1      -9.298   2.528  70.695  1.00  0.00    -0.142 C  
HETATM   29  H   UNL     1     -11.793   4.391  72.452  1.00  0.00     0.000 HD 
HETATM   30  O   UNL     1      -9.649   1.851  69.737  1.00  0.00    -0.084 OA 
HETATM   31  O   UNL     1      -8.117   3.205  70.704  1.00  0.00    -0.049 OA 
ENDBRANCH  22  23
ENDBRANCH  21  22
ENDBRANCH  12  21
TORSDOF 7
ENDMDL
MODEL      226
REMARK 921   NORMALIZED FREE ENERGY PREDICTED BY IDOCK:   -2.48 KCAL/MOL
REMARK 922        TOTAL FREE ENERGY PREDICTED BY IDOCK:   -4.99 KCAL/MOL
REMARK 923 INTER-LIGAND FREE ENERGY PREDICTED BY IDOCK:   -4.38 KCAL/MOL
REMARK 924 INTRA-LIGAND FREE ENERGY PREDICTED BY IDOCK:   -0.60 KCAL/MOL
REMARK 927      BINDING AFFINITY PREDICTED BY RF-SCORE:    0.00 PKD
ROOT
HETATM    1  C   UNL     1      -9.691   8.310  68.187  1.00  0.00    -0.178 C  
HETATM    2  C   UNL     1      -9.867   8.944  69.621  1.00  0.00    -0.180 C  
HETATM    3  C   UNL     1     -10.502  10.341  69.748  1.00  0.00    -0.300 C  
HETATM    4  C   UNL     1      -8.179   7.131  66.380  1.00  0.00    -0.120 C  
HETATM    5  C   UNL     1     -11.450  10.762  68.637  1.00  0.00    -0.365 C  
HETATM    6  C   UNL     1      -8.579   8.252  65.469  1.00  0.00    -0.183 C  
HETATM    7  C   UNL     1      -8.932   5.915  65.809  1.00  0.00    -0.131 C  
HETATM    8  C   UNL     1      -9.465   9.196  65.787  1.00  0.00    -0.322 C  
HETATM    9  C   UNL     1     -10.896  10.359  67.304  1.00  0.00    -0.324 C  
HETATM   10  C   UNL     1     -11.597  12.295  68.708  1.00  0.00    -0.380 C  
HETATM   11  C   UNL     1     -10.059   9.325  67.099  1.00  0.00    -0.299 C  
HETATM   12  C   UNL     1      -8.341   7.521  67.904  1.00  0.00    -0.123 C  
ENDROOT
BRANCH   2  13
HETATM   13  O   UNL     1      -8.690   8.932  70.448  1.00  0.00    -0.147 OA 
BRANCH  13  14
HETATM   14  C   UNL     1      -8.709   8.221  71.607  1.00  0.00    -0.163 C  
HETATM   15  O   UNL     1      -9.719   7.822  72.188  1.00  0.00    -0.168 OA 
BRANCH  14  16
HETATM   16  C   UNL     1      -7.302   7.998  72.163  1.00  0.00    -0.102 C  
HETATM   17  C   UNL     1      -6.778   6.579  71.885  1.00  0.00    -0.063 C  
HETATM   18  C   UNL     1      -6.436   9.049  71.453  1.00  0.00    -0.079 C  
BRANCH  16  19
HETATM   19  C   UNL     1      -7.349   8.248  73.693  1.00  0.00    -0.174 C  
HETATM   20  C   UNL     1      -6.208   7.594  74.464  1.00  0.00    -0.089 C  
ENDBRANCH  16  19
ENDBRANCH  14  16
ENDBRANCH  13  14
ENDBRANCH   2  13
BRANCH  12  21
HETATM   21  C   UNL     1      -7.982   6.355  68.920  1.00  0.00    -0.110 C  
BRANCH  21  22
HETATM   22  C   UNL     1      -6.789   5.517  68.485  1.00  0.00    -0.059 C  
BRANCH  22  23
HETATM   23  C   UNL     1      -6.858   4.151  67.817  1.00  0.00    -0.051 C  
HETATM   24  C   UNL     1      -6.242   2.966  68.518  1.00  0.00    -0.029 C  
HETATM   25  C   UNL     1      -6.753   1.720  67.792  1.00  0.00    -0.032 C  
HETATM   26  O   UNL     1      -8.125   1.483  68.120  1.00  0.00    -0.056 OA 
HETATM   27  C   UNL     1      -6.553   1.801  66.282  1.00  0.00    -0.027 C  
HETATM   28  C   UNL     1      -6.778   3.171  65.684  1.00  0.00    -0.040 C  
HETATM   29  H   UNL     1      -8.442   0.709  67.670  1.00  0.00     0.000 HD 
HETATM   30  O   UNL     1      -7.151   3.333  64.529  1.00  0.00    -0.054 OA 
HETATM   31  O   UNL     1      -6.385   4.214  66.466  1.00  0.00    -0.035 OA 
ENDBRANCH  22  23
ENDBRANCH  21  22
ENDBRANCH  12  21
TORSDOF 7
ENDMDL
MODEL      227
REMARK 921   NORMALIZED FREE ENERGY PREDICTED BY IDOCK:   -2.25 KCAL/MOL
REMARK 922        TOTAL FREE ENERGY PREDICTED BY IDOCK:   -4.67 KCAL/MOL
REMARK 923 INTER-LIGAND FREE ENERGY PREDICTED BY IDOCK:   -3.65 KCAL/MOL
REMARK 924 INTRA-LIGAND FREE ENERGY PREDICTED BY IDOCK:   -1.02 KCAL/MOL
REMARK 927      BINDING AFFINITY PREDICTED BY RF-SCORE:    0.00 PKD
ROOT
HETATM    1  C   UNL     1      -8.341   7.960  68.128  1.00  0.00    -0.124 C  
HETATM    2  C   UNL     1      -6.943   7.682  67.451  1.00  0.00    -0.084 C  
HETATM    3  C   UNL     1      -6.856   7.621  65.914  1.00  0.00    -0.057 C  
HETATM    4  C   UNL     1     -10.190   7.325  69.894  1.00  0.00    -0.210 C  
HETATM    5  C   UNL     1      -7.905   8.403  65.141  1.00  0.00    -0.118 C  
HETATM    6  C   UNL     1     -11.137   7.289  68.732  1.00  0.00     0.048 C  
HETATM    7  C   UNL     1     -10.609   8.592  70.662  1.00  0.00    -0.241 C  
HETATM    8  C   UNL     1     -10.806   7.631  67.486  1.00  0.00    -0.205 C  
HETATM    9  C   UNL     1      -9.252   8.231  65.777  1.00  0.00    -0.142 C  
HETATM   10  C   UNL     1      -7.926   7.855  63.701  1.00  0.00    -0.118 C  
HETATM   11  C   UNL     1      -9.459   7.960  67.079  1.00  0.00    -0.222 C  
HETATM   12  C   UNL     1      -8.688   7.133  69.440  1.00  0.00    -0.134 C  
ENDROOT
BRANCH   2  13
HETATM   13  O   UNL     1      -6.225   6.547  67.966  1.00  0.00    -0.029 OA 
BRANCH  13  14
HETATM   14  C   UNL     1      -5.817   5.580  67.101  1.00  0.00    -0.018 C  
HETATM   15  O   UNL     1      -5.155   5.763  66.079  1.00  0.00    -0.008 OA 
BRANCH  14  16
HETATM   16  C   UNL     1      -6.321   4.197  67.514  1.00  0.00    -0.037 C  
HETATM   17  C   UNL     1      -7.828   4.187  67.823  1.00  0.00    -0.086 C  
HETATM   18  C   UNL     1      -6.004   3.297  66.310  1.00  0.00    -0.024 C  
BRANCH  16  19
HETATM   19  C   UNL     1      -5.526   3.756  68.771  1.00  0.00    -0.013 C  
HETATM   20  C   UNL     1      -6.402   3.275  69.922  1.00  0.00    -0.028 C  
ENDBRANCH  16  19
ENDBRANCH  14  16
ENDBRANCH  13  14
ENDBRANCH   2  13
BRANCH  12  21
HETATM   21  C   UNL     1      -7.631   7.213  70.621  1.00  0.00    -0.092 C  
BRANCH  21  22
HETATM   22  C   UNL     1      -7.673   6.013  71.556  1.00  0.00    -0.101 C  
BRANCH  22  23
HETATM   23  C   UNL     1      -8.794   5.686  72.533  1.00  0.00    -0.130 C  
HETATM   24  C   UNL     1      -8.743   6.274  73.921  1.00  0.00    -0.128 C  
HETATM   25  C   UNL     1     -10.127   6.056  74.535  1.00  0.00    -0.314 C  
HETATM   26  O   UNL     1     -11.076   6.952  73.950  1.00  0.00    -0.434 OA 
HETATM   27  C   UNL     1     -10.594   4.608  74.423  1.00  0.00    -0.293 C  
HETATM   28  C   UNL     1     -10.221   3.919  73.129  1.00  0.00    -0.156 C  
HETATM   29  H   UNL     1     -11.936   6.816  74.332  1.00  0.00     0.000 HD 
HETATM   30  O   UNL     1     -10.887   3.009  72.652  1.00  0.00    -0.042 OA 
HETATM   31  O   UNL     1      -9.011   4.273  72.614  1.00  0.00    -0.109 OA 
ENDBRANCH  22  23
ENDBRANCH  21  22
ENDBRANCH  12  21
TORSDOF 7
ENDMDL
MODEL      228
REMARK 921   NORMALIZED FREE ENERGY PREDICTED BY IDOCK:   -2.04 KCAL/MOL
REMARK 922        TOTAL FREE ENERGY PREDICTED BY IDOCK:   -4.37 KCAL/MOL
REMARK 923 INTER-LIGAND FREE ENERGY PREDICTED BY IDOCK:   -5.32 KCAL/MOL
REMARK 924 INTRA-LIGAND FREE ENERGY PREDICTED BY IDOCK:    0.95 KCAL/MOL
REMARK 927      BINDING AFFINITY PREDICTED BY RF-SCORE:    0.00 PKD
ROOT
HETATM    1  C   UNL     1     -10.311   7.950  68.448  1.00  0.00    -0.235 C  
HETATM    2  C   UNL     1     -10.538   6.587  69.209  1.00  0.00    -0.247 C  
HETATM    3  C   UNL     1     -11.185   6.611  70.607  1.00  0.00    -0.370 C  
HETATM    4  C   UNL     1      -8.733   9.590  67.121  1.00  0.00    -0.137 C  
HETATM    5  C   UNL     1     -12.097   7.786  70.916  1.00  0.00    -0.199 C  
HETATM    6  C   UNL     1      -9.108  10.614  68.149  1.00  0.00    -0.148 C  
HETATM    7  C   UNL     1      -9.459  10.071  65.851  1.00  0.00    -0.260 C  
HETATM    8  C   UNL     1     -10.010  10.413  69.111  1.00  0.00    -0.237 C  
HETATM    9  C   UNL     1     -11.497   9.058  70.396  1.00  0.00    -0.202 C  
HETATM   10  C   UNL     1     -12.255   7.862  72.447  1.00  0.00    -0.295 C  
HETATM   11  C   UNL     1     -10.647   9.139  69.355  1.00  0.00    -0.232 C  
HETATM   12  C   UNL     1      -8.948   8.115  67.647  1.00  0.00    -0.135 C  
ENDROOT
BRANCH   2  13
HETATM   13  O   UNL     1      -9.389   5.725  69.283  1.00  0.00    -0.122 OA 
BRANCH  13  14
HETATM   14  C   UNL     1      -8.376   6.052  70.129  1.00  0.00    -0.120 C  
HETATM   15  O   UNL     1      -7.543   6.940  69.942  1.00  0.00    -0.094 OA 
BRANCH  14  16
HETATM   16  C   UNL     1      -8.343   5.144  71.359  1.00  0.00    -0.119 C  
HETATM   17  C   UNL     1      -9.381   4.012  71.282  1.00  0.00    -0.212 C  
HETATM   18  C   UNL     1      -6.916   4.576  71.380  1.00  0.00    -0.042 C  
BRANCH  16  19
HETATM   19  C   UNL     1      -8.618   6.023  72.607  1.00  0.00    -0.118 C  
HETATM   20  C   UNL     1      -8.754   7.510  72.301  1.00  0.00    -0.148 C  
ENDBRANCH  16  19
ENDBRANCH  14  16
ENDBRANCH  13  14
ENDBRANCH   2  13
BRANCH  12  21
HETATM   21  C   UNL     1      -8.616   6.984  66.583  1.00  0.00    -0.124 C  
BRANCH  21  22
HETATM   22  C   UNL     1      -9.801   6.084  66.266  1.00  0.00    -0.102 C  
BRANCH  22  23
HETATM   23  C   UNL     1      -9.721   4.617  65.865  1.00  0.00    -0.200 C  
HETATM   24  C   UNL     1      -8.471   3.840  66.195  1.00  0.00    -0.110 C  
HETATM   25  C   UNL     1      -8.811   2.364  65.984  1.00  0.00    -0.125 C  
HETATM   26  O   UNL     1      -9.651   1.892  67.042  1.00  0.00    -0.379 OA 
HETATM   27  C   UNL     1      -9.441   2.098  64.620  1.00  0.00    -0.093 C  
HETATM   28  C   UNL     1     -10.393   3.171  64.141  1.00  0.00    -0.123 C  
HETATM   29  H   UNL     1      -9.862   0.975  66.911  1.00  0.00     0.000 HD 
HETATM   30  O   UNL     1     -11.326   2.933  63.384  1.00  0.00    -0.268 OA 
HETATM   31  O   UNL     1     -10.047   4.444  64.481  1.00  0.00    -0.119 OA 
ENDBRANCH  22  23
ENDBRANCH  21  22
ENDBRANCH  12  21
TORSDOF 7
ENDMDL
MODEL      229
REMARK 921   NORMALIZED FREE ENERGY PREDICTED BY IDOCK:   -1.99 KCAL/MOL
REMARK 922        TOTAL FREE ENERGY PREDICTED BY IDOCK:   -4.30 KCAL/MOL
REMARK 923 INTER-LIGAND FREE ENERGY PREDICTED BY IDOCK:   -3.07 KCAL/MOL
REMARK 924 INTRA-LIGAND FREE ENERGY PREDICTED BY IDOCK:   -1.23 KCAL/MOL
REMARK 927      BINDING AFFINITY PREDICTED BY RF-SCORE:    0.00 PKD
ROOT
HETATM    1  C   UNL     1      -8.351  13.800  68.502  1.00  0.00    -0.120 C  
HETATM    2  C   UNL     1      -8.684  12.283  68.775  1.00  0.00     0.140 C  
HETATM    3  C   UNL     1      -7.533  11.311  69.097  1.00  0.00    -0.084 C  
HETATM    4  C   UNL     1      -8.577  15.955  67.003  1.00  0.00    -0.245 C  
HETATM    5  C   UNL     1      -6.288  11.915  69.725  1.00  0.00    -0.118 C  
HETATM    6  C   UNL     1      -7.079  15.970  66.984  1.00  0.00    -0.233 C  
HETATM    7  C   UNL     1      -8.940  17.155  67.897  1.00  0.00    -0.230 C  
HETATM    8  C   UNL     1      -6.313  15.130  67.681  1.00  0.00    -0.164 C  
HETATM    9  C   UNL     1      -5.947  13.213  69.055  1.00  0.00    -0.084 C  
HETATM   10  C   UNL     1      -5.138  10.906  69.540  1.00  0.00    -0.038 C  
HETATM   11  C   UNL     1      -6.835  14.020  68.445  1.00  0.00    -0.099 C  
HETATM   12  C   UNL     1      -9.151  14.519  67.332  1.00  0.00    -0.201 C  
ENDROOT
BRANCH   2  13
HETATM   13  O   UNL     1      -9.516  11.648  67.788  1.00  0.00    -0.170 OA 
BRANCH  13  14
HETATM   14  C   UNL     1      -9.527  10.291  67.713  1.00  0.00    -0.148 C  
HETATM   15  O   UNL     1      -8.567   9.581  67.408  1.00  0.00    -0.125 OA 
BRANCH  14  16
HETATM   16  C   UNL     1     -10.911   9.713  68.010  1.00  0.00    -0.250 C  
HETATM   17  C   UNL     1     -11.269   8.538  67.084  1.00  0.00     0.823 C  
HETATM   18  C   UNL     1     -10.829   9.251  69.472  1.00  0.00    -0.211 C  
BRANCH  16  19
HETATM   19  C   UNL     1     -11.950  10.852  67.837  1.00  0.00     0.238 C  
HETATM   20  C   UNL     1     -12.486  11.408  69.150  1.00  0.00     0.107 C  
ENDBRANCH  16  19
ENDBRANCH  14  16
ENDBRANCH  13  14
ENDBRANCH   2  13
BRANCH  12  21
HETATM   21  C   UNL     1     -10.735  14.450  67.418  1.00  0.00    -0.280 C  
BRANCH  21  22
HETATM   22  C   UNL     1     -11.418  14.476  66.059  1.00  0.00    -0.348 C  
BRANCH  22  23
HETATM   23  C   UNL     1     -11.385  13.359  65.026  1.00  0.00    -0.312 C  
HETATM   24  C   UNL     1     -10.240  13.309  64.044  1.00  0.00     0.091 C  
HETATM   25  C   UNL     1     -10.298  11.932  63.382  1.00  0.00    -0.444 C  
HETATM   26  O   UNL     1      -9.852  10.924  64.293  1.00  0.00    -0.254 OA 
HETATM   27  C   UNL     1     -11.684  11.605  62.833  1.00  0.00     0.330 C  
HETATM   28  C   UNL     1     -12.834  12.082  63.690  1.00  0.00    -0.346 C  
HETATM   29  H   UNL     1      -9.888  10.068  63.881  1.00  0.00     0.000 HD 
HETATM   30  O   UNL     1     -13.922  11.520  63.705  1.00  0.00     0.320 OA 
HETATM   31  O   UNL     1     -12.630  13.271  64.322  1.00  0.00    -0.617 OA 
ENDBRANCH  22  23
ENDBRANCH  21  22
ENDBRANCH  12  21
TORSDOF 7
ENDMDL
MODEL      230
REMARK 921   NORMALIZED FREE ENERGY PREDICTED BY IDOCK:   -1.94 KCAL/MOL
REMARK 922        TOTAL FREE ENERGY PREDICTED BY IDOCK:   -4.23 KCAL/MOL
REMARK 923 INTER-LIGAND FREE ENERGY PREDICTED BY IDOCK:   -6.38 KCAL/MOL
REMARK 924 INTRA-LIGAND FREE ENERGY PREDICTED BY IDOCK:    2.15 KCAL/MOL
REMARK 927      BINDING AFFINITY PREDICTED BY RF-SCORE:    0.00 PKD
ROOT
HETATM    1  C   UNL     1      -8.463  15.579  67.893  1.00  0.00    -0.146 C  
HETATM    2  C   UNL     1      -8.638  14.083  68.364  1.00  0.00    -0.174 C  
HETATM    3  C   UNL     1      -7.458  13.376  69.059  1.00  0.00     0.064 C  
HETATM    4  C   UNL     1      -8.661  17.421  66.019  1.00  0.00    -0.108 C  
HETATM    5  C   UNL     1      -6.463  14.265  69.786  1.00  0.00    -0.142 C  
HETATM    6  C   UNL     1      -7.207  17.683  66.272  1.00  0.00    -0.342 C  
HETATM    7  C   UNL     1      -9.359  18.662  66.606  1.00  0.00    -0.318 C  
HETATM    8  C   UNL     1      -6.496  17.094  67.235  1.00  0.00    -0.188 C  
HETATM    9  C   UNL     1      -6.169  15.488  68.970  1.00  0.00    -0.111 C  
HETATM   10  C   UNL     1      -5.175  13.446  69.996  1.00  0.00    -0.090 C  
HETATM   11  C   UNL     1      -7.011  16.037  68.075  1.00  0.00    -0.138 C  
HETATM   12  C   UNL     1      -9.092  15.974  66.488  1.00  0.00    -0.319 C  
ENDROOT
BRANCH   2  13
HETATM   13  O   UNL     1      -9.154  13.181  67.371  1.00  0.00    -0.190 OA 
BRANCH  13  14
HETATM   14  C   UNL     1     -10.194  12.369  67.698  1.00  0.00    -0.207 C  
HETATM   15  O   UNL     1     -10.360  11.217  67.296  1.00  0.00    -0.193 OA 
BRANCH  14  16
HETATM   16  C   UNL     1     -11.198  13.069  68.613  1.00  0.00    -0.316 C  
HETATM   17  C   UNL     1     -12.426  13.592  67.849  1.00  0.00     0.259 C  
HETATM   18  C   UNL     1     -11.607  11.994  69.632  1.00  0.00    -0.371 C  
BRANCH  16  19
HETATM   19  C   UNL     1     -10.470  14.252  69.305  1.00  0.00    -0.112 C  
HETATM   20  C   UNL     1     -11.245  14.865  70.465  1.00  0.00    -0.243 C  
ENDBRANCH  16  19
ENDBRANCH  14  16
ENDBRANCH  13  14
ENDBRANCH   2  13
BRANCH  12  21
HETATM   21  C   UNL     1     -10.635  15.655  66.294  1.00  0.00    -0.310 C  
BRANCH  21  22
HETATM   22  C   UNL     1     -11.011  15.329  64.856  1.00  0.00    -0.445 C  
BRANCH  22  23
HETATM   23  C   UNL     1     -11.240  13.934  64.291  1.00  0.00    -0.262 C  
HETATM   24  C   UNL     1     -12.411  13.128  64.794  1.00  0.00    -0.460 C  
HETATM   25  C   UNL     1     -12.575  11.953  63.829  1.00  0.00    -0.396 C  
HETATM   26  O   UNL     1     -13.132  12.403  62.591  1.00  0.00    -0.105 OA 
HETATM   27  C   UNL     1     -11.270  11.196  63.604  1.00  0.00    -0.034 C  
HETATM   28  C   UNL     1     -10.035  12.065  63.536  1.00  0.00    -0.368 C  
HETATM   29  H   UNL     1     -13.235  11.673  61.991  1.00  0.00     0.000 HD 
HETATM   30  O   UNL     1      -9.040  11.748  62.896  1.00  0.00    -0.278 OA 
HETATM   31  O   UNL     1     -10.044  13.148  64.362  1.00  0.00    -0.334 OA 
ENDBRANCH  22  23
ENDBRANCH  21  22
ENDBRANCH  12  21
TORSDOF 7
ENDMDL
MODEL      231
REMARK 921   NORMALIZED FREE ENERGY PREDICTED BY IDOCK:   -1.91 KCAL/MOL
REMARK 922        TOTAL FREE ENERGY PREDICTED BY IDOCK:   -4.18 KCAL/MOL
REMARK 923 INTER-LIGAND FREE ENERGY PREDICTED BY IDOCK:   -3.75 KCAL/MOL
REMARK 924 INTRA-LIGAND FREE ENERGY PREDICTED BY IDOCK:   -0.43 KCAL/MOL
REMARK 927      BINDING AFFINITY PREDICTED BY RF-SCORE:    0.00 PKD
ROOT
HETATM    1  C   UNL     1     -10.809  14.343  66.866  1.00  0.00    -0.301 C  
HETATM    2  C   UNL     1     -10.152  13.400  67.947  1.00  0.00    -0.238 C  
HETATM    3  C   UNL     1     -10.114  13.861  69.417  1.00  0.00     0.313 C  
HETATM    4  C   UNL     1     -10.693  15.582  64.544  1.00  0.00    -0.012 C  
HETATM    5  C   UNL     1     -11.192  14.840  69.852  1.00  0.00    -0.293 C  
HETATM    6  C   UNL     1     -10.972  16.835  65.319  1.00  0.00    -0.084 C  
HETATM    7  C   UNL     1     -12.005  15.334  63.775  1.00  0.00     0.390 C  
HETATM    8  C   UNL     1     -11.237  16.864  66.625  1.00  0.00     0.499 C  
HETATM    9  C   UNL     1     -11.405  15.880  68.793  1.00  0.00    -0.378 C  
HETATM   10  C   UNL     1     -10.716  15.505  71.159  1.00  0.00     0.007 C  
HETATM   11  C   UNL     1     -11.168  15.701  67.480  1.00  0.00    -0.245 C  
HETATM   12  C   UNL     1     -10.082  14.445  65.457  1.00  0.00    -0.382 C  
ENDROOT
BRANCH   2  13
HETATM   13  O   UNL     1      -8.842  12.906  67.619  1.00  0.00    -0.166 OA 
BRANCH  13  14
HETATM   14  C   UNL     1      -7.763  13.699  67.854  1.00  0.00    -0.157 C  
HETATM   15  O   UNL     1      -7.631  14.863  67.474  1.00  0.00    -0.163 OA 
BRANCH  14  16
HETATM   16  C   UNL     1      -6.670  12.961  68.626  1.00  0.00    -0.095 C  
HETATM   17  C   UNL     1      -7.135  11.586  69.136  1.00  0.00    -0.105 C  
HETATM   18  C   UNL     1      -5.521  12.809  67.618  1.00  0.00    -0.121 C  
BRANCH  16  19
HETATM   19  C   UNL     1      -6.251  13.849  69.827  1.00  0.00    -0.136 C  
HETATM   20  C   UNL     1      -5.402  15.055  69.441  1.00  0.00    -0.091 C  
ENDBRANCH  16  19
ENDBRANCH  14  16
ENDBRANCH  13  14
ENDBRANCH   2  13
BRANCH  12  21
HETATM   21  C   UNL     1      -9.814  13.074  64.704  1.00  0.00    -0.028 C  
BRANCH  21  22
HETATM   22  C   UNL     1     -10.724  11.943  65.160  1.00  0.00    -0.339 C  
BRANCH  22  23
HETATM   23  C   UNL     1     -10.291  10.720  65.956  1.00  0.00    -0.238 C  
HETATM   24  C   UNL     1      -9.889   9.471  65.211  1.00  0.00    -0.179 C  
HETATM   25  C   UNL     1      -9.201   8.562  66.230  1.00  0.00    -0.207 C  
HETATM   26  O   UNL     1      -7.898   9.063  66.542  1.00  0.00    -0.098 OA 
HETATM   27  C   UNL     1     -10.034   8.365  67.493  1.00  0.00    -0.259 C  
HETATM   28  C   UNL     1     -10.781   9.594  67.958  1.00  0.00    -0.232 C  
HETATM   29  H   UNL     1      -7.471   8.497  67.175  1.00  0.00     0.000 HD 
HETATM   30  O   UNL     1     -11.064   9.788  69.134  1.00  0.00    -0.204 OA 
HETATM   31  O   UNL     1     -11.257  10.392  66.963  1.00  0.00    -0.207 OA 
ENDBRANCH  22  23
ENDBRANCH  21  22
ENDBRANCH  12  21
TORSDOF 7
ENDMDL
MODEL      232
REMARK 921   NORMALIZED FREE ENERGY PREDICTED BY IDOCK:   -1.73 KCAL/MOL
REMARK 922        TOTAL FREE ENERGY PREDICTED BY IDOCK:   -3.94 KCAL/MOL
REMARK 923 INTER-LIGAND FREE ENERGY PREDICTED BY IDOCK:   -4.42 KCAL/MOL
REMARK 924 INTRA-LIGAND FREE ENERGY PREDICTED BY IDOCK:    0.48 KCAL/MOL
REMARK 927      BINDING AFFINITY PREDICTED BY RF-SCORE:    0.00 PKD
ROOT
HETATM    1  C   UNL     1      -7.710  16.042  67.657  1.00  0.00    -0.165 C  
HETATM    2  C   UNL     1      -8.265  17.495  67.395  1.00  0.00    -0.207 C  
HETATM    3  C   UNL     1      -7.440  18.465  66.527  1.00  0.00    -0.265 C  
HETATM    4  C   UNL     1      -7.105  14.094  69.325  1.00  0.00    -0.079 C  
HETATM    5  C   UNL     1      -6.506  17.839  65.505  1.00  0.00    -0.039 C  
HETATM    6  C   UNL     1      -5.733  14.147  68.723  1.00  0.00    -0.082 C  
HETATM    7  C   UNL     1      -7.685  12.773  68.788  1.00  0.00     0.007 C  
HETATM    8  C   UNL     1      -5.399  14.922  67.691  1.00  0.00     0.042 C  
HETATM    9  C   UNL     1      -5.803  16.656  66.102  1.00  0.00     0.891 C  
HETATM   10  C   UNL     1      -5.480  18.913  65.094  1.00  0.00    -0.231 C  
HETATM   11  C   UNL     1      -6.287  15.899  67.103  1.00  0.00    -0.059 C  
HETATM   12  C   UNL     1      -7.895  15.448  69.120  1.00  0.00    -0.212 C  
ENDROOT
BRANCH   2  13
HETATM   13  O   UNL     1      -8.680  18.217  68.567  1.00  0.00    -0.298 OA 
BRANCH  13  14
HETATM   14  C   UNL     1      -8.314  19.519  68.701  1.00  0.00    -0.329 C  
HETATM   15  O   UNL     1      -8.964  20.491  68.315  1.00  0.00     0.063 OA 
BRANCH  14  16
HETATM   16  C   UNL     1      -6.943  19.661  69.362  1.00  0.00    -0.355 C  
HETATM   17  C   UNL     1      -6.185  18.325  69.439  1.00  0.00    -0.261 C  
HETATM   18  C   UNL     1      -6.190  20.665  68.476  1.00  0.00    -0.355 C  
BRANCH  16  19
HETATM   19  C   UNL     1      -7.159  20.223  70.792  1.00  0.00     0.693 C  
HETATM   20  C   UNL     1      -5.887  20.293  71.629  1.00  0.00    -0.336 C  
ENDBRANCH  16  19
ENDBRANCH  14  16
ENDBRANCH  13  14
ENDBRANCH   2  13
BRANCH  12  21
HETATM   21  C   UNL     1      -9.376  15.437  69.691  1.00  0.00    -0.208 C  
BRANCH  21  22
HETATM   22  C   UNL     1     -10.303  14.483  68.952  1.00  0.00    -0.237 C  
BRANCH  22  23
HETATM   23  C   UNL     1     -10.439  14.367  67.440  1.00  0.00    -0.261 C  
HETATM   24  C   UNL     1     -11.558  15.108  66.751  1.00  0.00    -0.136 C  
HETATM   25  C   UNL     1     -11.240  15.078  65.256  1.00  0.00    -0.367 C  
HETATM   26  O   UNL     1     -10.166  15.974  64.958  1.00  0.00    -0.513 OA 
HETATM   27  C   UNL     1     -10.940  13.670  64.750  1.00  0.00    -0.384 C  
HETATM   28  C   UNL     1     -10.152  12.807  65.709  1.00  0.00    -0.286 C  
HETATM   29  H   UNL     1      -9.969  15.956  64.029  1.00  0.00     0.000 HD 
HETATM   30  O   UNL     1      -9.415  11.904  65.330  1.00  0.00    -0.207 OA 
HETATM   31  O   UNL     1     -10.440  12.996  67.027  1.00  0.00    -0.245 OA 
ENDBRANCH  22  23
ENDBRANCH  21  22
ENDBRANCH  12  21
TORSDOF 7
ENDMDL
MODEL      233
REMARK 921   NORMALIZED FREE ENERGY PREDICTED BY IDOCK:    1.41 KCAL/MOL
REMARK 922        TOTAL FREE ENERGY PREDICTED BY IDOCK:    0.49 KCAL/MOL
REMARK 923 INTER-LIGAND FREE ENERGY PREDICTED BY IDOCK:   -3.80 KCAL/MOL
REMARK 924 INTRA-LIGAND FREE ENERGY PREDICTED BY IDOCK:    4.29 KCAL/MOL
REMARK 927      BINDING AFFINITY PREDICTED BY RF-SCORE:    0.00 PKD
ROOT
HETATM    1  C   UNL     1      -9.899   7.506  69.332  1.00  0.00    -0.166 C  
HETATM    2  C   UNL     1      -9.505   6.259  70.214  1.00  0.00    -0.161 C  
HETATM    3  C   UNL     1      -9.665   6.345  71.744  1.00  0.00    -0.172 C  
HETATM    4  C   UNL     1      -9.311   9.244  67.441  1.00  0.00    -0.153 C  
HETATM    5  C   UNL     1     -10.713   7.313  72.266  1.00  0.00    -0.266 C  
HETATM    6  C   UNL     1      -9.605  10.298  68.465  1.00  0.00    -0.165 C  
HETATM    7  C   UNL     1     -10.498   9.348  66.465  1.00  0.00    -0.199 C  
HETATM    8  C   UNL     1     -10.073  10.044  69.687  1.00  0.00    -0.263 C  
HETATM    9  C   UNL     1     -10.667   8.595  71.490  1.00  0.00    -0.352 C  
HETATM   10  C   UNL     1     -10.400   7.582  73.751  1.00  0.00    -0.203 C  
HETATM   11  C   UNL     1     -10.239   8.710  70.218  1.00  0.00    -0.213 C  
HETATM   12  C   UNL     1      -8.950   7.856  68.106  1.00  0.00    -0.131 C  
ENDROOT
BRANCH   2  13
HETATM   13  O   UNL     1      -8.205   5.704  69.950  1.00  0.00    -0.105 OA 
BRANCH  13  14
HETATM   14  C   UNL     1      -7.197   6.538  69.581  1.00  0.00    -0.078 C  
HETATM   15  O   UNL     1      -6.914   6.856  68.425  1.00  0.00    -0.074 OA 
BRANCH  14  16
HETATM   16  C   UNL     1      -6.392   7.027  70.785  1.00  0.00    -0.043 C  
HETATM   17  C   UNL     1      -7.255   7.177  72.050  1.00  0.00    -0.076 C  
HETATM   18  C   UNL     1      -5.311   5.954  70.987  1.00  0.00    -0.013 C  
BRANCH  16  19
HETATM   19  C   UNL     1      -5.764   8.396  70.415  1.00  0.00    -0.028 C  
HETATM   20  C   UNL     1      -6.680   9.588  70.670  1.00  0.00    -0.110 C  
ENDBRANCH  16  19
ENDBRANCH  14  16
ENDBRANCH  13  14
ENDBRANCH   2  13
BRANCH  12  21
HETATM   21  C   UNL     1      -8.679   6.683  67.070  1.00  0.00    -0.113 C  
BRANCH  21  22
HETATM   22  C   UNL     1      -9.935   5.920  66.677  1.00  0.00    -0.214 C  
BRANCH  22  23
HETATM   23  C   UNL     1     -10.010   4.805  65.643  1.00  0.00    -0.176 C  
HETATM   24  C   UNL     1     -11.313   4.570  64.919  1.00  0.00     0.483 C  
HETATM   25  C   UNL     1     -10.994   3.647  63.742  1.00  0.00    -0.083 C  
HETATM   26  O   UNL     1     -10.301   4.369  62.720  1.00  0.00    -0.384 OA 
HETATM   27  C   UNL     1     -10.215   2.407  64.166  1.00  0.00     0.031 C  
HETATM   28  C   UNL     1      -9.181   2.644  65.244  1.00  0.00    -0.124 C  
HETATM   29  H   UNL     1     -10.103   3.796  61.988  1.00  0.00     0.000 HD 
HETATM   30  O   UNL     1      -8.172   1.959  65.351  1.00  0.00    -0.078 OA 
HETATM   31  O   UNL     1      -9.527   3.569  66.182  1.00  0.00    -0.175 OA 
ENDBRANCH  22  23
ENDBRANCH  21  22
ENDBRANCH  12  21
TORSDOF 7
ENDMDL
MODEL      234
REMARK 921   NORMALIZED FREE ENERGY PREDICTED BY IDOCK:    1.43 KCAL/MOL
REMARK 922        TOTAL FREE ENERGY PREDICTED BY IDOCK:    0.53 KCAL/MOL
REMARK 923 INTER-LIGAND FREE ENERGY PREDICTED BY IDOCK:   -3.67 KCAL/MOL
REMARK 924 INTRA-LIGAND FREE ENERGY PREDICTED BY IDOCK:    4.20 KCAL/MOL
REMARK 927      BINDING AFFINITY PREDICTED BY RF-SCORE:    0.00 PKD
ROOT
HETATM    1  C   UNL     1      -9.816   7.469  69.289  1.00  0.00    -0.170 C  
HETATM    2  C   UNL     1      -9.272   6.296  70.193  1.00  0.00    -0.157 C  
HETATM    3  C   UNL     1      -9.827   6.133  71.621  1.00  0.00    -0.191 C  
HETATM    4  C   UNL     1      -9.371   9.531  67.710  1.00  0.00    -0.143 C  
HETATM    5  C   UNL     1     -11.228   6.666  71.872  1.00  0.00    -0.302 C  
HETATM    6  C   UNL     1     -10.237  10.307  68.657  1.00  0.00    -0.196 C  
HETATM    7  C   UNL     1     -10.245   9.397  66.449  1.00  0.00    -0.300 C  
HETATM    8  C   UNL     1     -10.886   9.770  69.689  1.00  0.00    -0.274 C  
HETATM    9  C   UNL     1     -11.408   7.991  71.194  1.00  0.00    -0.292 C  
HETATM   10  C   UNL     1     -11.399   6.824  73.395  1.00  0.00     0.205 C  
HETATM   11  C   UNL     1     -10.737   8.391  70.097  1.00  0.00    -0.238 C  
HETATM   12  C   UNL     1      -8.758   8.242  68.390  1.00  0.00    -0.133 C  
ENDROOT
BRANCH   2  13
HETATM   13  O   UNL     1      -7.840   6.196  70.276  1.00  0.00    -0.098 OA 
BRANCH  13  14
HETATM   14  C   UNL     1      -7.120   7.312  70.565  1.00  0.00    -0.062 C  
HETATM   15  O   UNL     1      -6.863   8.225  69.778  1.00  0.00    -0.043 OA 
BRANCH  14  16
HETATM   16  C   UNL     1      -6.602   7.301  72.003  1.00  0.00    -0.054 C  
HETATM   17  C   UNL     1      -6.459   5.877  72.567  1.00  0.00    -0.066 C  
HETATM   18  C   UNL     1      -5.235   7.998  71.927  1.00  0.00    -0.035 C  
BRANCH  16  19
HETATM   19  C   UNL     1      -7.598   8.111  72.875  1.00  0.00    -0.181 C  
HETATM   20  C   UNL     1      -8.684   8.822  72.077  1.00  0.00    -0.160 C  
ENDBRANCH  16  19
ENDBRANCH  14  16
ENDBRANCH  13  14
ENDBRANCH   2  13
BRANCH  12  21
HETATM   21  C   UNL     1      -7.873   7.348  67.422  1.00  0.00    -0.111 C  
BRANCH  21  22
HETATM   22  C   UNL     1      -8.643   6.204  66.780  1.00  0.00    -0.111 C  
BRANCH  22  23
HETATM   23  C   UNL     1      -8.114   4.795  66.548  1.00  0.00    -0.107 C  
HETATM   24  C   UNL     1      -8.631   3.673  67.413  1.00  0.00    -0.114 C  
HETATM   25  C   UNL     1      -8.190   2.371  66.742  1.00  0.00    -0.085 C  
HETATM   26  O   UNL     1      -8.974   2.127  65.571  1.00  0.00    -0.125 OA 
HETATM   27  C   UNL     1      -6.699   2.355  66.420  1.00  0.00    -0.039 C  
HETATM   28  C   UNL     1      -6.137   3.678  65.950  1.00  0.00    -0.028 C  
HETATM   29  H   UNL     1      -8.701   1.318  65.154  1.00  0.00     0.000 HD 
HETATM   30  O   UNL     1      -5.169   3.754  65.204  1.00  0.00    -0.008 OA 
HETATM   31  O   UNL     1      -6.681   4.779  66.538  1.00  0.00    -0.051 OA 
ENDBRANCH  22  23
ENDBRANCH  21  22
ENDBRANCH  12  21
TORSDOF 7
ENDMDL
MODEL      235
REMARK 921   NORMALIZED FREE ENERGY PREDICTED BY IDOCK:    4.88 KCAL/MOL
REMARK 922        TOTAL FREE ENERGY PREDICTED BY IDOCK:    5.38 KCAL/MOL
REMARK 923 INTER-LIGAND FREE ENERGY PREDICTED BY IDOCK:    0.73 KCAL/MOL
REMARK 924 INTRA-LIGAND FREE ENERGY PREDICTED BY IDOCK:    4.65 KCAL/MOL
REMARK 927      BINDING AFFINITY PREDICTED BY RF-SCORE:    0.00 PKD
ROOT
HETATM    1  C   UNL     1      -8.219  13.994  68.510  1.00  0.00    -0.136 C  
HETATM    2  C   UNL     1      -8.536  12.450  68.555  1.00  0.00    -0.060 C  
HETATM    3  C   UNL     1      -7.561  11.508  69.287  1.00  0.00     0.075 C  
HETATM    4  C   UNL     1      -7.943  16.230  67.144  1.00  0.00    -0.220 C  
HETATM    5  C   UNL     1      -6.729  12.120  70.401  1.00  0.00     0.924 C  
HETATM    6  C   UNL     1      -6.574  16.308  67.751  1.00  0.00    -0.162 C  
HETATM    7  C   UNL     1      -8.718  17.354  67.855  1.00  0.00    -0.237 C  
HETATM    8  C   UNL     1      -6.113  15.456  68.667  1.00  0.00    -0.096 C  
HETATM    9  C   UNL     1      -6.226  13.471  69.988  1.00  0.00    -0.098 C  
HETATM   10  C   UNL     1      -5.543  11.173  70.669  1.00  0.00    -0.131 C  
HETATM   11  C   UNL     1      -6.832  14.279  69.098  1.00  0.00    -0.120 C  
HETATM   12  C   UNL     1      -8.508  14.754  67.144  1.00  0.00    -0.247 C  
ENDROOT
BRANCH   2  13
HETATM   13  O   UNL     1      -8.843  11.847  67.286  1.00  0.00    -0.166 OA 
BRANCH  13  14
HETATM   14  C   UNL     1      -8.113  10.776  66.874  1.00  0.00    -0.132 C  
HETATM   15  O   UNL     1      -7.171  10.811  66.082  1.00  0.00    -0.134 OA 
BRANCH  14  16
HETATM   16  C   UNL     1      -8.626   9.469  67.478  1.00  0.00    -0.126 C  
HETATM   17  C   UNL     1      -8.213   8.237  66.654  1.00  0.00    -0.106 C  
HETATM   18  C   UNL     1      -8.002   9.421  68.881  1.00  0.00    -0.087 C  
BRANCH  16  19
HETATM   19  C   UNL     1     -10.174   9.553  67.553  1.00  0.00    -0.283 C  
HETATM   20  C   UNL     1     -10.869   8.196  67.559  1.00  0.00    -0.109 C  
ENDBRANCH  16  19
ENDBRANCH  14  16
ENDBRANCH  13  14
ENDBRANCH   2  13
BRANCH  12  21
HETATM   21  C   UNL     1      -9.977  14.614  66.560  1.00  0.00    -0.292 C  
BRANCH  21  22
HETATM   22  C   UNL     1     -10.918  13.831  67.464  1.00  0.00    -0.285 C  
BRANCH  22  23
HETATM   23  C   UNL     1     -11.334  14.231  68.873  1.00  0.00    -0.274 C  
HETATM   24  C   UNL     1     -10.538  13.709  70.043  1.00  0.00     0.849 C  
HETATM   25  C   UNL     1     -10.969  14.529  71.260  1.00  0.00     0.741 C  
HETATM   26  O   UNL     1     -10.419  15.847  71.190  1.00  0.00     0.278 OA 
HETATM   27  C   UNL     1     -12.484  14.571  71.429  1.00  0.00    -0.423 C  
HETATM   28  C   UNL     1     -13.264  14.666  70.138  1.00  0.00     0.256 C  
HETATM   29  H   UNL     1     -10.687  16.357  71.946  1.00  0.00     0.000 HD 
HETATM   30  O   UNL     1     -14.368  15.194  70.071  1.00  0.00     1.464 OA 
HETATM   31  O   UNL     1     -12.729  13.984  69.088  1.00  0.00     0.069 OA 
ENDBRANCH  22  23
ENDBRANCH  21  22
ENDBRANCH  12  21
TORSDOF 7
ENDMDL
MODEL      236
REMARK 921   NORMALIZED FREE ENERGY PREDICTED BY IDOCK:   12.41 KCAL/MOL
REMARK 922        TOTAL FREE ENERGY PREDICTED BY IDOCK:   15.99 KCAL/MOL
REMARK 923 INTER-LIGAND FREE ENERGY PREDICTED BY IDOCK:   15.01 KCAL/MOL
REMARK 924 INTRA-LIGAND FREE ENERGY PREDICTED BY IDOCK:    0.98 KCAL/MOL
REMARK 927      BINDING AFFINITY PREDICTED BY RF-SCORE:    0.00 PKD
ROOT
HETATM    1  C   UNL     1      -9.018  16.192  68.409  1.00  0.00    -0.196 C  
HETATM    2  C   UNL     1      -9.704  17.595  68.185  1.00  0.00    -0.310 C  
HETATM    3  C   UNL     1      -9.541  18.297  66.824  1.00  0.00    -0.299 C  
HETATM    4  C   UNL     1      -7.495  14.598  69.853  1.00  0.00     0.117 C  
HETATM    5  C   UNL     1      -9.285  17.404  65.622  1.00  0.00     0.402 C  
HETATM    6  C   UNL     1      -6.681  14.422  68.607  1.00  0.00    -0.090 C  
HETATM    7  C   UNL     1      -8.202  13.240  70.018  1.00  0.00     2.602 C  
HETATM    8  C   UNL     1      -7.007  14.936  67.421  1.00  0.00    -0.162 C  
HETATM    9  C   UNL     1      -8.307  16.324  65.979  1.00  0.00    -0.099 C  
HETATM   10  C   UNL     1      -8.709  18.289  64.499  1.00  0.00     6.684 C  
HETATM   11  C   UNL     1      -8.124  15.831  67.218  1.00  0.00    -0.217 C  
HETATM   12  C   UNL     1      -8.341  15.934  69.824  1.00  0.00     0.236 C  
ENDROOT
BRANCH   2  13
HETATM   13  O   UNL     1      -9.450  18.575  69.207  1.00  0.00    -0.104 OA 
BRANCH  13  14
HETATM   14  C   UNL     1      -8.889  19.762  68.853  1.00  0.00    -0.105 C  
HETATM   15  O   UNL     1      -9.502  20.767  68.492  1.00  0.00     0.354 OA 
BRANCH  14  16
HETATM   16  C   UNL     1      -7.362  19.710  68.905  1.00  0.00    -0.373 C  
HETATM   17  C   UNL     1      -6.794  18.435  68.258  1.00  0.00    -0.245 C  
HETATM   18  C   UNL     1      -6.907  20.960  68.138  1.00  0.00    -0.162 C  
BRANCH  16  19
HETATM   19  C   UNL     1      -6.933  19.776  70.395  1.00  0.00     0.202 C  
HETATM   20  C   UNL     1      -5.438  19.583  70.619  1.00  0.00    -0.266 C  
ENDBRANCH  16  19
ENDBRANCH  14  16
ENDBRANCH  13  14
ENDBRANCH   2  13
BRANCH  12  21
HETATM   21  C   UNL     1      -9.267  16.151  71.096  1.00  0.00     4.003 C  
BRANCH  21  22
HETATM   22  C   UNL     1      -9.934  14.875  71.586  1.00  0.00     2.611 C  
BRANCH  22  23
HETATM   23  C   UNL     1     -11.435  14.642  71.695  1.00  0.00     0.059 C  
HETATM   24  C   UNL     1     -12.148  15.073  72.952  1.00  0.00    -0.428 C  
HETATM   25  C   UNL     1     -13.644  15.024  72.638  1.00  0.00    -0.463 C  
HETATM   26  O   UNL     1     -14.009  16.117  71.791  1.00  0.00    -0.085 OA 
HETATM   27  C   UNL     1     -14.072  13.691  72.033  1.00  0.00    -0.456 C  
HETATM   28  C   UNL     1     -13.076  13.082  71.072  1.00  0.00    -0.022 C  
HETATM   29  H   UNL     1     -14.939  16.088  71.597  1.00  0.00     0.000 HD 
HETATM   30  O   UNL     1     -13.413  12.345  70.154  1.00  0.00     1.257 OA 
HETATM   31  O   UNL     1     -11.768  13.282  71.392  1.00  0.00     0.562 OA 
ENDBRANCH  22  23
ENDBRANCH  21  22
ENDBRANCH  12  21
TORSDOF 7
ENDMDL
MODEL      237
REMARK 921   NORMALIZED FREE ENERGY PREDICTED BY IDOCK:   20.96 KCAL/MOL
REMARK 922        TOTAL FREE ENERGY PREDICTED BY IDOCK:   28.04 KCAL/MOL
REMARK 923 INTER-LIGAND FREE ENERGY PREDICTED BY IDOCK:    3.13 KCAL/MOL
REMARK 924 INTRA-LIGAND FREE ENERGY PREDICTED BY IDOCK:   24.91 KCAL/MOL
REMARK 927      BINDING AFFINITY PREDICTED BY RF-SCORE:    0.00 PKD
ROOT
HETATM    1  C   UNL     1      -8.191  14.141  68.610  1.00  0.00    -0.116 C  
HETATM    2  C   UNL     1      -8.597  12.694  68.132  1.00  0.00    -0.188 C  
HETATM    3  C   UNL     1      -7.864  11.477  68.726  1.00  0.00    -0.117 C  
HETATM    4  C   UNL     1      -7.493  16.620  68.052  1.00  0.00    -0.170 C  
HETATM    5  C   UNL     1      -7.266  11.652  70.112  1.00  0.00     1.048 C  
HETATM    6  C   UNL     1      -6.292  16.362  68.911  1.00  0.00    -0.150 C  
HETATM    7  C   UNL     1      -8.343  17.585  68.899  1.00  0.00    -0.147 C  
HETATM    8  C   UNL     1      -6.094  15.241  69.604  1.00  0.00    -0.137 C  
HETATM    9  C   UNL     1      -6.609  12.995  70.227  1.00  0.00     0.407 C  
HETATM   10  C   UNL     1      -6.224  10.534  70.314  1.00  0.00    -0.130 C  
HETATM   11  C   UNL     1      -6.955  14.084  69.516  1.00  0.00    -0.007 C  
HETATM   12  C   UNL     1      -8.126  15.279  67.503  1.00  0.00    -0.192 C  
ENDROOT
BRANCH   2  13
HETATM   13  O   UNL     1      -8.649  12.508  66.706  1.00  0.00    -0.183 OA 
BRANCH  13  14
HETATM   14  C   UNL     1      -7.645  11.823  66.096  1.00  0.00     0.387 C  
HETATM   15  O   UNL     1      -7.777  11.049  65.148  1.00  0.00     0.121 OA 
BRANCH  14  16
HETATM   16  C   UNL     1      -6.292  12.084  66.759  1.00  0.00     0.025 C  
HETATM   17  C   UNL     1      -5.213  11.084  66.307  1.00  0.00    -0.122 C  
HETATM   18  C   UNL     1      -5.923  13.513  66.334  1.00  0.00     3.583 C  
BRANCH  16  19
HETATM   19  C   UNL     1      -6.485  11.985  68.295  1.00  0.00    -0.053 C  
HETATM   20  C   UNL     1      -5.237  11.547  69.051  1.00  0.00    -0.043 C  
ENDBRANCH  16  19
ENDBRANCH  14  16
ENDBRANCH  13  14
ENDBRANCH   2  13
BRANCH  12  21
HETATM   21  C   UNL     1      -9.435  15.483  66.628  1.00  0.00    -0.281 C  
BRANCH  21  22
HETATM   22  C   UNL     1     -10.573  14.548  67.012  1.00  0.00    -0.278 C  
BRANCH  22  23
HETATM   23  C   UNL     1     -11.136  14.362  68.414  1.00  0.00    -0.255 C  
HETATM   24  C   UNL     1     -12.563  13.896  68.569  1.00  0.00     0.539 C  
HETATM   25  C   UNL     1     -12.727  13.486  70.033  1.00  0.00     0.054 C  
HETATM   26  O   UNL     1     -12.061  12.244  70.278  1.00  0.00    -0.341 OA 
HETATM   27  C   UNL     1     -12.253  14.567  70.999  1.00  0.00    -0.407 C  
HETATM   28  C   UNL     1     -11.016  15.315  70.556  1.00  0.00    -0.288 C  
HETATM   29  H   UNL     1     -12.163  11.990  71.188  1.00  0.00     0.000 HD 
HETATM   30  O   UNL     1     -10.230  15.818  71.350  1.00  0.00     0.804 OA 
HETATM   31  O   UNL     1     -10.919  15.529  69.215  1.00  0.00    -0.236 OA 
ENDBRANCH  22  23
ENDBRANCH  21  22
ENDBRANCH  12  21
TORSDOF 7
ENDMDL
MODEL      238
REMARK 921   NORMALIZED FREE ENERGY PREDICTED BY IDOCK:   75.69 KCAL/MOL
REMARK 922        TOTAL FREE ENERGY PREDICTED BY IDOCK:  105.17 KCAL/MOL
REMARK 923 INTER-LIGAND FREE ENERGY PREDICTED BY IDOCK:   61.94 KCAL/MOL
REMARK 924 INTRA-LIGAND FREE ENERGY PREDICTED BY IDOCK:   43.23 KCAL/MOL
REMARK 927      BINDING AFFINITY PREDICTED BY RF-SCORE:    0.00 PKD
ROOT
HETATM    1  C   UNL     1      -8.599  14.329  68.928  1.00  0.00    -0.030 C  
HETATM    2  C   UNL     1      -9.078  12.829  68.827  1.00  0.00     0.177 C  
HETATM    3  C   UNL     1      -8.957  11.921  70.065  1.00  0.00     2.967 C  
HETATM    4  C   UNL     1      -7.194  16.347  67.980  1.00  0.00    -0.145 C  
HETATM    5  C   UNL     1      -8.976  12.609  71.420  1.00  0.00    15.687 C  
HETATM    6  C   UNL     1      -6.558  16.403  69.335  1.00  0.00    -0.210 C  
HETATM    7  C   UNL     1      -8.082  17.605  67.944  1.00  0.00    -0.233 C  
HETATM    8  C   UNL     1      -6.927  15.644  70.368  1.00  0.00     0.517 C  
HETATM    9  C   UNL     1      -8.145  13.857  71.378  1.00  0.00     6.387 C  
HETATM   10  C   UNL     1      -8.396  11.622  72.451  1.00  0.00    18.228 C  
HETATM   11  C   UNL     1      -7.907  14.586  70.272  1.00  0.00     0.935 C  
HETATM   12  C   UNL     1      -7.820  14.927  67.678  1.00  0.00    -0.189 C  
ENDROOT
BRANCH   2  13
HETATM   13  O   UNL     1      -8.565  12.093  67.703  1.00  0.00    -0.149 OA 
BRANCH  13  14
HETATM   14  C   UNL     1      -7.250  11.750  67.689  1.00  0.00    -0.111 C  
HETATM   15  O   UNL     1      -6.783  10.714  67.212  1.00  0.00    -0.073 OA 
BRANCH  14  16
HETATM   16  C   UNL     1      -6.379  12.793  68.390  1.00  0.00    -0.078 C  
HETATM   17  C   UNL     1      -5.184  12.164  69.126  1.00  0.00    -0.055 C  
HETATM   18  C   UNL     1      -5.901  13.718  67.261  1.00  0.00     0.454 C  
BRANCH  16  19
HETATM   19  C   UNL     1      -7.273  13.557  69.402  1.00  0.00     0.182 C  
HETATM   20  C   UNL     1      -7.211  13.008  70.822  1.00  0.00     3.180 C  
ENDBRANCH  16  19
ENDBRANCH  14  16
ENDBRANCH  13  14
ENDBRANCH   2  13
BRANCH  12  21
HETATM   21  C   UNL     1      -8.557  14.819  66.275  1.00  0.00     0.197 C  
BRANCH  21  22
HETATM   22  C   UNL     1     -10.045  14.524  66.392  1.00  0.00    -0.293 C  
BRANCH  22  23
HETATM   23  C   UNL     1     -11.089  15.446  67.008  1.00  0.00    -0.273 C  
HETATM   24  C   UNL     1     -12.467  15.494  66.397  1.00  0.00     1.412 C  
HETATM   25  C   UNL     1     -13.361  16.222  67.403  1.00  0.00     5.784 C  
HETATM   26  O   UNL     1     -13.643  15.374  68.519  1.00  0.00     2.742 OA 
HETATM   27  C   UNL     1     -12.768  17.552  67.856  1.00  0.00     5.026 C  
HETATM   28  C   UNL     1     -11.267  17.547  68.041  1.00  0.00     0.197 C  
HETATM   29  H   UNL     1     -14.199  15.825  69.144  1.00  0.00     0.000 HD 
HETATM   30  O   UNL     1     -10.698  18.289  68.833  1.00  0.00     0.021 OA 
HETATM   31  O   UNL     1     -10.578  16.776  67.155  1.00  0.00    -0.315 OA 
ENDBRANCH  22  23
ENDBRANCH  21  22
ENDBRANCH  12  21
TORSDOF 7
ENDMDL
